MODEL 1
REMARK VINA RESULT:     -10.9      0.000      0.000
REMARK SMILES O=C(NCCCCNC(=O)C1(Cc2nccs2)CC1)c1ccc(-c2c3nc(c(-c4c(F)cccc4F)c4ccc([nH]4)c(-c4c(F)cccc4F)c4nc(c(-c5c(F)cccc5F)c5ccc2[nH]5)C=C4)C=C3)cc1
REMARK SMILES IDX 5 1 4 2 3 3 1 4 2 5 20 7 21 8 73 9 22 10 72 11 23 12 24 13
REMARK SMILES IDX 25 14 66 15 26 16 71 17 65 18 67 19 27 20 70 21 64 22 63 23
REMARK SMILES IDX 28 25 54 26 37 27 53 28 38 29 41 30 52 31 68 32 39 33 40 34
REMARK SMILES IDX 51 36 69 37 42 38 29 39 30 40 35 41 31 42 32 43 34 44 36 45
REMARK SMILES IDX 33 46 55 47 56 48 61 49 57 50 58 51 60 52 62 53 59 54 43 55
REMARK SMILES IDX 44 56 49 57 45 58 46 59 48 60 50 61 47 62 6 63 7 64 8 65
REMARK SMILES IDX 9 66 10 68 11 69 18 70 19 71 12 72 13 73 14 74 17 75 15 76
REMARK SMILES IDX 16 77
REMARK H PARENT 3 6 67 24 41 35 8 67
REMARK Flexibility Score: inf
ROOT
ATOM      1  C   UNL A   1      37.190  23.243  25.185  1.00  0.00     0.023 C 
ENDROOT
BRANCH   1   2
ATOM      2  C   UNL A   1      38.038  23.966  26.213  1.00  0.00     0.116 C 
BRANCH   2   3
ATOM      3  N   UNL A   1      39.470  23.752  26.015  1.00  0.00    -0.352 N 
ATOM      4  O   UNL A   1      41.678  24.213  26.131  1.00  0.00    -0.269 OA
ATOM      5  C   UNL A   1      40.536  24.471  26.502  1.00  0.00     0.251 C 
ATOM      6  H   UNL A   1      39.705  22.980  25.450  1.00  0.00     0.163 HD
BRANCH   5   7
ATOM      7  C   UNL A   1      40.295  25.589  27.440  1.00  0.00     0.039 A 
ATOM      8  C   UNL A   1      40.948  26.806  27.263  1.00  0.00     0.014 A 
ATOM      9  C   UNL A   1      39.447  25.402  28.535  1.00  0.00     0.014 A 
ATOM     10  C   UNL A   1      40.928  27.747  28.279  1.00  0.00     0.010 A 
ATOM     11  C   UNL A   1      39.319  26.412  29.494  1.00  0.00     0.010 A 
ATOM     12  C   UNL A   1      40.096  27.575  29.397  1.00  0.00    -0.014 A 
BRANCH  12  13
ATOM     13  C   UNL A   1      40.043  28.661  30.410  1.00  0.00     0.031 A 
ATOM     14  C   UNL A   1      39.000  29.742  30.349  1.00  0.00     0.074 A 
ATOM     15  C   UNL A   1      40.909  28.611  31.441  1.00  0.00     0.049 A 
ATOM     16  N   UNL A   1      38.798  30.735  31.178  1.00  0.00    -0.248 NA
ATOM     17  C   UNL A   1      38.072  29.721  29.208  1.00  0.00     0.031 C 
ATOM     18  C   UNL A   1      41.969  27.610  31.601  1.00  0.00     0.029 A 
ATOM     19  N   UNL A   1      41.010  29.378  32.572  1.00  0.00    -0.354 N 
ATOM     20  C   UNL A   1      37.757  31.481  30.639  1.00  0.00     0.074 A 
ATOM     21  C   UNL A   1      37.370  30.829  29.406  1.00  0.00     0.031 C 
ATOM     22  C   UNL A   1      42.544  27.762  32.801  1.00  0.00     0.029 A 
ATOM     23  C   UNL A   1      41.959  28.925  33.455  1.00  0.00     0.049 A 
ATOM     24  H   UNL A   1      40.457  30.176  32.735  1.00  0.00     0.167 HD
ATOM     25  C   UNL A   1      37.182  32.606  31.128  1.00  0.00     0.037 A 
ATOM     26  C   UNL A   1      42.330  29.396  34.659  1.00  0.00     0.037 A 
ATOM     27  C   UNL A   1      37.546  33.221  32.380  1.00  0.00     0.049 A 
ATOM     28  C   UNL A   1      41.657  30.625  35.189  1.00  0.00     0.074 A 
ATOM     29  C   UNL A   1      37.007  34.346  32.978  1.00  0.00     0.029 A 
ATOM     30  N   UNL A   1      38.535  32.752  33.232  1.00  0.00    -0.354 N 
ATOM     31  N   UNL A   1      40.682  31.323  34.659  1.00  0.00    -0.248 NA
ATOM     32  C   UNL A   1      42.146  31.142  36.472  1.00  0.00     0.031 C 
ATOM     33  C   UNL A   1      37.693  34.578  34.176  1.00  0.00     0.029 A 
ATOM     34  C   UNL A   1      38.630  33.572  34.345  1.00  0.00     0.049 A 
ATOM     35  H   UNL A   1      39.088  31.953  33.070  1.00  0.00     0.167 HD
ATOM     36  C   UNL A   1      40.435  32.360  35.546  1.00  0.00     0.074 A 
ATOM     37  C   UNL A   1      41.344  32.181  36.661  1.00  0.00     0.031 C 
ATOM     38  C   UNL A   1      39.542  33.374  35.442  1.00  0.00     0.037 A 
BRANCH  25  39
ATOM     39  C   UNL A   1      36.122  33.266  30.295  1.00  0.00     0.057 A 
ATOM     40  C   UNL A   1      36.426  34.001  29.142  1.00  0.00     0.134 A 
ATOM     41  C   UNL A   1      34.768  33.129  30.632  1.00  0.00     0.134 A 
ATOM     42  F   UNL A   1      37.701  34.183  28.770  1.00  0.00    -0.206 F 
ATOM     43  C   UNL A   1      35.425  34.593  28.367  1.00  0.00     0.040 A 
ATOM     44  C   UNL A   1      33.758  33.695  29.853  1.00  0.00     0.040 A 
ATOM     45  F   UNL A   1      34.405  32.432  31.720  1.00  0.00    -0.206 F 
ATOM     46  C   UNL A   1      34.086  34.434  28.719  1.00  0.00     0.006 A 
ENDBRANCH  25  39
BRANCH  26  47
ATOM     47  C   UNL A   1      43.392  28.704  35.429  1.00  0.00     0.057 A 
ATOM     48  C   UNL A   1      43.075  27.717  36.369  1.00  0.00     0.134 A 
ATOM     49  C   UNL A   1      44.747  28.986  35.220  1.00  0.00     0.134 A 
ATOM     50  F   UNL A   1      41.795  27.411  36.624  1.00  0.00    -0.206 F 
ATOM     51  C   UNL A   1      44.069  27.041  37.081  1.00  0.00     0.040 A 
ATOM     52  C   UNL A   1      45.752  28.299  35.902  1.00  0.00     0.040 A 
ATOM     53  F   UNL A   1      45.116  29.913  34.323  1.00  0.00    -0.206 F 
ATOM     54  C   UNL A   1      45.412  27.327  36.840  1.00  0.00     0.006 A 
ENDBRANCH  26  47
BRANCH  38  55
ATOM     55  C   UNL A   1      39.498  34.346  36.582  1.00  0.00     0.057 A 
ATOM     56  C   UNL A   1      40.182  35.566  36.536  1.00  0.00     0.134 A 
ATOM     57  C   UNL A   1      38.760  34.056  37.735  1.00  0.00     0.134 A 
ATOM     58  F   UNL A   1      40.920  35.892  35.464  1.00  0.00    -0.206 F 
ATOM     59  C   UNL A   1      40.156  36.455  37.611  1.00  0.00     0.040 A 
ATOM     60  C   UNL A   1      38.707  34.947  38.808  1.00  0.00     0.040 A 
ATOM     61  F   UNL A   1      38.079  32.905  37.838  1.00  0.00    -0.206 F 
ATOM     62  C   UNL A   1      39.413  36.147  38.750  1.00  0.00     0.006 A 
ENDBRANCH  38  55
ENDBRANCH  12  13
ENDBRANCH   5   7
ENDBRANCH   2   3
ENDBRANCH   1   2
BRANCH   1  63
ATOM     63  C   UNL A   1      37.462  21.741  25.141  1.00  0.00     0.023 C 
BRANCH  63  64
ATOM     64  C   UNL A   1      36.232  20.855  24.941  1.00  0.00     0.116 C 
BRANCH  64  65
ATOM     65  N   UNL A   1      35.289  20.930  26.036  1.00  0.00    -0.356 N 
ATOM     66  C   UNL A   1      33.931  21.079  26.100  1.00  0.00     0.226 C 
ATOM     67  H   UNL A   1      35.715  20.857  26.921  1.00  0.00     0.163 HD
ATOM     68  O   UNL A   1      33.428  21.082  27.224  1.00  0.00    -0.274 OA
BRANCH  66  69
ATOM     69  C   UNL A   1      33.038  21.112  24.875  1.00  0.00     0.056 C 
ATOM     70  C   UNL A   1      31.837  22.055  24.947  1.00  0.00     0.018 C 
ATOM     71  C   UNL A   1      33.014  22.441  24.108  1.00  0.00     0.018 C 
BRANCH  69  72
ATOM     72  C   UNL A   1      32.904  19.891  23.972  1.00  0.00     0.084 C 
BRANCH  72  73
ATOM     73  C   UNL A   1      33.055  18.549  24.633  1.00  0.00     0.094 A 
ATOM     74  N   UNL A   1      32.164  17.988  25.422  1.00  0.00    -0.250 NA
ATOM     75  S   UNL A   1      34.419  17.560  24.251  1.00  0.00    -0.127 S 
ATOM     76  C   UNL A   1      32.525  16.686  25.692  1.00  0.00     0.123 A 
ATOM     77  C   UNL A   1      33.698  16.263  25.108  1.00  0.00     0.087 A 
ENDBRANCH  72  73
ENDBRANCH  69  72
ENDBRANCH  66  69
ENDBRANCH  64  65
ENDBRANCH  63  64
ENDBRANCH   1  63
TORSDOF 13
ENDMDL
MODEL 2
REMARK VINA RESULT:     -10.8      4.602      9.027
REMARK SMILES O=C(NCCCCNC(=O)C1(Cc2nccs2)CC1)c1ccc(-c2c3nc(c(-c4c(F)cccc4F)c4ccc([nH]4)c(-c4c(F)cccc4F)c4nc(c(-c5c(F)cccc5F)c5ccc2[nH]5)C=C4)C=C3)cc1
REMARK SMILES IDX 5 1 4 2 3 3 1 4 2 5 20 7 21 8 73 9 22 10 72 11 23 12 24 13
REMARK SMILES IDX 25 14 66 15 26 16 71 17 65 18 67 19 27 20 70 21 64 22 63 23
REMARK SMILES IDX 28 25 54 26 37 27 53 28 38 29 41 30 52 31 68 32 39 33 40 34
REMARK SMILES IDX 51 36 69 37 42 38 29 39 30 40 35 41 31 42 32 43 34 44 36 45
REMARK SMILES IDX 33 46 55 47 56 48 61 49 57 50 58 51 60 52 62 53 59 54 43 55
REMARK SMILES IDX 44 56 49 57 45 58 46 59 48 60 50 61 47 62 6 63 7 64 8 65
REMARK SMILES IDX 9 66 10 68 11 69 18 70 19 71 12 72 13 73 14 74 17 75 15 76
REMARK SMILES IDX 16 77
REMARK H PARENT 3 6 67 24 41 35 8 67
REMARK Flexibility Score: inf
ROOT
ATOM      1  C   UNL A   1      31.518  31.956  26.938  1.00  0.00     0.023 C 
ENDROOT
BRANCH   1   2
ATOM      2  C   UNL A   1      32.527  33.072  26.746  1.00  0.00     0.116 C 
BRANCH   2   3
ATOM      3  N   UNL A   1      32.279  34.214  27.623  1.00  0.00    -0.352 N 
ATOM      4  O   UNL A   1      32.529  35.537  29.436  1.00  0.00    -0.269 OA
ATOM      5  C   UNL A   1      32.956  34.611  28.753  1.00  0.00     0.251 C 
ATOM      6  H   UNL A   1      31.515  34.781  27.369  1.00  0.00     0.163 HD
BRANCH   5   7
ATOM      7  C   UNL A   1      34.177  33.886  29.164  1.00  0.00     0.039 A 
ATOM      8  C   UNL A   1      34.079  32.695  29.879  1.00  0.00     0.014 A 
ATOM      9  C   UNL A   1      35.434  34.427  28.875  1.00  0.00     0.014 A 
ATOM     10  C   UNL A   1      35.206  32.166  30.486  1.00  0.00     0.010 A 
ATOM     11  C   UNL A   1      36.586  33.812  29.376  1.00  0.00     0.010 A 
ATOM     12  C   UNL A   1      36.478  32.702  30.225  1.00  0.00    -0.014 A 
BRANCH  12  13
ATOM     13  C   UNL A   1      37.661  32.036  30.828  1.00  0.00     0.031 A 
ATOM     14  C   UNL A   1      38.052  32.275  32.260  1.00  0.00     0.074 A 
ATOM     15  C   UNL A   1      38.338  31.142  30.080  1.00  0.00     0.049 A 
ATOM     16  N   UNL A   1      39.033  31.741  32.943  1.00  0.00    -0.248 NA
ATOM     17  C   UNL A   1      37.255  33.247  33.024  1.00  0.00     0.031 C 
ATOM     18  C   UNL A   1      38.051  30.834  28.675  1.00  0.00     0.029 A 
ATOM     19  N   UNL A   1      39.364  30.293  30.399  1.00  0.00    -0.354 N 
ATOM     20  C   UNL A   1      39.002  32.341  34.195  1.00  0.00     0.074 A 
ATOM     21  C   UNL A   1      37.906  33.286  34.179  1.00  0.00     0.031 C 
ATOM     22  C   UNL A   1      38.809  29.801  28.285  1.00  0.00     0.029 A 
ATOM     23  C   UNL A   1      39.699  29.436  29.379  1.00  0.00     0.049 A 
ATOM     24  H   UNL A   1      39.817  30.296  31.273  1.00  0.00     0.167 HD
ATOM     25  C   UNL A   1      39.815  32.123  35.257  1.00  0.00     0.037 A 
ATOM     26  C   UNL A   1      40.629  28.466  29.321  1.00  0.00     0.037 A 
ATOM     27  C   UNL A   1      40.875  31.146  35.276  1.00  0.00     0.049 A 
ATOM     28  C   UNL A   1      41.495  28.227  30.520  1.00  0.00     0.074 A 
ATOM     29  C   UNL A   1      41.738  30.830  36.310  1.00  0.00     0.029 A 
ATOM     30  N   UNL A   1      41.207  30.320  34.213  1.00  0.00    -0.354 N 
ATOM     31  N   UNL A   1      41.458  28.812  31.693  1.00  0.00    -0.248 NA
ATOM     32  C   UNL A   1      42.542  27.207  30.384  1.00  0.00     0.031 C 
ATOM     33  C   UNL A   1      42.614  29.834  35.861  1.00  0.00     0.029 A 
ATOM     34  C   UNL A   1      42.269  29.502  34.562  1.00  0.00     0.049 A 
ATOM     35  H   UNL A   1      40.754  30.315  33.338  1.00  0.00     0.167 HD
ATOM     36  C   UNL A   1      42.471  28.231  32.438  1.00  0.00     0.074 A 
ATOM     37  C   UNL A   1      43.086  27.225  31.593  1.00  0.00     0.031 C 
ATOM     38  C   UNL A   1      42.864  28.508  33.704  1.00  0.00     0.037 A 
BRANCH  25  39
ATOM     39  C   UNL A   1      39.615  32.977  36.476  1.00  0.00     0.057 A 
ATOM     40  C   UNL A   1      38.709  32.636  37.487  1.00  0.00     0.134 A 
ATOM     41  C   UNL A   1      40.374  34.141  36.657  1.00  0.00     0.134 A 
ATOM     42  F   UNL A   1      37.941  31.543  37.371  1.00  0.00    -0.206 F 
ATOM     43  C   UNL A   1      38.549  33.432  38.624  1.00  0.00     0.040 A 
ATOM     44  C   UNL A   1      40.241  34.932  37.800  1.00  0.00     0.040 A 
ATOM     45  F   UNL A   1      41.266  34.524  35.731  1.00  0.00    -0.206 F 
ATOM     46  C   UNL A   1      39.323  34.581  38.786  1.00  0.00     0.006 A 
ENDBRANCH  25  39
BRANCH  26  47
ATOM     47  C   UNL A   1      40.784  27.663  28.083  1.00  0.00     0.057 A 
ATOM     48  C   UNL A   1      41.612  28.096  27.041  1.00  0.00     0.134 A 
ATOM     49  C   UNL A   1      40.137  26.432  27.925  1.00  0.00     0.134 A 
ATOM     50  F   UNL A   1      42.248  29.273  27.127  1.00  0.00    -0.206 F 
ATOM     51  C   UNL A   1      41.784  27.335  25.883  1.00  0.00     0.040 A 
ATOM     52  C   UNL A   1      40.322  25.648  26.787  1.00  0.00     0.040 A 
ATOM     53  F   UNL A   1      39.339  25.958  28.894  1.00  0.00    -0.206 F 
ATOM     54  C   UNL A   1      41.144  26.103  25.758  1.00  0.00     0.006 A 
ENDBRANCH  26  47
BRANCH  38  55
ATOM     55  C   UNL A   1      43.995  27.691  34.250  1.00  0.00     0.057 A 
ATOM     56  C   UNL A   1      45.323  28.128  34.173  1.00  0.00     0.134 A 
ATOM     57  C   UNL A   1      43.750  26.455  34.859  1.00  0.00     0.134 A 
ATOM     58  F   UNL A   1      45.622  29.295  33.584  1.00  0.00    -0.206 F 
ATOM     59  C   UNL A   1      46.374  27.349  34.660  1.00  0.00     0.040 A 
ATOM     60  C   UNL A   1      44.790  25.678  35.371  1.00  0.00     0.040 A 
ATOM     61  F   UNL A   1      42.499  25.984  34.967  1.00  0.00    -0.206 F 
ATOM     62  C   UNL A   1      46.107  26.122  35.265  1.00  0.00     0.006 A 
ENDBRANCH  38  55
ENDBRANCH  12  13
ENDBRANCH   5   7
ENDBRANCH   2   3
ENDBRANCH   1   2
BRANCH   1  63
ATOM     63  C   UNL A   1      32.148  30.567  26.868  1.00  0.00     0.023 C 
BRANCH  63  64
ATOM     64  C   UNL A   1      31.514  29.607  25.861  1.00  0.00     0.116 C 
BRANCH  64  65
ATOM     65  N   UNL A   1      32.151  29.638  24.562  1.00  0.00    -0.356 N 
ATOM     66  C   UNL A   1      31.917  28.985  23.383  1.00  0.00     0.226 C 
ATOM     67  H   UNL A   1      32.914  30.260  24.518  1.00  0.00     0.163 HD
ATOM     68  O   UNL A   1      32.655  29.268  22.439  1.00  0.00    -0.274 OA
BRANCH  66  69
ATOM     69  C   UNL A   1      30.740  28.053  23.167  1.00  0.00     0.056 C 
ATOM     70  C   UNL A   1      31.002  26.841  22.273  1.00  0.00     0.018 C 
ATOM     71  C   UNL A   1      30.897  26.643  23.751  1.00  0.00     0.018 C 
BRANCH  69  72
ATOM     72  C   UNL A   1      29.309  28.574  23.222  1.00  0.00     0.084 C 
BRANCH  72  73
ATOM     73  C   UNL A   1      29.050  29.893  22.546  1.00  0.00     0.094 A 
ATOM     74  N   UNL A   1      28.900  30.064  21.250  1.00  0.00    -0.250 NA
ATOM     75  S   UNL A   1      28.777  31.303  23.506  1.00  0.00    -0.127 S 
ATOM     76  C   UNL A   1      28.479  31.350  20.990  1.00  0.00     0.123 A 
ATOM     77  C   UNL A   1      28.316  32.156  22.093  1.00  0.00     0.087 A 
ENDBRANCH  72  73
ENDBRANCH  69  72
ENDBRANCH  66  69
ENDBRANCH  64  65
ENDBRANCH  63  64
ENDBRANCH   1  63
TORSDOF 13
ENDMDL
MODEL 3
REMARK VINA RESULT:     -10.8      5.149      9.124
REMARK SMILES O=C(NCCCCNC(=O)C1(Cc2nccs2)CC1)c1ccc(-c2c3nc(c(-c4c(F)cccc4F)c4ccc([nH]4)c(-c4c(F)cccc4F)c4nc(c(-c5c(F)cccc5F)c5ccc2[nH]5)C=C4)C=C3)cc1
REMARK SMILES IDX 5 1 4 2 3 3 1 4 2 5 20 7 21 8 73 9 22 10 72 11 23 12 24 13
REMARK SMILES IDX 25 14 66 15 26 16 71 17 65 18 67 19 27 20 70 21 64 22 63 23
REMARK SMILES IDX 28 25 54 26 37 27 53 28 38 29 41 30 52 31 68 32 39 33 40 34
REMARK SMILES IDX 51 36 69 37 42 38 29 39 30 40 35 41 31 42 32 43 34 44 36 45
REMARK SMILES IDX 33 46 55 47 56 48 61 49 57 50 58 51 60 52 62 53 59 54 43 55
REMARK SMILES IDX 44 56 49 57 45 58 46 59 48 60 50 61 47 62 6 63 7 64 8 65
REMARK SMILES IDX 9 66 10 68 11 69 18 70 19 71 12 72 13 73 14 74 17 75 15 76
REMARK SMILES IDX 16 77
REMARK H PARENT 3 6 67 24 41 35 8 67
REMARK Flexibility Score: inf
ROOT
ATOM      1  C   UNL A   1      38.324  20.123  24.674  1.00  0.00     0.023 C 
ENDROOT
BRANCH   1   2
ATOM      2  C   UNL A   1      39.205  20.149  25.908  1.00  0.00     0.116 C 
BRANCH   2   3
ATOM      3  N   UNL A   1      40.201  19.080  25.913  1.00  0.00    -0.352 N 
ATOM      4  O   UNL A   1      42.262  18.158  25.966  1.00  0.00    -0.269 OA
ATOM      5  C   UNL A   1      41.559  19.154  26.117  1.00  0.00     0.251 C 
ATOM      6  H   UNL A   1      39.849  18.176  25.744  1.00  0.00     0.163 HD
BRANCH   5   7
ATOM      7  C   UNL A   1      42.174  20.449  26.476  1.00  0.00     0.039 A 
ATOM      8  C   UNL A   1      42.271  20.834  27.812  1.00  0.00     0.014 A 
ATOM      9  C   UNL A   1      42.613  21.311  25.466  1.00  0.00     0.014 A 
ATOM     10  C   UNL A   1      42.598  22.142  28.124  1.00  0.00     0.010 A 
ATOM     11  C   UNL A   1      43.074  22.589  25.796  1.00  0.00     0.010 A 
ATOM     12  C   UNL A   1      43.026  23.032  27.126  1.00  0.00    -0.014 A 
BRANCH  12  13
ATOM     13  C   UNL A   1      43.454  24.395  27.532  1.00  0.00     0.031 A 
ATOM     14  C   UNL A   1      44.878  24.851  27.377  1.00  0.00     0.074 A 
ATOM     15  C   UNL A   1      42.512  25.252  27.974  1.00  0.00     0.049 A 
ATOM     16  N   UNL A   1      45.400  26.021  27.649  1.00  0.00    -0.248 NA
ATOM     17  C   UNL A   1      45.849  23.870  26.867  1.00  0.00     0.031 C 
ATOM     18  C   UNL A   1      41.097  24.918  28.171  1.00  0.00     0.029 A 
ATOM     19  N   UNL A   1      42.580  26.584  28.287  1.00  0.00    -0.354 N 
ATOM     20  C   UNL A   1      46.760  25.905  27.390  1.00  0.00     0.074 A 
ATOM     21  C   UNL A   1      46.987  24.548  26.942  1.00  0.00     0.031 C 
ATOM     22  C   UNL A   1      40.417  26.031  28.473  1.00  0.00     0.029 A 
ATOM     23  C   UNL A   1      41.358  27.138  28.582  1.00  0.00     0.049 A 
ATOM     24  H   UNL A   1      43.422  27.094  28.300  1.00  0.00     0.167 HD
ATOM     25  C   UNL A   1      47.727  26.845  27.516  1.00  0.00     0.037 A 
ATOM     26  C   UNL A   1      41.026  28.398  28.915  1.00  0.00     0.037 A 
ATOM     27  C   UNL A   1      47.482  28.208  27.920  1.00  0.00     0.049 A 
ATOM     28  C   UNL A   1      42.112  29.424  29.019  1.00  0.00     0.074 A 
ATOM     29  C   UNL A   1      48.388  29.244  28.053  1.00  0.00     0.029 A 
ATOM     30  N   UNL A   1      46.236  28.724  28.242  1.00  0.00    -0.354 N 
ATOM     31  N   UNL A   1      43.394  29.294  28.781  1.00  0.00    -0.248 NA
ATOM     32  C   UNL A   1      41.710  30.767  29.455  1.00  0.00     0.031 C 
ATOM     33  C   UNL A   1      47.695  30.380  28.489  1.00  0.00     0.029 A 
ATOM     34  C   UNL A   1      46.350  30.061  28.586  1.00  0.00     0.049 A 
ATOM     35  H   UNL A   1      45.393  28.214  28.229  1.00  0.00     0.167 HD
ATOM     36  C   UNL A   1      43.954  30.537  29.032  1.00  0.00     0.074 A 
ATOM     37  C   UNL A   1      42.865  31.416  29.414  1.00  0.00     0.031 C 
ATOM     38  C   UNL A   1      45.253  30.915  28.962  1.00  0.00     0.037 A 
BRANCH  25  39
ATOM     39  C   UNL A   1      49.145  26.428  27.249  1.00  0.00     0.057 A 
ATOM     40  C   UNL A   1      49.720  26.510  25.975  1.00  0.00     0.134 A 
ATOM     41  C   UNL A   1      49.959  25.977  28.296  1.00  0.00     0.134 A 
ATOM     42  F   UNL A   1      48.992  26.920  24.926  1.00  0.00    -0.206 F 
ATOM     43  C   UNL A   1      51.047  26.136  25.747  1.00  0.00     0.040 A 
ATOM     44  C   UNL A   1      51.293  25.623  28.086  1.00  0.00     0.040 A 
ATOM     45  F   UNL A   1      49.475  25.881  29.543  1.00  0.00    -0.206 F 
ATOM     46  C   UNL A   1      51.840  25.698  26.807  1.00  0.00     0.006 A 
ENDBRANCH  25  39
BRANCH  26  47
ATOM     47  C   UNL A   1      39.607  28.744  29.177  1.00  0.00     0.057 A 
ATOM     48  C   UNL A   1      38.771  29.192  28.148  1.00  0.00     0.134 A 
ATOM     49  C   UNL A   1      39.045  28.605  30.451  1.00  0.00     0.134 A 
ATOM     50  F   UNL A   1      39.254  29.359  26.908  1.00  0.00    -0.206 F 
ATOM     51  C   UNL A   1      37.428  29.495  28.379  1.00  0.00     0.040 A 
ATOM     52  C   UNL A   1      37.698  28.876  30.691  1.00  0.00     0.040 A 
ATOM     53  F   UNL A   1      39.792  28.169  31.477  1.00  0.00    -0.206 F 
ATOM     54  C   UNL A   1      36.887  29.329  29.653  1.00  0.00     0.006 A 
ENDBRANCH  26  47
BRANCH  38  55
ATOM     55  C   UNL A   1      45.551  32.348  29.282  1.00  0.00     0.057 A 
ATOM     56  C   UNL A   1      45.524  33.344  28.298  1.00  0.00     0.134 A 
ATOM     57  C   UNL A   1      45.867  32.734  30.590  1.00  0.00     0.134 A 
ATOM     58  F   UNL A   1      45.245  33.032  27.023  1.00  0.00    -0.206 F 
ATOM     59  C   UNL A   1      45.827  34.672  28.599  1.00  0.00     0.040 A 
ATOM     60  C   UNL A   1      46.149  34.063  30.908  1.00  0.00     0.040 A 
ATOM     61  F   UNL A   1      45.905  31.828  31.577  1.00  0.00    -0.206 F 
ATOM     62  C   UNL A   1      46.137  35.034  29.909  1.00  0.00     0.006 A 
ENDBRANCH  38  55
ENDBRANCH  12  13
ENDBRANCH   5   7
ENDBRANCH   2   3
ENDBRANCH   1   2
BRANCH   1  63
ATOM     63  C   UNL A   1      36.835  20.183  25.006  1.00  0.00     0.023 C 
BRANCH  63  64
ATOM     64  C   UNL A   1      36.325  21.537  25.500  1.00  0.00     0.116 C 
BRANCH  64  65
ATOM     65  N   UNL A   1      35.342  21.428  26.556  1.00  0.00    -0.356 N 
ATOM     66  C   UNL A   1      33.976  21.382  26.568  1.00  0.00     0.226 C 
ATOM     67  H   UNL A   1      35.742  21.376  27.454  1.00  0.00     0.163 HD
ATOM     68  O   UNL A   1      33.436  21.262  27.668  1.00  0.00    -0.274 OA
BRANCH  66  69
ATOM     69  C   UNL A   1      33.132  21.345  25.308  1.00  0.00     0.056 C 
ATOM     70  C   UNL A   1      31.749  21.987  25.409  1.00  0.00     0.018 C 
ATOM     71  C   UNL A   1      32.831  22.709  24.673  1.00  0.00     0.018 C 
BRANCH  69  72
ATOM     72  C   UNL A   1      33.301  20.227  24.286  1.00  0.00     0.084 C 
BRANCH  72  73
ATOM     73  C   UNL A   1      33.257  18.821  24.819  1.00  0.00     0.094 A 
ATOM     74  N   UNL A   1      32.282  18.316  25.544  1.00  0.00    -0.250 NA
ATOM     75  S   UNL A   1      34.482  17.695  24.354  1.00  0.00    -0.127 S 
ATOM     76  C   UNL A   1      32.459  16.958  25.692  1.00  0.00     0.123 A 
ATOM     77  C   UNL A   1      33.575  16.435  25.079  1.00  0.00     0.087 A 
ENDBRANCH  72  73
ENDBRANCH  69  72
ENDBRANCH  66  69
ENDBRANCH  64  65
ENDBRANCH  63  64
ENDBRANCH   1  63
TORSDOF 13
ENDMDL
