MODEL 1
REMARK VINA RESULT:     -11.6      0.000      0.000
REMARK SMILES O=C(Cc1ccccc1Nc1c(F)cccc1C(F)(F)F)NCCCCNC(=O)c1ccc(-c2c3nc(c(-c4c(F)cccc4F)c4ccc([nH]4)c(-c4c(F)cccc4F)c4nc(c(-c5c(F)cccc5F)c5ccc2[nH]5)C=C4)C=C3)cc1
REMARK SMILES IDX 23 1 22 2 1 3 2 4 3 6 4 7 5 8 9 9 6 10 8 11 7 12 10 13 11 15
REMARK SMILES IDX 12 16 17 17 13 18 14 19 16 20 15 21 18 22 19 23 20 24 21 25
REMARK SMILES IDX 24 26 25 27 26 28 27 29 28 30 29 32 30 33 31 34 83 35 32 36
REMARK SMILES IDX 82 37 33 38 34 39 35 40 76 41 36 42 81 43 75 44 77 45 37 46
REMARK SMILES IDX 80 47 74 48 73 49 38 51 64 52 47 53 63 54 48 55 51 56 62 57
REMARK SMILES IDX 78 58 49 59 50 60 61 62 79 63 52 64 39 65 40 66 45 67 41 68
REMARK SMILES IDX 42 69 44 70 46 71 43 72 65 73 66 74 71 75 67 76 68 77 70 78
REMARK SMILES IDX 72 79 69 80 53 81 54 82 59 83 55 84 56 85 58 86 60 87 57 88
REMARK H PARENT 22 5 10 14 27 31 77 50 51 61
REMARK Flexibility Score: inf
ROOT
ATOM      1  C   UNL A   1      36.836  22.295  24.305  1.00  0.00     0.116 C 
ENDROOT
BRANCH   1   2
ATOM      2  N   UNL A   1      36.233  23.402  25.024  1.00  0.00    -0.356 N 
ATOM      3  O   UNL A   1      34.714  23.896  23.380  1.00  0.00    -0.275 OA
ATOM      4  C   UNL A   1      35.172  24.110  24.500  1.00  0.00     0.224 C 
ATOM      5  H   UNL A   1      36.589  23.653  25.907  1.00  0.00     0.163 HD
BRANCH   4   6
ATOM      6  C   UNL A   1      34.555  25.132  25.424  1.00  0.00     0.137 C 
BRANCH   6   7
ATOM      7  C   UNL A   1      33.058  25.069  25.700  1.00  0.00    -0.015 A 
ATOM      8  C   UNL A   1      32.647  23.875  26.345  1.00  0.00     0.006 A 
ATOM      9  C   UNL A   1      32.081  26.052  25.411  1.00  0.00     0.042 A 
ATOM     10  C   UNL A   1      31.311  23.618  26.638  1.00  0.00     0.000 A 
ATOM     11  C   UNL A   1      30.730  25.731  25.650  1.00  0.00     0.026 A 
ATOM     12  C   UNL A   1      30.347  24.539  26.269  1.00  0.00     0.002 A 
BRANCH   9  13
ATOM     13  N   UNL A   1      32.403  27.294  24.829  1.00  0.00    -0.352 N 
ATOM     14  H   UNL A   1      32.764  27.244  23.915  1.00  0.00     0.167 HD
BRANCH  13  15
ATOM     15  C   UNL A   1      32.290  28.602  25.353  1.00  0.00     0.087 A 
ATOM     16  C   UNL A   1      33.039  28.931  26.499  1.00  0.00     0.147 A 
ATOM     17  C   UNL A   1      31.320  29.520  24.915  1.00  0.00     0.082 A 
ATOM     18  F   UNL A   1      33.960  28.073  26.956  1.00  0.00    -0.205 F 
ATOM     19  C   UNL A   1      32.876  30.128  27.186  1.00  0.00     0.041 A 
ATOM     20  C   UNL A   1      31.178  30.748  25.604  1.00  0.00     0.015 A 
ATOM     21  C   UNL A   1      31.939  31.045  26.735  1.00  0.00     0.004 A 
BRANCH  17  22
ATOM     22  C   UNL A   1      30.450  29.276  23.707  1.00  0.00     0.418 C 
ATOM     23  F   UNL A   1      29.576  30.304  23.482  1.00  0.00    -0.166 F 
ATOM     24  F   UNL A   1      31.178  29.173  22.559  1.00  0.00    -0.166 F 
ATOM     25  F   UNL A   1      29.670  28.164  23.774  1.00  0.00    -0.166 F 
ENDBRANCH  17  22
ENDBRANCH  13  15
ENDBRANCH   9  13
ENDBRANCH   6   7
ENDBRANCH   4   6
ENDBRANCH   1   2
BRANCH   1  26
ATOM     26  C   UNL A   1      36.546  20.929  24.916  1.00  0.00     0.023 C 
BRANCH  26  27
ATOM     27  C   UNL A   1      37.709  19.935  24.970  1.00  0.00     0.023 C 
BRANCH  27  28
ATOM     28  C   UNL A   1      38.983  20.388  25.678  1.00  0.00     0.116 C 
BRANCH  28  29
ATOM     29  N   UNL A   1      40.038  19.390  25.703  1.00  0.00    -0.352 N 
ATOM     30  C   UNL A   1      41.352  19.522  26.095  1.00  0.00     0.251 C 
ATOM     31  H   UNL A   1      39.777  18.491  25.397  1.00  0.00     0.163 HD
ATOM     32  O   UNL A   1      42.128  18.581  25.991  1.00  0.00    -0.269 OA
BRANCH  30  33
ATOM     33  C   UNL A   1      41.843  20.820  26.612  1.00  0.00     0.039 A 
ATOM     34  C   UNL A   1      42.339  21.761  25.703  1.00  0.00     0.014 A 
ATOM     35  C   UNL A   1      41.812  21.114  27.977  1.00  0.00     0.014 A 
ATOM     36  C   UNL A   1      42.728  23.026  26.155  1.00  0.00     0.010 A 
ATOM     37  C   UNL A   1      42.154  22.393  28.420  1.00  0.00     0.010 A 
ATOM     38  C   UNL A   1      42.602  23.367  27.512  1.00  0.00    -0.014 A 
BRANCH  38  39
ATOM     39  C   UNL A   1      42.892  24.745  27.987  1.00  0.00     0.031 A 
ATOM     40  C   UNL A   1      44.292  25.154  28.352  1.00  0.00     0.074 A 
ATOM     41  C   UNL A   1      41.877  25.617  28.158  1.00  0.00     0.049 A 
ATOM     42  N   UNL A   1      44.720  26.290  28.842  1.00  0.00    -0.248 NA
ATOM     43  C   UNL A   1      45.345  24.146  28.159  1.00  0.00     0.031 C 
ATOM     44  C   UNL A   1      40.467  25.337  27.881  1.00  0.00     0.029 A 
ATOM     45  N   UNL A   1      41.874  26.911  28.617  1.00  0.00    -0.354 N 
ATOM     46  C   UNL A   1      46.088  26.132  29.029  1.00  0.00     0.074 A 
ATOM     47  C   UNL A   1      46.410  24.776  28.637  1.00  0.00     0.031 C 
ATOM     48  C   UNL A   1      39.739  26.431  28.159  1.00  0.00     0.029 A 
ATOM     49  C   UNL A   1      40.623  27.476  28.666  1.00  0.00     0.049 A 
ATOM     50  H   UNL A   1      42.693  27.389  28.885  1.00  0.00     0.167 HD
ATOM     51  C   UNL A   1      46.994  27.037  29.469  1.00  0.00     0.037 A 
ATOM     52  C   UNL A   1      40.228  28.694  29.082  1.00  0.00     0.037 A 
ATOM     53  C   UNL A   1      46.680  28.393  29.840  1.00  0.00     0.049 A 
ATOM     54  C   UNL A   1      41.253  29.676  29.580  1.00  0.00     0.074 A 
ATOM     55  C   UNL A   1      47.542  29.401  30.235  1.00  0.00     0.029 A 
ATOM     56  N   UNL A   1      45.401  28.929  29.868  1.00  0.00    -0.354 N 
ATOM     57  N   UNL A   1      42.552  29.535  29.682  1.00  0.00    -0.248 NA
ATOM     58  C   UNL A   1      40.756  30.988  30.018  1.00  0.00     0.031 C 
ATOM     59  C   UNL A   1      46.783  30.534  30.545  1.00  0.00     0.029 A 
ATOM     60  C   UNL A   1      45.451  30.247  30.297  1.00  0.00     0.049 A 
ATOM     61  H   UNL A   1      44.581  28.446  29.619  1.00  0.00     0.167 HD
ATOM     62  C   UNL A   1      43.030  30.746  30.164  1.00  0.00     0.074 A 
ATOM     63  C   UNL A   1      41.882  31.616  30.325  1.00  0.00     0.031 C 
ATOM     64  C   UNL A   1      44.304  31.106  30.446  1.00  0.00     0.037 A 
BRANCH  51  65
ATOM     65  C   UNL A   1      48.423  26.590  29.576  1.00  0.00     0.057 A 
ATOM     66  C   UNL A   1      48.902  25.915  30.707  1.00  0.00     0.134 A 
ATOM     67  C   UNL A   1      49.319  26.795  28.519  1.00  0.00     0.134 A 
ATOM     68  F   UNL A   1      48.098  25.694  31.758  1.00  0.00    -0.206 F 
ATOM     69  C   UNL A   1      50.226  25.482  30.792  1.00  0.00     0.040 A 
ATOM     70  C   UNL A   1      50.638  26.343  28.582  1.00  0.00     0.040 A 
ATOM     71  F   UNL A   1      48.923  27.426  27.403  1.00  0.00    -0.206 F 
ATOM     72  C   UNL A   1      51.097  25.688  29.723  1.00  0.00     0.006 A 
ENDBRANCH  51  65
BRANCH  52  73
ATOM     73  C   UNL A   1      38.793  29.072  29.025  1.00  0.00     0.057 A 
ATOM     74  C   UNL A   1      37.976  28.966  30.157  1.00  0.00     0.134 A 
ATOM     75  C   UNL A   1      38.201  29.530  27.842  1.00  0.00     0.134 A 
ATOM     76  F   UNL A   1      38.482  28.512  31.313  1.00  0.00    -0.206 F 
ATOM     77  C   UNL A   1      36.618  29.281  30.110  1.00  0.00     0.040 A 
ATOM     78  C   UNL A   1      36.849  29.873  27.787  1.00  0.00     0.040 A 
ATOM     79  F   UNL A   1      38.932  29.659  26.724  1.00  0.00    -0.206 F 
ATOM     80  C   UNL A   1      36.052  29.741  28.922  1.00  0.00     0.006 A 
ENDBRANCH  52  73
BRANCH  64  81
ATOM     81  C   UNL A   1      44.535  32.511  30.921  1.00  0.00     0.057 A 
ATOM     82  C   UNL A   1      44.747  33.569  30.029  1.00  0.00     0.134 A 
ATOM     83  C   UNL A   1      44.507  32.815  32.289  1.00  0.00     0.134 A 
ATOM     84  F   UNL A   1      44.798  33.344  28.707  1.00  0.00    -0.206 F 
ATOM     85  C   UNL A   1      44.945  34.876  30.481  1.00  0.00     0.040 A 
ATOM     86  C   UNL A   1      44.678  34.120  32.751  1.00  0.00     0.040 A 
ATOM     87  F   UNL A   1      44.301  31.848  33.198  1.00  0.00    -0.206 F 
ATOM     88  C   UNL A   1      44.904  35.154  31.846  1.00  0.00     0.006 A 
ENDBRANCH  64  81
ENDBRANCH  38  39
ENDBRANCH  30  33
ENDBRANCH  28  29
ENDBRANCH  27  28
ENDBRANCH  26  27
ENDBRANCH   1  26
TORSDOF 15
ENDMDL
MODEL 2
REMARK VINA RESULT:     -11.5      4.700      9.497
REMARK SMILES O=C(Cc1ccccc1Nc1c(F)cccc1C(F)(F)F)NCCCCNC(=O)c1ccc(-c2c3nc(c(-c4c(F)cccc4F)c4ccc([nH]4)c(-c4c(F)cccc4F)c4nc(c(-c5c(F)cccc5F)c5ccc2[nH]5)C=C4)C=C3)cc1
REMARK SMILES IDX 23 1 22 2 1 3 2 4 3 6 4 7 5 8 9 9 6 10 8 11 7 12 10 13 11 15
REMARK SMILES IDX 12 16 17 17 13 18 14 19 16 20 15 21 18 22 19 23 20 24 21 25
REMARK SMILES IDX 24 26 25 27 26 28 27 29 28 30 29 32 30 33 31 34 83 35 32 36
REMARK SMILES IDX 82 37 33 38 34 39 35 40 76 41 36 42 81 43 75 44 77 45 37 46
REMARK SMILES IDX 80 47 74 48 73 49 38 51 64 52 47 53 63 54 48 55 51 56 62 57
REMARK SMILES IDX 78 58 49 59 50 60 61 62 79 63 52 64 39 65 40 66 45 67 41 68
REMARK SMILES IDX 42 69 44 70 46 71 43 72 65 73 66 74 71 75 67 76 68 77 70 78
REMARK SMILES IDX 72 79 69 80 53 81 54 82 59 83 55 84 56 85 58 86 60 87 57 88
REMARK H PARENT 22 5 10 14 27 31 77 50 51 61
REMARK Flexibility Score: inf
ROOT
ATOM      1  C   UNL A   1      32.296  29.597  27.211  1.00  0.00     0.116 C 
ENDROOT
BRANCH   1   2
ATOM      2  N   UNL A   1      33.265  28.637  26.716  1.00  0.00    -0.356 N 
ATOM      3  O   UNL A   1      31.783  26.890  26.639  1.00  0.00    -0.275 OA
ATOM      4  C   UNL A   1      32.910  27.335  26.434  1.00  0.00     0.224 C 
ATOM      5  H   UNL A   1      34.197  28.922  26.578  1.00  0.00     0.163 HD
BRANCH   4   6
ATOM      6  C   UNL A   1      33.985  26.496  25.785  1.00  0.00     0.137 C 
BRANCH   6   7
ATOM      7  C   UNL A   1      33.677  25.790  24.470  1.00  0.00    -0.015 A 
ATOM      8  C   UNL A   1      33.388  26.675  23.401  1.00  0.00     0.006 A 
ATOM      9  C   UNL A   1      33.673  24.398  24.214  1.00  0.00     0.042 A 
ATOM     10  C   UNL A   1      33.040  26.213  22.135  1.00  0.00     0.000 A 
ATOM     11  C   UNL A   1      33.244  23.960  22.945  1.00  0.00     0.026 A 
ATOM     12  C   UNL A   1      32.946  24.851  21.913  1.00  0.00     0.002 A 
BRANCH   9  13
ATOM     13  N   UNL A   1      34.008  23.444  25.197  1.00  0.00    -0.352 N 
ATOM     14  H   UNL A   1      33.370  23.374  25.942  1.00  0.00     0.167 HD
BRANCH  13  15
ATOM     15  C   UNL A   1      35.118  22.573  25.280  1.00  0.00     0.087 A 
ATOM     16  C   UNL A   1      36.399  23.135  25.446  1.00  0.00     0.147 A 
ATOM     17  C   UNL A   1      35.034  21.198  25.002  1.00  0.00     0.082 A 
ATOM     18  F   UNL A   1      36.519  24.445  25.695  1.00  0.00    -0.205 F 
ATOM     19  C   UNL A   1      37.565  22.382  25.374  1.00  0.00     0.041 A 
ATOM     20  C   UNL A   1      36.224  20.434  24.956  1.00  0.00     0.015 A 
ATOM     21  C   UNL A   1      37.478  21.021  25.128  1.00  0.00     0.004 A 
BRANCH  17  22
ATOM     22  C   UNL A   1      33.720  20.485  24.795  1.00  0.00     0.418 C 
ATOM     23  F   UNL A   1      33.160  20.774  23.582  1.00  0.00    -0.166 F 
ATOM     24  F   UNL A   1      33.863  19.129  24.805  1.00  0.00    -0.166 F 
ATOM     25  F   UNL A   1      32.754  20.781  25.706  1.00  0.00    -0.166 F 
ENDBRANCH  17  22
ENDBRANCH  13  15
ENDBRANCH   9  13
ENDBRANCH   6   7
ENDBRANCH   4   6
ENDBRANCH   1   2
BRANCH   1  26
ATOM     26  C   UNL A   1      31.762  30.545  26.144  1.00  0.00     0.023 C 
BRANCH  26  27
ATOM     27  C   UNL A   1      31.473  31.983  26.579  1.00  0.00     0.023 C 
BRANCH  27  28
ATOM     28  C   UNL A   1      32.598  32.742  27.278  1.00  0.00     0.116 C 
BRANCH  28  29
ATOM     29  N   UNL A   1      32.278  34.122  27.598  1.00  0.00    -0.352 N 
ATOM     30  C   UNL A   1      32.901  34.978  28.480  1.00  0.00     0.251 C 
ATOM     31  H   UNL A   1      31.507  34.500  27.116  1.00  0.00     0.163 HD
ATOM     32  O   UNL A   1      32.455  36.101  28.673  1.00  0.00    -0.269 OA
BRANCH  30  33
ATOM     33  C   UNL A   1      34.097  34.527  29.228  1.00  0.00     0.039 A 
ATOM     34  C   UNL A   1      33.928  34.016  30.519  1.00  0.00     0.014 A 
ATOM     35  C   UNL A   1      35.373  34.602  28.665  1.00  0.00     0.014 A 
ATOM     36  C   UNL A   1      35.029  33.504  31.213  1.00  0.00     0.010 A 
ATOM     37  C   UNL A   1      36.462  34.047  29.339  1.00  0.00     0.010 A 
ATOM     38  C   UNL A   1      36.299  33.478  30.614  1.00  0.00    -0.014 A 
BRANCH  38  39
ATOM     39  C   UNL A   1      37.453  32.826  31.287  1.00  0.00     0.031 A 
ATOM     40  C   UNL A   1      38.119  31.624  30.677  1.00  0.00     0.074 A 
ATOM     41  C   UNL A   1      37.862  33.277  32.490  1.00  0.00     0.049 A 
ATOM     42  N   UNL A   1      39.095  30.891  31.151  1.00  0.00    -0.248 NA
ATOM     43  C   UNL A   1      37.609  31.176  29.373  1.00  0.00     0.031 C 
ATOM     44  C   UNL A   1      37.278  34.408  33.212  1.00  0.00     0.029 A 
ATOM     45  N   UNL A   1      38.858  32.830  33.324  1.00  0.00    -0.354 N 
ATOM     46  C   UNL A   1      39.308  29.888  30.213  1.00  0.00     0.074 A 
ATOM     47  C   UNL A   1      38.332  30.085  29.162  1.00  0.00     0.031 C 
ATOM     48  C   UNL A   1      37.935  34.577  34.371  1.00  0.00     0.029 A 
ATOM     49  C   UNL A   1      38.963  33.547  34.491  1.00  0.00     0.049 A 
ATOM     50  H   UNL A   1      39.442  32.068  33.105  1.00  0.00     0.167 HD
ATOM     51  C   UNL A   1      40.241  28.906  30.217  1.00  0.00     0.037 A 
ATOM     52  C   UNL A   1      39.786  33.389  35.544  1.00  0.00     0.037 A 
ATOM     53  C   UNL A   1      41.226  28.721  31.252  1.00  0.00     0.049 A 
ATOM     54  C   UNL A   1      40.803  32.281  35.531  1.00  0.00     0.074 A 
ATOM     55  C   UNL A   1      42.252  27.794  31.309  1.00  0.00     0.029 A 
ATOM     56  N   UNL A   1      41.305  29.474  32.413  1.00  0.00    -0.354 N 
ATOM     57  N   UNL A   1      41.039  31.386  34.603  1.00  0.00    -0.248 NA
ATOM     58  C   UNL A   1      41.672  32.164  36.712  1.00  0.00     0.031 C 
ATOM     59  C   UNL A   1      42.924  27.955  32.524  1.00  0.00     0.029 A 
ATOM     60  C   UNL A   1      42.347  29.015  33.204  1.00  0.00     0.049 A 
ATOM     61  H   UNL A   1      40.709  30.223  32.642  1.00  0.00     0.167 HD
ATOM     62  C   UNL A   1      42.099  30.622  35.071  1.00  0.00     0.074 A 
ATOM     63  C   UNL A   1      42.469  31.165  36.363  1.00  0.00     0.031 C 
ATOM     64  C   UNL A   1      42.712  29.567  34.484  1.00  0.00     0.037 A 
BRANCH  51  65
ATOM     65  C   UNL A   1      40.242  27.947  29.063  1.00  0.00     0.057 A 
ATOM     66  C   UNL A   1      39.499  26.759  29.090  1.00  0.00     0.134 A 
ATOM     67  C   UNL A   1      40.954  28.237  27.892  1.00  0.00     0.134 A 
ATOM     68  F   UNL A   1      38.801  26.418  30.184  1.00  0.00    -0.206 F 
ATOM     69  C   UNL A   1      39.486  25.882  28.004  1.00  0.00     0.040 A 
ATOM     70  C   UNL A   1      40.928  27.380  26.790  1.00  0.00     0.040 A 
ATOM     71  F   UNL A   1      41.678  29.363  27.795  1.00  0.00    -0.206 F 
ATOM     72  C   UNL A   1      40.196  26.195  26.846  1.00  0.00     0.006 A 
ENDBRANCH  51  65
BRANCH  52  73
ATOM     73  C   UNL A   1      39.705  34.318  36.700  1.00  0.00     0.057 A 
ATOM     74  C   UNL A   1      40.400  35.532  36.698  1.00  0.00     0.134 A 
ATOM     75  C   UNL A   1      38.947  34.009  37.836  1.00  0.00     0.134 A 
ATOM     76  F   UNL A   1      41.160  35.872  35.646  1.00  0.00    -0.206 F 
ATOM     77  C   UNL A   1      40.364  36.398  37.792  1.00  0.00     0.040 A 
ATOM     78  C   UNL A   1      38.882  34.877  38.928  1.00  0.00     0.040 A 
ATOM     79  F   UNL A   1      38.254  32.863  37.898  1.00  0.00    -0.206 F 
ATOM     80  C   UNL A   1      39.598  36.072  38.910  1.00  0.00     0.006 A 
ENDBRANCH  52  73
BRANCH  64  81
ATOM     81  C   UNL A   1      43.872  28.951  35.211  1.00  0.00     0.057 A 
ATOM     82  C   UNL A   1      43.706  27.885  36.104  1.00  0.00     0.134 A 
ATOM     83  C   UNL A   1      45.177  29.408  34.986  1.00  0.00     0.134 A 
ATOM     84  F   UNL A   1      42.480  27.410  36.373  1.00  0.00    -0.206 F 
ATOM     85  C   UNL A   1      44.794  27.310  36.764  1.00  0.00     0.040 A 
ATOM     86  C   UNL A   1      46.275  28.825  35.620  1.00  0.00     0.040 A 
ATOM     87  F   UNL A   1      45.408  30.422  34.138  1.00  0.00    -0.206 F 
ATOM     88  C   UNL A   1      46.084  27.776  36.517  1.00  0.00     0.006 A 
ENDBRANCH  64  81
ENDBRANCH  38  39
ENDBRANCH  30  33
ENDBRANCH  28  29
ENDBRANCH  27  28
ENDBRANCH  26  27
ENDBRANCH   1  26
TORSDOF 15
ENDMDL
MODEL 3
REMARK VINA RESULT:     -11.5      4.298      9.444
REMARK SMILES O=C(Cc1ccccc1Nc1c(F)cccc1C(F)(F)F)NCCCCNC(=O)c1ccc(-c2c3nc(c(-c4c(F)cccc4F)c4ccc([nH]4)c(-c4c(F)cccc4F)c4nc(c(-c5c(F)cccc5F)c5ccc2[nH]5)C=C4)C=C3)cc1
REMARK SMILES IDX 23 1 22 2 1 3 2 4 3 6 4 7 5 8 9 9 6 10 8 11 7 12 10 13 11 15
REMARK SMILES IDX 12 16 17 17 13 18 14 19 16 20 15 21 18 22 19 23 20 24 21 25
REMARK SMILES IDX 24 26 25 27 26 28 27 29 28 30 29 32 30 33 31 34 83 35 32 36
REMARK SMILES IDX 82 37 33 38 34 39 35 40 76 41 36 42 81 43 75 44 77 45 37 46
REMARK SMILES IDX 80 47 74 48 73 49 38 51 64 52 47 53 63 54 48 55 51 56 62 57
REMARK SMILES IDX 78 58 49 59 50 60 61 62 79 63 52 64 39 65 40 66 45 67 41 68
REMARK SMILES IDX 42 69 44 70 46 71 43 72 65 73 66 74 71 75 67 76 68 77 70 78
REMARK SMILES IDX 72 79 69 80 53 81 54 82 59 83 55 84 56 85 58 86 60 87 57 88
REMARK H PARENT 22 5 10 14 27 31 77 50 51 61
REMARK Flexibility Score: inf
ROOT
ATOM      1  C   UNL A   1      32.277  29.764  27.234  1.00  0.00     0.116 C 
ENDROOT
BRANCH   1   2
ATOM      2  N   UNL A   1      33.227  28.822  26.671  1.00  0.00    -0.356 N 
ATOM      3  O   UNL A   1      31.781  27.044  26.707  1.00  0.00    -0.275 OA
ATOM      4  C   UNL A   1      32.880  27.511  26.418  1.00  0.00     0.224 C 
ATOM      5  H   UNL A   1      34.140  29.126  26.463  1.00  0.00     0.163 HD
BRANCH   4   6
ATOM      6  C   UNL A   1      33.922  26.693  25.693  1.00  0.00     0.137 C 
BRANCH   6   7
ATOM      7  C   UNL A   1      33.569  26.075  24.346  1.00  0.00    -0.015 A 
ATOM      8  C   UNL A   1      33.549  27.007  23.279  1.00  0.00     0.006 A 
ATOM      9  C   UNL A   1      33.294  24.716  24.062  1.00  0.00     0.042 A 
ATOM     10  C   UNL A   1      33.205  26.636  21.982  1.00  0.00     0.000 A 
ATOM     11  C   UNL A   1      32.875  24.385  22.757  1.00  0.00     0.026 A 
ATOM     12  C   UNL A   1      32.844  25.325  21.726  1.00  0.00     0.002 A 
BRANCH   9  13
ATOM     13  N   UNL A   1      33.351  23.708  25.045  1.00  0.00    -0.352 N 
ATOM     14  H   UNL A   1      32.685  23.791  25.764  1.00  0.00     0.167 HD
BRANCH  13  15
ATOM     15  C   UNL A   1      34.216  22.596  25.161  1.00  0.00     0.087 A 
ATOM     16  C   UNL A   1      35.582  22.834  25.405  1.00  0.00     0.147 A 
ATOM     17  C   UNL A   1      33.823  21.285  24.842  1.00  0.00     0.082 A 
ATOM     18  F   UNL A   1      35.996  24.074  25.695  1.00  0.00    -0.205 F 
ATOM     19  C   UNL A   1      36.538  21.826  25.372  1.00  0.00     0.041 A 
ATOM     20  C   UNL A   1      34.798  20.259  24.835  1.00  0.00     0.015 A 
ATOM     21  C   UNL A   1      36.145  20.528  25.086  1.00  0.00     0.004 A 
BRANCH  17  22
ATOM     22  C   UNL A   1      32.391  20.908  24.551  1.00  0.00     0.418 C 
ATOM     23  F   UNL A   1      31.518  21.456  25.450  1.00  0.00    -0.166 F 
ATOM     24  F   UNL A   1      31.976  21.362  23.334  1.00  0.00    -0.166 F 
ATOM     25  F   UNL A   1      32.129  19.574  24.579  1.00  0.00    -0.166 F 
ENDBRANCH  17  22
ENDBRANCH  13  15
ENDBRANCH   9  13
ENDBRANCH   6   7
ENDBRANCH   4   6
ENDBRANCH   1   2
BRANCH   1  26
ATOM     26  C   UNL A   1      31.586  30.641  26.197  1.00  0.00     0.023 C 
BRANCH  26  27
ATOM     27  C   UNL A   1      31.403  32.118  26.554  1.00  0.00     0.023 C 
BRANCH  27  28
ATOM     28  C   UNL A   1      32.589  32.834  27.195  1.00  0.00     0.116 C 
BRANCH  28  29
ATOM     29  N   UNL A   1      32.296  34.183  27.648  1.00  0.00    -0.352 N 
ATOM     30  C   UNL A   1      32.962  34.953  28.578  1.00  0.00     0.251 C 
ATOM     31  H   UNL A   1      31.512  34.608  27.232  1.00  0.00     0.163 HD
ATOM     32  O   UNL A   1      32.536  36.057  28.887  1.00  0.00    -0.269 OA
BRANCH  30  33
ATOM     33  C   UNL A   1      34.181  34.427  29.236  1.00  0.00     0.039 A 
ATOM     34  C   UNL A   1      34.052  33.778  30.467  1.00  0.00     0.014 A 
ATOM     35  C   UNL A   1      35.439  34.569  28.646  1.00  0.00     0.014 A 
ATOM     36  C   UNL A   1      35.174  33.198  31.068  1.00  0.00     0.010 A 
ATOM     37  C   UNL A   1      36.549  33.948  29.222  1.00  0.00     0.010 A 
ATOM     38  C   UNL A   1      36.425  33.243  30.431  1.00  0.00    -0.014 A 
BRANCH  38  39
ATOM     39  C   UNL A   1      37.600  32.526  30.993  1.00  0.00     0.031 A 
ATOM     40  C   UNL A   1      38.290  33.031  32.229  1.00  0.00     0.074 A 
ATOM     41  C   UNL A   1      38.092  31.449  30.348  1.00  0.00     0.049 A 
ATOM     42  N   UNL A   1      39.362  32.571  32.824  1.00  0.00    -0.248 NA
ATOM     43  C   UNL A   1      37.710  34.221  32.870  1.00  0.00     0.031 C 
ATOM     44  C   UNL A   1      37.544  30.877  29.117  1.00  0.00     0.029 A 
ATOM     45  N   UNL A   1      39.173  30.650  30.631  1.00  0.00    -0.354 N 
ATOM     46  C   UNL A   1      39.594  33.421  33.899  1.00  0.00     0.074 A 
ATOM     47  C   UNL A   1      38.574  34.447  33.850  1.00  0.00     0.031 C 
ATOM     48  C   UNL A   1      38.279  29.812  28.761  1.00  0.00     0.029 A 
ATOM     49  C   UNL A   1      39.371  29.644  29.716  1.00  0.00     0.049 A 
ATOM     50  H   UNL A   1      39.751  30.785  31.417  1.00  0.00     0.167 HD
ATOM     51  C   UNL A   1      40.557  33.342  34.849  1.00  0.00     0.037 A 
ATOM     52  C   UNL A   1      40.327  28.700  29.646  1.00  0.00     0.037 A 
ATOM     53  C   UNL A   1      41.560  32.311  34.911  1.00  0.00     0.049 A 
ATOM     54  C   UNL A   1      41.394  28.645  30.705  1.00  0.00     0.074 A 
ATOM     55  C   UNL A   1      42.535  32.115  35.874  1.00  0.00     0.029 A 
ATOM     56  N   UNL A   1      41.722  31.306  33.970  1.00  0.00    -0.354 N 
ATOM     57  N   UNL A   1      41.556  29.412  31.755  1.00  0.00    -0.248 NA
ATOM     58  C   UNL A   1      42.408  27.589  30.570  1.00  0.00     0.031 C 
ATOM     59  C   UNL A   1      43.315  31.018  35.493  1.00  0.00     0.029 A 
ATOM     60  C   UNL A   1      42.796  30.502  34.318  1.00  0.00     0.049 A 
ATOM     61  H   UNL A   1      41.157  31.182  33.174  1.00  0.00     0.167 HD
ATOM     62  C   UNL A   1      42.668  28.914  32.422  1.00  0.00     0.074 A 
ATOM     63  C   UNL A   1      43.135  27.772  31.663  1.00  0.00     0.031 C 
ATOM     64  C   UNL A   1      43.248  29.362  33.560  1.00  0.00     0.037 A 
BRANCH  51  65
ATOM     65  C   UNL A   1      40.574  34.408  35.906  1.00  0.00     0.057 A 
ATOM     66  C   UNL A   1      41.318  35.586  35.753  1.00  0.00     0.134 A 
ATOM     67  C   UNL A   1      39.801  34.278  37.067  1.00  0.00     0.134 A 
ATOM     68  F   UNL A   1      42.086  35.770  34.668  1.00  0.00    -0.206 F 
ATOM     69  C   UNL A   1      41.313  36.584  36.729  1.00  0.00     0.040 A 
ATOM     70  C   UNL A   1      39.768  35.281  38.037  1.00  0.00     0.040 A 
ATOM     71  F   UNL A   1      39.058  33.181  37.271  1.00  0.00    -0.206 F 
ATOM     72  C   UNL A   1      40.529  36.436  37.872  1.00  0.00     0.006 A 
ENDBRANCH  51  65
BRANCH  52  73
ATOM     73  C   UNL A   1      40.315  27.706  28.542  1.00  0.00     0.057 A 
ATOM     74  C   UNL A   1      39.634  26.491  28.676  1.00  0.00     0.134 A 
ATOM     75  C   UNL A   1      40.992  27.938  27.339  1.00  0.00     0.134 A 
ATOM     76  F   UNL A   1      38.986  26.203  29.815  1.00  0.00    -0.206 F 
ATOM     77  C   UNL A   1      39.645  25.531  27.663  1.00  0.00     0.040 A 
ATOM     78  C   UNL A   1      40.990  26.997  26.307  1.00  0.00     0.040 A 
ATOM     79  F   UNL A   1      41.659  29.086  27.147  1.00  0.00    -0.206 F 
ATOM     80  C   UNL A   1      40.321  25.786  26.472  1.00  0.00     0.006 A 
ENDBRANCH  52  73
BRANCH  64  81
ATOM     81  C   UNL A   1      44.429  28.596  34.080  1.00  0.00     0.057 A 
ATOM     82  C   UNL A   1      45.744  28.948  33.752  1.00  0.00     0.134 A 
ATOM     83  C   UNL A   1      44.249  27.512  34.949  1.00  0.00     0.134 A 
ATOM     84  F   UNL A   1      45.985  29.968  32.913  1.00  0.00    -0.206 F 
ATOM     85  C   UNL A   1      46.837  28.237  34.252  1.00  0.00     0.040 A 
ATOM     86  C   UNL A   1      45.334  26.809  35.476  1.00  0.00     0.040 A 
ATOM     87  F   UNL A   1      43.015  27.125  35.310  1.00  0.00    -0.206 F 
ATOM     88  C   UNL A   1      46.632  27.168  35.123  1.00  0.00     0.006 A 
ENDBRANCH  64  81
ENDBRANCH  38  39
ENDBRANCH  30  33
ENDBRANCH  28  29
ENDBRANCH  27  28
ENDBRANCH  26  27
ENDBRANCH   1  26
TORSDOF 15
ENDMDL
