MODEL 1
REMARK VINA RESULT:      -9.4      0.000      0.000
REMARK SMILES CS(=O)(=O)CCSCc1cc(F)cc(/C=C/C(=O)NCCCCNC(=O)c2ccc(-c3c4nc(c(-c5c(F)cccc5F)c5ccc([nH]5)c(-c5c(F)cccc5F)c5nc(c(-c6c(F)cccc6F)c6ccc3[nH]6)C=C5)C=C4)cc2)c1
REMARK SMILES IDX 17 1 18 2 19 3 16 5 15 6 14 7 9 8 10 9 81 10 11 11 12 12
REMARK SMILES IDX 13 13 8 14 7 15 6 16 5 17 2 18 1 19 3 20 4 21 20 22 21 23
REMARK SMILES IDX 22 24 23 25 24 26 25 27 26 29 27 30 28 31 80 32 29 33 79 34
REMARK SMILES IDX 30 35 31 36 32 37 73 38 33 39 78 40 72 41 74 42 34 43 77 44
REMARK SMILES IDX 71 45 70 46 35 48 61 49 44 50 60 51 45 52 48 53 59 54 75 55
REMARK SMILES IDX 46 56 47 57 58 59 76 60 49 61 36 62 37 63 42 64 38 65 39 66
REMARK SMILES IDX 41 67 43 68 40 69 62 70 63 71 68 72 64 73 65 74 67 75 69 76
REMARK SMILES IDX 66 77 50 78 51 79 56 80 52 81 53 82 55 83 57 84 54 85
REMARK H PARENT 19 4 24 28 74 47 48 58
REMARK Flexibility Score: inf
ROOT
ATOM      1  C   UNL A   1      46.311  23.342  24.331  1.00  0.00     0.243 C 
ATOM      2  O   UNL A   1      47.354  23.758  23.836  1.00  0.00    -0.270 OA
ATOM      3  N   UNL A   1      46.137  22.004  24.527  1.00  0.00    -0.353 N 
ATOM      4  H   UNL A   1      46.869  21.439  24.189  1.00  0.00     0.163 HD
ENDROOT
BRANCH   1   5
ATOM      5  C   UNL A   1      45.290  24.297  24.809  1.00  0.00     0.072 C 
ATOM      6  C   UNL A   1      45.578  25.575  25.082  1.00  0.00     0.014 C 
BRANCH   6   7
ATOM      7  C   UNL A   1      44.570  26.577  25.421  1.00  0.00    -0.022 A 
ATOM      8  C   UNL A   1      44.107  28.712  26.520  1.00  0.00    -0.035 A 
ATOM      9  C   UNL A   1      42.739  28.484  26.302  1.00  0.00     0.043 A 
ATOM     10  C   UNL A   1      45.013  27.768  26.021  1.00  0.00     0.013 A 
ATOM     11  C   UNL A   1      42.306  27.325  25.663  1.00  0.00     0.124 A 
ATOM     12  F   UNL A   1      40.993  27.129  25.479  1.00  0.00    -0.207 F 
ATOM     13  C   UNL A   1      43.207  26.362  25.233  1.00  0.00     0.047 A 
BRANCH   8  14
ATOM     14  C   UNL A   1      44.525  29.967  27.242  1.00  0.00     0.105 C 
BRANCH  14  15
ATOM     15  S   UNL A   1      46.265  30.506  27.148  1.00  0.00    -0.156 SA
BRANCH  15  16
ATOM     16  C   UNL A   1      46.158  32.224  26.518  1.00  0.00     0.086 C 
BRANCH  16  17
ATOM     17  C   UNL A   1      44.790  32.673  26.035  1.00  0.00     0.147 C 
BRANCH  17  18
ATOM     18  S   UNL A   1      44.761  34.280  25.270  1.00  0.00     0.148 S 
ATOM     19  C   UNL A   1      43.120  34.892  25.581  1.00  0.00     0.158 C 
ATOM     20  O   UNL A   1      44.875  34.079  23.836  1.00  0.00    -0.229 OA
ATOM     21  O   UNL A   1      45.701  35.139  25.958  1.00  0.00    -0.229 OA
ENDBRANCH  17  18
ENDBRANCH  16  17
ENDBRANCH  15  16
ENDBRANCH  14  15
ENDBRANCH   8  14
ENDBRANCH   6   7
ENDBRANCH   1   5
BRANCH   3  22
ATOM     22  C   UNL A   1      45.048  21.274  25.155  1.00  0.00     0.116 C 
BRANCH  22  23
ATOM     23  C   UNL A   1      44.683  20.033  24.340  1.00  0.00     0.023 C 
BRANCH  23  24
ATOM     24  C   UNL A   1      44.506  18.767  25.184  1.00  0.00     0.023 C 
BRANCH  24  25
ATOM     25  C   UNL A   1      43.481  18.888  26.305  1.00  0.00     0.116 C 
BRANCH  25  26
ATOM     26  N   UNL A   1      42.114  18.660  25.859  1.00  0.00    -0.352 N 
ATOM     27  C   UNL A   1      41.026  19.488  25.999  1.00  0.00     0.251 C 
ATOM     28  H   UNL A   1      41.949  17.805  25.399  1.00  0.00     0.163 HD
ATOM     29  O   UNL A   1      39.904  19.105  25.685  1.00  0.00    -0.269 OA
BRANCH  27  30
ATOM     30  C   UNL A   1      41.223  20.833  26.574  1.00  0.00     0.039 A 
ATOM     31  C   UNL A   1      41.154  20.992  27.960  1.00  0.00     0.014 A 
ATOM     32  C   UNL A   1      41.531  21.917  25.749  1.00  0.00     0.014 A 
ATOM     33  C   UNL A   1      41.466  22.230  28.524  1.00  0.00     0.010 A 
ATOM     34  C   UNL A   1      41.917  23.125  26.317  1.00  0.00     0.010 A 
ATOM     35  C   UNL A   1      41.890  23.294  27.709  1.00  0.00    -0.014 A 
BRANCH  35  36
ATOM     36  C   UNL A   1      42.319  24.588  28.296  1.00  0.00     0.031 A 
ATOM     37  C   UNL A   1      41.320  25.691  28.505  1.00  0.00     0.074 A 
ATOM     38  C   UNL A   1      43.620  24.790  28.582  1.00  0.00     0.049 A 
ATOM     39  N   UNL A   1      41.515  26.906  28.947  1.00  0.00    -0.248 NA
ATOM     40  C   UNL A   1      39.924  25.399  28.144  1.00  0.00     0.031 C 
ATOM     41  C   UNL A   1      44.691  23.813  28.381  1.00  0.00     0.029 A 
ATOM     42  N   UNL A   1      44.264  25.887  29.099  1.00  0.00    -0.354 N 
ATOM     43  C   UNL A   1      40.272  27.524  28.909  1.00  0.00     0.074 A 
ATOM     44  C   UNL A   1      39.342  26.572  28.345  1.00  0.00     0.031 C 
ATOM     45  C   UNL A   1      45.851  24.341  28.801  1.00  0.00     0.029 A 
ATOM     46  C   UNL A   1      45.616  25.707  29.260  1.00  0.00     0.049 A 
ATOM     47  H   UNL A   1      43.800  26.723  29.332  1.00  0.00     0.167 HD
ATOM     48  C   UNL A   1      39.933  28.764  29.334  1.00  0.00     0.037 A 
ATOM     49  C   UNL A   1      46.562  26.547  29.722  1.00  0.00     0.037 A 
ATOM     50  C   UNL A   1      40.859  29.699  29.917  1.00  0.00     0.049 A 
ATOM     51  C   UNL A   1      46.166  27.926  30.170  1.00  0.00     0.074 A 
ATOM     52  C   UNL A   1      40.599  30.956  30.431  1.00  0.00     0.029 A 
ATOM     53  N   UNL A   1      42.221  29.479  30.060  1.00  0.00    -0.354 N 
ATOM     54  N   UNL A   1      44.975  28.476  30.186  1.00  0.00    -0.248 NA
ATOM     55  C   UNL A   1      47.238  28.799  30.667  1.00  0.00     0.031 C 
ATOM     56  C   UNL A   1      41.811  31.521  30.834  1.00  0.00     0.029 A 
ATOM     57  C   UNL A   1      42.820  30.592  30.629  1.00  0.00     0.049 A 
ATOM     58  H   UNL A   1      42.692  28.656  29.796  1.00  0.00     0.167 HD
ATOM     59  C   UNL A   1      45.150  29.748  30.714  1.00  0.00     0.074 A 
ATOM     60  C   UNL A   1      46.560  29.885  31.017  1.00  0.00     0.031 C 
ATOM     61  C   UNL A   1      44.224  30.714  30.928  1.00  0.00     0.037 A 
BRANCH  48  62
ATOM     62  C   UNL A   1      38.497  29.180  29.199  1.00  0.00     0.057 A 
ATOM     63  C   UNL A   1      38.006  29.674  27.984  1.00  0.00     0.134 A 
ATOM     64  C   UNL A   1      37.614  29.148  30.286  1.00  0.00     0.134 A 
ATOM     65  F   UNL A   1      38.798  29.737  26.903  1.00  0.00    -0.206 F 
ATOM     66  C   UNL A   1      36.692  30.131  27.859  1.00  0.00     0.040 A 
ATOM     67  C   UNL A   1      36.290  29.574  30.166  1.00  0.00     0.040 A 
ATOM     68  F   UNL A   1      38.015  28.675  31.476  1.00  0.00    -0.206 F 
ATOM     69  C   UNL A   1      35.830  30.077  28.951  1.00  0.00     0.006 A 
ENDBRANCH  48  62
BRANCH  49  70
ATOM     70  C   UNL A   1      47.970  26.084  29.815  1.00  0.00     0.057 A 
ATOM     71  C   UNL A   1      48.517  25.631  31.022  1.00  0.00     0.134 A 
ATOM     72  C   UNL A   1      48.816  26.129  28.701  1.00  0.00     0.134 A 
ATOM     73  F   UNL A   1      47.760  25.573  32.128  1.00  0.00    -0.206 F 
ATOM     74  C   UNL A   1      49.858  25.259  31.124  1.00  0.00     0.040 A 
ATOM     75  C   UNL A   1      50.153  25.737  28.783  1.00  0.00     0.040 A 
ATOM     76  F   UNL A   1      48.348  26.538  27.513  1.00  0.00    -0.206 F 
ATOM     77  C   UNL A   1      50.680  25.310  30.000  1.00  0.00     0.006 A 
ENDBRANCH  49  70
BRANCH  61  78
ATOM     78  C   UNL A   1      44.688  32.005  31.539  1.00  0.00     0.057 A 
ATOM     79  C   UNL A   1      44.738  32.157  32.931  1.00  0.00     0.134 A 
ATOM     80  C   UNL A   1      44.991  33.125  30.755  1.00  0.00     0.134 A 
ATOM     81  F   UNL A   1      44.448  31.126  33.740  1.00  0.00    -0.206 F 
ATOM     82  C   UNL A   1      45.056  33.380  33.522  1.00  0.00     0.040 A 
ATOM     83  C   UNL A   1      45.337  34.347  31.334  1.00  0.00     0.040 A 
ATOM     84  F   UNL A   1      44.970  33.044  29.416  1.00  0.00    -0.206 F 
ATOM     85  C   UNL A   1      45.357  34.480  32.721  1.00  0.00     0.006 A 
ENDBRANCH  61  78
ENDBRANCH  35  36
ENDBRANCH  27  30
ENDBRANCH  25  26
ENDBRANCH  24  25
ENDBRANCH  23  24
ENDBRANCH  22  23
ENDBRANCH   3  22
TORSDOF 17
ENDMDL
MODEL 2
REMARK VINA RESULT:      -8.4      1.019      6.286
REMARK SMILES CS(=O)(=O)CCSCc1cc(F)cc(/C=C/C(=O)NCCCCNC(=O)c2ccc(-c3c4nc(c(-c5c(F)cccc5F)c5ccc([nH]5)c(-c5c(F)cccc5F)c5nc(c(-c6c(F)cccc6F)c6ccc3[nH]6)C=C5)C=C4)cc2)c1
REMARK SMILES IDX 17 1 18 2 19 3 16 5 15 6 14 7 9 8 10 9 81 10 11 11 12 12
REMARK SMILES IDX 13 13 8 14 7 15 6 16 5 17 2 18 1 19 3 20 4 21 20 22 21 23
REMARK SMILES IDX 22 24 23 25 24 26 25 27 26 29 27 30 28 31 80 32 29 33 79 34
REMARK SMILES IDX 30 35 31 36 32 37 73 38 33 39 78 40 72 41 74 42 34 43 77 44
REMARK SMILES IDX 71 45 70 46 35 48 61 49 44 50 60 51 45 52 48 53 59 54 75 55
REMARK SMILES IDX 46 56 47 57 58 59 76 60 49 61 36 62 37 63 42 64 38 65 39 66
REMARK SMILES IDX 41 67 43 68 40 69 62 70 63 71 68 72 64 73 65 74 67 75 69 76
REMARK SMILES IDX 66 77 50 78 51 79 56 80 52 81 53 82 55 83 57 84 54 85
REMARK H PARENT 19 4 24 28 74 47 48 58
REMARK Flexibility Score: inf
ROOT
ATOM      1  C   UNL A   1      46.728  24.493  24.987  1.00  0.00     0.243 C 
ATOM      2  O   UNL A   1      47.865  24.940  24.867  1.00  0.00    -0.270 OA
ATOM      3  N   UNL A   1      46.524  23.145  24.992  1.00  0.00    -0.353 N 
ATOM      4  H   UNL A   1      47.331  22.605  24.833  1.00  0.00     0.163 HD
ENDROOT
BRANCH   1   5
ATOM      5  C   UNL A   1      45.597  25.412  25.232  1.00  0.00     0.072 C 
ATOM      6  C   UNL A   1      45.752  26.587  25.853  1.00  0.00     0.014 C 
BRANCH   6   7
ATOM      7  C   UNL A   1      44.687  27.578  25.987  1.00  0.00    -0.022 A 
ATOM      8  C   UNL A   1      44.059  29.800  26.794  1.00  0.00    -0.035 A 
ATOM      9  C   UNL A   1      42.724  29.494  26.482  1.00  0.00     0.043 A 
ATOM     10  C   UNL A   1      45.036  28.845  26.485  1.00  0.00     0.013 A 
ATOM     11  C   UNL A   1      42.388  28.255  25.943  1.00  0.00     0.124 A 
ATOM     12  F   UNL A   1      41.105  27.987  25.667  1.00  0.00    -0.207 F 
ATOM     13  C   UNL A   1      43.354  27.288  25.705  1.00  0.00     0.047 A 
BRANCH   8  14
ATOM     14  C   UNL A   1      44.370  31.142  27.403  1.00  0.00     0.105 C 
BRANCH  14  15
ATOM     15  S   UNL A   1      44.298  32.631  26.352  1.00  0.00    -0.156 SA
BRANCH  15  16
ATOM     16  C   UNL A   1      45.992  33.324  26.456  1.00  0.00     0.086 C 
BRANCH  16  17
ATOM     17  C   UNL A   1      46.211  34.654  25.757  1.00  0.00     0.147 C 
BRANCH  17  18
ATOM     18  S   UNL A   1      46.708  35.986  26.830  1.00  0.00     0.148 S 
ATOM     19  C   UNL A   1      48.434  36.227  26.470  1.00  0.00     0.158 C 
ATOM     20  O   UNL A   1      46.622  35.496  28.194  1.00  0.00    -0.229 OA
ATOM     21  O   UNL A   1      45.994  37.185  26.444  1.00  0.00    -0.229 OA
ENDBRANCH  17  18
ENDBRANCH  16  17
ENDBRANCH  15  16
ENDBRANCH  14  15
ENDBRANCH   8  14
ENDBRANCH   6   7
ENDBRANCH   1   5
BRANCH   3  22
ATOM     22  C   UNL A   1      45.308  22.374  25.194  1.00  0.00     0.116 C 
BRANCH  22  23
ATOM     23  C   UNL A   1      44.980  21.538  23.956  1.00  0.00     0.023 C 
BRANCH  23  24
ATOM     24  C   UNL A   1      44.952  20.030  24.216  1.00  0.00     0.023 C 
BRANCH  24  25
ATOM     25  C   UNL A   1      44.323  19.624  25.543  1.00  0.00     0.116 C 
BRANCH  25  26
ATOM     26  N   UNL A   1      42.964  19.120  25.402  1.00  0.00    -0.352 N 
ATOM     27  C   UNL A   1      41.797  19.690  25.855  1.00  0.00     0.251 C 
ATOM     28  H   UNL A   1      42.869  18.266  24.924  1.00  0.00     0.163 HD
ATOM     29  O   UNL A   1      40.734  19.084  25.773  1.00  0.00    -0.269 OA
BRANCH  27  30
ATOM     30  C   UNL A   1      41.850  21.026  26.478  1.00  0.00     0.039 A 
ATOM     31  C   UNL A   1      41.976  21.120  27.865  1.00  0.00     0.014 A 
ATOM     32  C   UNL A   1      41.834  22.178  25.687  1.00  0.00     0.014 A 
ATOM     33  C   UNL A   1      42.158  22.372  28.455  1.00  0.00     0.010 A 
ATOM     34  C   UNL A   1      42.093  23.414  26.267  1.00  0.00     0.010 A 
ATOM     35  C   UNL A   1      42.260  23.524  27.655  1.00  0.00    -0.014 A 
BRANCH  35  36
ATOM     36  C   UNL A   1      42.549  24.851  28.253  1.00  0.00     0.031 A 
ATOM     37  C   UNL A   1      43.932  25.175  28.741  1.00  0.00     0.074 A 
ATOM     38  C   UNL A   1      41.550  25.741  28.413  1.00  0.00     0.049 A 
ATOM     39  N   UNL A   1      44.363  26.253  29.343  1.00  0.00    -0.248 NA
ATOM     40  C   UNL A   1      44.962  24.141  28.552  1.00  0.00     0.031 C 
ATOM     41  C   UNL A   1      40.156  25.525  28.021  1.00  0.00     0.029 A 
ATOM     42  N   UNL A   1      41.551  27.003  28.951  1.00  0.00    -0.354 N 
ATOM     43  C   UNL A   1      45.705  26.024  29.610  1.00  0.00     0.074 A 
ATOM     44  C   UNL A   1      46.005  24.683  29.162  1.00  0.00     0.031 C 
ATOM     45  C   UNL A   1      39.445  26.629  28.301  1.00  0.00     0.029 A 
ATOM     46  C   UNL A   1      40.321  27.614  28.930  1.00  0.00     0.049 A 
ATOM     47  H   UNL A   1      42.359  27.432  29.317  1.00  0.00     0.167 HD
ATOM     48  C   UNL A   1      46.613  26.869  30.155  1.00  0.00     0.037 A 
ATOM     49  C   UNL A   1      39.938  28.828  29.370  1.00  0.00     0.037 A 
ATOM     50  C   UNL A   1      46.314  28.211  30.578  1.00  0.00     0.049 A 
ATOM     51  C   UNL A   1      40.959  29.740  29.989  1.00  0.00     0.074 A 
ATOM     52  C   UNL A   1      47.179  29.162  31.089  1.00  0.00     0.029 A 
ATOM     53  N   UNL A   1      45.054  28.791  30.543  1.00  0.00    -0.354 N 
ATOM     54  N   UNL A   1      42.240  29.534  30.182  1.00  0.00    -0.248 NA
ATOM     55  C   UNL A   1      40.486  31.053  30.451  1.00  0.00     0.031 C 
ATOM     56  C   UNL A   1      46.435  30.298  31.414  1.00  0.00     0.029 A 
ATOM     57  C   UNL A   1      45.115  30.079  31.050  1.00  0.00     0.049 A 
ATOM     58  H   UNL A   1      44.239  28.352  30.208  1.00  0.00     0.167 HD
ATOM     59  C   UNL A   1      42.730  30.696  30.763  1.00  0.00     0.074 A 
ATOM     60  C   UNL A   1      41.612  31.608  30.881  1.00  0.00     0.031 C 
ATOM     61  C   UNL A   1      43.995  30.978  31.160  1.00  0.00     0.037 A 
BRANCH  48  62
ATOM     62  C   UNL A   1      48.021  26.372  30.315  1.00  0.00     0.057 A 
ATOM     63  C   UNL A   1      48.916  26.398  29.238  1.00  0.00     0.134 A 
ATOM     64  C   UNL A   1      48.474  25.813  31.517  1.00  0.00     0.134 A 
ATOM     65  F   UNL A   1      48.546  26.914  28.056  1.00  0.00    -0.206 F 
ATOM     66  C   UNL A   1      50.206  25.876  29.348  1.00  0.00     0.040 A 
ATOM     67  C   UNL A   1      49.773  25.315  31.648  1.00  0.00     0.040 A 
ATOM     68  F   UNL A   1      47.673  25.768  32.592  1.00  0.00    -0.206 F 
ATOM     69  C   UNL A   1      50.638  25.337  30.557  1.00  0.00     0.006 A 
ENDBRANCH  48  62
BRANCH  49  70
ATOM     70  C   UNL A   1      38.526  29.256  29.202  1.00  0.00     0.057 A 
ATOM     71  C   UNL A   1      37.607  29.187  30.257  1.00  0.00     0.134 A 
ATOM     72  C   UNL A   1      38.052  29.702  27.963  1.00  0.00     0.134 A 
ATOM     73  F   UNL A   1      37.996  28.759  31.467  1.00  0.00    -0.206 F 
ATOM     74  C   UNL A   1      36.265  29.527  30.081  1.00  0.00     0.040 A 
ATOM     75  C   UNL A   1      36.718  30.067  27.779  1.00  0.00     0.040 A 
ATOM     76  F   UNL A   1      38.887  29.805  26.919  1.00  0.00    -0.206 F 
ATOM     77  C   UNL A   1      35.818  29.971  28.838  1.00  0.00     0.006 A 
ENDBRANCH  49  70
BRANCH  61  78
ATOM     78  C   UNL A   1      44.257  32.336  31.745  1.00  0.00     0.057 A 
ATOM     79  C   UNL A   1      44.763  33.371  30.945  1.00  0.00     0.134 A 
ATOM     80  C   UNL A   1      44.101  32.594  33.112  1.00  0.00     0.134 A 
ATOM     81  F   UNL A   1      44.948  33.186  29.629  1.00  0.00    -0.206 F 
ATOM     82  C   UNL A   1      45.122  34.605  31.488  1.00  0.00     0.040 A 
ATOM     83  C   UNL A   1      44.431  33.833  33.662  1.00  0.00     0.040 A 
ATOM     84  F   UNL A   1      43.613  31.649  33.930  1.00  0.00    -0.206 F 
ATOM     85  C   UNL A   1      44.955  34.838  32.852  1.00  0.00     0.006 A 
ENDBRANCH  61  78
ENDBRANCH  35  36
ENDBRANCH  27  30
ENDBRANCH  25  26
ENDBRANCH  24  25
ENDBRANCH  23  24
ENDBRANCH  22  23
ENDBRANCH   3  22
TORSDOF 17
ENDMDL
MODEL 3
REMARK VINA RESULT:      -8.3      5.591     10.421
REMARK SMILES CS(=O)(=O)CCSCc1cc(F)cc(/C=C/C(=O)NCCCCNC(=O)c2ccc(-c3c4nc(c(-c5c(F)cccc5F)c5ccc([nH]5)c(-c5c(F)cccc5F)c5nc(c(-c6c(F)cccc6F)c6ccc3[nH]6)C=C5)C=C4)cc2)c1
REMARK SMILES IDX 17 1 18 2 19 3 16 5 15 6 14 7 9 8 10 9 81 10 11 11 12 12
REMARK SMILES IDX 13 13 8 14 7 15 6 16 5 17 2 18 1 19 3 20 4 21 20 22 21 23
REMARK SMILES IDX 22 24 23 25 24 26 25 27 26 29 27 30 28 31 80 32 29 33 79 34
REMARK SMILES IDX 30 35 31 36 32 37 73 38 33 39 78 40 72 41 74 42 34 43 77 44
REMARK SMILES IDX 71 45 70 46 35 48 61 49 44 50 60 51 45 52 48 53 59 54 75 55
REMARK SMILES IDX 46 56 47 57 58 59 76 60 49 61 36 62 37 63 42 64 38 65 39 66
REMARK SMILES IDX 41 67 43 68 40 69 62 70 63 71 68 72 64 73 65 74 67 75 69 76
REMARK SMILES IDX 66 77 50 78 51 79 56 80 52 81 53 82 55 83 57 84 54 85
REMARK H PARENT 19 4 24 28 74 47 48 58
REMARK Flexibility Score: inf
ROOT
ATOM      1  C   UNL A   1      38.403  23.717  26.386  1.00  0.00     0.243 C 
ATOM      2  O   UNL A   1      38.443  24.812  26.938  1.00  0.00    -0.270 OA
ATOM      3  N   UNL A   1      39.406  22.815  26.589  1.00  0.00    -0.353 N 
ATOM      4  H   UNL A   1      40.151  23.145  27.141  1.00  0.00     0.163 HD
ENDROOT
BRANCH   1   5
ATOM      5  C   UNL A   1      37.218  23.336  25.589  1.00  0.00     0.072 C 
ATOM      6  C   UNL A   1      36.126  24.106  25.518  1.00  0.00     0.014 C 
BRANCH   6   7
ATOM      7  C   UNL A   1      34.997  23.830  24.632  1.00  0.00    -0.022 A 
ATOM      8  C   UNL A   1      33.386  22.170  23.840  1.00  0.00    -0.035 A 
ATOM      9  C   UNL A   1      32.966  23.096  22.870  1.00  0.00     0.043 A 
ATOM     10  C   UNL A   1      34.369  22.579  24.750  1.00  0.00     0.013 A 
ATOM     11  C   UNL A   1      33.559  24.354  22.788  1.00  0.00     0.124 A 
ATOM     12  F   UNL A   1      33.146  25.212  21.846  1.00  0.00    -0.207 F 
ATOM     13  C   UNL A   1      34.581  24.725  23.650  1.00  0.00     0.047 A 
BRANCH   8  14
ATOM     14  C   UNL A   1      32.736  20.812  23.870  1.00  0.00     0.105 C 
BRANCH  14  15
ATOM     15  S   UNL A   1      32.928  19.770  25.355  1.00  0.00    -0.156 SA
BRANCH  15  16
ATOM     16  C   UNL A   1      32.488  18.089  24.772  1.00  0.00     0.086 C 
BRANCH  16  17
ATOM     17  C   UNL A   1      32.890  16.942  25.682  1.00  0.00     0.147 C 
BRANCH  17  18
ATOM     18  S   UNL A   1      33.813  15.646  24.883  1.00  0.00     0.148 S 
ATOM     19  C   UNL A   1      35.490  15.897  25.421  1.00  0.00     0.158 C 
ATOM     20  O   UNL A   1      33.781  15.910  23.455  1.00  0.00    -0.229 OA
ATOM     21  O   UNL A   1      33.361  14.370  25.394  1.00  0.00    -0.229 OA
ENDBRANCH  17  18
ENDBRANCH  16  17
ENDBRANCH  15  16
ENDBRANCH  14  15
ENDBRANCH   8  14
ENDBRANCH   6   7
ENDBRANCH   1   5
BRANCH   3  22
ATOM     22  C   UNL A   1      39.554  21.446  26.124  1.00  0.00     0.116 C 
BRANCH  22  23
ATOM     23  C   UNL A   1      40.721  20.754  26.830  1.00  0.00     0.023 C 
BRANCH  23  24
ATOM     24  C   UNL A   1      42.065  20.923  26.116  1.00  0.00     0.023 C 
BRANCH  24  25
ATOM     25  C   UNL A   1      42.953  22.024  26.682  1.00  0.00     0.116 C 
BRANCH  25  26
ATOM     26  N   UNL A   1      43.772  22.677  25.671  1.00  0.00    -0.352 N 
ATOM     27  C   UNL A   1      43.940  24.025  25.456  1.00  0.00     0.251 C 
ATOM     28  H   UNL A   1      44.267  22.080  25.066  1.00  0.00     0.163 HD
ATOM     29  O   UNL A   1      44.564  24.429  24.481  1.00  0.00    -0.269 OA
BRANCH  27  30
ATOM     30  C   UNL A   1      43.322  24.980  26.397  1.00  0.00     0.039 A 
ATOM     31  C   UNL A   1      42.251  24.554  27.185  1.00  0.00     0.014 A 
ATOM     32  C   UNL A   1      43.839  26.270  26.538  1.00  0.00     0.014 A 
ATOM     33  C   UNL A   1      41.743  25.405  28.168  1.00  0.00     0.010 A 
ATOM     34  C   UNL A   1      43.385  27.083  27.568  1.00  0.00     0.010 A 
ATOM     35  C   UNL A   1      42.334  26.660  28.395  1.00  0.00    -0.014 A 
BRANCH  35  36
ATOM     36  C   UNL A   1      41.872  27.539  29.498  1.00  0.00     0.031 A 
ATOM     37  C   UNL A   1      42.564  27.505  30.831  1.00  0.00     0.074 A 
ATOM     38  C   UNL A   1      40.791  28.321  29.317  1.00  0.00     0.049 A 
ATOM     39  N   UNL A   1      42.270  28.152  31.929  1.00  0.00    -0.248 NA
ATOM     40  C   UNL A   1      43.722  26.605  30.956  1.00  0.00     0.031 C 
ATOM     41  C   UNL A   1      40.007  28.408  28.083  1.00  0.00     0.029 A 
ATOM     42  N   UNL A   1      40.160  29.190  30.171  1.00  0.00    -0.354 N 
ATOM     43  C   UNL A   1      43.197  27.733  32.873  1.00  0.00     0.074 A 
ATOM     44  C   UNL A   1      44.026  26.732  32.239  1.00  0.00     0.031 C 
ATOM     45  C   UNL A   1      39.023  29.304  28.250  1.00  0.00     0.029 A 
ATOM     46  C   UNL A   1      39.077  29.826  29.613  1.00  0.00     0.049 A 
ATOM     47  H   UNL A   1      40.456  29.345  31.098  1.00  0.00     0.167 HD
ATOM     48  C   UNL A   1      43.361  28.166  34.145  1.00  0.00     0.037 A 
ATOM     49  C   UNL A   1      38.222  30.723  30.138  1.00  0.00     0.037 A 
ATOM     50  C   UNL A   1      42.548  29.179  34.764  1.00  0.00     0.049 A 
ATOM     51  C   UNL A   1      38.411  31.175  31.559  1.00  0.00     0.074 A 
ATOM     52  C   UNL A   1      42.673  29.726  36.028  1.00  0.00     0.029 A 
ATOM     53  N   UNL A   1      41.459  29.796  34.165  1.00  0.00    -0.354 N 
ATOM     54  N   UNL A   1      39.331  30.815  32.422  1.00  0.00    -0.248 NA
ATOM     55  C   UNL A   1      37.450  32.157  32.080  1.00  0.00     0.031 C 
ATOM     56  C   UNL A   1      41.628  30.633  36.216  1.00  0.00     0.029 A 
ATOM     57  C   UNL A   1      40.886  30.698  35.046  1.00  0.00     0.049 A 
ATOM     58  H   UNL A   1      41.141  29.619  33.250  1.00  0.00     0.167 HD
ATOM     59  C   UNL A   1      39.075  31.541  33.577  1.00  0.00     0.074 A 
ATOM     60  C   UNL A   1      37.920  32.372  33.302  1.00  0.00     0.031 C 
ATOM     61  C   UNL A   1      39.738  31.521  34.759  1.00  0.00     0.037 A 
BRANCH  48  62
ATOM     62  C   UNL A   1      44.469  27.556  34.953  1.00  0.00     0.057 A 
ATOM     63  C   UNL A   1      44.234  26.437  35.762  1.00  0.00     0.134 A 
ATOM     64  C   UNL A   1      45.756  28.110  34.977  1.00  0.00     0.134 A 
ATOM     65  F   UNL A   1      43.024  25.859  35.792  1.00  0.00    -0.206 F 
ATOM     66  C   UNL A   1      45.235  25.899  36.575  1.00  0.00     0.040 A 
ATOM     67  C   UNL A   1      46.774  27.563  35.762  1.00  0.00     0.040 A 
ATOM     68  F   UNL A   1      46.054  29.175  34.217  1.00  0.00    -0.206 F 
ATOM     69  C   UNL A   1      46.510  26.460  36.572  1.00  0.00     0.006 A 
ENDBRANCH  48  62
BRANCH  49  70
ATOM     70  C   UNL A   1      37.133  31.277  29.294  1.00  0.00     0.057 A 
ATOM     71  C   UNL A   1      37.202  32.570  28.760  1.00  0.00     0.134 A 
ATOM     72  C   UNL A   1      35.973  30.537  29.041  1.00  0.00     0.134 A 
ATOM     73  F   UNL A   1      38.283  33.334  28.974  1.00  0.00    -0.206 F 
ATOM     74  C   UNL A   1      36.149  33.114  28.023  1.00  0.00     0.040 A 
ATOM     75  C   UNL A   1      34.922  31.060  28.285  1.00  0.00     0.040 A 
ATOM     76  F   UNL A   1      35.853  29.287  29.512  1.00  0.00    -0.206 F 
ATOM     77  C   UNL A   1      35.005  32.356  27.782  1.00  0.00     0.006 A 
ENDBRANCH  49  70
BRANCH  61  78
ATOM     78  C   UNL A   1      39.257  32.435  35.848  1.00  0.00     0.057 A 
ATOM     79  C   UNL A   1      39.766  33.735  35.964  1.00  0.00     0.134 A 
ATOM     80  C   UNL A   1      38.364  32.000  36.835  1.00  0.00     0.134 A 
ATOM     81  F   UNL A   1      40.634  34.210  35.058  1.00  0.00    -0.206 F 
ATOM     82  C   UNL A   1      39.420  34.563  37.033  1.00  0.00     0.040 A 
ATOM     83  C   UNL A   1      37.989  32.827  37.894  1.00  0.00     0.040 A 
ATOM     84  F   UNL A   1      37.833  30.769  36.777  1.00  0.00    -0.206 F 
ATOM     85  C   UNL A   1      38.527  34.109  38.002  1.00  0.00     0.006 A 
ENDBRANCH  61  78
ENDBRANCH  35  36
ENDBRANCH  27  30
ENDBRANCH  25  26
ENDBRANCH  24  25
ENDBRANCH  23  24
ENDBRANCH  22  23
ENDBRANCH   3  22
TORSDOF 17
ENDMDL
