MODEL 1
REMARK VINA RESULT:     -12.0      0.000      0.000
REMARK SMILES CC[C@@H](C(=O)NCCCCNC(=O)c1ccc(-c2c3nc(c(-c4c(F)cccc4F)c4ccc([nH]4)c(-c4c(F)cccc4F)c4nc(c(-c5c(F)cccc5F)c5ccc2[nH]5)C=C4)C=C3)cc1)N1C(=O)/C(=C/C(C)=C/c2ccccc2)SC1=S
REMARK SMILES IDX 8 1 7 2 6 3 4 4 5 5 3 7 2 8 1 9 68 10 69 11 83 12 70 13
REMARK SMILES IDX 71 14 82 15 84 16 72 17 73 18 74 19 75 20 76 21 77 22 81 23
REMARK SMILES IDX 78 24 80 25 79 26 9 27 10 28 11 29 12 30 13 32 14 33 15 34
REMARK SMILES IDX 67 35 16 36 66 37 17 38 18 39 19 40 60 41 20 42 65 43 59 44
REMARK SMILES IDX 61 45 21 46 64 47 58 48 57 49 22 51 48 52 31 53 47 54 32 55
REMARK SMILES IDX 35 56 46 57 62 58 33 59 34 60 45 62 63 63 36 64 23 65 24 66
REMARK SMILES IDX 29 67 25 68 26 69 28 70 30 71 27 72 49 73 50 74 55 75 51 76
REMARK SMILES IDX 52 77 54 78 56 79 53 80 37 81 38 82 43 83 39 84 40 85 42 86
REMARK SMILES IDX 44 87 41 88
REMARK H PARENT 6 6 11 31 61 50 35 61
REMARK Flexibility Score: inf
ROOT
ATOM      1  C   UNL A   1      31.945  30.239  25.747  1.00  0.00     0.023 C 
ENDROOT
BRANCH   1   2
ATOM      2  C   UNL A   1      31.837  28.806  26.264  1.00  0.00     0.116 C 
BRANCH   2   3
ATOM      3  N   UNL A   1      31.045  27.974  25.386  1.00  0.00    -0.354 N 
ATOM      4  C   UNL A   1      31.433  27.085  24.428  1.00  0.00     0.243 C 
ATOM      5  O   UNL A   1      30.544  26.357  23.976  1.00  0.00    -0.273 OA
ATOM      6  H   UNL A   1      30.071  28.063  25.498  1.00  0.00     0.163 HD
BRANCH   4   7
ATOM      7  C   UNL A   1      32.916  26.974  23.980  1.00  0.00     0.181 C 
BRANCH   7   8
ATOM      8  C   UNL A   1      33.317  27.825  22.756  1.00  0.00     0.032 C 
ATOM      9  C   UNL A   1      34.283  28.966  23.050  1.00  0.00     0.006 C 
ENDBRANCH   7   8
BRANCH   7  10
ATOM     10  N   UNL A   1      33.183  25.535  23.729  1.00  0.00    -0.280 N 
ATOM     11  C   UNL A   1      33.551  24.724  24.796  1.00  0.00     0.266 C 
ATOM     12  C   UNL A   1      33.112  24.924  22.497  1.00  0.00     0.149 C 
ATOM     13  O   UNL A   1      33.605  25.056  25.974  1.00  0.00    -0.268 OA
ATOM     14  C   UNL A   1      33.792  23.331  24.333  1.00  0.00     0.080 C 
ATOM     15  S   UNL A   1      33.591  23.237  22.634  1.00  0.00    -0.054 SA
ATOM     16  S   UNL A   1      32.609  25.577  21.044  1.00  0.00    -0.052 S 
ATOM     17  C   UNL A   1      34.069  22.357  25.212  1.00  0.00     0.024 C 
BRANCH  17  18
ATOM     18  C   UNL A   1      34.231  20.925  24.981  1.00  0.00    -0.049 C 
ATOM     19  C   UNL A   1      35.651  20.431  25.084  1.00  0.00     0.044 C 
ATOM     20  C   UNL A   1      33.161  20.127  24.796  1.00  0.00     0.011 C 
BRANCH  20  21
ATOM     21  C   UNL A   1      33.148  18.667  24.670  1.00  0.00    -0.025 A 
ATOM     22  C   UNL A   1      32.736  17.892  25.761  1.00  0.00     0.008 A 
ATOM     23  C   UNL A   1      33.654  18.033  23.530  1.00  0.00     0.008 A 
ATOM     24  C   UNL A   1      32.829  16.500  25.712  1.00  0.00     0.001 A 
ATOM     25  C   UNL A   1      33.746  16.640  23.483  1.00  0.00     0.001 A 
ATOM     26  C   UNL A   1      33.339  15.876  24.575  1.00  0.00     0.000 A 
ENDBRANCH  20  21
ENDBRANCH  17  18
ENDBRANCH   7  10
ENDBRANCH   4   7
ENDBRANCH   2   3
ENDBRANCH   1   2
BRANCH   1  27
ATOM     27  C   UNL A   1      31.691  31.328  26.785  1.00  0.00     0.023 C 
BRANCH  27  28
ATOM     28  C   UNL A   1      32.894  32.191  27.133  1.00  0.00     0.116 C 
BRANCH  28  29
ATOM     29  N   UNL A   1      32.546  33.564  27.473  1.00  0.00    -0.352 N 
ATOM     30  C   UNL A   1      33.184  34.409  28.353  1.00  0.00     0.251 C 
ATOM     31  H   UNL A   1      31.756  33.934  27.016  1.00  0.00     0.163 HD
ATOM     32  O   UNL A   1      32.727  35.516  28.613  1.00  0.00    -0.269 OA
BRANCH  30  33
ATOM     33  C   UNL A   1      34.414  33.934  29.013  1.00  0.00     0.039 A 
ATOM     34  C   UNL A   1      34.313  33.189  30.190  1.00  0.00     0.014 A 
ATOM     35  C   UNL A   1      35.651  34.136  28.398  1.00  0.00     0.014 A 
ATOM     36  C   UNL A   1      35.450  32.562  30.703  1.00  0.00     0.010 A 
ATOM     37  C   UNL A   1      36.762  33.445  28.864  1.00  0.00     0.010 A 
ATOM     38  C   UNL A   1      36.671  32.645  30.015  1.00  0.00    -0.014 A 
BRANCH  38  39
ATOM     39  C   UNL A   1      37.886  31.923  30.466  1.00  0.00     0.031 A 
ATOM     40  C   UNL A   1      38.790  32.574  31.473  1.00  0.00     0.074 A 
ATOM     41  C   UNL A   1      38.240  30.759  29.888  1.00  0.00     0.049 A 
ATOM     42  N   UNL A   1      40.000  32.243  31.838  1.00  0.00    -0.248 NA
ATOM     43  C   UNL A   1      38.275  33.789  32.125  1.00  0.00     0.031 C 
ATOM     44  C   UNL A   1      37.468  30.042  28.871  1.00  0.00     0.029 A 
ATOM     45  N   UNL A   1      39.363  29.986  30.057  1.00  0.00    -0.354 N 
ATOM     46  C   UNL A   1      40.409  33.233  32.721  1.00  0.00     0.074 A 
ATOM     47  C   UNL A   1      39.332  34.195  32.811  1.00  0.00     0.031 C 
ATOM     48  C   UNL A   1      38.134  28.931  28.515  1.00  0.00     0.029 A 
ATOM     49  C   UNL A   1      39.399  28.880  29.241  1.00  0.00     0.049 A 
ATOM     50  H   UNL A   1      40.074  30.205  30.701  1.00  0.00     0.167 HD
ATOM     51  C   UNL A   1      41.572  33.325  33.406  1.00  0.00     0.037 A 
ATOM     52  C   UNL A   1      40.355  27.945  29.085  1.00  0.00     0.037 A 
ATOM     53  C   UNL A   1      42.615  32.337  33.359  1.00  0.00     0.049 A 
ATOM     54  C   UNL A   1      41.625  28.051  29.884  1.00  0.00     0.074 A 
ATOM     55  C   UNL A   1      43.801  32.301  34.069  1.00  0.00     0.029 A 
ATOM     56  N   UNL A   1      42.583  31.199  32.567  1.00  0.00    -0.354 N 
ATOM     57  N   UNL A   1      41.986  28.974  30.741  1.00  0.00    -0.248 NA
ATOM     58  C   UNL A   1      42.621  26.986  29.691  1.00  0.00     0.031 C 
ATOM     59  C   UNL A   1      44.500  31.150  33.689  1.00  0.00     0.029 A 
ATOM     60  C   UNL A   1      43.733  30.455  32.767  1.00  0.00     0.049 A 
ATOM     61  H   UNL A   1      41.853  30.957  31.953  1.00  0.00     0.167 HD
ATOM     62  C   UNL A   1      43.234  28.588  31.213  1.00  0.00     0.074 A 
ATOM     63  C   UNL A   1      43.568  27.346  30.549  1.00  0.00     0.031 C 
ATOM     64  C   UNL A   1      44.030  29.207  32.116  1.00  0.00     0.037 A 
BRANCH  51  65
ATOM     65  C   UNL A   1      41.770  34.536  34.267  1.00  0.00     0.057 A 
ATOM     66  C   UNL A   1      42.304  35.726  33.755  1.00  0.00     0.134 A 
ATOM     67  C   UNL A   1      41.409  34.517  35.619  1.00  0.00     0.134 A 
ATOM     68  F   UNL A   1      42.686  35.803  32.471  1.00  0.00    -0.206 F 
ATOM     69  C   UNL A   1      42.500  36.845  34.565  1.00  0.00     0.040 A 
ATOM     70  C   UNL A   1      41.576  35.638  36.434  1.00  0.00     0.040 A 
ATOM     71  F   UNL A   1      40.889  33.411  36.171  1.00  0.00    -0.206 F 
ATOM     72  C   UNL A   1      42.130  36.804  35.909  1.00  0.00     0.006 A 
ENDBRANCH  51  65
BRANCH  52  73
ATOM     73  C   UNL A   1      40.145  26.815  28.147  1.00  0.00     0.057 A 
ATOM     74  C   UNL A   1      39.401  25.693  28.533  1.00  0.00     0.134 A 
ATOM     75  C   UNL A   1      40.680  26.821  26.854  1.00  0.00     0.134 A 
ATOM     76  F   UNL A   1      38.879  25.622  29.765  1.00  0.00    -0.206 F 
ATOM     77  C   UNL A   1      39.210  24.610  27.673  1.00  0.00     0.040 A 
ATOM     78  C   UNL A   1      40.481  25.754  25.976  1.00  0.00     0.040 A 
ATOM     79  F   UNL A   1      41.397  27.870  26.424  1.00  0.00    -0.206 F 
ATOM     80  C   UNL A   1      39.749  24.641  26.387  1.00  0.00     0.006 A 
ENDBRANCH  52  73
BRANCH  64  81
ATOM     81  C   UNL A   1      45.316  28.532  32.481  1.00  0.00     0.057 A 
ATOM     82  C   UNL A   1      46.521  28.848  31.844  1.00  0.00     0.134 A 
ATOM     83  C   UNL A   1      45.357  27.608  33.534  1.00  0.00     0.134 A 
ATOM     84  F   UNL A   1      46.543  29.715  30.822  1.00  0.00    -0.206 F 
ATOM     85  C   UNL A   1      47.726  28.263  32.240  1.00  0.00     0.040 A 
ATOM     86  C   UNL A   1      46.557  27.033  33.950  1.00  0.00     0.040 A 
ATOM     87  F   UNL A   1      44.234  27.271  34.187  1.00  0.00    -0.206 F 
ATOM     88  C   UNL A   1      47.746  27.360  33.303  1.00  0.00     0.006 A 
ENDBRANCH  64  81
ENDBRANCH  38  39
ENDBRANCH  30  33
ENDBRANCH  28  29
ENDBRANCH  27  28
ENDBRANCH   1  27
TORSDOF 15
ENDMDL
MODEL 2
REMARK VINA RESULT:     -11.9      1.594      6.215
REMARK SMILES CC[C@@H](C(=O)NCCCCNC(=O)c1ccc(-c2c3nc(c(-c4c(F)cccc4F)c4ccc([nH]4)c(-c4c(F)cccc4F)c4nc(c(-c5c(F)cccc5F)c5ccc2[nH]5)C=C4)C=C3)cc1)N1C(=O)/C(=C/C(C)=C/c2ccccc2)SC1=S
REMARK SMILES IDX 8 1 7 2 6 3 4 4 5 5 3 7 2 8 1 9 68 10 69 11 83 12 70 13
REMARK SMILES IDX 71 14 82 15 84 16 72 17 73 18 74 19 75 20 76 21 77 22 81 23
REMARK SMILES IDX 78 24 80 25 79 26 9 27 10 28 11 29 12 30 13 32 14 33 15 34
REMARK SMILES IDX 67 35 16 36 66 37 17 38 18 39 19 40 60 41 20 42 65 43 59 44
REMARK SMILES IDX 61 45 21 46 64 47 58 48 57 49 22 51 48 52 31 53 47 54 32 55
REMARK SMILES IDX 35 56 46 57 62 58 33 59 34 60 45 62 63 63 36 64 23 65 24 66
REMARK SMILES IDX 29 67 25 68 26 69 28 70 30 71 27 72 49 73 50 74 55 75 51 76
REMARK SMILES IDX 52 77 54 78 56 79 53 80 37 81 38 82 43 83 39 84 40 85 42 86
REMARK SMILES IDX 44 87 41 88
REMARK H PARENT 6 6 11 31 61 50 35 61
REMARK Flexibility Score: inf
ROOT
ATOM      1  C   UNL A   1      32.589  30.047  26.015  1.00  0.00     0.023 C 
ENDROOT
BRANCH   1   2
ATOM      2  C   UNL A   1      32.271  28.647  26.536  1.00  0.00     0.116 C 
BRANCH   2   3
ATOM      3  N   UNL A   1      31.383  27.930  25.649  1.00  0.00    -0.354 N 
ATOM      4  C   UNL A   1      31.662  27.102  24.602  1.00  0.00     0.243 C 
ATOM      5  O   UNL A   1      30.708  26.459  24.154  1.00  0.00    -0.273 OA
ATOM      6  H   UNL A   1      30.423  28.061  25.829  1.00  0.00     0.163 HD
BRANCH   4   7
ATOM      7  C   UNL A   1      33.107  26.951  24.054  1.00  0.00     0.181 C 
BRANCH   7   8
ATOM      8  C   UNL A   1      33.446  27.792  22.805  1.00  0.00     0.032 C 
ATOM      9  C   UNL A   1      34.403  28.953  23.046  1.00  0.00     0.006 C 
ENDBRANCH   7   8
BRANCH   7  10
ATOM     10  N   UNL A   1      33.317  25.505  23.786  1.00  0.00    -0.280 N 
ATOM     11  C   UNL A   1      33.750  24.686  24.823  1.00  0.00     0.266 C 
ATOM     12  C   UNL A   1      33.130  24.894  22.566  1.00  0.00     0.149 C 
ATOM     13  O   UNL A   1      33.908  25.018  25.991  1.00  0.00    -0.268 OA
ATOM     14  C   UNL A   1      33.917  23.287  24.346  1.00  0.00     0.080 C 
ATOM     15  S   UNL A   1      33.576  23.196  22.669  1.00  0.00    -0.054 SA
ATOM     16  S   UNL A   1      32.528  25.558  21.157  1.00  0.00    -0.052 S 
ATOM     17  C   UNL A   1      34.241  22.307  25.202  1.00  0.00     0.024 C 
BRANCH  17  18
ATOM     18  C   UNL A   1      34.347  20.872  24.964  1.00  0.00    -0.049 C 
ATOM     19  C   UNL A   1      35.754  20.334  25.001  1.00  0.00     0.044 C 
ATOM     20  C   UNL A   1      33.246  20.107  24.827  1.00  0.00     0.011 C 
BRANCH  20  21
ATOM     21  C   UNL A   1      33.181  18.649  24.702  1.00  0.00    -0.025 A 
ATOM     22  C   UNL A   1      32.770  17.887  25.802  1.00  0.00     0.008 A 
ATOM     23  C   UNL A   1      33.640  17.999  23.550  1.00  0.00     0.008 A 
ATOM     24  C   UNL A   1      32.815  16.493  25.751  1.00  0.00     0.001 A 
ATOM     25  C   UNL A   1      33.686  16.604  23.501  1.00  0.00     0.001 A 
ATOM     26  C   UNL A   1      33.278  15.853  24.602  1.00  0.00     0.000 A 
ENDBRANCH  20  21
ENDBRANCH  17  18
ENDBRANCH   7  10
ENDBRANCH   4   7
ENDBRANCH   2   3
ENDBRANCH   1   2
BRANCH   1  27
ATOM     27  C   UNL A   1      32.074  31.196  26.876  1.00  0.00     0.023 C 
BRANCH  27  28
ATOM     28  C   UNL A   1      33.126  32.202  27.317  1.00  0.00     0.116 C 
BRANCH  28  29
ATOM     29  N   UNL A   1      32.604  33.551  27.492  1.00  0.00    -0.352 N 
ATOM     30  C   UNL A   1      33.034  34.523  28.367  1.00  0.00     0.251 C 
ATOM     31  H   UNL A   1      31.848  33.799  26.911  1.00  0.00     0.163 HD
ATOM     32  O   UNL A   1      32.440  35.590  28.472  1.00  0.00    -0.269 OA
BRANCH  30  33
ATOM     33  C   UNL A   1      34.207  34.233  29.213  1.00  0.00     0.039 A 
ATOM     34  C   UNL A   1      34.028  33.546  30.416  1.00  0.00     0.014 A 
ATOM     35  C   UNL A   1      35.487  34.546  28.751  1.00  0.00     0.014 A 
ATOM     36  C   UNL A   1      35.146  33.086  31.115  1.00  0.00     0.010 A 
ATOM     37  C   UNL A   1      36.592  34.018  29.405  1.00  0.00     0.010 A 
ATOM     38  C   UNL A   1      36.433  33.276  30.587  1.00  0.00    -0.014 A 
BRANCH  38  39
ATOM     39  C   UNL A   1      37.647  32.728  31.241  1.00  0.00     0.031 A 
ATOM     40  C   UNL A   1      38.354  31.564  30.608  1.00  0.00     0.074 A 
ATOM     41  C   UNL A   1      38.036  33.185  32.447  1.00  0.00     0.049 A 
ATOM     42  N   UNL A   1      39.281  30.787  31.104  1.00  0.00    -0.248 NA
ATOM     43  C   UNL A   1      37.926  31.200  29.247  1.00  0.00     0.031 C 
ATOM     44  C   UNL A   1      37.411  34.285  33.185  1.00  0.00     0.029 A 
ATOM     45  N   UNL A   1      39.040  32.756  33.280  1.00  0.00    -0.354 N 
ATOM     46  C   UNL A   1      39.509  29.815  30.139  1.00  0.00     0.074 A 
ATOM     47  C   UNL A   1      38.601  30.080  29.044  1.00  0.00     0.031 C 
ATOM     48  C   UNL A   1      38.052  34.451  34.353  1.00  0.00     0.029 A 
ATOM     49  C   UNL A   1      39.100  33.441  34.470  1.00  0.00     0.049 A 
ATOM     50  H   UNL A   1      39.657  32.026  33.047  1.00  0.00     0.167 HD
ATOM     51  C   UNL A   1      40.406  28.803  30.158  1.00  0.00     0.037 A 
ATOM     52  C   UNL A   1      39.898  33.260  35.540  1.00  0.00     0.037 A 
ATOM     53  C   UNL A   1      41.347  28.579  31.221  1.00  0.00     0.049 A 
ATOM     54  C   UNL A   1      40.910  32.148  35.522  1.00  0.00     0.074 A 
ATOM     55  C   UNL A   1      42.343  27.623  31.305  1.00  0.00     0.029 A 
ATOM     56  N   UNL A   1      41.415  29.336  32.381  1.00  0.00    -0.354 N 
ATOM     57  N   UNL A   1      41.140  31.257  34.590  1.00  0.00    -0.248 NA
ATOM     58  C   UNL A   1      41.771  32.015  36.707  1.00  0.00     0.031 C 
ATOM     59  C   UNL A   1      43.002  27.789  32.527  1.00  0.00     0.029 A 
ATOM     60  C   UNL A   1      42.435  28.867  33.189  1.00  0.00     0.049 A 
ATOM     61  H   UNL A   1      40.825  30.094  32.598  1.00  0.00     0.167 HD
ATOM     62  C   UNL A   1      42.189  30.477  35.059  1.00  0.00     0.074 A 
ATOM     63  C   UNL A   1      42.554  31.002  36.359  1.00  0.00     0.031 C 
ATOM     64  C   UNL A   1      42.798  29.423  34.466  1.00  0.00     0.037 A 
BRANCH  51  65
ATOM     65  C   UNL A   1      40.410  27.865  28.987  1.00  0.00     0.057 A 
ATOM     66  C   UNL A   1      41.176  28.119  27.842  1.00  0.00     0.134 A 
ATOM     67  C   UNL A   1      39.652  26.689  29.012  1.00  0.00     0.134 A 
ATOM     68  F   UNL A   1      41.911  29.238  27.750  1.00  0.00    -0.206 F 
ATOM     69  C   UNL A   1      41.164  27.251  26.750  1.00  0.00     0.040 A 
ATOM     70  C   UNL A   1      39.652  25.799  27.937  1.00  0.00     0.040 A 
ATOM     71  F   UNL A   1      38.900  26.385  30.080  1.00  0.00    -0.206 F 
ATOM     72  C   UNL A   1      40.404  26.084  26.798  1.00  0.00     0.006 A 
ENDBRANCH  51  65
BRANCH  52  73
ATOM     73  C   UNL A   1      39.786  34.162  36.712  1.00  0.00     0.057 A 
ATOM     74  C   UNL A   1      39.039  33.788  37.835  1.00  0.00     0.134 A 
ATOM     75  C   UNL A   1      40.412  35.414  36.741  1.00  0.00     0.134 A 
ATOM     76  F   UNL A   1      38.401  32.608  37.857  1.00  0.00    -0.206 F 
ATOM     77  C   UNL A   1      38.903  34.632  38.939  1.00  0.00     0.040 A 
ATOM     78  C   UNL A   1      40.301  36.260  37.846  1.00  0.00     0.040 A 
ATOM     79  F   UNL A   1      41.147  35.827  35.699  1.00  0.00    -0.206 F 
ATOM     80  C   UNL A   1      39.539  35.872  38.947  1.00  0.00     0.006 A 
ENDBRANCH  52  73
BRANCH  64  81
ATOM     81  C   UNL A   1      43.951  28.795  35.186  1.00  0.00     0.057 A 
ATOM     82  C   UNL A   1      43.766  27.773  36.123  1.00  0.00     0.134 A 
ATOM     83  C   UNL A   1      45.265  29.171  34.880  1.00  0.00     0.134 A 
ATOM     84  F   UNL A   1      42.531  27.380  36.466  1.00  0.00    -0.206 F 
ATOM     85  C   UNL A   1      44.853  27.147  36.737  1.00  0.00     0.040 A 
ATOM     86  C   UNL A   1      46.358  28.539  35.472  1.00  0.00     0.040 A 
ATOM     87  F   UNL A   1      45.506  30.140  33.983  1.00  0.00    -0.206 F 
ATOM     88  C   UNL A   1      46.154  27.524  36.403  1.00  0.00     0.006 A 
ENDBRANCH  64  81
ENDBRANCH  38  39
ENDBRANCH  30  33
ENDBRANCH  28  29
ENDBRANCH  27  28
ENDBRANCH   1  27
TORSDOF 15
ENDMDL
MODEL 3
REMARK VINA RESULT:     -11.9      2.655      3.931
REMARK SMILES CC[C@@H](C(=O)NCCCCNC(=O)c1ccc(-c2c3nc(c(-c4c(F)cccc4F)c4ccc([nH]4)c(-c4c(F)cccc4F)c4nc(c(-c5c(F)cccc5F)c5ccc2[nH]5)C=C4)C=C3)cc1)N1C(=O)/C(=C/C(C)=C/c2ccccc2)SC1=S
REMARK SMILES IDX 8 1 7 2 6 3 4 4 5 5 3 7 2 8 1 9 68 10 69 11 83 12 70 13
REMARK SMILES IDX 71 14 82 15 84 16 72 17 73 18 74 19 75 20 76 21 77 22 81 23
REMARK SMILES IDX 78 24 80 25 79 26 9 27 10 28 11 29 12 30 13 32 14 33 15 34
REMARK SMILES IDX 67 35 16 36 66 37 17 38 18 39 19 40 60 41 20 42 65 43 59 44
REMARK SMILES IDX 61 45 21 46 64 47 58 48 57 49 22 51 48 52 31 53 47 54 32 55
REMARK SMILES IDX 35 56 46 57 62 58 33 59 34 60 45 62 63 63 36 64 23 65 24 66
REMARK SMILES IDX 29 67 25 68 26 69 28 70 30 71 27 72 49 73 50 74 55 75 51 76
REMARK SMILES IDX 52 77 54 78 56 79 53 80 37 81 38 82 43 83 39 84 40 85 42 86
REMARK SMILES IDX 44 87 41 88
REMARK H PARENT 6 6 11 31 61 50 35 61
REMARK Flexibility Score: inf
ROOT
ATOM      1  C   UNL A   1      31.675  29.779  26.238  1.00  0.00     0.023 C 
ENDROOT
BRANCH   1   2
ATOM      2  C   UNL A   1      31.360  29.651  24.749  1.00  0.00     0.116 C 
BRANCH   2   3
ATOM      3  N   UNL A   1      30.718  28.393  24.440  1.00  0.00    -0.354 N 
ATOM      4  C   UNL A   1      31.256  27.196  24.073  1.00  0.00     0.243 C 
ATOM      5  O   UNL A   1      30.483  26.233  24.076  1.00  0.00    -0.273 OA
ATOM      6  H   UNL A   1      29.735  28.404  24.504  1.00  0.00     0.163 HD
BRANCH   4   7
ATOM      7  C   UNL A   1      32.763  27.059  23.724  1.00  0.00     0.181 C 
BRANCH   7   8
ATOM      8  C   UNL A   1      33.254  27.882  22.514  1.00  0.00     0.032 C 
ATOM      9  C   UNL A   1      34.442  28.796  22.791  1.00  0.00     0.006 C 
ENDBRANCH   7   8
BRANCH   7  10
ATOM     10  N   UNL A   1      33.028  25.612  23.517  1.00  0.00    -0.280 N 
ATOM     11  C   UNL A   1      33.418  24.839  24.605  1.00  0.00     0.266 C 
ATOM     12  C   UNL A   1      32.934  24.959  22.309  1.00  0.00     0.149 C 
ATOM     13  O   UNL A   1      33.494  25.210  25.769  1.00  0.00    -0.268 OA
ATOM     14  C   UNL A   1      33.652  23.431  24.185  1.00  0.00     0.080 C 
ATOM     15  S   UNL A   1      33.418  23.278  22.494  1.00  0.00    -0.054 SA
ATOM     16  S   UNL A   1      32.402  25.562  20.845  1.00  0.00    -0.052 S 
ATOM     17  C   UNL A   1      33.948  22.487  25.091  1.00  0.00     0.024 C 
BRANCH  17  18
ATOM     18  C   UNL A   1      34.106  21.049  24.906  1.00  0.00    -0.049 C 
ATOM     19  C   UNL A   1      35.518  20.549  25.078  1.00  0.00     0.044 C 
ATOM     20  C   UNL A   1      33.039  20.253  24.701  1.00  0.00     0.011 C 
BRANCH  20  21
ATOM     21  C   UNL A   1      33.018  18.791  24.616  1.00  0.00    -0.025 A 
ATOM     22  C   UNL A   1      32.849  18.041  25.786  1.00  0.00     0.008 A 
ATOM     23  C   UNL A   1      33.289  18.131  23.411  1.00  0.00     0.008 A 
ATOM     24  C   UNL A   1      32.947  16.649  25.752  1.00  0.00     0.001 A 
ATOM     25  C   UNL A   1      33.388  16.738  23.379  1.00  0.00     0.001 A 
ATOM     26  C   UNL A   1      33.222  15.999  24.550  1.00  0.00     0.000 A 
ENDBRANCH  20  21
ENDBRANCH  17  18
ENDBRANCH   7  10
ENDBRANCH   4   7
ENDBRANCH   2   3
ENDBRANCH   1   2
BRANCH   1  27
ATOM     27  C   UNL A   1      32.434  28.605  26.848  1.00  0.00     0.023 C 
BRANCH  27  28
ATOM     28  C   UNL A   1      33.787  28.946  27.452  1.00  0.00     0.116 C 
BRANCH  28  29
ATOM     29  N   UNL A   1      33.848  30.284  28.026  1.00  0.00    -0.352 N 
ATOM     30  C   UNL A   1      34.916  30.898  28.640  1.00  0.00     0.251 C 
ATOM     31  H   UNL A   1      33.021  30.816  27.967  1.00  0.00     0.163 HD
ATOM     32  O   UNL A   1      34.800  32.001  29.161  1.00  0.00    -0.269 OA
BRANCH  30  33
ATOM     33  C   UNL A   1      36.201  30.176  28.695  1.00  0.00     0.039 A 
ATOM     34  C   UNL A   1      37.057  30.221  27.593  1.00  0.00     0.014 A 
ATOM     35  C   UNL A   1      36.595  29.555  29.882  1.00  0.00     0.014 A 
ATOM     36  C   UNL A   1      38.356  29.721  27.713  1.00  0.00     0.010 A 
ATOM     37  C   UNL A   1      37.910  29.133  30.023  1.00  0.00     0.010 A 
ATOM     38  C   UNL A   1      38.805  29.220  28.944  1.00  0.00    -0.014 A 
BRANCH  38  39
ATOM     39  C   UNL A   1      40.201  28.762  29.152  1.00  0.00     0.031 A 
ATOM     40  C   UNL A   1      41.217  29.734  29.681  1.00  0.00     0.074 A 
ATOM     41  C   UNL A   1      40.581  27.532  28.756  1.00  0.00     0.049 A 
ATOM     42  N   UNL A   1      42.519  29.630  29.728  1.00  0.00    -0.248 NA
ATOM     43  C   UNL A   1      40.696  31.016  30.184  1.00  0.00     0.031 C 
ATOM     44  C   UNL A   1      39.699  26.507  28.192  1.00  0.00     0.029 A 
ATOM     45  N   UNL A   1      41.822  26.945  28.740  1.00  0.00    -0.354 N 
ATOM     46  C   UNL A   1      42.974  30.847  30.216  1.00  0.00     0.074 A 
ATOM     47  C   UNL A   1      41.812  31.686  30.419  1.00  0.00     0.031 C 
ATOM     48  C   UNL A   1      40.425  25.416  27.897  1.00  0.00     0.029 A 
ATOM     49  C   UNL A   1      41.827  25.679  28.204  1.00  0.00     0.049 A 
ATOM     50  H   UNL A   1      42.632  27.390  29.079  1.00  0.00     0.167 HD
ATOM     51  C   UNL A   1      44.244  31.226  30.486  1.00  0.00     0.037 A 
ATOM     52  C   UNL A   1      42.852  24.836  27.971  1.00  0.00     0.037 A 
ATOM     53  C   UNL A   1      45.389  30.370  30.339  1.00  0.00     0.049 A 
ATOM     54  C   UNL A   1      44.251  25.269  28.311  1.00  0.00     0.074 A 
ATOM     55  C   UNL A   1      46.710  30.635  30.651  1.00  0.00     0.029 A 
ATOM     56  N   UNL A   1      45.341  29.072  29.853  1.00  0.00    -0.354 N 
ATOM     57  N   UNL A   1      44.666  26.410  28.805  1.00  0.00    -0.248 NA
ATOM     58  C   UNL A   1      45.326  24.297  28.059  1.00  0.00     0.031 C 
ATOM     59  C   UNL A   1      47.467  29.502  30.332  1.00  0.00     0.029 A 
ATOM     60  C   UNL A   1      46.611  28.524  29.852  1.00  0.00     0.049 A 
ATOM     61  H   UNL A   1      44.525  28.610  29.552  1.00  0.00     0.167 HD
ATOM     62  C   UNL A   1      46.041  26.284  28.951  1.00  0.00     0.074 A 
ATOM     63  C   UNL A   1      46.392  24.955  28.496  1.00  0.00     0.031 C 
ATOM     64  C   UNL A   1      46.932  27.188  29.421  1.00  0.00     0.037 A 
BRANCH  51  65
ATOM     65  C   UNL A   1      44.455  32.629  30.971  1.00  0.00     0.057 A 
ATOM     66  C   UNL A   1      44.425  32.950  32.335  1.00  0.00     0.134 A 
ATOM     67  C   UNL A   1      44.706  33.667  30.067  1.00  0.00     0.134 A 
ATOM     68  F   UNL A   1      44.172  32.003  33.251  1.00  0.00    -0.206 F 
ATOM     69  C   UNL A   1      44.607  34.260  32.779  1.00  0.00     0.040 A 
ATOM     70  C   UNL A   1      44.916  34.977  30.501  1.00  0.00     0.040 A 
ATOM     71  F   UNL A   1      44.752  33.427  28.748  1.00  0.00    -0.206 F 
ATOM     72  C   UNL A   1      44.859  35.277  31.860  1.00  0.00     0.006 A 
ENDBRANCH  51  65
BRANCH  52  73
ATOM     73  C   UNL A   1      42.593  23.492  27.401  1.00  0.00     0.057 A 
ATOM     74  C   UNL A   1      42.289  22.407  28.233  1.00  0.00     0.134 A 
ATOM     75  C   UNL A   1      42.649  23.252  26.023  1.00  0.00     0.134 A 
ATOM     76  F   UNL A   1      42.241  22.571  29.563  1.00  0.00    -0.206 F 
ATOM     77  C   UNL A   1      42.066  21.129  27.718  1.00  0.00     0.040 A 
ATOM     78  C   UNL A   1      42.408  21.984  25.492  1.00  0.00     0.040 A 
ATOM     79  F   UNL A   1      42.929  24.251  25.174  1.00  0.00    -0.206 F 
ATOM     80  C   UNL A   1      42.121  20.916  26.341  1.00  0.00     0.006 A 
ENDBRANCH  52  73
BRANCH  64  81
ATOM     81  C   UNL A   1      48.364  26.761  29.519  1.00  0.00     0.057 A 
ATOM     82  C   UNL A   1      48.860  26.098  30.646  1.00  0.00     0.134 A 
ATOM     83  C   UNL A   1      49.234  26.952  28.437  1.00  0.00     0.134 A 
ATOM     84  F   UNL A   1      48.078  25.897  31.716  1.00  0.00    -0.206 F 
ATOM     85  C   UNL A   1      50.179  25.641  30.697  1.00  0.00     0.040 A 
ATOM     86  C   UNL A   1      50.547  26.484  28.470  1.00  0.00     0.040 A 
ATOM     87  F   UNL A   1      48.813  27.575  27.326  1.00  0.00    -0.206 F 
ATOM     88  C   UNL A   1      51.023  25.826  29.602  1.00  0.00     0.006 A 
ENDBRANCH  64  81
ENDBRANCH  38  39
ENDBRANCH  30  33
ENDBRANCH  28  29
ENDBRANCH  27  28
ENDBRANCH   1  27
TORSDOF 15
ENDMDL
