MODEL 1
REMARK VINA RESULT:      -9.2      0.000      0.000
REMARK SMILES O=C(NCCCCNC(=O)[C@H]1C[C@](F)(c2cccc(F)c2)C1)c1ccc(-c2c3nc(c(-c4c(F)cccc4F)c4ccc([nH]4)c(-c4c(F)cccc4F)c4nc(c(-c5c(F)cccc5F)c5ccc2[nH]5)C=C4)C=C3)cc1
REMARK SMILES IDX 5 1 4 2 3 3 1 4 2 5 23 7 24 8 76 9 25 10 75 11 26 12 27 13
REMARK SMILES IDX 28 14 69 15 29 16 74 17 68 18 70 19 30 20 73 21 67 22 66 23
REMARK SMILES IDX 31 25 57 26 40 27 56 28 41 29 44 30 55 31 71 32 42 33 43 34
REMARK SMILES IDX 54 36 72 37 45 38 32 39 33 40 38 41 34 42 35 43 37 44 39 45
REMARK SMILES IDX 36 46 58 47 59 48 64 49 60 50 61 51 63 52 65 53 62 54 46 55
REMARK SMILES IDX 47 56 52 57 48 58 49 59 51 60 53 61 50 62 6 63 7 64 8 65
REMARK SMILES IDX 9 66 10 68 11 69 12 70 22 71 13 72 14 73 15 74 16 75 21 76
REMARK SMILES IDX 17 77 19 78 18 79 20 80
REMARK H PARENT 3 6 70 24 44 35 8 67
REMARK Flexibility Score: inf
ROOT
ATOM      1  C   UNL A   1      41.020  21.302  27.664  1.00  0.00     0.023 C 
ENDROOT
BRANCH   1   2
ATOM      2  C   UNL A   1      40.961  21.819  26.231  1.00  0.00     0.116 C 
BRANCH   2   3
ATOM      3  N   UNL A   1      39.603  22.039  25.760  1.00  0.00    -0.352 N 
ATOM      4  O   UNL A   1      37.593  23.064  25.649  1.00  0.00    -0.269 OA
ATOM      5  C   UNL A   1      38.761  23.091  26.026  1.00  0.00     0.251 C 
ATOM      6  H   UNL A   1      39.239  21.339  25.170  1.00  0.00     0.163 HD
BRANCH   5   7
ATOM      7  C   UNL A   1      39.264  24.243  26.802  1.00  0.00     0.039 A 
ATOM      8  C   UNL A   1      38.976  24.361  28.164  1.00  0.00     0.014 A 
ATOM      9  C   UNL A   1      40.020  25.218  26.150  1.00  0.00     0.014 A 
ATOM     10  C   UNL A   1      39.338  25.518  28.844  1.00  0.00     0.010 A 
ATOM     11  C   UNL A   1      40.444  26.348  26.853  1.00  0.00     0.010 A 
ATOM     12  C   UNL A   1      40.081  26.519  28.198  1.00  0.00    -0.014 A 
BRANCH  12  13
ATOM     13  C   UNL A   1      40.512  27.716  28.960  1.00  0.00     0.031 A 
ATOM     14  C   UNL A   1      41.913  27.833  29.487  1.00  0.00     0.074 A 
ATOM     15  C   UNL A   1      39.628  28.711  29.156  1.00  0.00     0.049 A 
ATOM     16  N   UNL A   1      42.450  28.804  30.183  1.00  0.00    -0.248 NA
ATOM     17  C   UNL A   1      42.831  26.721  29.202  1.00  0.00     0.031 C 
ATOM     18  C   UNL A   1      38.240  28.706  28.685  1.00  0.00     0.029 A 
ATOM     19  N   UNL A   1      39.763  29.922  29.784  1.00  0.00    -0.354 N 
ATOM     20  C   UNL A   1      43.759  28.415  30.433  1.00  0.00     0.074 A 
ATOM     21  C   UNL A   1      43.932  27.108  29.833  1.00  0.00     0.031 C 
ATOM     22  C   UNL A   1      37.665  29.874  29.005  1.00  0.00     0.029 A 
ATOM     23  C   UNL A   1      38.621  30.683  29.753  1.00  0.00     0.049 A 
ATOM     24  H   UNL A   1      40.597  30.216  30.216  1.00  0.00     0.167 HD
ATOM     25  C   UNL A   1      44.727  29.091  31.096  1.00  0.00     0.037 A 
ATOM     26  C   UNL A   1      38.364  31.894  30.282  1.00  0.00     0.037 A 
ATOM     27  C   UNL A   1      44.552  30.398  31.676  1.00  0.00     0.049 A 
ATOM     28  C   UNL A   1      39.442  32.606  31.041  1.00  0.00     0.074 A 
ATOM     29  C   UNL A   1      45.483  31.174  32.343  1.00  0.00     0.029 A 
ATOM     30  N   UNL A   1      43.368  31.119  31.658  1.00  0.00    -0.354 N 
ATOM     31  N   UNL A   1      40.678  32.229  31.262  1.00  0.00    -0.248 NA
ATOM     32  C   UNL A   1      39.092  33.904  31.632  1.00  0.00     0.031 C 
ATOM     33  C   UNL A   1      44.852  32.349  32.765  1.00  0.00     0.029 A 
ATOM     34  C   UNL A   1      43.540  32.324  32.321  1.00  0.00     0.049 A 
ATOM     35  H   UNL A   1      42.530  30.821  31.237  1.00  0.00     0.167 HD
ATOM     36  C   UNL A   1      41.257  33.246  32.006  1.00  0.00     0.074 A 
ATOM     37  C   UNL A   1      40.242  34.263  32.189  1.00  0.00     0.031 C 
ATOM     38  C   UNL A   1      42.518  33.326  32.495  1.00  0.00     0.037 A 
BRANCH  25  39
ATOM     39  C   UNL A   1      46.067  28.431  31.242  1.00  0.00     0.057 A 
ATOM     40  C   UNL A   1      47.105  28.720  30.348  1.00  0.00     0.134 A 
ATOM     41  C   UNL A   1      46.308  27.458  32.220  1.00  0.00     0.134 A 
ATOM     42  F   UNL A   1      46.937  29.637  29.382  1.00  0.00    -0.206 F 
ATOM     43  C   UNL A   1      48.332  28.057  30.414  1.00  0.00     0.040 A 
ATOM     44  C   UNL A   1      47.538  26.804  32.310  1.00  0.00     0.040 A 
ATOM     45  F   UNL A   1      45.359  27.143  33.113  1.00  0.00    -0.206 F 
ATOM     46  C   UNL A   1      48.551  27.097  31.398  1.00  0.00     0.006 A 
ENDBRANCH  25  39
BRANCH  26  47
ATOM     47  C   UNL A   1      37.021  32.495  30.095  1.00  0.00     0.057 A 
ATOM     48  C   UNL A   1      36.777  33.430  29.083  1.00  0.00     0.134 A 
ATOM     49  C   UNL A   1      35.970  32.193  30.967  1.00  0.00     0.134 A 
ATOM     50  F   UNL A   1      37.749  33.768  28.223  1.00  0.00    -0.206 F 
ATOM     51  C   UNL A   1      35.540  34.064  28.958  1.00  0.00     0.040 A 
ATOM     52  C   UNL A   1      34.721  32.802  30.839  1.00  0.00     0.040 A 
ATOM     53  F   UNL A   1      36.144  31.295  31.947  1.00  0.00    -0.206 F 
ATOM     54  C   UNL A   1      34.508  33.749  29.838  1.00  0.00     0.006 A 
ENDBRANCH  26  47
BRANCH  38  55
ATOM     55  C   UNL A   1      42.883  34.561  33.262  1.00  0.00     0.057 A 
ATOM     56  C   UNL A   1      42.737  34.606  34.654  1.00  0.00     0.134 A 
ATOM     57  C   UNL A   1      43.310  35.726  32.614  1.00  0.00     0.134 A 
ATOM     58  F   UNL A   1      42.323  33.524  35.330  1.00  0.00    -0.206 F 
ATOM     59  C   UNL A   1      42.989  35.773  35.374  1.00  0.00     0.040 A 
ATOM     60  C   UNL A   1      43.586  36.893  33.327  1.00  0.00     0.040 A 
ATOM     61  F   UNL A   1      43.480  35.741  31.284  1.00  0.00    -0.206 F 
ATOM     62  C   UNL A   1      43.416  36.921  34.711  1.00  0.00     0.006 A 
ENDBRANCH  38  55
ENDBRANCH  12  13
ENDBRANCH   5   7
ENDBRANCH   2   3
ENDBRANCH   1   2
BRANCH   1  63
ATOM     63  C   UNL A   1      41.940  22.092  28.601  1.00  0.00     0.023 C 
BRANCH  63  64
ATOM     64  C   UNL A   1      42.734  23.197  27.905  1.00  0.00     0.116 C 
BRANCH  64  65
ATOM     65  N   UNL A   1      44.068  22.741  27.562  1.00  0.00    -0.356 N 
ATOM     66  C   UNL A   1      45.073  23.428  26.926  1.00  0.00     0.223 C 
ATOM     67  H   UNL A   1      44.281  21.815  27.820  1.00  0.00     0.163 HD
ATOM     68  O   UNL A   1      46.109  22.809  26.667  1.00  0.00    -0.275 OA
BRANCH  66  69
ATOM     69  C   UNL A   1      44.854  24.928  26.615  1.00  0.00     0.085 C 
ATOM     70  C   UNL A   1      44.548  25.374  25.165  1.00  0.00     0.059 C 
ATOM     71  C   UNL A   1      46.146  25.779  26.492  1.00  0.00     0.059 C 
ATOM     72  C   UNL A   1      45.385  26.669  25.462  1.00  0.00     0.137 C 
ATOM     73  F   UNL A   1      46.146  27.091  24.421  1.00  0.00    -0.239 F 
BRANCH  72  74
ATOM     74  C   UNL A   1      44.577  27.948  26.008  1.00  0.00    -0.008 A 
ATOM     75  C   UNL A   1      45.234  28.969  26.730  1.00  0.00     0.007 A 
ATOM     76  C   UNL A   1      43.190  28.127  25.819  1.00  0.00     0.046 A 
ATOM     77  C   UNL A   1      44.562  30.098  27.215  1.00  0.00     0.003 A 
ATOM     78  C   UNL A   1      42.523  29.252  26.298  1.00  0.00     0.123 A 
ATOM     79  C   UNL A   1      43.197  30.242  26.994  1.00  0.00     0.039 A 
ATOM     80  F   UNL A   1      41.208  29.376  26.079  1.00  0.00    -0.207 F 
ENDBRANCH  72  74
ENDBRANCH  66  69
ENDBRANCH  64  65
ENDBRANCH  63  64
ENDBRANCH   1  63
TORSDOF 12
ENDMDL
MODEL 2
REMARK VINA RESULT:      -9.2      3.076      9.275
REMARK SMILES O=C(NCCCCNC(=O)[C@H]1C[C@](F)(c2cccc(F)c2)C1)c1ccc(-c2c3nc(c(-c4c(F)cccc4F)c4ccc([nH]4)c(-c4c(F)cccc4F)c4nc(c(-c5c(F)cccc5F)c5ccc2[nH]5)C=C4)C=C3)cc1
REMARK SMILES IDX 5 1 4 2 3 3 1 4 2 5 23 7 24 8 76 9 25 10 75 11 26 12 27 13
REMARK SMILES IDX 28 14 69 15 29 16 74 17 68 18 70 19 30 20 73 21 67 22 66 23
REMARK SMILES IDX 31 25 57 26 40 27 56 28 41 29 44 30 55 31 71 32 42 33 43 34
REMARK SMILES IDX 54 36 72 37 45 38 32 39 33 40 38 41 34 42 35 43 37 44 39 45
REMARK SMILES IDX 36 46 58 47 59 48 64 49 60 50 61 51 63 52 65 53 62 54 46 55
REMARK SMILES IDX 47 56 52 57 48 58 49 59 51 60 53 61 50 62 6 63 7 64 8 65
REMARK SMILES IDX 9 66 10 68 11 69 12 70 22 71 13 72 14 73 15 74 16 75 21 76
REMARK SMILES IDX 17 77 19 78 18 79 20 80
REMARK H PARENT 3 6 70 24 44 35 8 67
REMARK Flexibility Score: inf
ROOT
ATOM      1  C   UNL A   1      35.296  33.703  28.913  1.00  0.00     0.023 C 
ENDROOT
BRANCH   1   2
ATOM      2  C   UNL A   1      34.746  32.450  29.585  1.00  0.00     0.116 C 
BRANCH   2   3
ATOM      3  N   UNL A   1      34.068  31.558  28.658  1.00  0.00    -0.352 N 
ATOM      4  O   UNL A   1      33.899  29.896  27.137  1.00  0.00    -0.269 OA
ATOM      5  C   UNL A   1      34.574  30.473  27.984  1.00  0.00     0.251 C 
ATOM      6  H   UNL A   1      33.119  31.759  28.490  1.00  0.00     0.163 HD
BRANCH   5   7
ATOM      7  C   UNL A   1      35.953  30.025  28.266  1.00  0.00     0.039 A 
ATOM      8  C   UNL A   1      36.295  29.530  29.527  1.00  0.00     0.014 A 
ATOM      9  C   UNL A   1      36.913  30.115  27.255  1.00  0.00     0.014 A 
ATOM     10  C   UNL A   1      37.625  29.244  29.815  1.00  0.00     0.010 A 
ATOM     11  C   UNL A   1      38.236  29.760  27.526  1.00  0.00     0.010 A 
ATOM     12  C   UNL A   1      38.606  29.350  28.816  1.00  0.00    -0.014 A 
BRANCH  12  13
ATOM     13  C   UNL A   1      40.008  28.979  29.127  1.00  0.00     0.031 A 
ATOM     14  C   UNL A   1      40.892  29.895  29.924  1.00  0.00     0.074 A 
ATOM     15  C   UNL A   1      40.473  27.791  28.697  1.00  0.00     0.049 A 
ATOM     16  N   UNL A   1      42.143  29.730  30.272  1.00  0.00    -0.248 NA
ATOM     17  C   UNL A   1      40.301  31.158  30.388  1.00  0.00     0.031 C 
ATOM     18  C   UNL A   1      39.702  26.820  27.918  1.00  0.00     0.029 A 
ATOM     19  N   UNL A   1      41.694  27.191  28.865  1.00  0.00    -0.354 N 
ATOM     20  C   UNL A   1      42.495  30.872  30.980  1.00  0.00     0.074 A 
ATOM     21  C   UNL A   1      41.331  31.733  30.995  1.00  0.00     0.031 C 
ATOM     22  C   UNL A   1      40.453  25.729  27.711  1.00  0.00     0.029 A 
ATOM     23  C   UNL A   1      41.775  25.948  28.288  1.00  0.00     0.049 A 
ATOM     24  H   UNL A   1      42.440  27.611  29.350  1.00  0.00     0.167 HD
ATOM     25  C   UNL A   1      43.678  31.167  31.569  1.00  0.00     0.037 A 
ATOM     26  C   UNL A   1      42.804  25.083  28.217  1.00  0.00     0.037 A 
ATOM     27  C   UNL A   1      44.826  30.297  31.564  1.00  0.00     0.049 A 
ATOM     28  C   UNL A   1      44.113  25.449  28.847  1.00  0.00     0.074 A 
ATOM     29  C   UNL A   1      46.060  30.498  32.158  1.00  0.00     0.029 A 
ATOM     30  N   UNL A   1      44.881  29.062  30.934  1.00  0.00    -0.354 N 
ATOM     31  N   UNL A   1      44.428  26.529  29.521  1.00  0.00    -0.248 NA
ATOM     32  C   UNL A   1      45.213  24.486  28.702  1.00  0.00     0.031 C 
ATOM     33  C   UNL A   1      46.876  29.404  31.853  1.00  0.00     0.029 A 
ATOM     34  C   UNL A   1      46.135  28.500  31.108  1.00  0.00     0.049 A 
ATOM     35  H   UNL A   1      44.140  28.647  30.439  1.00  0.00     0.167 HD
ATOM     36  C   UNL A   1      45.756  26.372  29.890  1.00  0.00     0.074 A 
ATOM     37  C   UNL A   1      46.184  25.087  29.377  1.00  0.00     0.031 C 
ATOM     38  C   UNL A   1      46.547  27.220  30.590  1.00  0.00     0.037 A 
BRANCH  25  39
ATOM     39  C   UNL A   1      43.803  32.491  32.265  1.00  0.00     0.057 A 
ATOM     40  C   UNL A   1      44.238  33.624  31.567  1.00  0.00     0.134 A 
ATOM     41  C   UNL A   1      43.564  32.629  33.638  1.00  0.00     0.134 A 
ATOM     42  F   UNL A   1      44.493  33.558  30.251  1.00  0.00    -0.206 F 
ATOM     43  C   UNL A   1      44.442  34.846  32.211  1.00  0.00     0.040 A 
ATOM     44  C   UNL A   1      43.742  33.851  34.289  1.00  0.00     0.040 A 
ATOM     45  F   UNL A   1      43.135  31.585  34.361  1.00  0.00    -0.206 F 
ATOM     46  C   UNL A   1      44.192  34.961  33.577  1.00  0.00     0.006 A 
ENDBRANCH  25  39
BRANCH  26  47
ATOM     47  C   UNL A   1      42.614  23.788  27.522  1.00  0.00     0.057 A 
ATOM     48  C   UNL A   1      42.756  23.678  26.134  1.00  0.00     0.134 A 
ATOM     49  C   UNL A   1      42.225  22.643  28.226  1.00  0.00     0.134 A 
ATOM     50  F   UNL A   1      43.117  24.744  25.404  1.00  0.00    -0.206 F 
ATOM     51  C   UNL A   1      42.492  22.482  25.465  1.00  0.00     0.040 A 
ATOM     52  C   UNL A   1      41.981  21.435  27.573  1.00  0.00     0.040 A 
ATOM     53  F   UNL A   1      42.086  22.686  29.559  1.00  0.00    -0.206 F 
ATOM     54  C   UNL A   1      42.104  21.356  26.186  1.00  0.00     0.006 A 
ENDBRANCH  26  47
BRANCH  38  55
ATOM     55  C   UNL A   1      47.955  26.783  30.861  1.00  0.00     0.057 A 
ATOM     56  C   UNL A   1      48.976  27.056  29.942  1.00  0.00     0.134 A 
ATOM     57  C   UNL A   1      48.284  26.031  31.995  1.00  0.00     0.134 A 
ATOM     58  F   UNL A   1      48.722  27.764  28.832  1.00  0.00    -0.206 F 
ATOM     59  C   UNL A   1      50.275  26.584  30.136  1.00  0.00     0.040 A 
ATOM     60  C   UNL A   1      49.584  25.572  32.210  1.00  0.00     0.040 A 
ATOM     61  F   UNL A   1      47.352  25.748  32.917  1.00  0.00    -0.206 F 
ATOM     62  C   UNL A   1      50.581  25.840  31.273  1.00  0.00     0.006 A 
ENDBRANCH  38  55
ENDBRANCH  12  13
ENDBRANCH   5   7
ENDBRANCH   2   3
ENDBRANCH   1   2
BRANCH   1  63
ATOM     63  C   UNL A   1      36.774  33.629  28.513  1.00  0.00     0.023 C 
BRANCH  63  64
ATOM     64  C   UNL A   1      37.736  33.576  29.700  1.00  0.00     0.116 C 
BRANCH  64  65
ATOM     65  N   UNL A   1      37.300  34.463  30.761  1.00  0.00    -0.356 N 
ATOM     66  C   UNL A   1      37.207  34.208  32.109  1.00  0.00     0.223 C 
ATOM     67  H   UNL A   1      37.035  35.368  30.479  1.00  0.00     0.163 HD
ATOM     68  O   UNL A   1      36.732  35.096  32.823  1.00  0.00    -0.275 OA
BRANCH  66  69
ATOM     69  C   UNL A   1      37.736  32.854  32.638  1.00  0.00     0.085 C 
ATOM     70  C   UNL A   1      36.776  31.893  33.381  1.00  0.00     0.059 C 
ATOM     71  C   UNL A   1      38.530  32.922  33.969  1.00  0.00     0.059 C 
ATOM     72  C   UNL A   1      37.995  31.492  34.287  1.00  0.00     0.137 C 
ATOM     73  F   UNL A   1      37.676  31.294  35.591  1.00  0.00    -0.239 F 
BRANCH  72  74
ATOM     74  C   UNL A   1      38.867  30.227  33.815  1.00  0.00    -0.008 A 
ATOM     75  C   UNL A   1      40.236  30.123  34.147  1.00  0.00     0.007 A 
ATOM     76  C   UNL A   1      38.342  29.167  33.045  1.00  0.00     0.046 A 
ATOM     77  C   UNL A   1      41.024  29.034  33.756  1.00  0.00     0.003 A 
ATOM     78  C   UNL A   1      39.125  28.081  32.660  1.00  0.00     0.123 A 
ATOM     79  C   UNL A   1      40.463  28.004  33.010  1.00  0.00     0.039 A 
ATOM     80  F   UNL A   1      38.571  27.097  31.940  1.00  0.00    -0.207 F 
ENDBRANCH  72  74
ENDBRANCH  66  69
ENDBRANCH  64  65
ENDBRANCH  63  64
ENDBRANCH   1  63
TORSDOF 12
ENDMDL
MODEL 3
REMARK VINA RESULT:      -9.2      3.912      7.099
REMARK SMILES O=C(NCCCCNC(=O)[C@H]1C[C@](F)(c2cccc(F)c2)C1)c1ccc(-c2c3nc(c(-c4c(F)cccc4F)c4ccc([nH]4)c(-c4c(F)cccc4F)c4nc(c(-c5c(F)cccc5F)c5ccc2[nH]5)C=C4)C=C3)cc1
REMARK SMILES IDX 5 1 4 2 3 3 1 4 2 5 23 7 24 8 76 9 25 10 75 11 26 12 27 13
REMARK SMILES IDX 28 14 69 15 29 16 74 17 68 18 70 19 30 20 73 21 67 22 66 23
REMARK SMILES IDX 31 25 57 26 40 27 56 28 41 29 44 30 55 31 71 32 42 33 43 34
REMARK SMILES IDX 54 36 72 37 45 38 32 39 33 40 38 41 34 42 35 43 37 44 39 45
REMARK SMILES IDX 36 46 58 47 59 48 64 49 60 50 61 51 63 52 65 53 62 54 46 55
REMARK SMILES IDX 47 56 52 57 48 58 49 59 51 60 53 61 50 62 6 63 7 64 8 65
REMARK SMILES IDX 9 66 10 68 11 69 12 70 22 71 13 72 14 73 15 74 16 75 21 76
REMARK SMILES IDX 17 77 19 78 18 79 20 80
REMARK H PARENT 3 6 70 24 44 35 8 67
REMARK Flexibility Score: inf
ROOT
ATOM      1  C   UNL A   1      38.071  20.122  24.807  1.00  0.00     0.023 C 
ENDROOT
BRANCH   1   2
ATOM      2  C   UNL A   1      39.008  20.102  26.010  1.00  0.00     0.116 C 
BRANCH   2   3
ATOM      3  N   UNL A   1      40.158  19.231  25.822  1.00  0.00    -0.352 N 
ATOM      4  O   UNL A   1      42.348  18.702  25.670  1.00  0.00    -0.269 OA
ATOM      5  C   UNL A   1      41.490  19.517  25.993  1.00  0.00     0.251 C 
ATOM      6  H   UNL A   1      39.953  18.312  25.532  1.00  0.00     0.163 HD
BRANCH   5   7
ATOM      7  C   UNL A   1      41.883  20.831  26.541  1.00  0.00     0.039 A 
ATOM      8  C   UNL A   1      41.883  21.054  27.920  1.00  0.00     0.014 A 
ATOM      9  C   UNL A   1      42.244  21.852  25.658  1.00  0.00     0.014 A 
ATOM     10  C   UNL A   1      42.120  22.334  28.409  1.00  0.00     0.010 A 
ATOM     11  C   UNL A   1      42.551  23.120  26.157  1.00  0.00     0.010 A 
ATOM     12  C   UNL A   1      42.463  23.376  27.534  1.00  0.00    -0.014 A 
BRANCH  12  13
ATOM     13  C   UNL A   1      42.776  24.718  28.082  1.00  0.00     0.031 A 
ATOM     14  C   UNL A   1      44.186  25.107  28.420  1.00  0.00     0.074 A 
ATOM     15  C   UNL A   1      41.771  25.597  28.255  1.00  0.00     0.049 A 
ATOM     16  N   UNL A   1      44.631  26.233  28.919  1.00  0.00    -0.248 NA
ATOM     17  C   UNL A   1      45.234  24.106  28.169  1.00  0.00     0.031 C 
ATOM     18  C   UNL A   1      40.361  25.328  27.957  1.00  0.00     0.029 A 
ATOM     19  N   UNL A   1      41.776  26.891  28.706  1.00  0.00    -0.354 N 
ATOM     20  C   UNL A   1      46.003  26.072  29.058  1.00  0.00     0.074 A 
ATOM     21  C   UNL A   1      46.318  24.731  28.611  1.00  0.00     0.031 C 
ATOM     22  C   UNL A   1      39.645  26.437  28.194  1.00  0.00     0.029 A 
ATOM     23  C   UNL A   1      40.532  27.471  28.716  1.00  0.00     0.049 A 
ATOM     24  H   UNL A   1      42.593  27.358  28.995  1.00  0.00     0.167 HD
ATOM     25  C   UNL A   1      46.915  26.965  29.511  1.00  0.00     0.037 A 
ATOM     26  C   UNL A   1      40.143  28.696  29.115  1.00  0.00     0.037 A 
ATOM     27  C   UNL A   1      46.596  28.303  29.939  1.00  0.00     0.049 A 
ATOM     28  C   UNL A   1      41.166  29.654  29.644  1.00  0.00     0.074 A 
ATOM     29  C   UNL A   1      47.455  29.290  30.387  1.00  0.00     0.029 A 
ATOM     30  N   UNL A   1      45.318  28.840  29.971  1.00  0.00    -0.354 N 
ATOM     31  N   UNL A   1      42.462  29.491  29.762  1.00  0.00    -0.248 NA
ATOM     32  C   UNL A   1      40.678  30.960  30.104  1.00  0.00     0.031 C 
ATOM     33  C   UNL A   1      46.694  30.412  30.730  1.00  0.00     0.029 A 
ATOM     34  C   UNL A   1      45.364  30.139  30.452  1.00  0.00     0.049 A 
ATOM     35  H   UNL A   1      44.499  28.370  29.694  1.00  0.00     0.167 HD
ATOM     36  C   UNL A   1      42.946  30.674  30.298  1.00  0.00     0.074 A 
ATOM     37  C   UNL A   1      41.808  31.553  30.471  1.00  0.00     0.031 C 
ATOM     38  C   UNL A   1      44.221  31.001  30.619  1.00  0.00     0.037 A 
BRANCH  25  39
ATOM     39  C   UNL A   1      48.349  26.529  29.578  1.00  0.00     0.057 A 
ATOM     40  C   UNL A   1      48.844  25.880  30.717  1.00  0.00     0.134 A 
ATOM     41  C   UNL A   1      49.257  26.815  28.551  1.00  0.00     0.134 A 
ATOM     42  F   UNL A   1      48.028  25.584  31.741  1.00  0.00    -0.206 F 
ATOM     43  C   UNL A   1      50.192  25.540  30.836  1.00  0.00     0.040 A 
ATOM     44  C   UNL A   1      50.604  26.460  28.649  1.00  0.00     0.040 A 
ATOM     45  F   UNL A   1      48.845  27.425  27.431  1.00  0.00    -0.206 F 
ATOM     46  C   UNL A   1      51.076  25.829  29.799  1.00  0.00     0.006 A 
ENDBRANCH  25  39
BRANCH  26  47
ATOM     47  C   UNL A   1      38.711  29.069  29.015  1.00  0.00     0.057 A 
ATOM     48  C   UNL A   1      38.172  29.577  27.827  1.00  0.00     0.134 A 
ATOM     49  C   UNL A   1      37.866  28.983  30.126  1.00  0.00     0.134 A 
ATOM     50  F   UNL A   1      38.936  29.693  26.731  1.00  0.00    -0.206 F 
ATOM     51  C   UNL A   1      36.848  30.011  27.754  1.00  0.00     0.040 A 
ATOM     52  C   UNL A   1      36.534  29.392  30.061  1.00  0.00     0.040 A 
ATOM     53  F   UNL A   1      38.325  28.493  31.286  1.00  0.00    -0.206 F 
ATOM     54  C   UNL A   1      36.025  29.918  28.874  1.00  0.00     0.006 A 
ENDBRANCH  26  47
BRANCH  38  55
ATOM     55  C   UNL A   1      44.463  32.371  31.175  1.00  0.00     0.057 A 
ATOM     56  C   UNL A   1      44.729  33.450  30.324  1.00  0.00     0.134 A 
ATOM     57  C   UNL A   1      44.503  32.606  32.555  1.00  0.00     0.134 A 
ATOM     58  F   UNL A   1      44.714  33.287  28.992  1.00  0.00    -0.206 F 
ATOM     59  C   UNL A   1      45.041  34.714  30.825  1.00  0.00     0.040 A 
ATOM     60  C   UNL A   1      44.793  33.871  33.068  1.00  0.00     0.040 A 
ATOM     61  F   UNL A   1      44.245  31.615  33.421  1.00  0.00    -0.206 F 
ATOM     62  C   UNL A   1      45.073  34.927  32.202  1.00  0.00     0.006 A 
ENDBRANCH  38  55
ENDBRANCH  12  13
ENDBRANCH   5   7
ENDBRANCH   2   3
ENDBRANCH   1   2
BRANCH   1  63
ATOM     63  C   UNL A   1      37.424  21.480  24.514  1.00  0.00     0.023 C 
BRANCH  63  64
ATOM     64  C   UNL A   1      37.489  22.464  25.682  1.00  0.00     0.116 C 
BRANCH  64  65
ATOM     65  N   UNL A   1      36.662  23.629  25.425  1.00  0.00    -0.356 N 
ATOM     66  C   UNL A   1      35.400  23.683  24.885  1.00  0.00     0.223 C 
ATOM     67  H   UNL A   1      37.058  24.496  25.672  1.00  0.00     0.163 HD
ATOM     68  O   UNL A   1      34.915  24.800  24.686  1.00  0.00    -0.275 OA
BRANCH  66  69
ATOM     69  C   UNL A   1      34.665  22.351  24.602  1.00  0.00     0.085 C 
ATOM     70  C   UNL A   1      33.329  22.363  23.820  1.00  0.00     0.059 C 
ATOM     71  C   UNL A   1      33.844  21.777  25.787  1.00  0.00     0.059 C 
ATOM     72  C   UNL A   1      32.866  21.173  24.734  1.00  0.00     0.137 C 
ATOM     73  F   UNL A   1      31.558  21.225  25.094  1.00  0.00    -0.239 F 
BRANCH  72  74
ATOM     74  C   UNL A   1      33.149  19.686  24.192  1.00  0.00    -0.008 A 
ATOM     75  C   UNL A   1      32.345  19.115  23.180  1.00  0.00     0.007 A 
ATOM     76  C   UNL A   1      34.185  18.866  24.686  1.00  0.00     0.046 A 
ATOM     77  C   UNL A   1      32.566  17.825  22.683  1.00  0.00     0.003 A 
ATOM     78  C   UNL A   1      34.408  17.584  24.188  1.00  0.00     0.123 A 
ATOM     79  C   UNL A   1      33.608  17.056  23.188  1.00  0.00     0.039 A 
ATOM     80  F   UNL A   1      35.414  16.854  24.685  1.00  0.00    -0.207 F 
ENDBRANCH  72  74
ENDBRANCH  66  69
ENDBRANCH  64  65
ENDBRANCH  63  64
ENDBRANCH   1  63
TORSDOF 12
ENDMDL
