MODEL 1
REMARK VINA RESULT:     -12.2      0.000      0.000
REMARK SMILES C[C@H]1[C@H](C(=O)NCCCCNC(=O)c2ccc(-c3c4nc(c(-c5c(F)cccc5F)c5ccc([nH]5)c(-c5c(F)cccc5F)c5nc(c(-c6c(F)cccc6F)c6ccc3[nH]6)C=C5)C=C4)cc2)CC[N@@H+]1[C@@H](c1ccccc1)c1ccco1
REMARK SMILES IDX 8 1 7 2 6 3 4 4 5 5 3 7 1 8 2 9 70 10 68 11 69 12 71 14
REMARK SMILES IDX 72 15 73 16 77 17 74 18 76 19 75 20 78 21 79 22 82 23 80 24
REMARK SMILES IDX 81 25 9 26 10 27 11 28 12 29 13 31 14 32 15 33 67 34 16 35
REMARK SMILES IDX 66 36 17 37 18 38 19 39 60 40 20 41 65 42 59 43 61 44 21 45
REMARK SMILES IDX 64 46 58 47 57 48 22 50 48 51 31 52 47 53 32 54 35 55 46 56
REMARK SMILES IDX 62 57 33 58 34 59 45 61 63 62 36 63 23 64 24 65 29 66 25 67
REMARK SMILES IDX 26 68 28 69 30 70 27 71 49 72 50 73 55 74 51 75 52 76 54 77
REMARK SMILES IDX 56 78 53 79 37 80 38 81 43 82 39 83 40 84 42 85 44 86 41 87
REMARK H PARENT 6 6 70 13 11 30 61 49 35 60
REMARK Flexibility Score: inf
ROOT
ATOM      1  C   UNL A   1      37.004  22.724  24.239  1.00  0.00     0.023 C 
ENDROOT
BRANCH   1   2
ATOM      2  C   UNL A   1      35.505  22.865  23.950  1.00  0.00     0.116 C 
BRANCH   2   3
ATOM      3  N   UNL A   1      34.779  23.487  25.038  1.00  0.00    -0.356 N 
ATOM      4  C   UNL A   1      33.695  24.307  25.056  1.00  0.00     0.229 C 
ATOM      5  O   UNL A   1      33.245  24.567  26.180  1.00  0.00    -0.275 OA
ATOM      6  H   UNL A   1      35.138  23.279  25.931  1.00  0.00     0.163 HD
BRANCH   4   7
ATOM      7  C   UNL A   1      32.981  24.877  23.828  1.00  0.00     0.142 C 
ATOM      8  C   UNL A   1      30.749  23.896  23.225  1.00  0.00     0.076 C 
ATOM      9  C   UNL A   1      31.460  25.085  23.887  1.00  0.00     0.194 C 
ATOM     10  N   UNL A   1      31.156  26.313  23.105  1.00  0.00    -0.319 N 
ATOM     11  C   UNL A   1      33.529  26.191  23.302  1.00  0.00     0.081 C 
ATOM     12  C   UNL A   1      32.386  26.711  22.430  1.00  0.00     0.264 C 
ATOM     13  H   UNL A   1      30.466  26.125  22.379  1.00  0.00     0.349 HD
BRANCH  10  14
ATOM     14  C   UNL A   1      30.380  27.348  23.834  1.00  0.00     0.283 C 
BRANCH  14  15
ATOM     15  C   UNL A   1      31.052  28.186  24.929  1.00  0.00     0.017 A 
ATOM     16  C   UNL A   1      31.257  27.585  26.182  1.00  0.00     0.010 A 
ATOM     17  C   UNL A   1      31.304  29.565  24.829  1.00  0.00     0.010 A 
ATOM     18  C   UNL A   1      31.746  28.323  27.258  1.00  0.00     0.001 A 
ATOM     19  C   UNL A   1      31.883  30.280  25.879  1.00  0.00     0.001 A 
ATOM     20  C   UNL A   1      32.113  29.653  27.094  1.00  0.00     0.000 A 
ENDBRANCH  14  15
BRANCH  14  21
ATOM     21  C   UNL A   1      29.491  28.234  22.983  1.00  0.00     0.165 A 
ATOM     22  C   UNL A   1      28.191  28.681  23.138  1.00  0.00     0.052 A 
ATOM     23  O   UNL A   1      30.106  28.979  22.009  1.00  0.00    -0.463 OA
ATOM     24  C   UNL A   1      28.055  29.825  22.307  1.00  0.00     0.042 A 
ATOM     25  C   UNL A   1      29.252  29.966  21.647  1.00  0.00     0.195 A 
ENDBRANCH  14  21
ENDBRANCH  10  14
ENDBRANCH   4   7
ENDBRANCH   2   3
ENDBRANCH   1   2
BRANCH   1  26
ATOM     26  C   UNL A   1      37.434  21.388  24.860  1.00  0.00     0.023 C 
BRANCH  26  27
ATOM     27  C   UNL A   1      38.698  21.415  25.722  1.00  0.00     0.116 C 
BRANCH  27  28
ATOM     28  N   UNL A   1      39.537  20.235  25.584  1.00  0.00    -0.352 N 
ATOM     29  C   UNL A   1      40.817  19.995  26.039  1.00  0.00     0.251 C 
ATOM     30  H   UNL A   1      39.127  19.490  25.088  1.00  0.00     0.163 HD
ATOM     31  O   UNL A   1      41.341  18.901  25.881  1.00  0.00    -0.269 OA
BRANCH  29  32
ATOM     32  C   UNL A   1      41.602  21.101  26.620  1.00  0.00     0.039 A 
ATOM     33  C   UNL A   1      42.132  22.048  25.737  1.00  0.00     0.014 A 
ATOM     34  C   UNL A   1      41.703  21.278  27.999  1.00  0.00     0.014 A 
ATOM     35  C   UNL A   1      42.618  23.251  26.236  1.00  0.00     0.010 A 
ATOM     36  C   UNL A   1      42.108  22.510  28.492  1.00  0.00     0.010 A 
ATOM     37  C   UNL A   1      42.527  23.519  27.609  1.00  0.00    -0.014 A 
BRANCH  37  38
ATOM     38  C   UNL A   1      42.790  24.877  28.133  1.00  0.00     0.031 A 
ATOM     39  C   UNL A   1      44.170  25.255  28.570  1.00  0.00     0.074 A 
ATOM     40  C   UNL A   1      41.750  25.721  28.291  1.00  0.00     0.049 A 
ATOM     41  N   UNL A   1      44.589  26.368  29.109  1.00  0.00    -0.248 NA
ATOM     42  C   UNL A   1      45.215  24.231  28.411  1.00  0.00     0.031 C 
ATOM     43  C   UNL A   1      40.353  25.412  27.967  1.00  0.00     0.029 A 
ATOM     44  N   UNL A   1      41.699  27.004  28.768  1.00  0.00    -0.354 N 
ATOM     45  C   UNL A   1      45.939  26.173  29.368  1.00  0.00     0.074 A 
ATOM     46  C   UNL A   1      46.255  24.816  28.985  1.00  0.00     0.031 C 
ATOM     47  C   UNL A   1      39.591  26.487  28.222  1.00  0.00     0.029 A 
ATOM     48  C   UNL A   1      40.436  27.547  28.757  1.00  0.00     0.049 A 
ATOM     49  H   UNL A   1      42.492  27.492  29.089  1.00  0.00     0.167 HD
ATOM     50  C   UNL A   1      46.836  27.061  29.857  1.00  0.00     0.037 A 
ATOM     51  C   UNL A   1      40.014  28.769  29.132  1.00  0.00     0.037 A 
ATOM     52  C   UNL A   1      46.499  28.414  30.214  1.00  0.00     0.049 A 
ATOM     53  C   UNL A   1      41.036  29.747  29.641  1.00  0.00     0.074 A 
ATOM     54  C   UNL A   1      47.328  29.421  30.670  1.00  0.00     0.029 A 
ATOM     55  N   UNL A   1      45.217  28.944  30.148  1.00  0.00    -0.354 N 
ATOM     56  N   UNL A   1      42.326  29.578  29.809  1.00  0.00    -0.248 NA
ATOM     57  C   UNL A   1      40.551  31.085  30.001  1.00  0.00     0.031 C 
ATOM     58  C   UNL A   1      46.541  30.553  30.913  1.00  0.00     0.029 A 
ATOM     59  C   UNL A   1      45.230  30.263  30.569  1.00  0.00     0.049 A 
ATOM     60  H   UNL A   1      44.418  28.455  29.848  1.00  0.00     0.167 HD
ATOM     61  C   UNL A   1      42.813  30.791  30.274  1.00  0.00     0.074 A 
ATOM     62  C   UNL A   1      41.680  31.693  30.341  1.00  0.00     0.031 C 
ATOM     63  C   UNL A   1      44.080  31.131  30.617  1.00  0.00     0.037 A 
BRANCH  50  64
ATOM     64  C   UNL A   1      48.250  26.586  30.022  1.00  0.00     0.057 A 
ATOM     65  C   UNL A   1      49.212  26.769  29.018  1.00  0.00     0.134 A 
ATOM     66  C   UNL A   1      48.657  25.931  31.191  1.00  0.00     0.134 A 
ATOM     67  F   UNL A   1      48.885  27.373  27.866  1.00  0.00    -0.206 F 
ATOM     68  C   UNL A   1      50.514  26.283  29.154  1.00  0.00     0.040 A 
ATOM     69  C   UNL A   1      49.966  25.467  31.350  1.00  0.00     0.040 A 
ATOM     70  F   UNL A   1      47.792  25.725  32.194  1.00  0.00    -0.206 F 
ATOM     71  C   UNL A   1      50.895  25.634  30.326  1.00  0.00     0.006 A 
ENDBRANCH  50  64
BRANCH  51  72
ATOM     72  C   UNL A   1      38.582  29.145  28.995  1.00  0.00     0.057 A 
ATOM     73  C   UNL A   1      37.712  29.081  30.090  1.00  0.00     0.134 A 
ATOM     74  C   UNL A   1      38.050  29.588  27.778  1.00  0.00     0.134 A 
ATOM     75  F   UNL A   1      38.157  28.653  31.281  1.00  0.00    -0.206 F 
ATOM     76  C   UNL A   1      36.363  29.425  29.978  1.00  0.00     0.040 A 
ATOM     77  C   UNL A   1      36.709  29.959  27.656  1.00  0.00     0.040 A 
ATOM     78  F   UNL A   1      38.832  29.686  26.692  1.00  0.00    -0.206 F 
ATOM     79  C   UNL A   1      35.860  29.872  28.757  1.00  0.00     0.006 A 
ENDBRANCH  51  72
BRANCH  63  80
ATOM     80  C   UNL A   1      44.300  32.542  31.070  1.00  0.00     0.057 A 
ATOM     81  C   UNL A   1      44.242  32.897  32.423  1.00  0.00     0.134 A 
ATOM     82  C   UNL A   1      44.617  33.544  30.147  1.00  0.00     0.134 A 
ATOM     83  F   UNL A   1      43.928  31.982  33.354  1.00  0.00    -0.206 F 
ATOM     84  C   UNL A   1      44.473  34.208  32.840  1.00  0.00     0.040 A 
ATOM     85  C   UNL A   1      44.875  34.853  30.553  1.00  0.00     0.040 A 
ATOM     86  F   UNL A   1      44.695  33.263  28.836  1.00  0.00    -0.206 F 
ATOM     87  C   UNL A   1      44.799  35.188  31.904  1.00  0.00     0.006 A 
ENDBRANCH  63  80
ENDBRANCH  37  38
ENDBRANCH  29  32
ENDBRANCH  27  28
ENDBRANCH  26  27
ENDBRANCH   1  26
TORSDOF 14
ENDMDL
MODEL 2
REMARK VINA RESULT:     -12.2      0.518      6.183
REMARK SMILES C[C@H]1[C@H](C(=O)NCCCCNC(=O)c2ccc(-c3c4nc(c(-c5c(F)cccc5F)c5ccc([nH]5)c(-c5c(F)cccc5F)c5nc(c(-c6c(F)cccc6F)c6ccc3[nH]6)C=C5)C=C4)cc2)CC[N@@H+]1[C@@H](c1ccccc1)c1ccco1
REMARK SMILES IDX 8 1 7 2 6 3 4 4 5 5 3 7 1 8 2 9 70 10 68 11 69 12 71 14
REMARK SMILES IDX 72 15 73 16 77 17 74 18 76 19 75 20 78 21 79 22 82 23 80 24
REMARK SMILES IDX 81 25 9 26 10 27 11 28 12 29 13 31 14 32 15 33 67 34 16 35
REMARK SMILES IDX 66 36 17 37 18 38 19 39 60 40 20 41 65 42 59 43 61 44 21 45
REMARK SMILES IDX 64 46 58 47 57 48 22 50 48 51 31 52 47 53 32 54 35 55 46 56
REMARK SMILES IDX 62 57 33 58 34 59 45 61 63 62 36 63 23 64 24 65 29 66 25 67
REMARK SMILES IDX 26 68 28 69 30 70 27 71 49 72 50 73 55 74 51 75 52 76 54 77
REMARK SMILES IDX 56 78 53 79 37 80 38 81 43 82 39 83 40 84 42 85 44 86 41 87
REMARK H PARENT 6 6 70 13 11 30 61 49 35 60
REMARK Flexibility Score: inf
ROOT
ATOM      1  C   UNL A   1      35.943  21.075  24.994  1.00  0.00     0.023 C 
ENDROOT
BRANCH   1   2
ATOM      2  C   UNL A   1      34.641  21.746  24.542  1.00  0.00     0.116 C 
BRANCH   2   3
ATOM      3  N   UNL A   1      34.054  22.581  25.570  1.00  0.00    -0.356 N 
ATOM      4  C   UNL A   1      33.260  23.683  25.502  1.00  0.00     0.229 C 
ATOM      5  O   UNL A   1      32.826  24.091  26.587  1.00  0.00    -0.275 OA
ATOM      6  H   UNL A   1      34.269  22.299  26.488  1.00  0.00     0.163 HD
BRANCH   4   7
ATOM      7  C   UNL A   1      32.837  24.406  24.221  1.00  0.00     0.142 C 
ATOM      8  C   UNL A   1      30.642  23.753  23.192  1.00  0.00     0.076 C 
ATOM      9  C   UNL A   1      31.363  24.803  24.049  1.00  0.00     0.194 C 
ATOM     10  N   UNL A   1      31.341  26.101  23.323  1.00  0.00    -0.319 N 
ATOM     11  C   UNL A   1      33.616  25.667  23.892  1.00  0.00     0.081 C 
ATOM     12  C   UNL A   1      32.706  26.375  22.888  1.00  0.00     0.264 C 
ATOM     13  H   UNL A   1      30.768  26.043  22.482  1.00  0.00     0.349 HD
BRANCH  10  14
ATOM     14  C   UNL A   1      30.578  27.185  23.993  1.00  0.00     0.283 C 
BRANCH  14  15
ATOM     15  C   UNL A   1      31.250  28.049  25.067  1.00  0.00     0.017 A 
ATOM     16  C   UNL A   1      31.388  27.506  26.356  1.00  0.00     0.010 A 
ATOM     17  C   UNL A   1      31.566  29.410  24.906  1.00  0.00     0.010 A 
ATOM     18  C   UNL A   1      31.872  28.278  27.408  1.00  0.00     0.001 A 
ATOM     19  C   UNL A   1      32.141  30.153  25.938  1.00  0.00     0.001 A 
ATOM     20  C   UNL A   1      32.304  29.581  27.191  1.00  0.00     0.000 A 
ENDBRANCH  14  15
BRANCH  14  21
ATOM     21  C   UNL A   1      29.730  28.057  23.088  1.00  0.00     0.165 A 
ATOM     22  C   UNL A   1      28.440  28.544  23.197  1.00  0.00     0.052 A 
ATOM     23  O   UNL A   1      30.384  28.745  22.097  1.00  0.00    -0.463 OA
ATOM     24  C   UNL A   1      28.351  29.655  22.317  1.00  0.00     0.042 A 
ATOM     25  C   UNL A   1      29.564  29.738  21.678  1.00  0.00     0.195 A 
ENDBRANCH  14  21
ENDBRANCH  10  14
ENDBRANCH   4   7
ENDBRANCH   2   3
ENDBRANCH   1   2
BRANCH   1  26
ATOM     26  C   UNL A   1      37.225  21.879  24.736  1.00  0.00     0.023 C 
BRANCH  26  27
ATOM     27  C   UNL A   1      38.366  21.679  25.737  1.00  0.00     0.116 C 
BRANCH  27  28
ATOM     28  N   UNL A   1      39.128  20.458  25.532  1.00  0.00    -0.352 N 
ATOM     29  C   UNL A   1      40.386  20.109  25.979  1.00  0.00     0.251 C 
ATOM     30  H   UNL A   1      38.676  19.772  24.990  1.00  0.00     0.163 HD
ATOM     31  O   UNL A   1      40.841  18.995  25.758  1.00  0.00    -0.269 OA
BRANCH  29  32
ATOM     32  C   UNL A   1      41.235  21.126  26.630  1.00  0.00     0.039 A 
ATOM     33  C   UNL A   1      41.967  21.981  25.799  1.00  0.00     0.014 A 
ATOM     34  C   UNL A   1      41.210  21.322  28.010  1.00  0.00     0.014 A 
ATOM     35  C   UNL A   1      42.541  23.128  26.336  1.00  0.00     0.010 A 
ATOM     36  C   UNL A   1      41.708  22.507  28.530  1.00  0.00     0.010 A 
ATOM     37  C   UNL A   1      42.339  23.437  27.688  1.00  0.00    -0.014 A 
BRANCH  37  38
ATOM     38  C   UNL A   1      42.709  24.765  28.223  1.00  0.00     0.031 A 
ATOM     39  C   UNL A   1      41.659  25.815  28.410  1.00  0.00     0.074 A 
ATOM     40  C   UNL A   1      44.012  25.032  28.446  1.00  0.00     0.049 A 
ATOM     41  N   UNL A   1      41.791  27.053  28.805  1.00  0.00    -0.248 NA
ATOM     42  C   UNL A   1      40.278  25.433  28.072  1.00  0.00     0.031 C 
ATOM     43  C   UNL A   1      45.118  24.096  28.217  1.00  0.00     0.029 A 
ATOM     44  N   UNL A   1      44.632  26.163  28.906  1.00  0.00    -0.354 N 
ATOM     45  C   UNL A   1      40.516  27.600  28.750  1.00  0.00     0.074 A 
ATOM     46  C   UNL A   1      39.636  26.581  28.224  1.00  0.00     0.031 C 
ATOM     47  C   UNL A   1      46.274  24.680  28.570  1.00  0.00     0.029 A 
ATOM     48  C   UNL A   1      45.997  26.039  29.019  1.00  0.00     0.049 A 
ATOM     49  H   UNL A   1      44.146  26.989  29.135  1.00  0.00     0.167 HD
ATOM     50  C   UNL A   1      40.116  28.836  29.131  1.00  0.00     0.037 A 
ATOM     51  C   UNL A   1      46.916  26.925  29.443  1.00  0.00     0.037 A 
ATOM     52  C   UNL A   1      41.010  29.826  29.670  1.00  0.00     0.049 A 
ATOM     53  C   UNL A   1      46.443  28.280  29.892  1.00  0.00     0.074 A 
ATOM     54  C   UNL A   1      40.717  31.093  30.139  1.00  0.00     0.029 A 
ATOM     55  N   UNL A   1      42.381  29.651  29.811  1.00  0.00    -0.354 N 
ATOM     56  N   UNL A   1      45.222  28.761  29.908  1.00  0.00    -0.248 NA
ATOM     57  C   UNL A   1      47.464  29.208  30.390  1.00  0.00     0.031 C 
ATOM     58  C   UNL A   1      41.917  31.698  30.533  1.00  0.00     0.029 A 
ATOM     59  C   UNL A   1      42.951  30.792  30.348  1.00  0.00     0.049 A 
ATOM     60  H   UNL A   1      42.874  28.835  29.564  1.00  0.00     0.167 HD
ATOM     61  C   UNL A   1      45.324  30.040  30.437  1.00  0.00     0.074 A 
ATOM     62  C   UNL A   1      46.725  30.249  30.747  1.00  0.00     0.031 C 
ATOM     63  C   UNL A   1      44.351  30.960  30.646  1.00  0.00     0.037 A 
BRANCH  50  64
ATOM     64  C   UNL A   1      38.660  29.163  28.978  1.00  0.00     0.057 A 
ATOM     65  C   UNL A   1      38.125  29.594  27.755  1.00  0.00     0.134 A 
ATOM     66  C   UNL A   1      37.781  29.058  30.064  1.00  0.00     0.134 A 
ATOM     67  F   UNL A   1      38.914  29.733  26.680  1.00  0.00    -0.206 F 
ATOM     68  C   UNL A   1      36.780  29.945  27.628  1.00  0.00     0.040 A 
ATOM     69  C   UNL A   1      36.427  29.378  29.940  1.00  0.00     0.040 A 
ATOM     70  F   UNL A   1      38.222  28.650  31.262  1.00  0.00    -0.206 F 
ATOM     71  C   UNL A   1      35.925  29.832  28.722  1.00  0.00     0.006 A 
ENDBRANCH  50  64
BRANCH  51  72
ATOM     72  C   UNL A   1      48.352  26.545  29.509  1.00  0.00     0.057 A 
ATOM     73  C   UNL A   1      48.871  25.879  30.626  1.00  0.00     0.134 A 
ATOM     74  C   UNL A   1      49.237  26.823  28.460  1.00  0.00     0.134 A 
ATOM     75  F   UNL A   1      48.078  25.595  31.670  1.00  0.00    -0.206 F 
ATOM     76  C   UNL A   1      50.218  25.520  30.706  1.00  0.00     0.040 A 
ATOM     77  C   UNL A   1      50.581  26.449  28.515  1.00  0.00     0.040 A 
ATOM     78  F   UNL A   1      48.802  27.447  27.355  1.00  0.00    -0.206 F 
ATOM     79  C   UNL A   1      51.076  25.800  29.645  1.00  0.00     0.006 A 
ENDBRANCH  51  72
BRANCH  63  80
ATOM     80  C   UNL A   1      44.773  32.261  31.259  1.00  0.00     0.057 A 
ATOM     81  C   UNL A   1      45.126  33.364  30.473  1.00  0.00     0.134 A 
ATOM     82  C   UNL A   1      44.783  32.422  32.650  1.00  0.00     0.134 A 
ATOM     83  F   UNL A   1      45.149  33.266  29.134  1.00  0.00    -0.206 F 
ATOM     84  C   UNL A   1      45.494  34.579  31.051  1.00  0.00     0.040 A 
ATOM     85  C   UNL A   1      45.124  33.639  33.238  1.00  0.00     0.040 A 
ATOM     86  F   UNL A   1      44.447  31.403  33.456  1.00  0.00    -0.206 F 
ATOM     87  C   UNL A   1      45.486  34.721  32.437  1.00  0.00     0.006 A 
ENDBRANCH  63  80
ENDBRANCH  37  38
ENDBRANCH  29  32
ENDBRANCH  27  28
ENDBRANCH  26  27
ENDBRANCH   1  26
TORSDOF 14
ENDMDL
MODEL 3
REMARK VINA RESULT:     -12.2      2.294      7.976
REMARK SMILES C[C@H]1[C@H](C(=O)NCCCCNC(=O)c2ccc(-c3c4nc(c(-c5c(F)cccc5F)c5ccc([nH]5)c(-c5c(F)cccc5F)c5nc(c(-c6c(F)cccc6F)c6ccc3[nH]6)C=C5)C=C4)cc2)CC[N@@H+]1[C@@H](c1ccccc1)c1ccco1
REMARK SMILES IDX 8 1 7 2 6 3 4 4 5 5 3 7 1 8 2 9 70 10 68 11 69 12 71 14
REMARK SMILES IDX 72 15 73 16 77 17 74 18 76 19 75 20 78 21 79 22 82 23 80 24
REMARK SMILES IDX 81 25 9 26 10 27 11 28 12 29 13 31 14 32 15 33 67 34 16 35
REMARK SMILES IDX 66 36 17 37 18 38 19 39 60 40 20 41 65 42 59 43 61 44 21 45
REMARK SMILES IDX 64 46 58 47 57 48 22 50 48 51 31 52 47 53 32 54 35 55 46 56
REMARK SMILES IDX 62 57 33 58 34 59 45 61 63 62 36 63 23 64 24 65 29 66 25 67
REMARK SMILES IDX 26 68 28 69 30 70 27 71 49 72 50 73 55 74 51 75 52 76 54 77
REMARK SMILES IDX 56 78 53 79 37 80 38 81 43 82 39 83 40 84 42 85 44 86 41 87
REMARK H PARENT 6 6 70 13 11 30 61 49 35 60
REMARK Flexibility Score: inf
ROOT
ATOM      1  C   UNL A   1      31.804  28.330  27.118  1.00  0.00     0.023 C 
ENDROOT
BRANCH   1   2
ATOM      2  C   UNL A   1      31.400  27.552  25.860  1.00  0.00     0.116 C 
BRANCH   2   3
ATOM      3  N   UNL A   1      32.541  27.061  25.114  1.00  0.00    -0.356 N 
ATOM      4  C   UNL A   1      32.912  25.808  24.741  1.00  0.00     0.229 C 
ATOM      5  O   UNL A   1      33.897  25.746  23.993  1.00  0.00    -0.275 OA
ATOM      6  H   UNL A   1      33.164  27.766  24.824  1.00  0.00     0.163 HD
BRANCH   4   7
ATOM      7  C   UNL A   1      32.196  24.510  25.123  1.00  0.00     0.142 C 
ATOM      8  C   UNL A   1      31.407  23.027  23.257  1.00  0.00     0.076 C 
ATOM      9  C   UNL A   1      32.496  23.235  24.319  1.00  0.00     0.194 C 
ATOM     10  N   UNL A   1      32.451  22.095  25.272  1.00  0.00    -0.319 N 
ATOM     11  C   UNL A   1      32.334  24.089  26.575  1.00  0.00     0.081 C 
ATOM     12  C   UNL A   1      31.944  22.611  26.539  1.00  0.00     0.264 C 
ATOM     13  H   UNL A   1      31.796  21.380  24.959  1.00  0.00     0.349 HD
BRANCH  10  14
ATOM     14  C   UNL A   1      33.665  21.240  25.290  1.00  0.00     0.283 C 
BRANCH  14  15
ATOM     15  C   UNL A   1      33.674  19.899  24.545  1.00  0.00     0.017 A 
ATOM     16  C   UNL A   1      32.556  19.580  23.755  1.00  0.00     0.010 A 
ATOM     17  C   UNL A   1      34.630  18.888  24.743  1.00  0.00     0.010 A 
ATOM     18  C   UNL A   1      32.440  18.330  23.152  1.00  0.00     0.001 A 
ATOM     19  C   UNL A   1      34.559  17.672  24.062  1.00  0.00     0.001 A 
ATOM     20  C   UNL A   1      33.465  17.397  23.256  1.00  0.00     0.000 A 
ENDBRANCH  14  15
BRANCH  14  21
ATOM     21  C   UNL A   1      34.985  21.955  25.075  1.00  0.00     0.165 A 
ATOM     22  C   UNL A   1      35.757  22.177  23.949  1.00  0.00     0.052 A 
ATOM     23  O   UNL A   1      35.412  22.786  26.080  1.00  0.00    -0.463 OA
ATOM     24  C   UNL A   1      36.607  23.274  24.252  1.00  0.00     0.042 A 
ATOM     25  C   UNL A   1      36.350  23.611  25.559  1.00  0.00     0.195 A 
ENDBRANCH  14  21
ENDBRANCH  10  14
ENDBRANCH   4   7
ENDBRANCH   2   3
ENDBRANCH   1   2
BRANCH   1  26
ATOM     26  C   UNL A   1      33.313  28.519  27.323  1.00  0.00     0.023 C 
BRANCH  26  27
ATOM     27  C   UNL A   1      33.884  29.887  26.945  1.00  0.00     0.116 C 
BRANCH  27  28
ATOM     28  N   UNL A   1      33.988  30.816  28.059  1.00  0.00    -0.352 N 
ATOM     29  C   UNL A   1      35.042  31.067  28.913  1.00  0.00     0.251 C 
ATOM     30  H   UNL A   1      33.179  31.350  28.230  1.00  0.00     0.163 HD
ATOM     31  O   UNL A   1      34.963  31.945  29.761  1.00  0.00    -0.269 OA
BRANCH  29  32
ATOM     32  C   UNL A   1      36.230  30.193  28.879  1.00  0.00     0.039 A 
ATOM     33  C   UNL A   1      37.027  30.235  27.731  1.00  0.00     0.014 A 
ATOM     34  C   UNL A   1      36.624  29.454  29.994  1.00  0.00     0.014 A 
ATOM     35  C   UNL A   1      38.298  29.670  27.760  1.00  0.00     0.010 A 
ATOM     36  C   UNL A   1      37.921  28.965  30.053  1.00  0.00     0.010 A 
ATOM     37  C   UNL A   1      38.780  29.108  28.951  1.00  0.00    -0.014 A 
BRANCH  37  38
ATOM     38  C   UNL A   1      40.205  28.738  29.088  1.00  0.00     0.031 A 
ATOM     39  C   UNL A   1      41.186  29.732  29.625  1.00  0.00     0.074 A 
ATOM     40  C   UNL A   1      40.606  27.533  28.637  1.00  0.00     0.049 A 
ATOM     41  N   UNL A   1      42.480  29.622  29.765  1.00  0.00    -0.248 NA
ATOM     42  C   UNL A   1      40.646  31.041  30.027  1.00  0.00     0.031 C 
ATOM     43  C   UNL A   1      39.733  26.526  28.024  1.00  0.00     0.029 A 
ATOM     44  N   UNL A   1      41.845  26.948  28.615  1.00  0.00    -0.354 N 
ATOM     45  C   UNL A   1      42.909  30.848  30.255  1.00  0.00     0.074 A 
ATOM     46  C   UNL A   1      41.749  31.707  30.329  1.00  0.00     0.031 C 
ATOM     47  C   UNL A   1      40.458  25.438  27.718  1.00  0.00     0.029 A 
ATOM     48  C   UNL A   1      41.848  25.680  28.083  1.00  0.00     0.049 A 
ATOM     49  H   UNL A   1      42.657  27.394  28.948  1.00  0.00     0.167 HD
ATOM     50  C   UNL A   1      44.157  31.210  30.633  1.00  0.00     0.037 A 
ATOM     51  C   UNL A   1      42.863  24.812  27.917  1.00  0.00     0.037 A 
ATOM     52  C   UNL A   1      45.292  30.328  30.567  1.00  0.00     0.049 A 
ATOM     53  C   UNL A   1      44.233  25.226  28.375  1.00  0.00     0.074 A 
ATOM     54  C   UNL A   1      46.595  30.562  30.967  1.00  0.00     0.029 A 
ATOM     55  N   UNL A   1      45.251  29.035  30.062  1.00  0.00    -0.354 N 
ATOM     56  N   UNL A   1      44.615  26.362  28.909  1.00  0.00    -0.248 NA
ATOM     57  C   UNL A   1      45.310  24.241  28.220  1.00  0.00     0.031 C 
ATOM     58  C   UNL A   1      47.349  29.419  30.675  1.00  0.00     0.029 A 
ATOM     59  C   UNL A   1      46.508  28.460  30.130  1.00  0.00     0.049 A 
ATOM     60  H   UNL A   1      44.446  28.592  29.709  1.00  0.00     0.167 HD
ATOM     61  C   UNL A   1      45.969  26.223  29.175  1.00  0.00     0.074 A 
ATOM     62  C   UNL A   1      46.337  24.884  28.759  1.00  0.00     0.031 C 
ATOM     63  C   UNL A   1      46.834  27.120  29.710  1.00  0.00     0.037 A 
BRANCH  50  64
ATOM     64  C   UNL A   1      44.339  32.607  31.149  1.00  0.00     0.057 A 
ATOM     65  C   UNL A   1      44.679  33.669  30.299  1.00  0.00     0.134 A 
ATOM     66  C   UNL A   1      44.184  32.897  32.511  1.00  0.00     0.134 A 
ATOM     67  F   UNL A   1      44.859  33.459  28.986  1.00  0.00    -0.206 F 
ATOM     68  C   UNL A   1      44.895  34.959  30.788  1.00  0.00     0.040 A 
ATOM     69  C   UNL A   1      44.370  34.190  33.007  1.00  0.00     0.040 A 
ATOM     70  F   UNL A   1      43.858  31.931  33.381  1.00  0.00    -0.206 F 
ATOM     71  C   UNL A   1      44.736  35.223  32.147  1.00  0.00     0.006 A 
ENDBRANCH  50  64
BRANCH  51  72
ATOM     72  C   UNL A   1      42.613  23.465  27.340  1.00  0.00     0.057 A 
ATOM     73  C   UNL A   1      42.232  22.392  28.155  1.00  0.00     0.134 A 
ATOM     74  C   UNL A   1      42.733  23.217  25.967  1.00  0.00     0.134 A 
ATOM     75  F   UNL A   1      42.111  22.561  29.480  1.00  0.00    -0.206 F 
ATOM     76  C   UNL A   1      41.998  21.119  27.631  1.00  0.00     0.040 A 
ATOM     77  C   UNL A   1      42.479  21.955  25.425  1.00  0.00     0.040 A 
ATOM     78  F   UNL A   1      43.082  24.204  25.129  1.00  0.00    -0.206 F 
ATOM     79  C   UNL A   1      42.116  20.899  26.260  1.00  0.00     0.006 A 
ENDBRANCH  51  72
BRANCH  63  80
ATOM     80  C   UNL A   1      48.249  26.665  29.895  1.00  0.00     0.057 A 
ATOM     81  C   UNL A   1      49.220  26.862  28.905  1.00  0.00     0.134 A 
ATOM     82  C   UNL A   1      48.653  26.064  31.093  1.00  0.00     0.134 A 
ATOM     83  F   UNL A   1      48.890  27.420  27.730  1.00  0.00    -0.206 F 
ATOM     84  C   UNL A   1      50.541  26.458  29.095  1.00  0.00     0.040 A 
ATOM     85  C   UNL A   1      49.976  25.679  31.304  1.00  0.00     0.040 A 
ATOM     86  F   UNL A   1      47.769  25.856  32.082  1.00  0.00    -0.206 F 
ATOM     87  C   UNL A   1      50.923  25.872  30.301  1.00  0.00     0.006 A 
ENDBRANCH  63  80
ENDBRANCH  37  38
ENDBRANCH  29  32
ENDBRANCH  27  28
ENDBRANCH  26  27
ENDBRANCH   1  26
TORSDOF 14
ENDMDL
