MODEL 1
REMARK VINA RESULT:     -10.4      0.000      0.000
REMARK SMILES CC(C)[C@@H](CCC(=O)NCCCCNC(=O)c1ccc(-c2c3nc(c(-c4c(F)cccc4F)c4ccc([nH]4)c(-c4c(F)cccc4F)c4nc(c(-c5c(F)cccc5F)c5ccc2[nH]5)C=C4)C=C3)cc1)CC[NH+]1CC2(CC2)C1
REMARK SMILES IDX 10 1 9 2 7 3 8 4 6 6 5 7 4 8 2 9 1 10 3 11 71 12 72 13 73 14
REMARK SMILES IDX 74 15 78 16 75 18 76 19 77 20 11 21 12 22 13 23 14 24 15 25
REMARK SMILES IDX 16 27 17 28 18 29 70 30 19 31 69 32 20 33 21 34 22 35 63 36
REMARK SMILES IDX 23 37 68 38 62 39 64 40 24 41 67 42 61 43 60 44 25 46 51 47
REMARK SMILES IDX 34 48 50 49 35 50 38 51 49 52 65 53 36 54 37 55 48 57 66 58
REMARK SMILES IDX 39 59 26 60 27 61 32 62 28 63 29 64 31 65 33 66 30 67 52 68
REMARK SMILES IDX 53 69 58 70 54 71 55 72 57 73 59 74 56 75 40 76 41 77 46 78
REMARK SMILES IDX 42 79 43 80 45 81 47 82 44 83
REMARK H PARENT 9 5 73 17 14 26 64 45 38 56
REMARK Flexibility Score: inf
ROOT
ATOM      1  C   UNL A   1      33.549  29.601  26.456  1.00  0.00     0.116 C 
ENDROOT
BRANCH   1   2
ATOM      2  N   UNL A   1      33.579  29.637  25.008  1.00  0.00    -0.356 N 
ATOM      3  C   UNL A   1      33.526  28.645  24.080  1.00  0.00     0.220 C 
ATOM      4  O   UNL A   1      33.629  28.962  22.893  1.00  0.00    -0.275 OA
ATOM      5  H   UNL A   1      33.650  30.543  24.629  1.00  0.00     0.163 HD
BRANCH   3   6
ATOM      6  C   UNL A   1      33.330  27.200  24.486  1.00  0.00     0.100 C 
BRANCH   6   7
ATOM      7  C   UNL A   1      32.227  26.470  23.696  1.00  0.00     0.014 C 
BRANCH   7   8
ATOM      8  C   UNL A   1      30.856  26.208  24.422  1.00  0.00    -0.003 C 
BRANCH   8   9
ATOM      9  C   UNL A   1      30.544  24.666  24.477  1.00  0.00    -0.014 C 
ATOM     10  C   UNL A   1      31.046  23.973  23.195  1.00  0.00     0.007 C 
ATOM     11  C   UNL A   1      31.079  23.870  25.668  1.00  0.00     0.007 C 
ENDBRANCH   8   9
BRANCH   8  12
ATOM     12  C   UNL A   1      29.839  27.230  23.843  1.00  0.00     0.065 C 
BRANCH  12  13
ATOM     13  C   UNL A   1      30.115  28.053  22.571  1.00  0.00     0.262 C 
BRANCH  13  14
ATOM     14  N   UNL A   1      30.441  29.483  22.588  1.00  0.00    -0.334 N 
ATOM     15  C   UNL A   1      29.498  30.272  21.771  1.00  0.00     0.275 C 
ATOM     16  C   UNL A   1      30.066  30.240  23.787  1.00  0.00     0.275 C 
ATOM     17  H   UNL A   1      31.433  29.417  22.364  1.00  0.00     0.348 HD
ATOM     18  C   UNL A   1      28.902  30.747  23.035  1.00  0.00     0.068 C 
ATOM     19  C   UNL A   1      27.470  30.745  23.466  1.00  0.00     0.020 C 
ATOM     20  C   UNL A   1      28.189  32.045  23.246  1.00  0.00     0.020 C 
ENDBRANCH  13  14
ENDBRANCH  12  13
ENDBRANCH   8  12
ENDBRANCH   7   8
ENDBRANCH   6   7
ENDBRANCH   3   6
ENDBRANCH   1   2
BRANCH   1  21
ATOM     21  C   UNL A   1      32.206  30.039  27.033  1.00  0.00     0.023 C 
BRANCH  21  22
ATOM     22  C   UNL A   1      31.844  31.504  26.790  1.00  0.00     0.023 C 
BRANCH  22  23
ATOM     23  C   UNL A   1      32.911  32.442  27.310  1.00  0.00     0.116 C 
BRANCH  23  24
ATOM     24  N   UNL A   1      32.492  33.808  27.589  1.00  0.00    -0.352 N 
ATOM     25  C   UNL A   1      33.074  34.697  28.475  1.00  0.00     0.251 C 
ATOM     26  H   UNL A   1      31.707  34.135  27.093  1.00  0.00     0.163 HD
ATOM     27  O   UNL A   1      32.584  35.808  28.656  1.00  0.00    -0.269 OA
BRANCH  25  28
ATOM     28  C   UNL A   1      34.261  34.267  29.258  1.00  0.00     0.039 A 
ATOM     29  C   UNL A   1      34.092  33.572  30.457  1.00  0.00     0.014 A 
ATOM     30  C   UNL A   1      35.546  34.479  28.767  1.00  0.00     0.014 A 
ATOM     31  C   UNL A   1      35.207  33.022  31.099  1.00  0.00     0.010 A 
ATOM     32  C   UNL A   1      36.617  33.781  29.295  1.00  0.00     0.010 A 
ATOM     33  C   UNL A   1      36.474  33.081  30.496  1.00  0.00    -0.014 A 
BRANCH  33  34
ATOM     34  C   UNL A   1      37.686  32.492  31.117  1.00  0.00     0.031 A 
ATOM     35  C   UNL A   1      38.351  31.300  30.468  1.00  0.00     0.074 A 
ATOM     36  C   UNL A   1      38.136  32.961  32.297  1.00  0.00     0.049 A 
ATOM     37  N   UNL A   1      39.351  30.572  30.894  1.00  0.00    -0.248 NA
ATOM     38  C   UNL A   1      37.771  30.821  29.200  1.00  0.00     0.031 C 
ATOM     39  C   UNL A   1      37.523  34.040  33.076  1.00  0.00     0.029 A 
ATOM     40  N   UNL A   1      39.219  32.585  33.050  1.00  0.00    -0.354 N 
ATOM     41  C   UNL A   1      39.482  29.539  29.974  1.00  0.00     0.074 A 
ATOM     42  C   UNL A   1      38.407  29.675  29.022  1.00  0.00     0.031 C 
ATOM     43  C   UNL A   1      38.271  34.277  34.166  1.00  0.00     0.029 A 
ATOM     44  C   UNL A   1      39.395  33.348  34.179  1.00  0.00     0.049 A 
ATOM     45  H   UNL A   1      39.813  31.839  32.805  1.00  0.00     0.167 HD
ATOM     46  C   UNL A   1      40.443  28.588  29.893  1.00  0.00     0.037 A 
ATOM     47  C   UNL A   1      40.369  33.308  35.108  1.00  0.00     0.037 A 
ATOM     48  C   UNL A   1      41.559  28.512  30.794  1.00  0.00     0.049 A 
ATOM     49  C   UNL A   1      41.476  32.304  34.950  1.00  0.00     0.074 A 
ATOM     50  C   UNL A   1      42.643  27.654  30.759  1.00  0.00     0.029 A 
ATOM     51  N   UNL A   1      41.741  29.350  31.884  1.00  0.00    -0.354 N 
ATOM     52  N   UNL A   1      41.633  31.381  34.031  1.00  0.00    -0.248 NA
ATOM     53  C   UNL A   1      42.551  32.345  35.950  1.00  0.00     0.031 C 
ATOM     54  C   UNL A   1      43.470  27.958  31.846  1.00  0.00     0.029 A 
ATOM     55  C   UNL A   1      42.919  29.028  32.534  1.00  0.00     0.049 A 
ATOM     56  H   UNL A   1      41.124  30.067  32.157  1.00  0.00     0.167 HD
ATOM     57  C   UNL A   1      42.832  30.748  34.326  1.00  0.00     0.074 A 
ATOM     58  C   UNL A   1      43.373  31.409  35.497  1.00  0.00     0.031 C 
ATOM     59  C   UNL A   1      43.433  29.710  33.694  1.00  0.00     0.037 A 
BRANCH  46  60
ATOM     60  C   UNL A   1      40.339  27.593  28.772  1.00  0.00     0.057 A 
ATOM     61  C   UNL A   1      41.011  27.776  27.554  1.00  0.00     0.134 A 
ATOM     62  C   UNL A   1      39.553  26.442  28.905  1.00  0.00     0.134 A 
ATOM     63  F   UNL A   1      41.766  28.867  27.352  1.00  0.00    -0.206 F 
ATOM     64  C   UNL A   1      40.872  26.875  26.497  1.00  0.00     0.040 A 
ATOM     65  C   UNL A   1      39.434  25.516  27.867  1.00  0.00     0.040 A 
ATOM     66  F   UNL A   1      38.886  26.199  30.043  1.00  0.00    -0.206 F 
ATOM     67  C   UNL A   1      40.085  25.737  26.655  1.00  0.00     0.006 A 
ENDBRANCH  46  60
BRANCH  47  68
ATOM     68  C   UNL A   1      40.381  34.290  36.220  1.00  0.00     0.057 A 
ATOM     69  C   UNL A   1      39.781  33.989  37.450  1.00  0.00     0.134 A 
ATOM     70  C   UNL A   1      40.987  35.545  36.091  1.00  0.00     0.134 A 
ATOM     71  F   UNL A   1      39.173  32.808  37.631  1.00  0.00    -0.206 F 
ATOM     72  C   UNL A   1      39.762  34.907  38.501  1.00  0.00     0.040 A 
ATOM     73  C   UNL A   1      40.996  36.465  37.141  1.00  0.00     0.040 A 
ATOM     74  F   UNL A   1      41.590  35.890  34.944  1.00  0.00    -0.206 F 
ATOM     75  C   UNL A   1      40.375  36.149  38.349  1.00  0.00     0.006 A 
ENDBRANCH  47  68
BRANCH  59  76
ATOM     76  C   UNL A   1      44.750  29.253  34.243  1.00  0.00     0.057 A 
ATOM     77  C   UNL A   1      45.961  29.800  33.802  1.00  0.00     0.134 A 
ATOM     78  C   UNL A   1      44.804  28.274  35.244  1.00  0.00     0.134 A 
ATOM     79  F   UNL A   1      45.975  30.733  32.839  1.00  0.00    -0.206 F 
ATOM     80  C   UNL A   1      47.184  29.367  34.316  1.00  0.00     0.040 A 
ATOM     81  C   UNL A   1      46.018  27.853  35.784  1.00  0.00     0.040 A 
ATOM     82  F   UNL A   1      43.677  27.720  35.716  1.00  0.00    -0.206 F 
ATOM     83  C   UNL A   1      47.213  28.395  35.314  1.00  0.00     0.006 A 
ENDBRANCH  59  76
ENDBRANCH  33  34
ENDBRANCH  25  28
ENDBRANCH  23  24
ENDBRANCH  22  23
ENDBRANCH  21  22
ENDBRANCH   1  21
TORSDOF 17
ENDMDL
MODEL 2
REMARK VINA RESULT:     -10.4      5.507      9.891
REMARK SMILES CC(C)[C@@H](CCC(=O)NCCCCNC(=O)c1ccc(-c2c3nc(c(-c4c(F)cccc4F)c4ccc([nH]4)c(-c4c(F)cccc4F)c4nc(c(-c5c(F)cccc5F)c5ccc2[nH]5)C=C4)C=C3)cc1)CC[NH+]1CC2(CC2)C1
REMARK SMILES IDX 10 1 9 2 7 3 8 4 6 6 5 7 4 8 2 9 1 10 3 11 71 12 72 13 73 14
REMARK SMILES IDX 74 15 78 16 75 18 76 19 77 20 11 21 12 22 13 23 14 24 15 25
REMARK SMILES IDX 16 27 17 28 18 29 70 30 19 31 69 32 20 33 21 34 22 35 63 36
REMARK SMILES IDX 23 37 68 38 62 39 64 40 24 41 67 42 61 43 60 44 25 46 51 47
REMARK SMILES IDX 34 48 50 49 35 50 38 51 49 52 65 53 36 54 37 55 48 57 66 58
REMARK SMILES IDX 39 59 26 60 27 61 32 62 28 63 29 64 31 65 33 66 30 67 52 68
REMARK SMILES IDX 53 69 58 70 54 71 55 72 57 73 59 74 56 75 40 76 41 77 46 78
REMARK SMILES IDX 42 79 43 80 45 81 47 82 44 83
REMARK H PARENT 9 5 73 17 14 26 64 45 38 56
REMARK Flexibility Score: inf
ROOT
ATOM      1  C   UNL A   1      37.284  22.280  24.333  1.00  0.00     0.116 C 
ENDROOT
BRANCH   1   2
ATOM      2  N   UNL A   1      36.290  22.659  23.349  1.00  0.00    -0.356 N 
ATOM      3  C   UNL A   1      35.178  23.434  23.444  1.00  0.00     0.220 C 
ATOM      4  O   UNL A   1      34.467  23.546  22.442  1.00  0.00    -0.275 OA
ATOM      5  H   UNL A   1      36.450  22.287  22.451  1.00  0.00     0.163 HD
BRANCH   3   6
ATOM      6  C   UNL A   1      34.829  24.153  24.729  1.00  0.00     0.100 C 
BRANCH   6   7
ATOM      7  C   UNL A   1      33.851  23.380  25.636  1.00  0.00     0.014 C 
BRANCH   7   8
ATOM      8  C   UNL A   1      32.324  23.411  25.262  1.00  0.00    -0.003 C 
BRANCH   8   9
ATOM      9  C   UNL A   1      31.477  24.018  26.442  1.00  0.00    -0.014 C 
ATOM     10  C   UNL A   1      31.065  25.467  26.116  1.00  0.00     0.007 C 
ATOM     11  C   UNL A   1      30.217  23.270  26.877  1.00  0.00     0.007 C 
ENDBRANCH   8   9
BRANCH   8  12
ATOM     12  C   UNL A   1      31.986  22.029  24.637  1.00  0.00     0.065 C 
BRANCH  12  13
ATOM     13  C   UNL A   1      32.732  20.737  25.015  1.00  0.00     0.262 C 
BRANCH  13  14
ATOM     14  N   UNL A   1      32.155  19.396  24.869  1.00  0.00    -0.334 N 
ATOM     15  C   UNL A   1      32.574  18.751  23.610  1.00  0.00     0.275 C 
ATOM     16  C   UNL A   1      32.767  18.316  25.650  1.00  0.00     0.275 C 
ATOM     17  H   UNL A   1      31.181  19.627  25.066  1.00  0.00     0.348 HD
ATOM     18  C   UNL A   1      33.468  17.900  24.419  1.00  0.00     0.068 C 
ATOM     19  C   UNL A   1      34.930  17.633  24.251  1.00  0.00     0.020 C 
ATOM     20  C   UNL A   1      33.936  16.523  24.071  1.00  0.00     0.020 C 
ENDBRANCH  13  14
ENDBRANCH  12  13
ENDBRANCH   8  12
ENDBRANCH   7   8
ENDBRANCH   6   7
ENDBRANCH   3   6
ENDBRANCH   1   2
BRANCH   1  21
ATOM     21  C   UNL A   1      36.888  21.042  25.132  1.00  0.00     0.023 C 
BRANCH  21  22
ATOM     22  C   UNL A   1      37.863  19.870  25.035  1.00  0.00     0.023 C 
BRANCH  22  23
ATOM     23  C   UNL A   1      39.164  20.157  25.753  1.00  0.00     0.116 C 
BRANCH  23  24
ATOM     24  N   UNL A   1      40.154  19.089  25.751  1.00  0.00    -0.352 N 
ATOM     25  C   UNL A   1      41.505  19.202  26.024  1.00  0.00     0.251 C 
ATOM     26  H   UNL A   1      39.825  18.188  25.531  1.00  0.00     0.163 HD
ATOM     27  O   UNL A   1      42.243  18.225  25.933  1.00  0.00    -0.269 OA
BRANCH  25  28
ATOM     28  C   UNL A   1      42.068  20.535  26.361  1.00  0.00     0.039 A 
ATOM     29  C   UNL A   1      42.395  21.432  25.342  1.00  0.00     0.014 A 
ATOM     30  C   UNL A   1      42.197  20.932  27.688  1.00  0.00     0.014 A 
ATOM     31  C   UNL A   1      42.762  22.742  25.668  1.00  0.00     0.010 A 
ATOM     32  C   UNL A   1      42.373  22.268  28.001  1.00  0.00     0.010 A 
ATOM     33  C   UNL A   1      42.706  23.184  27.000  1.00  0.00    -0.014 A 
BRANCH  33  34
ATOM     34  C   UNL A   1      43.056  24.570  27.401  1.00  0.00     0.031 A 
ATOM     35  C   UNL A   1      44.496  25.022  27.335  1.00  0.00     0.074 A 
ATOM     36  C   UNL A   1      42.110  25.386  27.903  1.00  0.00     0.049 A 
ATOM     37  N   UNL A   1      45.033  26.148  27.731  1.00  0.00    -0.248 NA
ATOM     38  C   UNL A   1      45.477  24.053  26.813  1.00  0.00     0.031 C 
ATOM     39  C   UNL A   1      40.703  25.035  28.113  1.00  0.00     0.029 A 
ATOM     40  N   UNL A   1      42.193  26.687  28.331  1.00  0.00    -0.354 N 
ATOM     41  C   UNL A   1      46.402  25.997  27.546  1.00  0.00     0.074 A 
ATOM     42  C   UNL A   1      46.625  24.645  27.094  1.00  0.00     0.031 C 
ATOM     43  C   UNL A   1      40.045  26.110  28.575  1.00  0.00     0.029 A 
ATOM     44  C   UNL A   1      40.986  27.214  28.723  1.00  0.00     0.049 A 
ATOM     45  H   UNL A   1      43.036  27.194  28.354  1.00  0.00     0.167 HD
ATOM     46  C   UNL A   1      47.386  26.916  27.687  1.00  0.00     0.037 A 
ATOM     47  C   UNL A   1      40.678  28.457  29.138  1.00  0.00     0.037 A 
ATOM     48  C   UNL A   1      47.145  28.284  28.053  1.00  0.00     0.049 A 
ATOM     49  C   UNL A   1      41.770  29.489  29.201  1.00  0.00     0.074 A 
ATOM     50  C   UNL A   1      48.047  29.329  28.139  1.00  0.00     0.029 A 
ATOM     51  N   UNL A   1      45.897  28.799  28.373  1.00  0.00    -0.354 N 
ATOM     52  N   UNL A   1      43.050  29.355  28.947  1.00  0.00    -0.248 NA
ATOM     53  C   UNL A   1      41.373  30.847  29.592  1.00  0.00     0.031 C 
ATOM     54  C   UNL A   1      47.345  30.474  28.536  1.00  0.00     0.029 A 
ATOM     55  C   UNL A   1      46.004  30.148  28.660  1.00  0.00     0.049 A 
ATOM     56  H   UNL A   1      45.060  28.281  28.394  1.00  0.00     0.167 HD
ATOM     57  C   UNL A   1      43.607  30.615  29.125  1.00  0.00     0.074 A 
ATOM     58  C   UNL A   1      42.520  31.502  29.485  1.00  0.00     0.031 C 
ATOM     59  C   UNL A   1      44.901  31.005  29.009  1.00  0.00     0.037 A 
BRANCH  46  60
ATOM     60  C   UNL A   1      48.793  26.472  27.404  1.00  0.00     0.057 A 
ATOM     61  C   UNL A   1      49.335  26.505  26.110  1.00  0.00     0.134 A 
ATOM     62  C   UNL A   1      49.617  25.998  28.433  1.00  0.00     0.134 A 
ATOM     63  F   UNL A   1      48.595  26.931  25.075  1.00  0.00    -0.206 F 
ATOM     64  C   UNL A   1      50.625  26.045  25.843  1.00  0.00     0.040 A 
ATOM     65  C   UNL A   1      50.921  25.566  28.183  1.00  0.00     0.040 A 
ATOM     66  F   UNL A   1      49.167  25.941  29.695  1.00  0.00    -0.206 F 
ATOM     67  C   UNL A   1      51.424  25.579  26.884  1.00  0.00     0.006 A 
ENDBRANCH  46  60
BRANCH  47  68
ATOM     68  C   UNL A   1      39.272  28.813  29.452  1.00  0.00     0.057 A 
ATOM     69  C   UNL A   1      38.434  29.361  28.473  1.00  0.00     0.134 A 
ATOM     70  C   UNL A   1      38.729  28.617  30.727  1.00  0.00     0.134 A 
ATOM     71  F   UNL A   1      38.900  29.585  27.236  1.00  0.00    -0.206 F 
ATOM     72  C   UNL A   1      37.116  29.724  28.754  1.00  0.00     0.040 A 
ATOM     73  C   UNL A   1      37.405  28.953  31.017  1.00  0.00     0.040 A 
ATOM     74  F   UNL A   1      39.474  28.085  31.706  1.00  0.00    -0.206 F 
ATOM     75  C   UNL A   1      36.596  29.516  30.030  1.00  0.00     0.006 A 
ENDBRANCH  47  68
BRANCH  59  76
ATOM     76  C   UNL A   1      45.194  32.455  29.247  1.00  0.00     0.057 A 
ATOM     77  C   UNL A   1      45.116  33.400  28.218  1.00  0.00     0.134 A 
ATOM     78  C   UNL A   1      45.532  32.913  30.528  1.00  0.00     0.134 A 
ATOM     79  F   UNL A   1      44.807  33.021  26.969  1.00  0.00    -0.206 F 
ATOM     80  C   UNL A   1      45.394  34.748  28.446  1.00  0.00     0.040 A 
ATOM     81  C   UNL A   1      45.786  34.261  30.774  1.00  0.00     0.040 A 
ATOM     82  F   UNL A   1      45.612  32.057  31.558  1.00  0.00    -0.206 F 
ATOM     83  C   UNL A   1      45.724  35.182  29.728  1.00  0.00     0.006 A 
ENDBRANCH  59  76
ENDBRANCH  33  34
ENDBRANCH  25  28
ENDBRANCH  23  24
ENDBRANCH  22  23
ENDBRANCH  21  22
ENDBRANCH   1  21
TORSDOF 17
ENDMDL
MODEL 3
REMARK VINA RESULT:     -10.4      3.019      8.107
REMARK SMILES CC(C)[C@@H](CCC(=O)NCCCCNC(=O)c1ccc(-c2c3nc(c(-c4c(F)cccc4F)c4ccc([nH]4)c(-c4c(F)cccc4F)c4nc(c(-c5c(F)cccc5F)c5ccc2[nH]5)C=C4)C=C3)cc1)CC[NH+]1CC2(CC2)C1
REMARK SMILES IDX 10 1 9 2 7 3 8 4 6 6 5 7 4 8 2 9 1 10 3 11 71 12 72 13 73 14
REMARK SMILES IDX 74 15 78 16 75 18 76 19 77 20 11 21 12 22 13 23 14 24 15 25
REMARK SMILES IDX 16 27 17 28 18 29 70 30 19 31 69 32 20 33 21 34 22 35 63 36
REMARK SMILES IDX 23 37 68 38 62 39 64 40 24 41 67 42 61 43 60 44 25 46 51 47
REMARK SMILES IDX 34 48 50 49 35 50 38 51 49 52 65 53 36 54 37 55 48 57 66 58
REMARK SMILES IDX 39 59 26 60 27 61 32 62 28 63 29 64 31 65 33 66 30 67 52 68
REMARK SMILES IDX 53 69 58 70 54 71 55 72 57 73 59 74 56 75 40 76 41 77 46 78
REMARK SMILES IDX 42 79 43 80 45 81 47 82 44 83
REMARK H PARENT 9 5 73 17 14 26 64 45 38 56
REMARK Flexibility Score: inf
ROOT
ATOM      1  C   UNL A   1      32.104  27.869  23.329  1.00  0.00     0.116 C 
ENDROOT
BRANCH   1   2
ATOM      2  N   UNL A   1      32.481  27.237  22.081  1.00  0.00    -0.356 N 
ATOM      3  C   UNL A   1      32.898  25.974  21.799  1.00  0.00     0.220 C 
ATOM      4  O   UNL A   1      33.212  25.719  20.634  1.00  0.00    -0.275 OA
ATOM      5  H   UNL A   1      32.426  27.830  21.297  1.00  0.00     0.163 HD
BRANCH   3   6
ATOM      6  C   UNL A   1      32.958  24.910  22.874  1.00  0.00     0.100 C 
BRANCH   6   7
ATOM      7  C   UNL A   1      34.388  24.468  23.240  1.00  0.00     0.014 C 
BRANCH   7   8
ATOM      8  C   UNL A   1      34.766  24.394  24.765  1.00  0.00    -0.003 C 
BRANCH   8   9
ATOM      9  C   UNL A   1      35.947  23.380  24.995  1.00  0.00    -0.014 C 
ATOM     10  C   UNL A   1      36.528  22.920  23.644  1.00  0.00     0.007 C 
ATOM     11  C   UNL A   1      37.119  23.832  25.868  1.00  0.00     0.007 C 
ENDBRANCH   8   9
BRANCH   8  12
ATOM     12  C   UNL A   1      33.430  24.290  25.553  1.00  0.00     0.065 C 
BRANCH  12  13
ATOM     13  C   UNL A   1      33.272  23.425  26.817  1.00  0.00     0.262 C 
BRANCH  13  14
ATOM     14  N   UNL A   1      32.585  22.129  26.830  1.00  0.00    -0.334 N 
ATOM     15  C   UNL A   1      31.679  21.975  25.676  1.00  0.00     0.275 C 
ATOM     16  C   UNL A   1      33.360  20.958  26.403  1.00  0.00     0.275 C 
ATOM     17  H   UNL A   1      32.247  22.144  27.792  1.00  0.00     0.348 HD
ATOM     18  C   UNL A   1      32.675  21.051  25.099  1.00  0.00     0.068 C 
ATOM     19  C   UNL A   1      33.302  21.063  23.741  1.00  0.00     0.020 C 
ATOM     20  C   UNL A   1      32.399  19.933  24.145  1.00  0.00     0.020 C 
ENDBRANCH  13  14
ENDBRANCH  12  13
ENDBRANCH   8  12
ENDBRANCH   7   8
ENDBRANCH   6   7
ENDBRANCH   3   6
ENDBRANCH   1   2
BRANCH   1  21
ATOM     21  C   UNL A   1      33.301  28.401  24.112  1.00  0.00     0.023 C 
BRANCH  21  22
ATOM     22  C   UNL A   1      33.395  27.915  25.558  1.00  0.00     0.023 C 
BRANCH  22  23
ATOM     23  C   UNL A   1      34.365  28.745  26.370  1.00  0.00     0.116 C 
BRANCH  23  24
ATOM     24  N   UNL A   1      33.925  30.084  26.734  1.00  0.00    -0.352 N 
ATOM     25  C   UNL A   1      34.544  30.959  27.609  1.00  0.00     0.251 C 
ATOM     26  H   UNL A   1      33.095  30.402  26.311  1.00  0.00     0.163 HD
ATOM     27  O   UNL A   1      34.034  32.045  27.870  1.00  0.00    -0.269 OA
BRANCH  25  28
ATOM     28  C   UNL A   1      35.799  30.542  28.284  1.00  0.00     0.039 A 
ATOM     29  C   UNL A   1      35.744  29.752  29.434  1.00  0.00     0.014 A 
ATOM     30  C   UNL A   1      37.038  30.862  27.734  1.00  0.00     0.014 A 
ATOM     31  C   UNL A   1      36.925  29.222  29.964  1.00  0.00     0.010 A 
ATOM     32  C   UNL A   1      38.175  30.190  28.142  1.00  0.00     0.010 A 
ATOM     33  C   UNL A   1      38.147  29.397  29.292  1.00  0.00    -0.014 A 
BRANCH  33  34
ATOM     34  C   UNL A   1      39.426  28.834  29.793  1.00  0.00     0.031 A 
ATOM     35  C   UNL A   1      40.059  29.417  31.035  1.00  0.00     0.074 A 
ATOM     36  C   UNL A   1      40.058  27.873  29.095  1.00  0.00     0.049 A 
ATOM     37  N   UNL A   1      41.217  29.146  31.582  1.00  0.00    -0.248 NA
ATOM     38  C   UNL A   1      39.323  30.497  31.716  1.00  0.00     0.031 C 
ATOM     39  C   UNL A   1      39.602  27.297  27.827  1.00  0.00     0.029 A 
ATOM     40  N   UNL A   1      41.230  27.207  29.356  1.00  0.00    -0.354 N 
ATOM     41  C   UNL A   1      41.355  30.047  32.631  1.00  0.00     0.074 A 
ATOM     42  C   UNL A   1      40.217  30.931  32.589  1.00  0.00     0.031 C 
ATOM     43  C   UNL A   1      40.451  26.327  27.451  1.00  0.00     0.029 A 
ATOM     44  C   UNL A   1      41.527  26.234  28.432  1.00  0.00     0.049 A 
ATOM     45  H   UNL A   1      41.802  27.409  30.130  1.00  0.00     0.167 HD
ATOM     46  C   UNL A   1      42.317  30.103  33.583  1.00  0.00     0.037 A 
ATOM     47  C   UNL A   1      42.546  25.356  28.398  1.00  0.00     0.037 A 
ATOM     48  C   UNL A   1      43.401  29.164  33.669  1.00  0.00     0.049 A 
ATOM     49  C   UNL A   1      43.554  25.376  29.512  1.00  0.00     0.074 A 
ATOM     50  C   UNL A   1      44.384  29.063  34.637  1.00  0.00     0.029 A 
ATOM     51  N   UNL A   1      43.627  28.146  32.755  1.00  0.00    -0.354 N 
ATOM     52  N   UNL A   1      43.632  26.182  30.545  1.00  0.00    -0.248 NA
ATOM     53  C   UNL A   1      44.608  24.354  29.467  1.00  0.00     0.031 C 
ATOM     54  C   UNL A   1      45.220  27.995  34.294  1.00  0.00     0.029 A 
ATOM     55  C   UNL A   1      44.736  27.411  33.134  1.00  0.00     0.049 A 
ATOM     56  H   UNL A   1      43.081  27.973  31.954  1.00  0.00     0.167 HD
ATOM     57  C   UNL A   1      44.725  25.751  31.283  1.00  0.00     0.074 A 
ATOM     58  C   UNL A   1      45.265  24.598  30.592  1.00  0.00     0.031 C 
ATOM     59  C   UNL A   1      45.244  26.264  32.426  1.00  0.00     0.037 A 
BRANCH  46  60
ATOM     60  C   UNL A   1      42.206  31.188  34.616  1.00  0.00     0.057 A 
ATOM     61  C   UNL A   1      41.473  31.013  35.799  1.00  0.00     0.134 A 
ATOM     62  C   UNL A   1      42.831  32.427  34.425  1.00  0.00     0.134 A 
ATOM     63  F   UNL A   1      40.833  29.857  36.037  1.00  0.00    -0.206 F 
ATOM     64  C   UNL A   1      41.330  32.041  36.732  1.00  0.00     0.040 A 
ATOM     65  C   UNL A   1      42.723  33.451  35.368  1.00  0.00     0.040 A 
ATOM     66  F   UNL A   1      43.552  32.665  33.320  1.00  0.00    -0.206 F 
ATOM     67  C   UNL A   1      41.962  33.264  36.520  1.00  0.00     0.006 A 
ENDBRANCH  46  60
BRANCH  47  68
ATOM     68  C   UNL A   1      42.622  24.342  27.316  1.00  0.00     0.057 A 
ATOM     69  C   UNL A   1      43.263  24.632  26.105  1.00  0.00     0.134 A 
ATOM     70  C   UNL A   1      42.065  23.066  27.460  1.00  0.00     0.134 A 
ATOM     71  F   UNL A   1      43.805  25.841  25.902  1.00  0.00    -0.206 F 
ATOM     72  C   UNL A   1      43.326  23.700  25.068  1.00  0.00     0.040 A 
ATOM     73  C   UNL A   1      42.141  22.116  26.440  1.00  0.00     0.040 A 
ATOM     74  F   UNL A   1      41.449  22.722  28.600  1.00  0.00    -0.206 F 
ATOM     75  C   UNL A   1      42.767  22.435  25.235  1.00  0.00     0.006 A 
ENDBRANCH  47  68
BRANCH  59  76
ATOM     76  C   UNL A   1      46.435  25.560  33.005  1.00  0.00     0.057 A 
ATOM     77  C   UNL A   1      47.741  25.913  32.650  1.00  0.00     0.134 A 
ATOM     78  C   UNL A   1      46.268  24.536  33.946  1.00  0.00     0.134 A 
ATOM     79  F   UNL A   1      47.964  26.879  31.746  1.00  0.00    -0.206 F 
ATOM     80  C   UNL A   1      48.845  25.251  33.190  1.00  0.00     0.040 A 
ATOM     81  C   UNL A   1      47.364  23.886  34.512  1.00  0.00     0.040 A 
ATOM     82  F   UNL A   1      45.041  24.160  34.335  1.00  0.00    -0.206 F 
ATOM     83  C   UNL A   1      48.657  24.238  34.128  1.00  0.00     0.006 A 
ENDBRANCH  59  76
ENDBRANCH  33  34
ENDBRANCH  25  28
ENDBRANCH  23  24
ENDBRANCH  22  23
ENDBRANCH  21  22
ENDBRANCH   1  21
TORSDOF 17
ENDMDL
