MODEL 1
REMARK VINA RESULT:     -10.4      0.000      0.000
REMARK SMILES CCN(CC(C)(C)O)C(=O)N[C@@H](C(=O)NCCCCNC(=O)c1ccc(-c2c3nc(c(-c4c(F)cccc4F)c4ccc([nH]4)c(-c4c(F)cccc4F)c4nc(c(-c5c(F)cccc5F)c5ccc2[nH]5)C=C4)C=C3)cc1)C(C)(C)C
REMARK SMILES IDX 16 1 15 2 13 3 14 4 12 6 11 7 9 8 10 9 3 11 2 12 1 13 4 14
REMARK SMILES IDX 5 15 6 16 7 17 8 18 77 20 78 21 79 22 80 23 17 24 18 25
REMARK SMILES IDX 19 26 20 27 21 28 22 30 23 31 24 32 76 33 25 34 75 35 26 36
REMARK SMILES IDX 27 37 28 38 69 39 29 40 74 41 68 42 70 43 30 44 73 45 67 46
REMARK SMILES IDX 66 47 31 49 57 50 40 51 56 52 41 53 44 54 55 55 71 56 42 57
REMARK SMILES IDX 43 58 54 60 72 61 45 62 32 63 33 64 38 65 34 66 35 67 37 68
REMARK SMILES IDX 39 69 36 70 58 71 59 72 64 73 60 74 61 75 63 76 65 77 62 78
REMARK SMILES IDX 46 79 47 80 52 81 48 82 49 83 51 84 53 85 50 86
REMARK H PARENT 15 5 11 10 8 19 20 29 70 48 44 59
REMARK Flexibility Score: inf
ROOT
ATOM      1  C   UNL A   1      32.946  29.734  25.993  1.00  0.00     0.116 C 
ENDROOT
BRANCH   1   2
ATOM      2  N   UNL A   1      33.262  29.619  24.572  1.00  0.00    -0.354 N 
ATOM      3  C   UNL A   1      33.090  28.605  23.659  1.00  0.00     0.243 C 
ATOM      4  O   UNL A   1      33.207  28.952  22.477  1.00  0.00    -0.273 OA
ATOM      5  H   UNL A   1      33.682  30.426  24.193  1.00  0.00     0.163 HD
BRANCH   3   6
ATOM      6  C   UNL A   1      32.545  27.175  24.029  1.00  0.00     0.178 C 
BRANCH   6   7
ATOM      7  N   UNL A   1      33.053  26.152  23.145  1.00  0.00    -0.326 N 
ATOM      8  C   UNL A   1      33.744  25.019  23.320  1.00  0.00     0.318 C 
ATOM      9  O   UNL A   1      34.252  24.597  22.274  1.00  0.00    -0.249 OA
ATOM     10  H   UNL A   1      32.845  26.329  22.199  1.00  0.00     0.166 HD
BRANCH   8  11
ATOM     11  N   UNL A   1      33.933  24.399  24.529  1.00  0.00    -0.322 N 
BRANCH  11  12
ATOM     12  C   UNL A   1      32.721  23.745  25.057  1.00  0.00     0.118 C 
ATOM     13  C   UNL A   1      32.383  22.438  24.332  1.00  0.00     0.027 C 
ENDBRANCH  11  12
BRANCH  11  14
ATOM     14  C   UNL A   1      35.069  24.474  25.490  1.00  0.00     0.155 C 
BRANCH  14  15
ATOM     15  C   UNL A   1      36.087  23.268  25.566  1.00  0.00     0.077 C 
ATOM     16  C   UNL A   1      36.167  22.364  24.334  1.00  0.00     0.043 C 
ATOM     17  C   UNL A   1      37.509  23.825  25.747  1.00  0.00     0.043 C 
BRANCH  15  18
ATOM     18  O   UNL A   1      35.785  22.446  26.698  1.00  0.00    -0.389 OA
ATOM     19  H   UNL A   1      35.897  21.514  26.459  1.00  0.00     0.211 HD
ENDBRANCH  15  18
ENDBRANCH  14  15
ENDBRANCH  11  14
ENDBRANCH   8  11
ENDBRANCH   6   7
BRANCH   6  20
ATOM     20  C   UNL A   1      30.990  27.028  24.243  1.00  0.00    -0.009 C 
ATOM     21  C   UNL A   1      30.410  25.828  23.444  1.00  0.00     0.013 C 
ATOM     22  C   UNL A   1      30.704  26.742  25.733  1.00  0.00     0.013 C 
ATOM     23  C   UNL A   1      30.202  28.272  23.801  1.00  0.00     0.013 C 
ENDBRANCH   6  20
ENDBRANCH   3   6
ENDBRANCH   1   2
BRANCH   1  24
ATOM     24  C   UNL A   1      31.540  30.246  26.298  1.00  0.00     0.023 C 
BRANCH  24  25
ATOM     25  C   UNL A   1      31.418  31.745  26.567  1.00  0.00     0.023 C 
BRANCH  25  26
ATOM     26  C   UNL A   1      32.710  32.471  26.937  1.00  0.00     0.116 C 
BRANCH  26  27
ATOM     27  N   UNL A   1      32.498  33.813  27.460  1.00  0.00    -0.352 N 
ATOM     28  C   UNL A   1      33.139  34.480  28.482  1.00  0.00     0.251 C 
ATOM     29  H   UNL A   1      31.784  34.325  27.016  1.00  0.00     0.163 HD
ATOM     30  O   UNL A   1      32.726  35.567  28.865  1.00  0.00    -0.269 OA
BRANCH  28  31
ATOM     31  C   UNL A   1      34.321  33.876  29.139  1.00  0.00     0.039 A 
ATOM     32  C   UNL A   1      34.124  32.935  30.154  1.00  0.00     0.014 A 
ATOM     33  C   UNL A   1      35.616  34.237  28.764  1.00  0.00     0.014 A 
ATOM     34  C   UNL A   1      35.225  32.301  30.735  1.00  0.00     0.010 A 
ATOM     35  C   UNL A   1      36.708  33.543  29.281  1.00  0.00     0.010 A 
ATOM     36  C   UNL A   1      36.525  32.568  30.275  1.00  0.00    -0.014 A 
BRANCH  36  37
ATOM     37  C   UNL A   1      37.702  31.841  30.823  1.00  0.00     0.031 A 
ATOM     38  C   UNL A   1      38.217  32.156  32.202  1.00  0.00     0.074 A 
ATOM     39  C   UNL A   1      38.343  30.934  30.059  1.00  0.00     0.049 A 
ATOM     40  N   UNL A   1      39.251  31.660  32.833  1.00  0.00    -0.248 NA
ATOM     41  C   UNL A   1      37.490  33.185  32.962  1.00  0.00     0.031 C 
ATOM     42  C   UNL A   1      37.980  30.573  28.687  1.00  0.00     0.029 A 
ATOM     43  N   UNL A   1      39.441  30.152  30.326  1.00  0.00    -0.354 N 
ATOM     44  C   UNL A   1      39.304  32.321  34.053  1.00  0.00     0.074 A 
ATOM     45  C   UNL A   1      38.238  33.298  34.049  1.00  0.00     0.031 C 
ATOM     46  C   UNL A   1      38.817  29.621  28.245  1.00  0.00     0.029 A 
ATOM     47  C   UNL A   1      39.801  29.332  29.284  1.00  0.00     0.049 A 
ATOM     48  H   UNL A   1      39.924  30.177  31.183  1.00  0.00     0.167 HD
ATOM     49  C   UNL A   1      40.145  32.116  35.095  1.00  0.00     0.037 A 
ATOM     50  C   UNL A   1      40.811  28.448  29.174  1.00  0.00     0.037 A 
ATOM     51  C   UNL A   1      41.194  31.130  35.105  1.00  0.00     0.049 A 
ATOM     52  C   UNL A   1      41.740  28.246  30.341  1.00  0.00     0.074 A 
ATOM     53  C   UNL A   1      42.065  30.808  36.132  1.00  0.00     0.029 A 
ATOM     54  N   UNL A   1      41.517  30.309  34.035  1.00  0.00    -0.354 N 
ATOM     55  N   UNL A   1      41.732  28.828  31.516  1.00  0.00    -0.248 NA
ATOM     56  C   UNL A   1      42.813  27.256  30.171  1.00  0.00     0.031 C 
ATOM     57  C   UNL A   1      42.950  29.831  35.665  1.00  0.00     0.029 A 
ATOM     58  C   UNL A   1      42.589  29.498  34.369  1.00  0.00     0.049 A 
ATOM     59  H   UNL A   1      41.054  30.304  33.166  1.00  0.00     0.167 HD
ATOM     60  C   UNL A   1      42.771  28.250  32.235  1.00  0.00     0.074 A 
ATOM     61  C   UNL A   1      43.380  27.263  31.368  1.00  0.00     0.031 C 
ATOM     62  C   UNL A   1      43.180  28.511  33.501  1.00  0.00     0.037 A 
BRANCH  49  63
ATOM     63  C   UNL A   1      39.962  32.976  36.315  1.00  0.00     0.057 A 
ATOM     64  C   UNL A   1      40.668  34.174  36.491  1.00  0.00     0.134 A 
ATOM     65  C   UNL A   1      39.043  32.618  37.310  1.00  0.00     0.134 A 
ATOM     66  F   UNL A   1      41.572  34.570  35.582  1.00  0.00    -0.206 F 
ATOM     67  C   UNL A   1      40.491  34.968  37.625  1.00  0.00     0.040 A 
ATOM     68  C   UNL A   1      38.832  33.421  38.432  1.00  0.00     0.040 A 
ATOM     69  F   UNL A   1      38.327  31.489  37.203  1.00  0.00    -0.206 F 
ATOM     70  C   UNL A   1      39.564  34.595  38.596  1.00  0.00     0.006 A 
ENDBRANCH  49  63
BRANCH  50  71
ATOM     71  C   UNL A   1      40.987  27.666  27.923  1.00  0.00     0.057 A 
ATOM     72  C   UNL A   1      40.393  26.407  27.767  1.00  0.00     0.134 A 
ATOM     73  C   UNL A   1      41.762  28.147  26.860  1.00  0.00     0.134 A 
ATOM     74  F   UNL A   1      39.655  25.882  28.756  1.00  0.00    -0.206 F 
ATOM     75  C   UNL A   1      40.583  25.646  26.612  1.00  0.00     0.040 A 
ATOM     76  C   UNL A   1      41.935  27.409  25.688  1.00  0.00     0.040 A 
ATOM     77  F   UNL A   1      42.350  29.349  26.942  1.00  0.00    -0.206 F 
ATOM     78  C   UNL A   1      41.353  26.150  25.566  1.00  0.00     0.006 A 
ENDBRANCH  50  71
BRANCH  62  79
ATOM     79  C   UNL A   1      44.308  27.682  34.047  1.00  0.00     0.057 A 
ATOM     80  C   UNL A   1      44.097  26.429  34.634  1.00  0.00     0.134 A 
ATOM     81  C   UNL A   1      45.631  28.133  33.944  1.00  0.00     0.134 A 
ATOM     82  F   UNL A   1      42.854  25.943  34.773  1.00  0.00    -0.206 F 
ATOM     83  C   UNL A   1      45.158  25.665  35.126  1.00  0.00     0.040 A 
ATOM     84  C   UNL A   1      46.703  27.366  34.403  1.00  0.00     0.040 A 
ATOM     85  F   UNL A   1      45.907  29.320  33.384  1.00  0.00    -0.206 F 
ATOM     86  C   UNL A   1      46.467  26.131  35.003  1.00  0.00     0.006 A 
ENDBRANCH  62  79
ENDBRANCH  36  37
ENDBRANCH  28  31
ENDBRANCH  26  27
ENDBRANCH  25  26
ENDBRANCH  24  25
ENDBRANCH   1  24
TORSDOF 18
ENDMDL
MODEL 2
REMARK VINA RESULT:     -10.3      4.582      8.990
REMARK SMILES CCN(CC(C)(C)O)C(=O)N[C@@H](C(=O)NCCCCNC(=O)c1ccc(-c2c3nc(c(-c4c(F)cccc4F)c4ccc([nH]4)c(-c4c(F)cccc4F)c4nc(c(-c5c(F)cccc5F)c5ccc2[nH]5)C=C4)C=C3)cc1)C(C)(C)C
REMARK SMILES IDX 16 1 15 2 13 3 14 4 12 6 11 7 9 8 10 9 3 11 2 12 1 13 4 14
REMARK SMILES IDX 5 15 6 16 7 17 8 18 77 20 78 21 79 22 80 23 17 24 18 25
REMARK SMILES IDX 19 26 20 27 21 28 22 30 23 31 24 32 76 33 25 34 75 35 26 36
REMARK SMILES IDX 27 37 28 38 69 39 29 40 74 41 68 42 70 43 30 44 73 45 67 46
REMARK SMILES IDX 66 47 31 49 57 50 40 51 56 52 41 53 44 54 55 55 71 56 42 57
REMARK SMILES IDX 43 58 54 60 72 61 45 62 32 63 33 64 38 65 34 66 35 67 37 68
REMARK SMILES IDX 39 69 36 70 58 71 59 72 64 73 60 74 61 75 63 76 65 77 62 78
REMARK SMILES IDX 46 79 47 80 52 81 48 82 49 83 51 84 53 85 50 86
REMARK H PARENT 15 5 11 10 8 19 20 29 70 48 44 59
REMARK Flexibility Score: inf
ROOT
ATOM      1  C   UNL A   1      36.311  21.882  25.732  1.00  0.00     0.116 C 
ENDROOT
BRANCH   1   2
ATOM      2  N   UNL A   1      35.281  21.953  26.764  1.00  0.00    -0.354 N 
ATOM      3  C   UNL A   1      34.017  22.497  26.783  1.00  0.00     0.243 C 
ATOM      4  O   UNL A   1      33.310  22.123  27.727  1.00  0.00    -0.273 OA
ATOM      5  H   UNL A   1      35.541  21.529  27.614  1.00  0.00     0.163 HD
BRANCH   3   6
ATOM      6  C   UNL A   1      33.402  23.327  25.594  1.00  0.00     0.178 C 
BRANCH   6   7
ATOM      7  N   UNL A   1      32.384  24.248  26.042  1.00  0.00    -0.326 N 
ATOM      8  C   UNL A   1      32.275  25.582  26.075  1.00  0.00     0.318 C 
ATOM      9  O   UNL A   1      31.374  25.974  26.828  1.00  0.00    -0.249 OA
ATOM     10  H   UNL A   1      31.591  23.792  26.405  1.00  0.00     0.166 HD
BRANCH   8  11
ATOM     11  N   UNL A   1      33.097  26.449  25.403  1.00  0.00    -0.322 N 
BRANCH  11  12
ATOM     12  C   UNL A   1      32.978  27.849  25.851  1.00  0.00     0.118 C 
ATOM     13  C   UNL A   1      34.154  28.299  26.724  1.00  0.00     0.027 C 
ENDBRANCH  11  12
BRANCH  11  14
ATOM     14  C   UNL A   1      33.902  26.259  24.163  1.00  0.00     0.155 C 
BRANCH  14  15
ATOM     15  C   UNL A   1      33.297  26.726  22.780  1.00  0.00     0.077 C 
ATOM     16  C   UNL A   1      31.771  26.777  22.685  1.00  0.00     0.043 C 
ATOM     17  C   UNL A   1      33.764  28.163  22.490  1.00  0.00     0.043 C 
BRANCH  15  18
ATOM     18  O   UNL A   1      33.777  25.883  21.728  1.00  0.00    -0.389 OA
ATOM     19  H   UNL A   1      33.265  25.060  21.714  1.00  0.00     0.211 HD
ENDBRANCH  15  18
ENDBRANCH  14  15
ENDBRANCH  11  14
ENDBRANCH   8  11
ENDBRANCH   6   7
BRANCH   6  20
ATOM     20  C   UNL A   1      32.930  22.523  24.322  1.00  0.00    -0.009 C 
ATOM     21  C   UNL A   1      31.574  23.052  23.777  1.00  0.00     0.013 C 
ATOM     22  C   UNL A   1      33.961  22.712  23.187  1.00  0.00     0.013 C 
ATOM     23  C   UNL A   1      32.739  21.022  24.595  1.00  0.00     0.013 C 
ENDBRANCH   6  20
ENDBRANCH   3   6
ENDBRANCH   1   2
BRANCH   1  24
ATOM     24  C   UNL A   1      36.398  20.543  25.002  1.00  0.00     0.023 C 
BRANCH  24  25
ATOM     25  C   UNL A   1      37.807  20.040  24.696  1.00  0.00     0.023 C 
BRANCH  25  26
ATOM     26  C   UNL A   1      38.858  20.273  25.780  1.00  0.00     0.116 C 
BRANCH  26  27
ATOM     27  N   UNL A   1      39.868  19.227  25.850  1.00  0.00    -0.352 N 
ATOM     28  C   UNL A   1      41.220  19.313  26.104  1.00  0.00     0.251 C 
ATOM     29  H   UNL A   1      39.534  18.315  25.692  1.00  0.00     0.163 HD
ATOM     30  O   UNL A   1      41.934  18.325  25.991  1.00  0.00    -0.269 OA
BRANCH  28  31
ATOM     31  C   UNL A   1      41.823  20.608  26.495  1.00  0.00     0.039 A 
ATOM     32  C   UNL A   1      42.251  21.486  25.494  1.00  0.00     0.014 A 
ATOM     33  C   UNL A   1      41.974  20.956  27.839  1.00  0.00     0.014 A 
ATOM     34  C   UNL A   1      42.756  22.741  25.842  1.00  0.00     0.010 A 
ATOM     35  C   UNL A   1      42.394  22.239  28.181  1.00  0.00     0.010 A 
ATOM     36  C   UNL A   1      42.793  23.146  27.187  1.00  0.00    -0.014 A 
BRANCH  36  37
ATOM     37  C   UNL A   1      43.247  24.511  27.569  1.00  0.00     0.031 A 
ATOM     38  C   UNL A   1      42.247  25.564  27.964  1.00  0.00     0.074 A 
ATOM     39  C   UNL A   1      44.558  24.820  27.508  1.00  0.00     0.049 A 
ATOM     40  N   UNL A   1      42.448  26.816  28.287  1.00  0.00    -0.248 NA
ATOM     41  C   UNL A   1      40.831  25.164  27.971  1.00  0.00     0.031 C 
ATOM     42  C   UNL A   1      45.625  23.909  27.090  1.00  0.00     0.029 A 
ATOM     43  N   UNL A   1      45.217  25.992  27.792  1.00  0.00    -0.354 N 
ATOM     44  C   UNL A   1      41.189  27.353  28.524  1.00  0.00     0.074 A 
ATOM     45  C   UNL A   1      40.227  26.310  28.245  1.00  0.00     0.031 C 
ATOM     46  C   UNL A   1      46.806  24.543  27.175  1.00  0.00     0.029 A 
ATOM     47  C   UNL A   1      46.578  25.917  27.613  1.00  0.00     0.049 A 
ATOM     48  H   UNL A   1      44.758  26.807  28.095  1.00  0.00     0.167 HD
ATOM     49  C   UNL A   1      40.863  28.594  28.959  1.00  0.00     0.037 A 
ATOM     50  C   UNL A   1      47.535  26.849  27.780  1.00  0.00     0.037 A 
ATOM     51  C   UNL A   1      41.822  29.625  29.255  1.00  0.00     0.049 A 
ATOM     52  C   UNL A   1      47.147  28.223  28.255  1.00  0.00     0.074 A 
ATOM     53  C   UNL A   1      41.596  30.897  29.753  1.00  0.00     0.029 A 
ATOM     54  N   UNL A   1      43.192  29.505  29.074  1.00  0.00    -0.354 N 
ATOM     55  N   UNL A   1      45.957  28.695  28.543  1.00  0.00    -0.248 NA
ATOM     56  C   UNL A   1      48.235  29.195  28.436  1.00  0.00     0.031 C 
ATOM     57  C   UNL A   1      42.823  31.564  29.822  1.00  0.00     0.029 A 
ATOM     58  C   UNL A   1      43.821  30.688  29.430  1.00  0.00     0.049 A 
ATOM     59  H   UNL A   1      43.650  28.700  28.743  1.00  0.00     0.167 HD
ATOM     60  C   UNL A   1      46.159  29.999  28.975  1.00  0.00     0.074 A 
ATOM     61  C   UNL A   1      47.585  30.242  28.921  1.00  0.00     0.031 C 
ATOM     62  C   UNL A   1      45.243  30.914  29.382  1.00  0.00     0.037 A 
BRANCH  49  63
ATOM     63  C   UNL A   1      39.403  28.902  29.147  1.00  0.00     0.057 A 
ATOM     64  C   UNL A   1      38.608  29.389  28.101  1.00  0.00     0.134 A 
ATOM     65  C   UNL A   1      38.778  28.677  30.380  1.00  0.00     0.134 A 
ATOM     66  F   UNL A   1      39.145  29.638  26.897  1.00  0.00    -0.206 F 
ATOM     67  C   UNL A   1      37.253  29.670  28.282  1.00  0.00     0.040 A 
ATOM     68  C   UNL A   1      37.416  28.923  30.564  1.00  0.00     0.040 A 
ATOM     69  F   UNL A   1      39.476  28.205  31.423  1.00  0.00    -0.206 F 
ATOM     70  C   UNL A   1      36.651  29.430  29.515  1.00  0.00     0.006 A 
ENDBRANCH  49  63
BRANCH  50  71
ATOM     71  C   UNL A   1      48.959  26.512  27.523  1.00  0.00     0.057 A 
ATOM     72  C   UNL A   1      49.787  26.035  28.547  1.00  0.00     0.134 A 
ATOM     73  C   UNL A   1      49.532  26.671  26.254  1.00  0.00     0.134 A 
ATOM     74  F   UNL A   1      49.303  25.880  29.788  1.00  0.00    -0.206 F 
ATOM     75  C   UNL A   1      51.137  25.752  28.326  1.00  0.00     0.040 A 
ATOM     76  C   UNL A   1      50.872  26.363  26.014  1.00  0.00     0.040 A 
ATOM     77  F   UNL A   1      48.792  27.115  25.229  1.00  0.00    -0.206 F 
ATOM     78  C   UNL A   1      51.681  25.912  27.054  1.00  0.00     0.006 A 
ENDBRANCH  50  71
BRANCH  62  79
ATOM     79  C   UNL A   1      45.758  32.244  29.853  1.00  0.00     0.057 A 
ATOM     80  C   UNL A   1      46.113  32.477  31.188  1.00  0.00     0.134 A 
ATOM     81  C   UNL A   1      45.939  33.295  28.944  1.00  0.00     0.134 A 
ATOM     82  F   UNL A   1      45.954  31.517  32.112  1.00  0.00    -0.206 F 
ATOM     83  C   UNL A   1      46.602  33.716  31.607  1.00  0.00     0.040 A 
ATOM     84  C   UNL A   1      46.456  34.528  29.345  1.00  0.00     0.040 A 
ATOM     85  F   UNL A   1      45.630  33.138  27.648  1.00  0.00    -0.206 F 
ATOM     86  C   UNL A   1      46.782  34.743  30.682  1.00  0.00     0.006 A 
ENDBRANCH  62  79
ENDBRANCH  36  37
ENDBRANCH  28  31
ENDBRANCH  26  27
ENDBRANCH  25  26
ENDBRANCH  24  25
ENDBRANCH   1  24
TORSDOF 18
ENDMDL
MODEL 3
REMARK VINA RESULT:     -10.2      0.820      6.234
REMARK SMILES CCN(CC(C)(C)O)C(=O)N[C@@H](C(=O)NCCCCNC(=O)c1ccc(-c2c3nc(c(-c4c(F)cccc4F)c4ccc([nH]4)c(-c4c(F)cccc4F)c4nc(c(-c5c(F)cccc5F)c5ccc2[nH]5)C=C4)C=C3)cc1)C(C)(C)C
REMARK SMILES IDX 16 1 15 2 13 3 14 4 12 6 11 7 9 8 10 9 3 11 2 12 1 13 4 14
REMARK SMILES IDX 5 15 6 16 7 17 8 18 77 20 78 21 79 22 80 23 17 24 18 25
REMARK SMILES IDX 19 26 20 27 21 28 22 30 23 31 24 32 76 33 25 34 75 35 26 36
REMARK SMILES IDX 27 37 28 38 69 39 29 40 74 41 68 42 70 43 30 44 73 45 67 46
REMARK SMILES IDX 66 47 31 49 57 50 40 51 56 52 41 53 44 54 55 55 71 56 42 57
REMARK SMILES IDX 43 58 54 60 72 61 45 62 32 63 33 64 38 65 34 66 35 67 37 68
REMARK SMILES IDX 39 69 36 70 58 71 59 72 64 73 60 74 61 75 63 76 65 77 62 78
REMARK SMILES IDX 46 79 47 80 52 81 48 82 49 83 51 84 53 85 50 86
REMARK H PARENT 15 5 11 10 8 19 20 29 70 48 44 59
REMARK Flexibility Score: inf
ROOT
ATOM      1  C   UNL A   1      32.971  29.686  26.001  1.00  0.00     0.116 C 
ENDROOT
BRANCH   1   2
ATOM      2  N   UNL A   1      33.248  29.582  24.571  1.00  0.00    -0.354 N 
ATOM      3  C   UNL A   1      33.024  28.586  23.649  1.00  0.00     0.243 C 
ATOM      4  O   UNL A   1      33.120  28.946  22.469  1.00  0.00    -0.273 OA
ATOM      5  H   UNL A   1      33.679  30.382  24.192  1.00  0.00     0.163 HD
BRANCH   3   6
ATOM      6  C   UNL A   1      32.451  27.165  24.015  1.00  0.00     0.178 C 
BRANCH   6   7
ATOM      7  N   UNL A   1      32.903  26.143  23.101  1.00  0.00    -0.326 N 
ATOM      8  C   UNL A   1      33.553  24.981  23.239  1.00  0.00     0.318 C 
ATOM      9  O   UNL A   1      34.025  24.562  22.175  1.00  0.00    -0.249 OA
ATOM     10  H   UNL A   1      32.683  26.347  22.163  1.00  0.00     0.166 HD
BRANCH   8  11
ATOM     11  N   UNL A   1      33.742  24.330  24.432  1.00  0.00    -0.322 N 
BRANCH  11  12
ATOM     12  C   UNL A   1      32.549  23.608  24.910  1.00  0.00     0.118 C 
ATOM     13  C   UNL A   1      32.343  23.731  26.423  1.00  0.00     0.027 C 
ENDBRANCH  11  12
BRANCH  11  14
ATOM     14  C   UNL A   1      34.853  24.422  25.421  1.00  0.00     0.155 C 
BRANCH  14  15
ATOM     15  C   UNL A   1      35.843  23.200  25.574  1.00  0.00     0.077 C 
ATOM     16  C   UNL A   1      35.703  22.076  24.546  1.00  0.00     0.043 C 
ATOM     17  C   UNL A   1      37.288  23.705  25.421  1.00  0.00     0.043 C 
BRANCH  15  18
ATOM     18  O   UNL A   1      35.710  22.625  26.878  1.00  0.00    -0.389 OA
ATOM     19  H   UNL A   1      36.060  21.721  26.870  1.00  0.00     0.211 HD
ENDBRANCH  15  18
ENDBRANCH  14  15
ENDBRANCH  11  14
ENDBRANCH   8  11
ENDBRANCH   6   7
BRANCH   6  20
ATOM     20  C   UNL A   1      30.899  27.059  24.274  1.00  0.00    -0.009 C 
ATOM     21  C   UNL A   1      30.267  25.867  23.502  1.00  0.00     0.013 C 
ATOM     22  C   UNL A   1      30.649  26.790  25.774  1.00  0.00     0.013 C 
ATOM     23  C   UNL A   1      30.130  28.319  23.845  1.00  0.00     0.013 C 
ENDBRANCH   6  20
ENDBRANCH   3   6
ENDBRANCH   1   2
BRANCH   1  24
ATOM     24  C   UNL A   1      31.584  30.221  26.350  1.00  0.00     0.023 C 
BRANCH  24  25
ATOM     25  C   UNL A   1      31.471  31.736  26.501  1.00  0.00     0.023 C 
BRANCH  25  26
ATOM     26  C   UNL A   1      32.673  32.443  27.127  1.00  0.00     0.116 C 
BRANCH  26  27
ATOM     27  N   UNL A   1      32.404  33.820  27.516  1.00  0.00    -0.352 N 
ATOM     28  C   UNL A   1      33.008  34.607  28.473  1.00  0.00     0.251 C 
ATOM     29  H   UNL A   1      31.677  34.259  27.018  1.00  0.00     0.163 HD
ATOM     30  O   UNL A   1      32.550  35.710  28.745  1.00  0.00    -0.269 OA
BRANCH  28  31
ATOM     31  C   UNL A   1      34.203  34.116  29.195  1.00  0.00     0.039 A 
ATOM     32  C   UNL A   1      34.028  33.334  30.342  1.00  0.00     0.014 A 
ATOM     33  C   UNL A   1      35.491  34.426  28.752  1.00  0.00     0.014 A 
ATOM     34  C   UNL A   1      35.143  32.801  30.994  1.00  0.00     0.010 A 
ATOM     35  C   UNL A   1      36.595  33.824  29.351  1.00  0.00     0.010 A 
ATOM     36  C   UNL A   1      36.434  33.006  30.481  1.00  0.00    -0.014 A 
BRANCH  36  37
ATOM     37  C   UNL A   1      37.624  32.376  31.114  1.00  0.00     0.031 A 
ATOM     38  C   UNL A   1      38.293  31.192  30.469  1.00  0.00     0.074 A 
ATOM     39  C   UNL A   1      38.072  32.835  32.300  1.00  0.00     0.049 A 
ATOM     40  N   UNL A   1      39.312  30.486  30.890  1.00  0.00    -0.248 NA
ATOM     41  C   UNL A   1      37.726  30.723  29.195  1.00  0.00     0.031 C 
ATOM     42  C   UNL A   1      37.483  33.941  33.058  1.00  0.00     0.029 A 
ATOM     43  N   UNL A   1      39.125  32.424  33.081  1.00  0.00    -0.354 N 
ATOM     44  C   UNL A   1      39.498  29.487  29.943  1.00  0.00     0.074 A 
ATOM     45  C   UNL A   1      38.450  29.639  28.959  1.00  0.00     0.031 C 
ATOM     46  C   UNL A   1      38.200  34.141  34.175  1.00  0.00     0.029 A 
ATOM     47  C   UNL A   1      39.273  33.154  34.236  1.00  0.00     0.049 A 
ATOM     48  H   UNL A   1      39.717  31.678  32.836  1.00  0.00     0.167 HD
ATOM     49  C   UNL A   1      40.470  28.545  29.881  1.00  0.00     0.037 A 
ATOM     50  C   UNL A   1      40.170  33.040  35.234  1.00  0.00     0.037 A 
ATOM     51  C   UNL A   1      41.525  28.407  30.851  1.00  0.00     0.049 A 
ATOM     52  C   UNL A   1      41.233  31.979  35.149  1.00  0.00     0.074 A 
ATOM     53  C   UNL A   1      42.587  27.520  30.849  1.00  0.00     0.029 A 
ATOM     54  N   UNL A   1      41.647  29.175  31.999  1.00  0.00    -0.354 N 
ATOM     55  N   UNL A   1      41.440  31.087  34.209  1.00  0.00    -0.248 NA
ATOM     56  C   UNL A   1      42.195  31.913  36.258  1.00  0.00     0.031 C 
ATOM     57  C   UNL A   1      43.321  27.714  32.023  1.00  0.00     0.029 A 
ATOM     58  C   UNL A   1      42.755  28.766  32.725  1.00  0.00     0.049 A 
ATOM     59  H   UNL A   1      41.038  29.903  32.261  1.00  0.00     0.167 HD
ATOM     60  C   UNL A   1      42.573  30.383  34.595  1.00  0.00     0.074 A 
ATOM     61  C   UNL A   1      43.016  30.957  35.848  1.00  0.00     0.031 C 
ATOM     62  C   UNL A   1      43.193  29.354  33.965  1.00  0.00     0.037 A 
BRANCH  49  63
ATOM     63  C   UNL A   1      40.438  27.590  28.720  1.00  0.00     0.057 A 
ATOM     64  C   UNL A   1      41.205  27.800  27.566  1.00  0.00     0.134 A 
ATOM     65  C   UNL A   1      39.657  26.428  28.772  1.00  0.00     0.134 A 
ATOM     66  F   UNL A   1      41.967  28.898  27.447  1.00  0.00    -0.206 F 
ATOM     67  C   UNL A   1      41.173  26.907  26.494  1.00  0.00     0.040 A 
ATOM     68  C   UNL A   1      39.643  25.511  27.719  1.00  0.00     0.040 A 
ATOM     69  F   UNL A   1      38.904  26.159  29.848  1.00  0.00    -0.206 F 
ATOM     70  C   UNL A   1      40.395  25.754  26.572  1.00  0.00     0.006 A 
ENDBRANCH  49  63
BRANCH  50  71
ATOM     71  C   UNL A   1      40.121  33.971  36.392  1.00  0.00     0.057 A 
ATOM     72  C   UNL A   1      39.414  33.643  37.555  1.00  0.00     0.134 A 
ATOM     73  C   UNL A   1      40.767  35.213  36.361  1.00  0.00     0.134 A 
ATOM     74  F   UNL A   1      38.758  32.476  37.639  1.00  0.00    -0.206 F 
ATOM     75  C   UNL A   1      39.328  34.525  38.634  1.00  0.00     0.040 A 
ATOM     76  C   UNL A   1      40.715  36.092  37.445  1.00  0.00     0.040 A 
ATOM     77  F   UNL A   1      41.470  35.584  35.281  1.00  0.00    -0.206 F 
ATOM     78  C   UNL A   1      39.986  35.752  38.582  1.00  0.00     0.006 A 
ENDBRANCH  50  71
BRANCH  62  79
ATOM     79  C   UNL A   1      44.448  28.816  34.592  1.00  0.00     0.057 A 
ATOM     80  C   UNL A   1      45.711  29.350  34.309  1.00  0.00     0.134 A 
ATOM     81  C   UNL A   1      44.382  27.771  35.524  1.00  0.00     0.134 A 
ATOM     82  F   UNL A   1      45.846  30.344  33.418  1.00  0.00    -0.206 F 
ATOM     83  C   UNL A   1      46.867  28.847  34.910  1.00  0.00     0.040 A 
ATOM     84  C   UNL A   1      45.526  27.280  36.154  1.00  0.00     0.040 A 
ATOM     85  F   UNL A   1      43.203  27.219  35.849  1.00  0.00    -0.206 F 
ATOM     86  C   UNL A   1      46.775  27.814  35.841  1.00  0.00     0.006 A 
ENDBRANCH  62  79
ENDBRANCH  36  37
ENDBRANCH  28  31
ENDBRANCH  26  27
ENDBRANCH  25  26
ENDBRANCH  24  25
ENDBRANCH   1  24
TORSDOF 18
ENDMDL
