MODEL 1
REMARK VINA RESULT:     -12.6      0.000      0.000
REMARK SMILES O=C(NCCCCNC(=O)c1ccc(-c2c3nc(c(-c4c(F)cccc4F)c4ccc([nH]4)c(-c4c(F)cccc4F)c4nc(c(-c5c(F)cccc5F)c5ccc2[nH]5)C=C4)C=C3)cc1)C1=Cc2c(ccc(Cl)c2-c2ccccc2)O[C@H]1C(F)(F)F
REMARK SMILES IDX 6 1 5 2 4 3 3 4 1 5 2 6 65 8 66 9 81 10 67 11 80 12 68 13
REMARK SMILES IDX 73 14 69 15 71 16 70 17 72 18 82 19 83 20 84 21 85 22 74 23
REMARK SMILES IDX 75 24 79 25 76 26 78 27 77 28 7 29 8 30 9 31 10 33 11 34
REMARK SMILES IDX 12 35 64 36 13 37 63 38 14 39 15 40 16 41 57 42 17 43 62 44
REMARK SMILES IDX 56 45 58 46 18 47 61 48 55 49 54 50 19 52 45 53 28 54 44 55
REMARK SMILES IDX 29 56 32 57 43 58 59 59 30 60 31 61 42 63 60 64 33 65 20 66
REMARK SMILES IDX 21 67 26 68 22 69 23 70 25 71 27 72 24 73 46 74 47 75 52 76
REMARK SMILES IDX 48 77 49 78 51 79 53 80 50 81 34 82 35 83 40 84 36 85 37 86
REMARK SMILES IDX 39 87 41 88 38 89
REMARK H PARENT 3 7 8 32 58 51 32 62
REMARK Flexibility Score: inf
ROOT
ATOM      1  C   UNL A   1      30.893  31.576  25.739  1.00  0.00     0.023 C 
ENDROOT
BRANCH   1   2
ATOM      2  C   UNL A   1      31.002  30.379  24.797  1.00  0.00     0.023 C 
BRANCH   2   3
ATOM      3  C   UNL A   1      32.394  29.785  24.622  1.00  0.00     0.116 C 
BRANCH   3   4
ATOM      4  N   UNL A   1      32.475  28.622  23.761  1.00  0.00    -0.352 N 
ATOM      5  O   UNL A   1      32.724  26.448  23.239  1.00  0.00    -0.270 OA
ATOM      6  C   UNL A   1      32.617  27.306  24.110  1.00  0.00     0.251 C 
ATOM      7  H   UNL A   1      32.422  28.803  22.794  1.00  0.00     0.163 HD
BRANCH   6   8
ATOM      8  C   UNL A   1      32.634  26.895  25.533  1.00  0.00     0.067 C 
ATOM      9  C   UNL A   1      33.470  25.909  25.882  1.00  0.00     0.026 C 
ATOM     10  C   UNL A   1      31.465  27.188  26.421  1.00  0.00     0.314 C 
ATOM     11  C   UNL A   1      32.689  24.657  26.089  1.00  0.00     0.027 A 
ATOM     12  O   UNL A   1      30.770  25.966  26.847  1.00  0.00    -0.475 OA
ATOM     13  C   UNL A   1      31.363  24.763  26.543  1.00  0.00     0.128 A 
ATOM     14  C   UNL A   1      33.237  23.425  25.648  1.00  0.00     0.011 A 
ATOM     15  C   UNL A   1      30.556  23.631  26.556  1.00  0.00     0.049 A 
ATOM     16  C   UNL A   1      32.388  22.311  25.627  1.00  0.00     0.049 A 
ATOM     17  C   UNL A   1      31.059  22.416  26.077  1.00  0.00     0.025 A 
ATOM     18  Cl  UNL A   1      32.904  20.796  24.980  1.00  0.00    -0.084 Cl
BRANCH  10  19
ATOM     19  C   UNL A   1      31.870  28.042  27.644  1.00  0.00     0.429 C 
ATOM     20  F   UNL A   1      33.127  28.538  27.553  1.00  0.00    -0.167 F 
ATOM     21  F   UNL A   1      31.038  29.102  27.792  1.00  0.00    -0.167 F 
ATOM     22  F   UNL A   1      31.820  27.332  28.797  1.00  0.00    -0.167 F 
ENDBRANCH  10  19
BRANCH  14  23
ATOM     23  C   UNL A   1      34.627  23.452  25.151  1.00  0.00    -0.016 A 
ATOM     24  C   UNL A   1      35.688  23.152  26.022  1.00  0.00     0.009 A 
ATOM     25  C   UNL A   1      34.864  23.424  23.767  1.00  0.00     0.009 A 
ATOM     26  C   UNL A   1      36.919  22.726  25.521  1.00  0.00     0.001 A 
ATOM     27  C   UNL A   1      36.095  22.991  23.268  1.00  0.00     0.001 A 
ATOM     28  C   UNL A   1      37.110  22.618  24.145  1.00  0.00     0.000 A 
ENDBRANCH  14  23
ENDBRANCH   6   8
ENDBRANCH   3   4
ENDBRANCH   2   3
ENDBRANCH   1   2
BRANCH   1  29
ATOM     29  C   UNL A   1      32.115  31.890  26.602  1.00  0.00     0.116 C 
BRANCH  29  30
ATOM     30  N   UNL A   1      32.105  33.207  27.224  1.00  0.00    -0.352 N 
ATOM     31  C   UNL A   1      33.073  33.825  27.986  1.00  0.00     0.251 C 
ATOM     32  H   UNL A   1      31.286  33.734  27.079  1.00  0.00     0.163 HD
ATOM     33  O   UNL A   1      32.870  34.938  28.464  1.00  0.00    -0.269 OA
BRANCH  31  34
ATOM     34  C   UNL A   1      34.335  33.112  28.284  1.00  0.00     0.039 A 
ATOM     35  C   UNL A   1      35.543  33.807  28.174  1.00  0.00     0.014 A 
ATOM     36  C   UNL A   1      34.320  31.797  28.753  1.00  0.00     0.014 A 
ATOM     37  C   UNL A   1      36.719  33.232  28.664  1.00  0.00     0.010 A 
ATOM     38  C   UNL A   1      35.478  31.255  29.305  1.00  0.00     0.010 A 
ATOM     39  C   UNL A   1      36.681  31.980  29.298  1.00  0.00    -0.014 A 
BRANCH  39  40
ATOM     40  C   UNL A   1      37.861  31.437  30.026  1.00  0.00     0.031 A 
ATOM     41  C   UNL A   1      38.746  30.411  29.376  1.00  0.00     0.074 A 
ATOM     42  C   UNL A   1      38.061  31.778  31.316  1.00  0.00     0.049 A 
ATOM     43  N   UNL A   1      39.719  29.709  29.899  1.00  0.00    -0.248 NA
ATOM     44  C   UNL A   1      38.483  30.114  27.959  1.00  0.00     0.031 C 
ATOM     45  C   UNL A   1      37.243  32.721  32.083  1.00  0.00     0.029 A 
ATOM     46  N   UNL A   1      39.001  31.347  32.222  1.00  0.00    -0.354 N 
ATOM     47  C   UNL A   1      40.158  28.863  28.890  1.00  0.00     0.074 A 
ATOM     48  C   UNL A   1      39.331  29.120  27.730  1.00  0.00     0.031 C 
ATOM     49  C   UNL A   1      37.720  32.803  33.336  1.00  0.00     0.029 A 
ATOM     50  C   UNL A   1      38.849  31.890  33.477  1.00  0.00     0.049 A 
ATOM     51  H   UNL A   1      39.716  30.710  31.994  1.00  0.00     0.167 HD
ATOM     52  C   UNL A   1      41.169  27.961  28.924  1.00  0.00     0.037 A 
ATOM     53  C   UNL A   1      39.528  31.662  34.618  1.00  0.00     0.037 A 
ATOM     54  C   UNL A   1      42.025  27.742  30.060  1.00  0.00     0.049 A 
ATOM     55  C   UNL A   1      40.659  30.671  34.618  1.00  0.00     0.074 A 
ATOM     56  C   UNL A   1      43.133  26.919  30.155  1.00  0.00     0.029 A 
ATOM     57  N   UNL A   1      41.870  28.351  31.295  1.00  0.00    -0.354 N 
ATOM     58  N   UNL A   1      41.114  29.938  33.631  1.00  0.00    -0.248 NA
ATOM     59  C   UNL A   1      41.373  30.475  35.889  1.00  0.00     0.031 C 
ATOM     60  C   UNL A   1      43.628  27.001  31.460  1.00  0.00     0.029 A 
ATOM     61  C   UNL A   1      42.851  27.905  32.165  1.00  0.00     0.049 A 
ATOM     62  H   UNL A   1      41.168  29.002  31.520  1.00  0.00     0.167 HD
ATOM     63  C   UNL A   1      42.185  29.224  34.152  1.00  0.00     0.074 A 
ATOM     64  C   UNL A   1      42.318  29.615  35.539  1.00  0.00     0.031 C 
ATOM     65  C   UNL A   1      42.987  28.324  33.534  1.00  0.00     0.037 A 
BRANCH  52  66
ATOM     66  C   UNL A   1      41.413  27.139  27.694  1.00  0.00     0.057 A 
ATOM     67  C   UNL A   1      42.258  27.577  26.668  1.00  0.00     0.134 A 
ATOM     68  C   UNL A   1      40.847  25.863  27.567  1.00  0.00     0.134 A 
ATOM     69  F   UNL A   1      42.824  28.792  26.727  1.00  0.00    -0.206 F 
ATOM     70  C   UNL A   1      42.521  26.784  25.551  1.00  0.00     0.040 A 
ATOM     71  C   UNL A   1      41.121  25.051  26.466  1.00  0.00     0.040 A 
ATOM     72  F   UNL A   1      40.034  25.381  28.519  1.00  0.00    -0.206 F 
ATOM     73  C   UNL A   1      41.958  25.512  25.452  1.00  0.00     0.006 A 
ENDBRANCH  52  66
BRANCH  53  74
ATOM     74  C   UNL A   1      39.169  32.385  35.866  1.00  0.00     0.057 A 
ATOM     75  C   UNL A   1      38.295  31.817  36.801  1.00  0.00     0.134 A 
ATOM     76  C   UNL A   1      39.654  33.669  36.135  1.00  0.00     0.134 A 
ATOM     77  F   UNL A   1      37.780  30.597  36.588  1.00  0.00    -0.206 F 
ATOM     78  C   UNL A   1      37.893  32.511  37.944  1.00  0.00     0.040 A 
ATOM     79  C   UNL A   1      39.279  34.366  37.287  1.00  0.00     0.040 A 
ATOM     80  F   UNL A   1      40.500  34.267  35.283  1.00  0.00    -0.206 F 
ATOM     81  C   UNL A   1      38.388  33.790  38.189  1.00  0.00     0.006 A 
ENDBRANCH  53  74
BRANCH  65  82
ATOM     82  C   UNL A   1      44.111  27.739  34.335  1.00  0.00     0.057 A 
ATOM     83  C   UNL A   1      43.982  26.520  35.010  1.00  0.00     0.134 A 
ATOM     84  C   UNL A   1      45.356  28.379  34.381  1.00  0.00     0.134 A 
ATOM     85  F   UNL A   1      42.810  25.866  35.015  1.00  0.00    -0.206 F 
ATOM     86  C   UNL A   1      45.050  25.964  35.717  1.00  0.00     0.040 A 
ATOM     87  C   UNL A   1      46.438  27.821  35.065  1.00  0.00     0.040 A 
ATOM     88  F   UNL A   1      45.547  29.546  33.747  1.00  0.00    -0.206 F 
ATOM     89  C   UNL A   1      46.284  26.611  35.739  1.00  0.00     0.006 A 
ENDBRANCH  65  82
ENDBRANCH  39  40
ENDBRANCH  31  34
ENDBRANCH  29  30
ENDBRANCH   1  29
TORSDOF 13
ENDMDL
MODEL 2
REMARK VINA RESULT:     -12.5      0.363      6.092
REMARK SMILES O=C(NCCCCNC(=O)c1ccc(-c2c3nc(c(-c4c(F)cccc4F)c4ccc([nH]4)c(-c4c(F)cccc4F)c4nc(c(-c5c(F)cccc5F)c5ccc2[nH]5)C=C4)C=C3)cc1)C1=Cc2c(ccc(Cl)c2-c2ccccc2)O[C@H]1C(F)(F)F
REMARK SMILES IDX 6 1 5 2 4 3 3 4 1 5 2 6 65 8 66 9 81 10 67 11 80 12 68 13
REMARK SMILES IDX 73 14 69 15 71 16 70 17 72 18 82 19 83 20 84 21 85 22 74 23
REMARK SMILES IDX 75 24 79 25 76 26 78 27 77 28 7 29 8 30 9 31 10 33 11 34
REMARK SMILES IDX 12 35 64 36 13 37 63 38 14 39 15 40 16 41 57 42 17 43 62 44
REMARK SMILES IDX 56 45 58 46 18 47 61 48 55 49 54 50 19 52 45 53 28 54 44 55
REMARK SMILES IDX 29 56 32 57 43 58 59 59 30 60 31 61 42 63 60 64 33 65 20 66
REMARK SMILES IDX 21 67 26 68 22 69 23 70 25 71 27 72 24 73 46 74 47 75 52 76
REMARK SMILES IDX 48 77 49 78 51 79 53 80 50 81 34 82 35 83 40 84 36 85 37 86
REMARK SMILES IDX 39 87 41 88 38 89
REMARK H PARENT 3 7 8 32 58 51 32 62
REMARK Flexibility Score: inf
ROOT
ATOM      1  C   UNL A   1      30.837  31.557  25.689  1.00  0.00     0.023 C 
ENDROOT
BRANCH   1   2
ATOM      2  C   UNL A   1      30.946  30.354  24.754  1.00  0.00     0.023 C 
BRANCH   2   3
ATOM      3  C   UNL A   1      32.338  29.760  24.582  1.00  0.00     0.116 C 
BRANCH   3   4
ATOM      4  N   UNL A   1      32.421  28.592  23.729  1.00  0.00    -0.352 N 
ATOM      5  O   UNL A   1      32.675  26.415  23.221  1.00  0.00    -0.270 OA
ATOM      6  C   UNL A   1      32.568  27.278  24.087  1.00  0.00     0.251 C 
ATOM      7  H   UNL A   1      32.364  28.767  22.760  1.00  0.00     0.163 HD
BRANCH   6   8
ATOM      8  C   UNL A   1      32.590  26.877  25.512  1.00  0.00     0.067 C 
ATOM      9  C   UNL A   1      33.435  25.901  25.866  1.00  0.00     0.026 C 
ATOM     10  C   UNL A   1      31.421  27.168  26.401  1.00  0.00     0.314 C 
ATOM     11  C   UNL A   1      32.664  24.644  26.083  1.00  0.00     0.027 A 
ATOM     12  O   UNL A   1      30.737  25.944  26.837  1.00  0.00    -0.475 OA
ATOM     13  C   UNL A   1      31.339  24.742  26.539  1.00  0.00     0.128 A 
ATOM     14  C   UNL A   1      33.221  23.413  25.650  1.00  0.00     0.011 A 
ATOM     15  C   UNL A   1      30.540  23.605  26.562  1.00  0.00     0.049 A 
ATOM     16  C   UNL A   1      32.380  22.293  25.638  1.00  0.00     0.049 A 
ATOM     17  C   UNL A   1      31.052  22.390  26.090  1.00  0.00     0.025 A 
ATOM     18  Cl  UNL A   1      32.906  20.777  25.000  1.00  0.00    -0.084 Cl
BRANCH  10  19
ATOM     19  C   UNL A   1      31.822  28.033  27.617  1.00  0.00     0.429 C 
ATOM     20  F   UNL A   1      31.846  27.337  28.779  1.00  0.00    -0.167 F 
ATOM     21  F   UNL A   1      33.058  28.561  27.449  1.00  0.00    -0.167 F 
ATOM     22  F   UNL A   1      30.968  29.067  27.807  1.00  0.00    -0.167 F 
ENDBRANCH  10  19
BRANCH  14  23
ATOM     23  C   UNL A   1      34.610  23.447  25.150  1.00  0.00    -0.016 A 
ATOM     24  C   UNL A   1      35.674  23.154  26.018  1.00  0.00     0.009 A 
ATOM     25  C   UNL A   1      34.844  23.420  23.765  1.00  0.00     0.009 A 
ATOM     26  C   UNL A   1      36.906  22.734  25.514  1.00  0.00     0.001 A 
ATOM     27  C   UNL A   1      36.075  22.994  23.264  1.00  0.00     0.001 A 
ATOM     28  C   UNL A   1      37.095  22.627  24.139  1.00  0.00     0.000 A 
ENDBRANCH  14  23
ENDBRANCH   6   8
ENDBRANCH   3   4
ENDBRANCH   2   3
ENDBRANCH   1   2
BRANCH   1  29
ATOM     29  C   UNL A   1      31.991  31.781  26.665  1.00  0.00     0.116 C 
BRANCH  29  30
ATOM     30  N   UNL A   1      32.070  33.124  27.224  1.00  0.00    -0.352 N 
ATOM     31  C   UNL A   1      33.096  33.725  27.922  1.00  0.00     0.251 C 
ATOM     32  H   UNL A   1      31.273  33.685  27.082  1.00  0.00     0.163 HD
ATOM     33  O   UNL A   1      32.966  34.868  28.353  1.00  0.00    -0.269 OA
BRANCH  31  34
ATOM     34  C   UNL A   1      34.330  32.962  28.210  1.00  0.00     0.039 A 
ATOM     35  C   UNL A   1      35.520  33.662  28.422  1.00  0.00     0.014 A 
ATOM     36  C   UNL A   1      34.294  31.574  28.358  1.00  0.00     0.014 A 
ATOM     37  C   UNL A   1      36.641  32.989  28.916  1.00  0.00     0.010 A 
ATOM     38  C   UNL A   1      35.389  30.918  28.916  1.00  0.00     0.010 A 
ATOM     39  C   UNL A   1      36.561  31.624  29.235  1.00  0.00    -0.014 A 
BRANCH  39  40
ATOM     40  C   UNL A   1      37.654  30.927  29.965  1.00  0.00     0.031 A 
ATOM     41  C   UNL A   1      37.918  31.237  31.412  1.00  0.00     0.074 A 
ATOM     42  C   UNL A   1      38.487  30.106  29.291  1.00  0.00     0.049 A 
ATOM     43  N   UNL A   1      38.913  30.856  32.171  1.00  0.00    -0.248 NA
ATOM     44  C   UNL A   1      36.950  32.118  32.086  1.00  0.00     0.031 C 
ATOM     45  C   UNL A   1      38.376  29.762  27.871  1.00  0.00     0.029 A 
ATOM     46  N   UNL A   1      39.611  29.432  29.705  1.00  0.00    -0.354 N 
ATOM     47  C   UNL A   1      38.713  31.477  33.396  1.00  0.00     0.074 A 
ATOM     48  C   UNL A   1      37.515  32.281  33.274  1.00  0.00     0.031 C 
ATOM     49  C   UNL A   1      39.382  28.938  27.535  1.00  0.00     0.029 A 
ATOM     50  C   UNL A   1      40.235  28.728  28.701  1.00  0.00     0.049 A 
ATOM     51  H   UNL A   1      39.939  29.451  30.633  1.00  0.00     0.167 HD
ATOM     52  C   UNL A   1      39.455  31.377  34.525  1.00  0.00     0.037 A 
ATOM     53  C   UNL A   1      41.375  28.011  28.711  1.00  0.00     0.037 A 
ATOM     54  C   UNL A   1      40.616  30.538  34.663  1.00  0.00     0.049 A 
ATOM     55  C   UNL A   1      42.164  27.901  29.987  1.00  0.00     0.074 A 
ATOM     56  C   UNL A   1      41.375  30.299  35.795  1.00  0.00     0.029 A 
ATOM     57  N   UNL A   1      41.184  29.800  33.637  1.00  0.00    -0.354 N 
ATOM     58  N   UNL A   1      41.916  28.429  31.160  1.00  0.00    -0.248 NA
ATOM     59  C   UNL A   1      43.393  27.093  29.942  1.00  0.00     0.031 C 
ATOM     60  C   UNL A   1      42.424  29.445  35.447  1.00  0.00     0.029 A 
ATOM     61  C   UNL A   1      42.296  29.121  34.106  1.00  0.00     0.049 A 
ATOM     62  H   UNL A   1      40.847  29.764  32.713  1.00  0.00     0.167 HD
ATOM     63  C   UNL A   1      42.934  27.991  31.997  1.00  0.00     0.074 A 
ATOM     64  C   UNL A   1      43.800  27.148  31.201  1.00  0.00     0.031 C 
ATOM     65  C   UNL A   1      43.132  28.264  33.309  1.00  0.00     0.037 A 
BRANCH  52  66
ATOM     66  C   UNL A   1      39.035  32.192  35.712  1.00  0.00     0.057 A 
ATOM     67  C   UNL A   1      39.420  33.530  35.861  1.00  0.00     0.134 A 
ATOM     68  C   UNL A   1      38.180  31.651  36.681  1.00  0.00     0.134 A 
ATOM     69  F   UNL A   1      40.243  34.104  34.971  1.00  0.00    -0.206 F 
ATOM     70  C   UNL A   1      38.983  34.298  36.941  1.00  0.00     0.040 A 
ATOM     71  C   UNL A   1      37.718  32.416  37.753  1.00  0.00     0.040 A 
ATOM     72  F   UNL A   1      37.769  30.378  36.591  1.00  0.00    -0.206 F 
ATOM     73  C   UNL A   1      38.121  33.742  37.887  1.00  0.00     0.006 A 
ENDBRANCH  52  66
BRANCH  53  74
ATOM     74  C   UNL A   1      41.849  27.331  27.479  1.00  0.00     0.057 A 
ATOM     75  C   UNL A   1      42.589  28.024  26.513  1.00  0.00     0.134 A 
ATOM     76  C   UNL A   1      41.543  25.991  27.216  1.00  0.00     0.134 A 
ATOM     77  F   UNL A   1      42.896  29.316  26.698  1.00  0.00    -0.206 F 
ATOM     78  C   UNL A   1      42.982  27.419  25.318  1.00  0.00     0.040 A 
ATOM     79  C   UNL A   1      41.950  25.366  26.035  1.00  0.00     0.040 A 
ATOM     80  F   UNL A   1      40.842  25.269  28.103  1.00  0.00    -0.206 F 
ATOM     81  C   UNL A   1      42.663  26.083  25.078  1.00  0.00     0.006 A 
ENDBRANCH  53  74
BRANCH  65  82
ATOM     82  C   UNL A   1      44.298  27.605  33.982  1.00  0.00     0.057 A 
ATOM     83  C   UNL A   1      45.546  28.232  34.081  1.00  0.00     0.134 A 
ATOM     84  C   UNL A   1      44.151  26.350  34.587  1.00  0.00     0.134 A 
ATOM     85  F   UNL A   1      45.753  29.428  33.509  1.00  0.00    -0.206 F 
ATOM     86  C   UNL A   1      46.613  27.626  34.746  1.00  0.00     0.040 A 
ATOM     87  C   UNL A   1      45.204  25.745  35.275  1.00  0.00     0.040 A 
ATOM     88  F   UNL A   1      42.978  25.701  34.534  1.00  0.00    -0.206 F 
ATOM     89  C   UNL A   1      46.441  26.383  35.353  1.00  0.00     0.006 A 
ENDBRANCH  65  82
ENDBRANCH  39  40
ENDBRANCH  31  34
ENDBRANCH  29  30
ENDBRANCH   1  29
TORSDOF 13
ENDMDL
MODEL 3
REMARK VINA RESULT:     -12.4      4.383      8.073
REMARK SMILES O=C(NCCCCNC(=O)c1ccc(-c2c3nc(c(-c4c(F)cccc4F)c4ccc([nH]4)c(-c4c(F)cccc4F)c4nc(c(-c5c(F)cccc5F)c5ccc2[nH]5)C=C4)C=C3)cc1)C1=Cc2c(ccc(Cl)c2-c2ccccc2)O[C@H]1C(F)(F)F
REMARK SMILES IDX 6 1 5 2 4 3 3 4 1 5 2 6 65 8 66 9 81 10 67 11 80 12 68 13
REMARK SMILES IDX 73 14 69 15 71 16 70 17 72 18 82 19 83 20 84 21 85 22 74 23
REMARK SMILES IDX 75 24 79 25 76 26 78 27 77 28 7 29 8 30 9 31 10 33 11 34
REMARK SMILES IDX 12 35 64 36 13 37 63 38 14 39 15 40 16 41 57 42 17 43 62 44
REMARK SMILES IDX 56 45 58 46 18 47 61 48 55 49 54 50 19 52 45 53 28 54 44 55
REMARK SMILES IDX 29 56 32 57 43 58 59 59 30 60 31 61 42 63 60 64 33 65 20 66
REMARK SMILES IDX 21 67 26 68 22 69 23 70 25 71 27 72 24 73 46 74 47 75 52 76
REMARK SMILES IDX 48 77 49 78 51 79 53 80 50 81 34 82 35 83 40 84 36 85 37 86
REMARK SMILES IDX 39 87 41 88 38 89
REMARK H PARENT 3 7 8 32 58 51 32 62
REMARK Flexibility Score: inf
ROOT
ATOM      1  C   UNL A   1      36.799  19.295  24.945  1.00  0.00     0.023 C 
ENDROOT
BRANCH   1   2
ATOM      2  C   UNL A   1      35.437  19.979  25.050  1.00  0.00     0.023 C 
BRANCH   2   3
ATOM      3  C   UNL A   1      35.335  21.124  26.048  1.00  0.00     0.116 C 
BRANCH   3   4
ATOM      4  N   UNL A   1      34.028  21.741  26.163  1.00  0.00    -0.352 N 
ATOM      5  O   UNL A   1      32.458  23.327  25.879  1.00  0.00    -0.270 OA
ATOM      6  C   UNL A   1      33.592  22.927  25.634  1.00  0.00     0.251 C 
ATOM      7  H   UNL A   1      33.366  21.241  26.693  1.00  0.00     0.163 HD
BRANCH   6   8
ATOM      8  C   UNL A   1      34.469  23.736  24.756  1.00  0.00     0.067 C 
ATOM      9  C   UNL A   1      34.428  25.066  24.899  1.00  0.00     0.026 C 
ATOM     10  C   UNL A   1      34.984  23.170  23.469  1.00  0.00     0.314 C 
ATOM     11  C   UNL A   1      33.659  25.654  23.766  1.00  0.00     0.027 A 
ATOM     12  O   UNL A   1      34.427  23.859  22.298  1.00  0.00    -0.475 OA
ATOM     13  C   UNL A   1      33.686  24.996  22.525  1.00  0.00     0.128 A 
ATOM     14  C   UNL A   1      32.784  26.742  24.022  1.00  0.00     0.011 A 
ATOM     15  C   UNL A   1      32.828  25.412  21.515  1.00  0.00     0.049 A 
ATOM     16  C   UNL A   1      31.896  27.110  23.002  1.00  0.00     0.049 A 
ATOM     17  C   UNL A   1      31.919  26.449  21.761  1.00  0.00     0.025 A 
ATOM     18  Cl  UNL A   1      30.693  28.323  23.248  1.00  0.00    -0.084 Cl
BRANCH  10  19
ATOM     19  C   UNL A   1      36.528  23.166  23.418  1.00  0.00     0.429 C 
ATOM     20  F   UNL A   1      37.034  24.086  22.562  1.00  0.00    -0.167 F 
ATOM     21  F   UNL A   1      37.054  23.433  24.638  1.00  0.00    -0.167 F 
ATOM     22  F   UNL A   1      37.020  21.966  23.026  1.00  0.00    -0.167 F 
ENDBRANCH  10  19
BRANCH  14  23
ATOM     23  C   UNL A   1      32.817  27.321  25.379  1.00  0.00    -0.016 A 
ATOM     24  C   UNL A   1      33.682  28.390  25.665  1.00  0.00     0.009 A 
ATOM     25  C   UNL A   1      31.760  27.055  26.267  1.00  0.00     0.009 A 
ATOM     26  C   UNL A   1      33.431  29.238  26.744  1.00  0.00     0.001 A 
ATOM     27  C   UNL A   1      31.507  27.909  27.342  1.00  0.00     0.001 A 
ATOM     28  C   UNL A   1      32.327  29.014  27.563  1.00  0.00     0.000 A 
ENDBRANCH  14  23
ENDBRANCH   6   8
ENDBRANCH   3   4
ENDBRANCH   2   3
ENDBRANCH   1   2
BRANCH   1  29
ATOM     29  C   UNL A   1      38.024  20.133  25.310  1.00  0.00     0.116 C 
BRANCH  29  30
ATOM     30  N   UNL A   1      39.253  19.375  25.497  1.00  0.00    -0.352 N 
ATOM     31  C   UNL A   1      40.441  19.760  26.078  1.00  0.00     0.251 C 
ATOM     32  H   UNL A   1      39.232  18.450  25.158  1.00  0.00     0.163 HD
ATOM     33  O   UNL A   1      41.395  18.986  26.113  1.00  0.00    -0.269 OA
BRANCH  31  34
ATOM     34  C   UNL A   1      40.589  21.137  26.600  1.00  0.00     0.039 A 
ATOM     35  C   UNL A   1      41.592  21.398  27.537  1.00  0.00     0.014 A 
ATOM     36  C   UNL A   1      39.802  22.177  26.103  1.00  0.00     0.014 A 
ATOM     37  C   UNL A   1      41.899  22.719  27.872  1.00  0.00     0.010 A 
ATOM     38  C   UNL A   1      40.155  23.495  26.384  1.00  0.00     0.010 A 
ATOM     39  C   UNL A   1      41.229  23.781  27.243  1.00  0.00    -0.014 A 
BRANCH  39  40
ATOM     40  C   UNL A   1      41.675  25.191  27.405  1.00  0.00     0.031 A 
ATOM     41  C   UNL A   1      43.019  25.626  26.890  1.00  0.00     0.074 A 
ATOM     42  C   UNL A   1      40.923  26.049  28.125  1.00  0.00     0.049 A 
ATOM     43  N   UNL A   1      43.647  26.760  27.072  1.00  0.00    -0.248 NA
ATOM     44  C   UNL A   1      43.768  24.645  26.089  1.00  0.00     0.031 C 
ATOM     45  C   UNL A   1      39.623  25.739  28.728  1.00  0.00     0.029 A 
ATOM     46  N   UNL A   1      41.155  27.351  28.499  1.00  0.00    -0.354 N 
ATOM     47  C   UNL A   1      44.876  26.616  26.443  1.00  0.00     0.074 A 
ATOM     48  C   UNL A   1      44.917  25.276  25.895  1.00  0.00     0.031 C 
ATOM     49  C   UNL A   1      39.171  26.819  29.386  1.00  0.00     0.029 A 
ATOM     50  C   UNL A   1      40.164  27.885  29.290  1.00  0.00     0.049 A 
ATOM     51  H   UNL A   1      41.954  27.855  28.224  1.00  0.00     0.167 HD
ATOM     52  C   UNL A   1      45.875  27.523  26.323  1.00  0.00     0.037 A 
ATOM     53  C   UNL A   1      40.073  29.088  29.889  1.00  0.00     0.037 A 
ATOM     54  C   UNL A   1      45.813  28.871  26.823  1.00  0.00     0.049 A 
ATOM     55  C   UNL A   1      41.190  30.082  29.718  1.00  0.00     0.074 A 
ATOM     56  C   UNL A   1      46.736  29.889  26.667  1.00  0.00     0.029 A 
ATOM     57  N   UNL A   1      44.769  29.388  27.574  1.00  0.00    -0.354 N 
ATOM     58  N   UNL A   1      42.310  29.957  29.050  1.00  0.00    -0.248 NA
ATOM     59  C   UNL A   1      41.029  31.384  30.383  1.00  0.00     0.031 C 
ATOM     60  C   UNL A   1      46.269  31.013  27.353  1.00  0.00     0.029 A 
ATOM     61  C   UNL A   1      45.036  30.706  27.905  1.00  0.00     0.049 A 
ATOM     62  H   UNL A   1      43.959  28.893  27.833  1.00  0.00     0.167 HD
ATOM     63  C   UNL A   1      42.969  31.173  29.185  1.00  0.00     0.074 A 
ATOM     64  C   UNL A   1      42.121  32.024  29.992  1.00  0.00     0.031 C 
ATOM     65  C   UNL A   1      44.170  31.549  28.685  1.00  0.00     0.037 A 
BRANCH  52  66
ATOM     66  C   UNL A   1      47.128  27.094  25.620  1.00  0.00     0.057 A 
ATOM     67  C   UNL A   1      47.367  27.412  24.278  1.00  0.00     0.134 A 
ATOM     68  C   UNL A   1      48.136  26.412  26.315  1.00  0.00     0.134 A 
ATOM     69  F   UNL A   1      46.438  28.057  23.556  1.00  0.00    -0.206 F 
ATOM     70  C   UNL A   1      48.558  27.054  23.645  1.00  0.00     0.040 A 
ATOM     71  C   UNL A   1      49.341  26.069  25.699  1.00  0.00     0.040 A 
ATOM     72  F   UNL A   1      47.972  26.084  27.605  1.00  0.00    -0.206 F 
ATOM     73  C   UNL A   1      49.553  26.388  24.360  1.00  0.00     0.006 A 
ENDBRANCH  52  66
BRANCH  53  74
ATOM     74  C   UNL A   1      38.883  29.436  30.706  1.00  0.00     0.057 A 
ATOM     75  C   UNL A   1      37.818  30.160  30.156  1.00  0.00     0.134 A 
ATOM     76  C   UNL A   1      38.796  29.093  32.060  1.00  0.00     0.134 A 
ATOM     77  F   UNL A   1      37.853  30.537  28.869  1.00  0.00    -0.206 F 
ATOM     78  C   UNL A   1      36.724  30.556  30.928  1.00  0.00     0.040 A 
ATOM     79  C   UNL A   1      37.696  29.461  32.839  1.00  0.00     0.040 A 
ATOM     80  F   UNL A   1      39.779  28.394  32.646  1.00  0.00    -0.206 F 
ATOM     81  C   UNL A   1      36.662  30.203  32.274  1.00  0.00     0.006 A 
ENDBRANCH  53  74
BRANCH  65  82
ATOM     82  C   UNL A   1      44.617  32.955  28.948  1.00  0.00     0.057 A 
ATOM     83  C   UNL A   1      44.326  34.001  28.065  1.00  0.00     0.134 A 
ATOM     84  C   UNL A   1      45.299  33.273  30.130  1.00  0.00     0.134 A 
ATOM     85  F   UNL A   1      43.688  33.758  26.910  1.00  0.00    -0.206 F 
ATOM     86  C   UNL A   1      44.711  35.315  28.341  1.00  0.00     0.040 A 
ATOM     87  C   UNL A   1      45.669  34.585  30.428  1.00  0.00     0.040 A 
ATOM     88  F   UNL A   1      45.600  32.316  31.020  1.00  0.00    -0.206 F 
ATOM     89  C   UNL A   1      45.377  35.610  29.530  1.00  0.00     0.006 A 
ENDBRANCH  65  82
ENDBRANCH  39  40
ENDBRANCH  31  34
ENDBRANCH  29  30
ENDBRANCH   1  29
TORSDOF 13
ENDMDL
