MODEL 1
REMARK VINA RESULT:     -11.2      0.000      0.000
REMARK SMILES C[C@H]1CC=C(C2=NN=C(C(=O)NCCCCNC(=O)c3ccc(-c4c5nc(c(-c6c(F)cccc6F)c6ccc([nH]6)c(-c6c(F)cccc6F)c6nc(c(-c7c(F)cccc7F)c7ccc4[nH]7)C=C6)C=C5)cc3)C2)O1
REMARK SMILES IDX 15 1 14 2 13 3 12 4 10 5 11 6 9 8 6 9 7 10 74 11 8 12 5 13
REMARK SMILES IDX 1 14 2 15 3 16 75 17 4 18 16 19 17 20 18 21 19 23 20 24
REMARK SMILES IDX 21 25 73 26 22 27 72 28 23 29 24 30 25 31 66 32 26 33 71 34
REMARK SMILES IDX 65 35 67 36 27 37 70 38 64 39 63 40 28 42 54 43 37 44 53 45
REMARK SMILES IDX 38 46 41 47 52 48 68 49 39 50 40 51 51 53 69 54 42 55 29 56
REMARK SMILES IDX 30 57 35 58 31 59 32 60 34 61 36 62 33 63 55 64 56 65 61 66
REMARK SMILES IDX 57 67 58 68 60 69 62 70 59 71 43 72 44 73 49 74 45 75 46 76
REMARK SMILES IDX 48 77 50 78 47 79
REMARK H PARENT 12 7 17 22 67 41 41 52
REMARK Flexibility Score: inf
ROOT
ATOM      1  C   UNL A   1      40.885  20.045  26.363  1.00  0.00     0.023 C 
ENDROOT
BRANCH   1   2
ATOM      2  C   UNL A   1      40.229  21.375  26.763  1.00  0.00     0.023 C 
BRANCH   2   3
ATOM      3  C   UNL A   1      39.065  21.833  25.880  1.00  0.00     0.116 C 
BRANCH   3   4
ATOM      4  N   UNL A   1      38.249  20.718  25.426  1.00  0.00    -0.351 N 
ATOM      5  C   UNL A   1      36.903  20.641  25.162  1.00  0.00     0.267 C 
ATOM      6  O   UNL A   1      36.410  19.577  24.794  1.00  0.00    -0.268 OA
ATOM      7  H   UNL A   1      38.743  19.879  25.285  1.00  0.00     0.163 HD
BRANCH   5   8
ATOM      8  C   UNL A   1      35.981  21.823  25.282  1.00  0.00     0.134 C 
ATOM      9  C   UNL A   1      34.843  23.681  24.786  1.00  0.00     0.111 C 
ATOM     10  N   UNL A   1      34.673  23.422  26.048  1.00  0.00    -0.151 NA
ATOM     11  C   UNL A   1      35.713  22.683  24.095  1.00  0.00     0.126 C 
ATOM     12  N   UNL A   1      35.395  22.236  26.363  1.00  0.00    -0.149 NA
BRANCH   9  13
ATOM     13  C   UNL A   1      34.303  24.843  24.068  1.00  0.00     0.139 C 
ATOM     14  C   UNL A   1      33.877  28.265  23.677  1.00  0.00     0.053 C 
ATOM     15  C   UNL A   1      33.357  26.835  23.746  1.00  0.00     0.174 C 
ATOM     16  C   UNL A   1      33.400  26.108  22.395  1.00  0.00     0.076 C 
ATOM     17  O   UNL A   1      34.135  26.068  24.698  1.00  0.00    -0.489 OA
ATOM     18  C   UNL A   1      33.902  24.778  22.801  1.00  0.00     0.025 C 
ENDBRANCH   9  13
ENDBRANCH   5   8
ENDBRANCH   3   4
ENDBRANCH   2   3
ENDBRANCH   1   2
BRANCH   1  19
ATOM     19  C   UNL A   1      42.274  19.810  26.951  1.00  0.00     0.116 C 
BRANCH  19  20
ATOM     20  N   UNL A   1      43.291  19.591  25.931  1.00  0.00    -0.352 N 
ATOM     21  C   UNL A   1      43.927  20.529  25.142  1.00  0.00     0.251 C 
ATOM     22  H   UNL A   1      43.560  18.655  25.786  1.00  0.00     0.163 HD
ATOM     23  O   UNL A   1      44.448  20.206  24.086  1.00  0.00    -0.269 OA
BRANCH  21  24
ATOM     24  C   UNL A   1      43.966  21.937  25.583  1.00  0.00     0.039 A 
ATOM     25  C   UNL A   1      43.059  22.862  25.058  1.00  0.00     0.014 A 
ATOM     26  C   UNL A   1      44.914  22.328  26.527  1.00  0.00     0.014 A 
ATOM     27  C   UNL A   1      43.053  24.162  25.557  1.00  0.00     0.010 A 
ATOM     28  C   UNL A   1      44.846  23.586  27.090  1.00  0.00     0.010 A 
ATOM     29  C   UNL A   1      43.928  24.512  26.598  1.00  0.00    -0.014 A 
BRANCH  29  30
ATOM     30  C   UNL A   1      43.717  25.770  27.323  1.00  0.00     0.031 A 
ATOM     31  C   UNL A   1      44.714  26.822  26.962  1.00  0.00     0.074 A 
ATOM     32  C   UNL A   1      42.602  26.053  28.034  1.00  0.00     0.049 A 
ATOM     33  N   UNL A   1      45.564  27.412  27.734  1.00  0.00    -0.248 NA
ATOM     34  C   UNL A   1      44.885  27.158  25.535  1.00  0.00     0.031 C 
ATOM     35  C   UNL A   1      41.407  25.209  28.147  1.00  0.00     0.029 A 
ATOM     36  N   UNL A   1      42.225  27.194  28.693  1.00  0.00    -0.354 N 
ATOM     37  C   UNL A   1      46.188  28.375  26.939  1.00  0.00     0.074 A 
ATOM     38  C   UNL A   1      45.900  28.023  25.579  1.00  0.00     0.031 C 
ATOM     39  C   UNL A   1      40.371  25.947  28.596  1.00  0.00     0.029 A 
ATOM     40  C   UNL A   1      40.858  27.264  28.963  1.00  0.00     0.049 A 
ATOM     41  H   UNL A   1      42.860  27.900  28.952  1.00  0.00     0.167 HD
ATOM     42  C   UNL A   1      46.575  29.561  27.489  1.00  0.00     0.037 A 
ATOM     43  C   UNL A   1      40.157  28.325  29.435  1.00  0.00     0.037 A 
ATOM     44  C   UNL A   1      46.627  29.447  28.925  1.00  0.00     0.049 A 
ATOM     45  C   UNL A   1      41.111  29.255  30.075  1.00  0.00     0.074 A 
ATOM     46  C   UNL A   1      47.461  28.899  29.874  1.00  0.00     0.029 A 
ATOM     47  N   UNL A   1      45.419  29.667  29.522  1.00  0.00    -0.354 N 
ATOM     48  N   UNL A   1      41.751  28.986  31.177  1.00  0.00    -0.248 NA
ATOM     49  C   UNL A   1      41.612  30.400  29.321  1.00  0.00     0.031 C 
ATOM     50  C   UNL A   1      46.666  28.710  31.046  1.00  0.00     0.029 A 
ATOM     51  C   UNL A   1      45.382  29.187  30.800  1.00  0.00     0.049 A 
ATOM     52  H   UNL A   1      44.662  30.119  29.084  1.00  0.00     0.167 HD
ATOM     53  C   UNL A   1      42.965  29.620  31.020  1.00  0.00     0.074 A 
ATOM     54  C   UNL A   1      42.753  30.617  29.978  1.00  0.00     0.031 C 
ATOM     55  C   UNL A   1      44.113  29.041  31.473  1.00  0.00     0.037 A 
BRANCH  42  56
ATOM     56  C   UNL A   1      46.348  30.928  26.846  1.00  0.00     0.057 A 
ATOM     57  C   UNL A   1      47.431  31.833  26.800  1.00  0.00     0.134 A 
ATOM     58  C   UNL A   1      45.091  31.512  26.587  1.00  0.00     0.134 A 
ATOM     59  F   UNL A   1      48.688  31.418  27.017  1.00  0.00    -0.206 F 
ATOM     60  C   UNL A   1      47.261  33.213  26.614  1.00  0.00     0.040 A 
ATOM     61  C   UNL A   1      44.916  32.883  26.361  1.00  0.00     0.040 A 
ATOM     62  F   UNL A   1      43.946  30.823  26.622  1.00  0.00    -0.206 F 
ATOM     63  C   UNL A   1      45.997  33.746  26.409  1.00  0.00     0.006 A 
ENDBRANCH  42  56
BRANCH  43  64
ATOM     64  C   UNL A   1      38.738  28.704  29.227  1.00  0.00     0.057 A 
ATOM     65  C   UNL A   1      37.831  28.730  30.299  1.00  0.00     0.134 A 
ATOM     66  C   UNL A   1      38.306  29.320  28.041  1.00  0.00     0.134 A 
ATOM     67  F   UNL A   1      38.157  28.189  31.482  1.00  0.00    -0.206 F 
ATOM     68  C   UNL A   1      36.590  29.373  30.212  1.00  0.00     0.040 A 
ATOM     69  C   UNL A   1      37.065  29.959  27.939  1.00  0.00     0.040 A 
ATOM     70  F   UNL A   1      39.110  29.405  26.972  1.00  0.00    -0.206 F 
ATOM     71  C   UNL A   1      36.210  30.006  29.034  1.00  0.00     0.006 A 
ENDBRANCH  43  64
BRANCH  55  72
ATOM     72  C   UNL A   1      44.011  28.089  32.619  1.00  0.00     0.057 A 
ATOM     73  C   UNL A   1      43.903  26.698  32.503  1.00  0.00     0.134 A 
ATOM     74  C   UNL A   1      44.085  28.617  33.914  1.00  0.00     0.134 A 
ATOM     75  F   UNL A   1      43.899  26.097  31.304  1.00  0.00    -0.206 F 
ATOM     76  C   UNL A   1      43.831  25.874  33.631  1.00  0.00     0.040 A 
ATOM     77  C   UNL A   1      44.050  27.805  35.045  1.00  0.00     0.040 A 
ATOM     78  F   UNL A   1      44.221  29.941  34.096  1.00  0.00    -0.206 F 
ATOM     79  C   UNL A   1      43.910  26.428  34.906  1.00  0.00     0.006 A 
ENDBRANCH  55  72
ENDBRANCH  29  30
ENDBRANCH  21  24
ENDBRANCH  19  20
ENDBRANCH   1  19
TORSDOF 12
ENDMDL
MODEL 2
REMARK VINA RESULT:     -11.1      4.267     10.190
REMARK SMILES C[C@H]1CC=C(C2=NN=C(C(=O)NCCCCNC(=O)c3ccc(-c4c5nc(c(-c6c(F)cccc6F)c6ccc([nH]6)c(-c6c(F)cccc6F)c6nc(c(-c7c(F)cccc7F)c7ccc4[nH]7)C=C6)C=C5)cc3)C2)O1
REMARK SMILES IDX 15 1 14 2 13 3 12 4 10 5 11 6 9 8 6 9 7 10 74 11 8 12 5 13
REMARK SMILES IDX 1 14 2 15 3 16 75 17 4 18 16 19 17 20 18 21 19 23 20 24
REMARK SMILES IDX 21 25 73 26 22 27 72 28 23 29 24 30 25 31 66 32 26 33 71 34
REMARK SMILES IDX 65 35 67 36 27 37 70 38 64 39 63 40 28 42 54 43 37 44 53 45
REMARK SMILES IDX 38 46 41 47 52 48 68 49 39 50 40 51 51 53 69 54 42 55 29 56
REMARK SMILES IDX 30 57 35 58 31 59 32 60 34 61 36 62 33 63 55 64 56 65 61 66
REMARK SMILES IDX 57 67 58 68 60 69 62 70 59 71 43 72 44 73 49 74 45 75 46 76
REMARK SMILES IDX 48 77 50 78 47 79
REMARK H PARENT 12 7 17 22 67 41 41 52
REMARK Flexibility Score: inf
ROOT
ATOM      1  C   UNL A   1      34.778  34.315  28.126  1.00  0.00     0.023 C 
ENDROOT
BRANCH   1   2
ATOM      2  C   UNL A   1      34.401  35.708  28.651  1.00  0.00     0.023 C 
BRANCH   2   3
ATOM      3  C   UNL A   1      32.972  35.854  29.178  1.00  0.00     0.116 C 
BRANCH   3   4
ATOM      4  N   UNL A   1      32.878  36.843  30.241  1.00  0.00    -0.351 N 
ATOM      5  C   UNL A   1      33.044  36.719  31.599  1.00  0.00     0.267 C 
ATOM      6  O   UNL A   1      32.903  37.699  32.327  1.00  0.00    -0.268 OA
ATOM      7  H   UNL A   1      32.659  37.753  29.937  1.00  0.00     0.163 HD
BRANCH   5   8
ATOM      8  C   UNL A   1      33.418  35.419  32.258  1.00  0.00     0.134 C 
ATOM      9  C   UNL A   1      34.608  33.656  32.942  1.00  0.00     0.111 C 
ATOM     10  N   UNL A   1      33.363  33.453  33.251  1.00  0.00    -0.151 NA
ATOM     11  C   UNL A   1      34.836  34.963  32.255  1.00  0.00     0.126 C 
ATOM     12  N   UNL A   1      32.605  34.579  32.818  1.00  0.00    -0.149 NA
BRANCH   9  13
ATOM     13  C   UNL A   1      35.714  32.718  33.174  1.00  0.00     0.139 C 
ATOM     14  C   UNL A   1      38.050  31.203  35.245  1.00  0.00     0.053 C 
ATOM     15  C   UNL A   1      37.640  31.928  33.970  1.00  0.00     0.174 C 
ATOM     16  C   UNL A   1      37.162  30.981  32.861  1.00  0.00     0.076 C 
ATOM     17  O   UNL A   1      36.574  32.867  34.253  1.00  0.00    -0.489 OA
ATOM     18  C   UNL A   1      35.985  31.712  32.347  1.00  0.00     0.025 C 
ENDBRANCH   9  13
ENDBRANCH   5   8
ENDBRANCH   3   4
ENDBRANCH   2   3
ENDBRANCH   1   2
BRANCH   1  19
ATOM     19  C   UNL A   1      34.575  33.175  29.119  1.00  0.00     0.116 C 
BRANCH  19  20
ATOM     20  N   UNL A   1      33.999  31.985  28.507  1.00  0.00    -0.352 N 
ATOM     21  C   UNL A   1      34.650  30.849  28.068  1.00  0.00     0.251 C 
ATOM     22  H   UNL A   1      33.021  31.990  28.392  1.00  0.00     0.163 HD
ATOM     23  O   UNL A   1      34.135  30.115  27.239  1.00  0.00    -0.269 OA
BRANCH  21  24
ATOM     24  C   UNL A   1      35.988  30.531  28.605  1.00  0.00     0.039 A 
ATOM     25  C   UNL A   1      36.203  29.328  29.284  1.00  0.00     0.014 A 
ATOM     26  C   UNL A   1      37.027  31.442  28.426  1.00  0.00     0.014 A 
ATOM     27  C   UNL A   1      37.493  29.008  29.701  1.00  0.00     0.010 A 
ATOM     28  C   UNL A   1      38.319  31.084  28.751  1.00  0.00     0.010 A 
ATOM     29  C   UNL A   1      38.557  29.876  29.403  1.00  0.00    -0.014 A 
BRANCH  29  30
ATOM     30  C   UNL A   1      39.937  29.406  29.566  1.00  0.00     0.031 A 
ATOM     31  C   UNL A   1      40.379  29.389  30.992  1.00  0.00     0.074 A 
ATOM     32  C   UNL A   1      40.648  28.800  28.588  1.00  0.00     0.049 A 
ATOM     33  N   UNL A   1      41.352  30.043  31.532  1.00  0.00    -0.248 NA
ATOM     34  C   UNL A   1      39.546  28.662  31.971  1.00  0.00     0.031 C 
ATOM     35  C   UNL A   1      40.159  28.451  27.249  1.00  0.00     0.029 A 
ATOM     36  N   UNL A   1      41.900  28.243  28.604  1.00  0.00    -0.354 N 
ATOM     37  C   UNL A   1      41.411  29.605  32.856  1.00  0.00     0.074 A 
ATOM     38  C   UNL A   1      40.164  28.948  33.119  1.00  0.00     0.031 C 
ATOM     39  C   UNL A   1      40.982  27.539  26.690  1.00  0.00     0.029 A 
ATOM     40  C   UNL A   1      42.140  27.364  27.547  1.00  0.00     0.049 A 
ATOM     41  H   UNL A   1      42.568  28.444  29.298  1.00  0.00     0.167 HD
ATOM     42  C   UNL A   1      42.615  29.514  33.487  1.00  0.00     0.037 A 
ATOM     43  C   UNL A   1      43.198  26.531  27.383  1.00  0.00     0.037 A 
ATOM     44  C   UNL A   1      43.605  30.287  32.779  1.00  0.00     0.049 A 
ATOM     45  C   UNL A   1      44.301  27.019  28.237  1.00  0.00     0.074 A 
ATOM     46  C   UNL A   1      43.946  31.612  32.626  1.00  0.00     0.029 A 
ATOM     47  N   UNL A   1      44.189  29.595  31.756  1.00  0.00    -0.354 N 
ATOM     48  N   UNL A   1      44.942  28.132  28.021  1.00  0.00    -0.248 NA
ATOM     49  C   UNL A   1      44.512  26.417  29.550  1.00  0.00     0.031 C 
ATOM     50  C   UNL A   1      44.685  31.699  31.407  1.00  0.00     0.029 A 
ATOM     51  C   UNL A   1      44.816  30.423  30.868  1.00  0.00     0.049 A 
ATOM     52  H   UNL A   1      44.163  28.615  31.669  1.00  0.00     0.167 HD
ATOM     53  C   UNL A   1      45.256  28.585  29.284  1.00  0.00     0.074 A 
ATOM     54  C   UNL A   1      45.150  27.421  30.154  1.00  0.00     0.031 C 
ATOM     55  C   UNL A   1      45.210  29.916  29.575  1.00  0.00     0.037 A 
BRANCH  42  56
ATOM     56  C   UNL A   1      43.054  28.333  34.350  1.00  0.00     0.057 A 
ATOM     57  C   UNL A   1      43.032  27.042  33.779  1.00  0.00     0.134 A 
ATOM     58  C   UNL A   1      43.168  28.344  35.756  1.00  0.00     0.134 A 
ATOM     59  F   UNL A   1      42.937  26.876  32.451  1.00  0.00    -0.206 F 
ATOM     60  C   UNL A   1      43.020  25.869  34.548  1.00  0.00     0.040 A 
ATOM     61  C   UNL A   1      43.196  27.177  36.530  1.00  0.00     0.040 A 
ATOM     62  F   UNL A   1      43.169  29.468  36.478  1.00  0.00    -0.206 F 
ATOM     63  C   UNL A   1      43.087  25.935  35.932  1.00  0.00     0.006 A 
ENDBRANCH  42  56
BRANCH  43  64
ATOM     64  C   UNL A   1      43.290  25.229  26.679  1.00  0.00     0.057 A 
ATOM     65  C   UNL A   1      44.153  25.056  25.585  1.00  0.00     0.134 A 
ATOM     66  C   UNL A   1      42.755  24.053  27.232  1.00  0.00     0.134 A 
ATOM     67  F   UNL A   1      44.734  26.114  25.001  1.00  0.00    -0.206 F 
ATOM     68  C   UNL A   1      44.503  23.789  25.102  1.00  0.00     0.040 A 
ATOM     69  C   UNL A   1      43.091  22.782  26.754  1.00  0.00     0.040 A 
ATOM     70  F   UNL A   1      41.964  24.094  28.314  1.00  0.00    -0.206 F 
ATOM     71  C   UNL A   1      43.984  22.645  25.698  1.00  0.00     0.006 A 
ENDBRANCH  43  64
BRANCH  55  72
ATOM     72  C   UNL A   1      45.423  30.883  28.457  1.00  0.00     0.057 A 
ATOM     73  C   UNL A   1      46.671  31.254  27.940  1.00  0.00     0.134 A 
ATOM     74  C   UNL A   1      44.290  31.423  27.836  1.00  0.00     0.134 A 
ATOM     75  F   UNL A   1      47.807  30.732  28.422  1.00  0.00    -0.206 F 
ATOM     76  C   UNL A   1      46.783  32.154  26.876  1.00  0.00     0.040 A 
ATOM     77  C   UNL A   1      44.385  32.293  26.753  1.00  0.00     0.040 A 
ATOM     78  F   UNL A   1      43.062  31.084  28.262  1.00  0.00    -0.206 F 
ATOM     79  C   UNL A   1      45.636  32.672  26.276  1.00  0.00     0.006 A 
ENDBRANCH  55  72
ENDBRANCH  29  30
ENDBRANCH  21  24
ENDBRANCH  19  20
ENDBRANCH   1  19
TORSDOF 12
ENDMDL
MODEL 3
REMARK VINA RESULT:     -11.1      3.404      7.821
REMARK SMILES C[C@H]1CC=C(C2=NN=C(C(=O)NCCCCNC(=O)c3ccc(-c4c5nc(c(-c6c(F)cccc6F)c6ccc([nH]6)c(-c6c(F)cccc6F)c6nc(c(-c7c(F)cccc7F)c7ccc4[nH]7)C=C6)C=C5)cc3)C2)O1
REMARK SMILES IDX 15 1 14 2 13 3 12 4 10 5 11 6 9 8 6 9 7 10 74 11 8 12 5 13
REMARK SMILES IDX 1 14 2 15 3 16 75 17 4 18 16 19 17 20 18 21 19 23 20 24
REMARK SMILES IDX 21 25 73 26 22 27 72 28 23 29 24 30 25 31 66 32 26 33 71 34
REMARK SMILES IDX 65 35 67 36 27 37 70 38 64 39 63 40 28 42 54 43 37 44 53 45
REMARK SMILES IDX 38 46 41 47 52 48 68 49 39 50 40 51 51 53 69 54 42 55 29 56
REMARK SMILES IDX 30 57 35 58 31 59 32 60 34 61 36 62 33 63 55 64 56 65 61 66
REMARK SMILES IDX 57 67 58 68 60 69 62 70 59 71 43 72 44 73 49 74 45 75 46 76
REMARK SMILES IDX 48 77 50 78 47 79
REMARK H PARENT 12 7 17 22 67 41 41 52
REMARK Flexibility Score: inf
ROOT
ATOM      1  C   UNL A   1      33.605  29.207  26.489  1.00  0.00     0.023 C 
ENDROOT
BRANCH   1   2
ATOM      2  C   UNL A   1      32.284  29.071  27.259  1.00  0.00     0.023 C 
BRANCH   2   3
ATOM      3  C   UNL A   1      31.615  27.696  27.192  1.00  0.00     0.116 C 
BRANCH   3   4
ATOM      4  N   UNL A   1      32.251  26.822  26.219  1.00  0.00    -0.351 N 
ATOM      5  C   UNL A   1      31.941  26.565  24.906  1.00  0.00     0.267 C 
ATOM      6  O   UNL A   1      32.617  25.767  24.260  1.00  0.00    -0.268 OA
ATOM      7  H   UNL A   1      33.034  26.332  26.558  1.00  0.00     0.163 HD
BRANCH   5   8
ATOM      8  C   UNL A   1      30.802  27.240  24.192  1.00  0.00     0.134 C 
ATOM      9  C   UNL A   1      29.535  28.814  23.236  1.00  0.00     0.111 C 
ATOM     10  N   UNL A   1      28.850  27.711  23.285  1.00  0.00    -0.151 NA
ATOM     11  C   UNL A   1      30.907  28.677  23.812  1.00  0.00     0.126 C 
ATOM     12  N   UNL A   1      29.659  26.707  23.890  1.00  0.00    -0.149 NA
BRANCH   9  13
ATOM     13  C   UNL A   1      29.053  30.103  22.725  1.00  0.00     0.139 C 
ATOM     14  C   UNL A   1      27.754  32.093  20.195  1.00  0.00     0.053 C 
ATOM     15  C   UNL A   1      28.748  31.799  21.311  1.00  0.00     0.174 C 
ATOM     16  C   UNL A   1      28.256  32.243  22.695  1.00  0.00     0.076 C 
ATOM     17  O   UNL A   1      29.030  30.378  21.365  1.00  0.00    -0.489 OA
ATOM     18  C   UNL A   1      28.660  31.089  23.526  1.00  0.00     0.025 C 
ENDBRANCH   9  13
ENDBRANCH   5   8
ENDBRANCH   3   4
ENDBRANCH   2   3
ENDBRANCH   1   2
BRANCH   1  19
ATOM     19  C   UNL A   1      34.864  29.030  27.334  1.00  0.00     0.116 C 
BRANCH  19  20
ATOM     20  N   UNL A   1      35.085  30.134  28.259  1.00  0.00    -0.352 N 
ATOM     21  C   UNL A   1      36.121  30.302  29.157  1.00  0.00     0.251 C 
ATOM     22  H   UNL A   1      34.411  30.852  28.241  1.00  0.00     0.163 HD
ATOM     23  O   UNL A   1      35.995  31.037  30.124  1.00  0.00    -0.269 OA
BRANCH  21  24
ATOM     24  C   UNL A   1      37.387  29.575  28.943  1.00  0.00     0.039 A 
ATOM     25  C   UNL A   1      38.157  29.828  27.804  1.00  0.00     0.014 A 
ATOM     26  C   UNL A   1      37.802  28.637  29.887  1.00  0.00     0.014 A 
ATOM     27  C   UNL A   1      39.392  29.199  27.668  1.00  0.00     0.010 A 
ATOM     28  C   UNL A   1      39.064  28.088  29.802  1.00  0.00     0.010 A 
ATOM     29  C   UNL A   1      39.858  28.352  28.688  1.00  0.00    -0.014 A 
BRANCH  29  30
ATOM     30  C   UNL A   1      41.265  27.937  28.692  1.00  0.00     0.031 A 
ATOM     31  C   UNL A   1      41.493  26.653  27.963  1.00  0.00     0.074 A 
ATOM     32  C   UNL A   1      42.287  28.739  29.069  1.00  0.00     0.049 A 
ATOM     33  N   UNL A   1      41.962  25.545  28.429  1.00  0.00    -0.248 NA
ATOM     34  C   UNL A   1      41.004  26.546  26.574  1.00  0.00     0.031 C 
ATOM     35  C   UNL A   1      42.184  30.148  29.463  1.00  0.00     0.029 A 
ATOM     36  N   UNL A   1      43.641  28.529  29.056  1.00  0.00    -0.354 N 
ATOM     37  C   UNL A   1      42.071  24.691  27.331  1.00  0.00     0.074 A 
ATOM     38  C   UNL A   1      41.272  25.269  26.290  1.00  0.00     0.031 C 
ATOM     39  C   UNL A   1      43.402  30.726  29.401  1.00  0.00     0.029 A 
ATOM     40  C   UNL A   1      44.394  29.702  29.129  1.00  0.00     0.049 A 
ATOM     41  H   UNL A   1      44.046  27.634  29.001  1.00  0.00     0.167 HD
ATOM     42  C   UNL A   1      43.089  23.787  27.273  1.00  0.00     0.037 A 
ATOM     43  C   UNL A   1      45.733  29.842  28.962  1.00  0.00     0.037 A 
ATOM     44  C   UNL A   1      43.661  23.601  28.583  1.00  0.00     0.049 A 
ATOM     45  C   UNL A   1      46.359  28.518  29.160  1.00  0.00     0.074 A 
ATOM     46  C   UNL A   1      43.339  22.949  29.752  1.00  0.00     0.029 A 
ATOM     47  N   UNL A   1      44.619  24.527  28.884  1.00  0.00    -0.354 N 
ATOM     48  N   UNL A   1      46.407  27.907  30.309  1.00  0.00    -0.248 NA
ATOM     49  C   UNL A   1      46.680  27.696  27.998  1.00  0.00     0.031 C 
ATOM     50  C   UNL A   1      44.081  23.593  30.789  1.00  0.00     0.029 A 
ATOM     51  C   UNL A   1      44.869  24.591  30.225  1.00  0.00     0.049 A 
ATOM     52  H   UNL A   1      45.077  25.083  28.212  1.00  0.00     0.167 HD
ATOM     53  C   UNL A   1      46.317  26.572  29.980  1.00  0.00     0.074 A 
ATOM     54  C   UNL A   1      46.683  26.491  28.572  1.00  0.00     0.031 C 
ATOM     55  C   UNL A   1      45.605  25.711  30.762  1.00  0.00     0.037 A 
BRANCH  42  56
ATOM     56  C   UNL A   1      43.938  23.517  26.032  1.00  0.00     0.057 A 
ATOM     57  C   UNL A   1      44.088  22.181  25.601  1.00  0.00     0.134 A 
ATOM     58  C   UNL A   1      44.858  24.419  25.458  1.00  0.00     0.134 A 
ATOM     59  F   UNL A   1      43.277  21.214  26.056  1.00  0.00    -0.206 F 
ATOM     60  C   UNL A   1      45.127  21.766  24.754  1.00  0.00     0.040 A 
ATOM     61  C   UNL A   1      45.874  24.021  24.580  1.00  0.00     0.040 A 
ATOM     62  F   UNL A   1      44.896  25.718  25.770  1.00  0.00    -0.206 F 
ATOM     63  C   UNL A   1      46.035  22.686  24.252  1.00  0.00     0.006 A 
ENDBRANCH  42  56
BRANCH  43  64
ATOM     64  C   UNL A   1      46.519  30.997  28.466  1.00  0.00     0.057 A 
ATOM     65  C   UNL A   1      46.448  31.397  27.121  1.00  0.00     0.134 A 
ATOM     66  C   UNL A   1      47.131  31.905  29.346  1.00  0.00     0.134 A 
ATOM     67  F   UNL A   1      45.862  30.613  26.206  1.00  0.00    -0.206 F 
ATOM     68  C   UNL A   1      46.913  32.646  26.687  1.00  0.00     0.040 A 
ATOM     69  C   UNL A   1      47.606  33.152  28.923  1.00  0.00     0.040 A 
ATOM     70  F   UNL A   1      47.204  31.653  30.661  1.00  0.00    -0.206 F 
ATOM     71  C   UNL A   1      47.479  33.535  27.594  1.00  0.00     0.006 A 
ENDBRANCH  43  64
BRANCH  55  72
ATOM     72  C   UNL A   1      45.454  26.044  32.210  1.00  0.00     0.057 A 
ATOM     73  C   UNL A   1      44.336  26.664  32.781  1.00  0.00     0.134 A 
ATOM     74  C   UNL A   1      46.483  25.660  33.078  1.00  0.00     0.134 A 
ATOM     75  F   UNL A   1      43.271  27.000  32.039  1.00  0.00    -0.206 F 
ATOM     76  C   UNL A   1      44.266  26.923  34.154  1.00  0.00     0.040 A 
ATOM     77  C   UNL A   1      46.411  25.880  34.452  1.00  0.00     0.040 A 
ATOM     78  F   UNL A   1      47.570  25.032  32.600  1.00  0.00    -0.206 F 
ATOM     79  C   UNL A   1      45.304  26.526  34.993  1.00  0.00     0.006 A 
ENDBRANCH  55  72
ENDBRANCH  29  30
ENDBRANCH  21  24
ENDBRANCH  19  20
ENDBRANCH   1  19
TORSDOF 12
ENDMDL
