MODEL 1
REMARK VINA RESULT:     -12.5      0.000      0.000
REMARK SMILES C[C@@H]1Cc2ccccc2N1S(=O)(=O)c1c[nH]c(C(=O)NCCCCNC(=O)c2ccc(-c3c4nc(c(-c5c(F)cccc5F)c5ccc([nH]5)c(-c5c(F)cccc5F)c5nc(c(-c6c(F)cccc6F)c6ccc3[nH]6)C=C5)C=C4)cc2)c1
REMARK SMILES IDX 22 1 21 2 20 3 18 4 19 5 17 7 14 8 15 9 82 10 16 11 11 13
REMARK SMILES IDX 12 14 13 15 10 16 1 17 2 18 3 19 4 20 9 21 5 22 8 23 6 24
REMARK SMILES IDX 7 25 23 26 24 27 25 28 26 29 27 31 28 32 29 33 81 34 30 35
REMARK SMILES IDX 80 36 31 37 32 38 33 39 74 40 34 41 79 42 73 43 75 44 35 45
REMARK SMILES IDX 78 46 72 47 71 48 36 50 62 51 45 52 61 53 46 54 49 55 60 56
REMARK SMILES IDX 76 57 47 58 48 59 59 61 77 62 50 63 37 64 38 65 43 66 39 67
REMARK SMILES IDX 40 68 42 69 44 70 41 71 63 72 64 73 69 74 65 75 66 76 68 77
REMARK SMILES IDX 70 78 67 79 51 80 52 81 57 82 53 83 54 84 56 85 58 86 55 87
REMARK H PARENT 20 6 16 12 25 30 75 49 49 60
REMARK Flexibility Score: inf
ROOT
ATOM      1  C   UNL A   1      32.914  27.315  26.540  1.00  0.00     0.023 C 
ENDROOT
BRANCH   1   2
ATOM      2  C   UNL A   1      31.926  27.161  25.390  1.00  0.00     0.116 C 
BRANCH   2   3
ATOM      3  N   UNL A   1      30.631  26.715  25.860  1.00  0.00    -0.351 N 
ATOM      4  C   UNL A   1      30.186  25.469  26.199  1.00  0.00     0.267 C 
ATOM      5  O   UNL A   1      29.095  25.398  26.767  1.00  0.00    -0.268 OA
ATOM      6  H   UNL A   1      29.960  27.430  25.950  1.00  0.00     0.163 HD
BRANCH   4   7
ATOM      7  C   UNL A   1      30.961  24.281  25.921  1.00  0.00     0.105 A 
ATOM      8  C   UNL A   1      32.422  22.550  25.754  1.00  0.00     0.106 A 
ATOM      9  C   UNL A   1      31.591  22.511  24.656  1.00  0.00     0.105 A 
ATOM     10  C   UNL A   1      32.031  23.658  26.544  1.00  0.00     0.055 A 
ATOM     11  N   UNL A   1      30.725  23.563  24.760  1.00  0.00    -0.356 N 
ATOM     12  H   UNL A   1      30.028  23.782  24.100  1.00  0.00     0.166 HD
BRANCH   8  13
ATOM     13  S   UNL A   1      33.789  21.546  26.065  1.00  0.00     0.266 S 
ATOM     14  O   UNL A   1      33.432  20.265  25.505  1.00  0.00    -0.201 OA
ATOM     15  O   UNL A   1      34.008  21.705  27.495  1.00  0.00    -0.201 OA
BRANCH  13  16
ATOM     16  N   UNL A   1      35.180  22.143  25.262  1.00  0.00    -0.263 N 
ATOM     17  C   UNL A   1      35.035  24.587  24.802  1.00  0.00     0.032 C 
ATOM     18  C   UNL A   1      35.559  23.528  25.759  1.00  0.00     0.101 C 
ATOM     19  C   UNL A   1      37.098  23.551  25.884  1.00  0.00     0.063 C 
ATOM     20  C   UNL A   1      37.478  22.125  25.659  1.00  0.00    -0.021 A 
ATOM     21  C   UNL A   1      36.381  21.355  25.300  1.00  0.00     0.055 A 
ATOM     22  C   UNL A   1      38.757  21.581  25.710  1.00  0.00     0.006 A 
ATOM     23  C   UNL A   1      36.565  20.047  24.879  1.00  0.00     0.027 A 
ATOM     24  C   UNL A   1      38.929  20.240  25.364  1.00  0.00     0.000 A 
ATOM     25  C   UNL A   1      37.839  19.479  24.937  1.00  0.00     0.002 A 
ENDBRANCH  13  16
ENDBRANCH   8  13
ENDBRANCH   4   7
ENDBRANCH   2   3
ENDBRANCH   1   2
BRANCH   1  26
ATOM     26  C   UNL A   1      33.320  28.767  26.802  1.00  0.00     0.023 C 
BRANCH  26  27
ATOM     27  C   UNL A   1      34.810  28.954  27.114  1.00  0.00     0.116 C 
BRANCH  27  28
ATOM     28  N   UNL A   1      35.102  29.696  28.330  1.00  0.00    -0.352 N 
ATOM     29  C   UNL A   1      36.265  29.966  29.013  1.00  0.00     0.251 C 
ATOM     30  H   UNL A   1      34.303  30.086  28.752  1.00  0.00     0.163 HD
ATOM     31  O   UNL A   1      36.222  30.781  29.933  1.00  0.00    -0.269 OA
BRANCH  29  32
ATOM     32  C   UNL A   1      37.522  29.219  28.769  1.00  0.00     0.039 A 
ATOM     33  C   UNL A   1      38.050  28.304  29.671  1.00  0.00     0.014 A 
ATOM     34  C   UNL A   1      38.254  29.544  27.612  1.00  0.00     0.014 A 
ATOM     35  C   UNL A   1      39.368  27.922  29.573  1.00  0.00     0.010 A 
ATOM     36  C   UNL A   1      39.557  29.081  27.451  1.00  0.00     0.010 A 
ATOM     37  C   UNL A   1      40.129  28.329  28.474  1.00  0.00    -0.014 A 
BRANCH  37  38
ATOM     38  C   UNL A   1      41.489  27.768  28.433  1.00  0.00     0.031 A 
ATOM     39  C   UNL A   1      41.410  26.287  28.027  1.00  0.00     0.074 A 
ATOM     40  C   UNL A   1      42.485  28.557  28.939  1.00  0.00     0.049 A 
ATOM     41  N   UNL A   1      41.985  25.253  28.554  1.00  0.00    -0.248 NA
ATOM     42  C   UNL A   1      40.412  25.881  26.997  1.00  0.00     0.031 C 
ATOM     43  C   UNL A   1      42.337  29.987  29.294  1.00  0.00     0.029 A 
ATOM     44  N   UNL A   1      43.801  28.333  29.291  1.00  0.00    -0.354 N 
ATOM     45  C   UNL A   1      41.598  24.123  27.799  1.00  0.00     0.074 A 
ATOM     46  C   UNL A   1      40.515  24.549  26.968  1.00  0.00     0.031 C 
ATOM     47  C   UNL A   1      43.461  30.466  29.868  1.00  0.00     0.029 A 
ATOM     48  C   UNL A   1      44.451  29.411  29.955  1.00  0.00     0.049 A 
ATOM     49  H   UNL A   1      44.259  27.483  29.096  1.00  0.00     0.167 HD
ATOM     50  C   UNL A   1      42.309  22.954  27.801  1.00  0.00     0.037 A 
ATOM     51  C   UNL A   1      45.670  29.430  30.587  1.00  0.00     0.037 A 
ATOM     52  C   UNL A   1      43.440  23.091  28.658  1.00  0.00     0.049 A 
ATOM     53  C   UNL A   1      46.215  28.079  30.397  1.00  0.00     0.074 A 
ATOM     54  C   UNL A   1      43.578  23.105  30.018  1.00  0.00     0.029 A 
ATOM     55  N   UNL A   1      44.577  23.602  28.078  1.00  0.00    -0.354 N 
ATOM     56  N   UNL A   1      46.685  27.615  29.278  1.00  0.00    -0.248 NA
ATOM     57  C   UNL A   1      46.118  27.124  31.510  1.00  0.00     0.031 C 
ATOM     58  C   UNL A   1      44.594  24.060  30.229  1.00  0.00     0.029 A 
ATOM     59  C   UNL A   1      45.179  24.413  29.005  1.00  0.00     0.049 A 
ATOM     60  H   UNL A   1      44.900  23.418  27.167  1.00  0.00     0.167 HD
ATOM     61  C   UNL A   1      46.614  26.257  29.473  1.00  0.00     0.074 A 
ATOM     62  C   UNL A   1      46.592  26.042  30.903  1.00  0.00     0.031 C 
ATOM     63  C   UNL A   1      46.038  25.472  28.527  1.00  0.00     0.037 A 
BRANCH  50  64
ATOM     64  C   UNL A   1      42.306  21.749  26.900  1.00  0.00     0.057 A 
ATOM     65  C   UNL A   1      43.131  21.610  25.783  1.00  0.00     0.134 A 
ATOM     66  C   UNL A   1      41.747  20.548  27.405  1.00  0.00     0.134 A 
ATOM     67  F   UNL A   1      43.704  22.668  25.197  1.00  0.00    -0.206 F 
ATOM     68  C   UNL A   1      43.481  20.349  25.279  1.00  0.00     0.040 A 
ATOM     69  C   UNL A   1      42.131  19.287  26.945  1.00  0.00     0.040 A 
ATOM     70  F   UNL A   1      40.878  20.565  28.428  1.00  0.00    -0.206 F 
ATOM     71  C   UNL A   1      43.027  19.184  25.893  1.00  0.00     0.006 A 
ENDBRANCH  50  64
BRANCH  51  72
ATOM     72  C   UNL A   1      46.477  30.358  31.474  1.00  0.00     0.057 A 
ATOM     73  C   UNL A   1      45.982  30.745  32.754  1.00  0.00     0.134 A 
ATOM     74  C   UNL A   1      47.712  30.932  31.163  1.00  0.00     0.134 A 
ATOM     75  F   UNL A   1      44.897  30.180  33.298  1.00  0.00    -0.206 F 
ATOM     76  C   UNL A   1      46.562  31.726  33.564  1.00  0.00     0.040 A 
ATOM     77  C   UNL A   1      48.332  31.896  31.991  1.00  0.00     0.040 A 
ATOM     78  F   UNL A   1      48.393  30.571  30.072  1.00  0.00    -0.206 F 
ATOM     79  C   UNL A   1      47.740  32.324  33.175  1.00  0.00     0.006 A 
ENDBRANCH  51  72
BRANCH  63  80
ATOM     80  C   UNL A   1      46.054  26.077  27.130  1.00  0.00     0.057 A 
ATOM     81  C   UNL A   1      44.920  26.564  26.466  1.00  0.00     0.134 A 
ATOM     82  C   UNL A   1      47.271  26.317  26.481  1.00  0.00     0.134 A 
ATOM     83  F   UNL A   1      43.706  26.371  26.968  1.00  0.00    -0.206 F 
ATOM     84  C   UNL A   1      44.975  27.277  25.260  1.00  0.00     0.040 A 
ATOM     85  C   UNL A   1      47.350  27.030  25.273  1.00  0.00     0.040 A 
ATOM     86  F   UNL A   1      48.417  25.871  27.015  1.00  0.00    -0.206 F 
ATOM     87  C   UNL A   1      46.200  27.523  24.664  1.00  0.00     0.006 A 
ENDBRANCH  63  80
ENDBRANCH  37  38
ENDBRANCH  29  32
ENDBRANCH  27  28
ENDBRANCH  26  27
ENDBRANCH   1  26
TORSDOF 13
ENDMDL
MODEL 2
REMARK VINA RESULT:     -12.3      1.582      2.071
REMARK SMILES C[C@@H]1Cc2ccccc2N1S(=O)(=O)c1c[nH]c(C(=O)NCCCCNC(=O)c2ccc(-c3c4nc(c(-c5c(F)cccc5F)c5ccc([nH]5)c(-c5c(F)cccc5F)c5nc(c(-c6c(F)cccc6F)c6ccc3[nH]6)C=C5)C=C4)cc2)c1
REMARK SMILES IDX 22 1 21 2 20 3 18 4 19 5 17 7 14 8 15 9 82 10 16 11 11 13
REMARK SMILES IDX 12 14 13 15 10 16 1 17 2 18 3 19 4 20 9 21 5 22 8 23 6 24
REMARK SMILES IDX 7 25 23 26 24 27 25 28 26 29 27 31 28 32 29 33 81 34 30 35
REMARK SMILES IDX 80 36 31 37 32 38 33 39 74 40 34 41 79 42 73 43 75 44 35 45
REMARK SMILES IDX 78 46 72 47 71 48 36 50 62 51 45 52 61 53 46 54 49 55 60 56
REMARK SMILES IDX 76 57 47 58 48 59 59 61 77 62 50 63 37 64 38 65 43 66 39 67
REMARK SMILES IDX 40 68 42 69 44 70 41 71 63 72 64 73 69 74 65 75 66 76 68 77
REMARK SMILES IDX 70 78 67 79 51 80 52 81 57 82 53 83 54 84 56 85 58 86 55 87
REMARK H PARENT 20 6 16 12 25 30 75 49 49 60
REMARK Flexibility Score: inf
ROOT
ATOM      1  C   UNL A   1      32.957  29.180  25.366  1.00  0.00     0.023 C 
ENDROOT
BRANCH   1   2
ATOM      2  C   UNL A   1      31.448  29.061  25.186  1.00  0.00     0.116 C 
BRANCH   2   3
ATOM      3  N   UNL A   1      31.040  29.458  23.855  1.00  0.00    -0.351 N 
ATOM      4  C   UNL A   1      30.911  28.730  22.707  1.00  0.00     0.267 C 
ATOM      5  O   UNL A   1      30.346  29.274  21.757  1.00  0.00    -0.268 OA
ATOM      6  H   UNL A   1      30.819  30.413  23.762  1.00  0.00     0.163 HD
BRANCH   4   7
ATOM      7  C   UNL A   1      31.399  27.373  22.607  1.00  0.00     0.105 A 
ATOM      8  C   UNL A   1      31.960  25.178  22.772  1.00  0.00     0.106 A 
ATOM      9  C   UNL A   1      32.825  25.771  21.878  1.00  0.00     0.105 A 
ATOM     10  C   UNL A   1      31.070  26.179  23.230  1.00  0.00     0.055 A 
ATOM     11  N   UNL A   1      32.486  27.092  21.797  1.00  0.00    -0.356 N 
ATOM     12  H   UNL A   1      32.953  27.755  21.238  1.00  0.00     0.166 HD
BRANCH   8  13
ATOM     13  S   UNL A   1      32.015  23.558  23.361  1.00  0.00     0.266 S 
ATOM     14  O   UNL A   1      32.498  22.783  22.243  1.00  0.00    -0.201 OA
ATOM     15  O   UNL A   1      30.679  23.346  23.898  1.00  0.00    -0.201 OA
BRANCH  13  16
ATOM     16  N   UNL A   1      33.121  23.419  24.662  1.00  0.00    -0.263 N 
ATOM     17  C   UNL A   1      31.981  23.391  26.878  1.00  0.00     0.032 C 
ATOM     18  C   UNL A   1      32.571  22.534  25.768  1.00  0.00     0.101 C 
ATOM     19  C   UNL A   1      33.741  21.653  26.258  1.00  0.00     0.063 C 
ATOM     20  C   UNL A   1      34.818  21.937  25.265  1.00  0.00    -0.021 A 
ATOM     21  C   UNL A   1      34.447  22.942  24.383  1.00  0.00     0.055 A 
ATOM     22  C   UNL A   1      36.083  21.361  25.213  1.00  0.00     0.006 A 
ATOM     23  C   UNL A   1      35.381  23.466  23.502  1.00  0.00     0.027 A 
ATOM     24  C   UNL A   1      36.996  21.834  24.271  1.00  0.00     0.000 A 
ATOM     25  C   UNL A   1      36.652  22.892  23.426  1.00  0.00     0.002 A 
ENDBRANCH  13  16
ENDBRANCH   8  13
ENDBRANCH   4   7
ENDBRANCH   2   3
ENDBRANCH   1   2
BRANCH   1  26
ATOM     26  C   UNL A   1      33.450  28.665  26.719  1.00  0.00     0.023 C 
BRANCH  26  27
ATOM     27  C   UNL A   1      34.931  28.953  26.998  1.00  0.00     0.116 C 
BRANCH  27  28
ATOM     28  N   UNL A   1      35.207  29.646  28.246  1.00  0.00    -0.352 N 
ATOM     29  C   UNL A   1      36.357  29.875  28.961  1.00  0.00     0.251 C 
ATOM     30  H   UNL A   1      34.403  30.030  28.666  1.00  0.00     0.163 HD
ATOM     31  O   UNL A   1      36.305  30.657  29.911  1.00  0.00    -0.269 OA
BRANCH  29  32
ATOM     32  C   UNL A   1      37.611  29.123  28.715  1.00  0.00     0.039 A 
ATOM     33  C   UNL A   1      38.135  28.205  29.616  1.00  0.00     0.014 A 
ATOM     34  C   UNL A   1      38.344  29.446  27.558  1.00  0.00     0.014 A 
ATOM     35  C   UNL A   1      39.451  27.817  29.517  1.00  0.00     0.010 A 
ATOM     36  C   UNL A   1      39.645  28.977  27.396  1.00  0.00     0.010 A 
ATOM     37  C   UNL A   1      40.213  28.222  28.418  1.00  0.00    -0.014 A 
BRANCH  37  38
ATOM     38  C   UNL A   1      41.571  27.654  28.375  1.00  0.00     0.031 A 
ATOM     39  C   UNL A   1      41.487  26.180  27.946  1.00  0.00     0.074 A 
ATOM     40  C   UNL A   1      42.568  28.430  28.898  1.00  0.00     0.049 A 
ATOM     41  N   UNL A   1      42.053  25.134  28.459  1.00  0.00    -0.248 NA
ATOM     42  C   UNL A   1      40.492  25.795  26.904  1.00  0.00     0.031 C 
ATOM     43  C   UNL A   1      42.426  29.854  29.275  1.00  0.00     0.029 A 
ATOM     44  N   UNL A   1      43.881  28.193  29.253  1.00  0.00    -0.354 N 
ATOM     45  C   UNL A   1      41.665  24.018  27.684  1.00  0.00     0.074 A 
ATOM     46  C   UNL A   1      40.588  24.463  26.854  1.00  0.00     0.031 C 
ATOM     47  C   UNL A   1      43.550  30.318  29.862  1.00  0.00     0.029 A 
ATOM     48  C   UNL A   1      44.533  29.257  29.937  1.00  0.00     0.049 A 
ATOM     49  H   UNL A   1      44.336  27.344  29.047  1.00  0.00     0.167 HD
ATOM     50  C   UNL A   1      42.370  22.846  27.672  1.00  0.00     0.037 A 
ATOM     51  C   UNL A   1      45.749  29.260  30.576  1.00  0.00     0.037 A 
ATOM     52  C   UNL A   1      43.496  22.964  28.536  1.00  0.00     0.049 A 
ATOM     53  C   UNL A   1      46.288  27.909  30.367  1.00  0.00     0.074 A 
ATOM     54  C   UNL A   1      43.627  22.956  29.897  1.00  0.00     0.029 A 
ATOM     55  N   UNL A   1      44.639  23.477  27.971  1.00  0.00    -0.354 N 
ATOM     56  N   UNL A   1      46.762  27.461  29.244  1.00  0.00    -0.248 NA
ATOM     57  C   UNL A   1      46.181  26.938  31.464  1.00  0.00     0.031 C 
ATOM     58  C   UNL A   1      44.648  23.902  30.128  1.00  0.00     0.029 A 
ATOM     59  C   UNL A   1      45.241  24.271  28.913  1.00  0.00     0.049 A 
ATOM     60  H   UNL A   1      44.966  23.306  27.058  1.00  0.00     0.167 HD
ATOM     61  C   UNL A   1      46.683  26.100  29.417  1.00  0.00     0.074 A 
ATOM     62  C   UNL A   1      46.652  25.863  30.843  1.00  0.00     0.031 C 
ATOM     63  C   UNL A   1      46.108  25.333  28.456  1.00  0.00     0.037 A 
BRANCH  50  64
ATOM     64  C   UNL A   1      42.364  21.655  26.752  1.00  0.00     0.057 A 
ATOM     65  C   UNL A   1      43.254  21.488  25.689  1.00  0.00     0.134 A 
ATOM     66  C   UNL A   1      41.713  20.478  27.198  1.00  0.00     0.134 A 
ATOM     67  F   UNL A   1      43.918  22.524  25.160  1.00  0.00    -0.206 F 
ATOM     68  C   UNL A   1      43.572  20.218  25.188  1.00  0.00     0.040 A 
ATOM     69  C   UNL A   1      42.062  19.205  26.743  1.00  0.00     0.040 A 
ATOM     70  F   UNL A   1      40.779  20.527  28.163  1.00  0.00    -0.206 F 
ATOM     71  C   UNL A   1      43.019  19.070  25.751  1.00  0.00     0.006 A 
ENDBRANCH  50  64
BRANCH  51  72
ATOM     72  C   UNL A   1      46.556  30.170  31.481  1.00  0.00     0.057 A 
ATOM     73  C   UNL A   1      46.062  30.530  32.769  1.00  0.00     0.134 A 
ATOM     74  C   UNL A   1      47.791  30.751  31.181  1.00  0.00     0.134 A 
ATOM     75  F   UNL A   1      44.978  29.953  33.303  1.00  0.00    -0.206 F 
ATOM     76  C   UNL A   1      46.642  31.494  33.599  1.00  0.00     0.040 A 
ATOM     77  C   UNL A   1      48.411  31.698  32.028  1.00  0.00     0.040 A 
ATOM     78  F   UNL A   1      48.471  30.413  30.082  1.00  0.00    -0.206 F 
ATOM     79  C   UNL A   1      47.819  32.101  33.222  1.00  0.00     0.006 A 
ENDBRANCH  51  72
BRANCH  63  80
ATOM     80  C   UNL A   1      46.134  25.960  27.069  1.00  0.00     0.057 A 
ATOM     81  C   UNL A   1      45.007  26.470  26.410  1.00  0.00     0.134 A 
ATOM     82  C   UNL A   1      47.355  26.196  26.426  1.00  0.00     0.134 A 
ATOM     83  F   UNL A   1      43.790  26.284  26.906  1.00  0.00    -0.206 F 
ATOM     84  C   UNL A   1      45.073  27.201  25.216  1.00  0.00     0.040 A 
ATOM     85  C   UNL A   1      47.445  26.926  25.230  1.00  0.00     0.040 A 
ATOM     86  F   UNL A   1      48.495  25.728  26.956  1.00  0.00    -0.206 F 
ATOM     87  C   UNL A   1      46.302  27.442  24.626  1.00  0.00     0.006 A 
ENDBRANCH  63  80
ENDBRANCH  37  38
ENDBRANCH  29  32
ENDBRANCH  27  28
ENDBRANCH  26  27
ENDBRANCH   1  26
TORSDOF 13
ENDMDL
MODEL 3
REMARK VINA RESULT:     -12.1      4.218      6.431
REMARK SMILES C[C@@H]1Cc2ccccc2N1S(=O)(=O)c1c[nH]c(C(=O)NCCCCNC(=O)c2ccc(-c3c4nc(c(-c5c(F)cccc5F)c5ccc([nH]5)c(-c5c(F)cccc5F)c5nc(c(-c6c(F)cccc6F)c6ccc3[nH]6)C=C5)C=C4)cc2)c1
REMARK SMILES IDX 22 1 21 2 20 3 18 4 19 5 17 7 14 8 15 9 82 10 16 11 11 13
REMARK SMILES IDX 12 14 13 15 10 16 1 17 2 18 3 19 4 20 9 21 5 22 8 23 6 24
REMARK SMILES IDX 7 25 23 26 24 27 25 28 26 29 27 31 28 32 29 33 81 34 30 35
REMARK SMILES IDX 80 36 31 37 32 38 33 39 74 40 34 41 79 42 73 43 75 44 35 45
REMARK SMILES IDX 78 46 72 47 71 48 36 50 62 51 45 52 61 53 46 54 49 55 60 56
REMARK SMILES IDX 76 57 47 58 48 59 59 61 77 62 50 63 37 64 38 65 43 66 39 67
REMARK SMILES IDX 40 68 42 69 44 70 41 71 63 72 64 73 69 74 65 75 66 76 68 77
REMARK SMILES IDX 70 78 67 79 51 80 52 81 57 82 53 83 54 84 56 85 58 86 55 87
REMARK H PARENT 20 6 16 12 25 30 75 49 49 60
REMARK Flexibility Score: inf
ROOT
ATOM      1  C   UNL A   1      34.320  30.991  27.354  1.00  0.00     0.023 C 
ENDROOT
BRANCH   1   2
ATOM      2  C   UNL A   1      34.151  29.479  27.270  1.00  0.00     0.116 C 
BRANCH   2   3
ATOM      3  N   UNL A   1      32.843  29.066  27.732  1.00  0.00    -0.351 N 
ATOM      4  C   UNL A   1      32.033  28.046  27.322  1.00  0.00     0.267 C 
ATOM      5  O   UNL A   1      31.055  27.786  28.025  1.00  0.00    -0.268 OA
ATOM      6  H   UNL A   1      32.476  29.611  28.465  1.00  0.00     0.163 HD
BRANCH   4   7
ATOM      7  C   UNL A   1      32.310  27.288  26.122  1.00  0.00     0.105 A 
ATOM      8  C   UNL A   1      32.814  25.802  24.479  1.00  0.00     0.106 A 
ATOM      9  C   UNL A   1      32.846  27.066  23.932  1.00  0.00     0.105 A 
ATOM     10  C   UNL A   1      32.482  25.940  25.849  1.00  0.00     0.055 A 
ATOM     11  N   UNL A   1      32.554  27.952  24.931  1.00  0.00    -0.356 N 
ATOM     12  H   UNL A   1      32.522  28.930  24.820  1.00  0.00     0.166 HD
BRANCH   8  13
ATOM     13  S   UNL A   1      33.239  24.320  23.709  1.00  0.00     0.266 S 
ATOM     14  O   UNL A   1      34.331  24.669  22.830  1.00  0.00    -0.201 OA
ATOM     15  O   UNL A   1      31.974  23.837  23.177  1.00  0.00    -0.201 OA
BRANCH  13  16
ATOM     16  N   UNL A   1      33.787  23.170  24.857  1.00  0.00    -0.263 N 
ATOM     17  C   UNL A   1      32.101  21.389  25.295  1.00  0.00     0.032 C 
ATOM     18  C   UNL A   1      33.339  21.765  24.494  1.00  0.00     0.101 C 
ATOM     19  C   UNL A   1      34.534  20.829  24.777  1.00  0.00     0.063 C 
ATOM     20  C   UNL A   1      35.646  21.779  25.075  1.00  0.00    -0.021 A 
ATOM     21  C   UNL A   1      35.197  23.091  25.124  1.00  0.00     0.055 A 
ATOM     22  C   UNL A   1      36.970  21.458  25.353  1.00  0.00     0.006 A 
ATOM     23  C   UNL A   1      36.047  24.095  25.561  1.00  0.00     0.027 A 
ATOM     24  C   UNL A   1      37.846  22.482  25.714  1.00  0.00     0.000 A 
ATOM     25  C   UNL A   1      37.383  23.794  25.831  1.00  0.00     0.002 A 
ENDBRANCH  13  16
ENDBRANCH   8  13
ENDBRANCH   4   7
ENDBRANCH   2   3
ENDBRANCH   1   2
BRANCH   1  26
ATOM     26  C   UNL A   1      33.055  31.720  27.812  1.00  0.00     0.023 C 
BRANCH  26  27
ATOM     27  C   UNL A   1      32.681  32.930  26.948  1.00  0.00     0.116 C 
BRANCH  27  28
ATOM     28  N   UNL A   1      32.306  34.128  27.683  1.00  0.00    -0.352 N 
ATOM     29  C   UNL A   1      32.973  34.932  28.575  1.00  0.00     0.251 C 
ATOM     30  H   UNL A   1      31.384  34.424  27.504  1.00  0.00     0.163 HD
ATOM     31  O   UNL A   1      32.447  35.995  28.906  1.00  0.00    -0.269 OA
BRANCH  29  32
ATOM     32  C   UNL A   1      34.225  34.508  29.247  1.00  0.00     0.039 A 
ATOM     33  C   UNL A   1      35.481  34.641  28.668  1.00  0.00     0.014 A 
ATOM     34  C   UNL A   1      34.105  33.848  30.484  1.00  0.00     0.014 A 
ATOM     35  C   UNL A   1      36.544  33.919  29.157  1.00  0.00     0.010 A 
ATOM     36  C   UNL A   1      35.200  33.195  31.042  1.00  0.00     0.010 A 
ATOM     37  C   UNL A   1      36.398  33.177  30.332  1.00  0.00    -0.014 A 
BRANCH  37  38
ATOM     38  C   UNL A   1      37.636  32.537  30.806  1.00  0.00     0.031 A 
ATOM     39  C   UNL A   1      37.878  31.250  30.000  1.00  0.00     0.074 A 
ATOM     40  C   UNL A   1      38.189  33.056  31.944  1.00  0.00     0.049 A 
ATOM     41  N   UNL A   1      38.188  30.061  30.411  1.00  0.00    -0.248 NA
ATOM     42  C   UNL A   1      37.555  31.248  28.544  1.00  0.00     0.031 C 
ATOM     43  C   UNL A   1      37.780  34.327  32.582  1.00  0.00     0.029 A 
ATOM     44  N   UNL A   1      39.169  32.626  32.817  1.00  0.00    -0.354 N 
ATOM     45  C   UNL A   1      38.311  29.237  29.269  1.00  0.00     0.074 A 
ATOM     46  C   UNL A   1      37.756  29.978  28.179  1.00  0.00     0.031 C 
ATOM     47  C   UNL A   1      38.433  34.520  33.748  1.00  0.00     0.029 A 
ATOM     48  C   UNL A   1      39.322  33.404  33.998  1.00  0.00     0.049 A 
ATOM     49  H   UNL A   1      39.723  31.833  32.634  1.00  0.00     0.167 HD
ATOM     50  C   UNL A   1      39.010  28.061  29.279  1.00  0.00     0.037 A 
ATOM     51  C   UNL A   1      40.061  33.133  35.124  1.00  0.00     0.037 A 
ATOM     52  C   UNL A   1      39.552  27.845  30.579  1.00  0.00     0.049 A 
ATOM     53  C   UNL A   1      40.725  31.853  34.841  1.00  0.00     0.074 A 
ATOM     54  C   UNL A   1      38.995  27.452  31.764  1.00  0.00     0.029 A 
ATOM     55  N   UNL A   1      40.786  28.402  30.818  1.00  0.00    -0.354 N 
ATOM     56  N   UNL A   1      41.721  31.696  34.022  1.00  0.00    -0.248 NA
ATOM     57  C   UNL A   1      40.158  30.629  35.422  1.00  0.00     0.031 C 
ATOM     58  C   UNL A   1      39.700  28.212  32.720  1.00  0.00     0.029 A 
ATOM     59  C   UNL A   1      40.788  28.853  32.112  1.00  0.00     0.049 A 
ATOM     60  H   UNL A   1      41.532  28.463  30.178  1.00  0.00     0.167 HD
ATOM     61  C   UNL A   1      41.662  30.351  33.747  1.00  0.00     0.074 A 
ATOM     62  C   UNL A   1      40.948  29.733  34.842  1.00  0.00     0.031 C 
ATOM     63  C   UNL A   1      41.691  29.927  32.457  1.00  0.00     0.037 A 
BRANCH  50  64
ATOM     64  C   UNL A   1      39.542  27.174  28.186  1.00  0.00     0.057 A 
ATOM     65  C   UNL A   1      40.393  27.616  27.170  1.00  0.00     0.134 A 
ATOM     66  C   UNL A   1      39.515  25.774  28.399  1.00  0.00     0.134 A 
ATOM     67  F   UNL A   1      40.495  28.913  26.854  1.00  0.00    -0.206 F 
ATOM     68  C   UNL A   1      41.254  26.737  26.498  1.00  0.00     0.040 A 
ATOM     69  C   UNL A   1      40.406  24.899  27.774  1.00  0.00     0.040 A 
ATOM     70  F   UNL A   1      38.679  25.226  29.296  1.00  0.00    -0.206 F 
ATOM     71  C   UNL A   1      41.302  25.387  26.837  1.00  0.00     0.006 A 
ENDBRANCH  50  64
BRANCH  51  72
ATOM     72  C   UNL A   1      40.250  33.690  36.521  1.00  0.00     0.057 A 
ATOM     73  C   UNL A   1      39.122  33.990  37.339  1.00  0.00     0.134 A 
ATOM     74  C   UNL A   1      41.471  33.983  37.136  1.00  0.00     0.134 A 
ATOM     75  F   UNL A   1      37.878  33.633  36.994  1.00  0.00    -0.206 F 
ATOM     76  C   UNL A   1      39.186  34.665  38.562  1.00  0.00     0.040 A 
ATOM     77  C   UNL A   1      41.554  34.629  38.391  1.00  0.00     0.040 A 
ATOM     78  F   UNL A   1      42.634  33.634  36.578  1.00  0.00    -0.206 F 
ATOM     79  C   UNL A   1      40.411  35.007  39.089  1.00  0.00     0.006 A 
ENDBRANCH  51  72
BRANCH  63  80
ATOM     80  C   UNL A   1      42.355  30.908  31.501  1.00  0.00     0.057 A 
ATOM     81  C   UNL A   1      41.666  31.677  30.553  1.00  0.00     0.134 A 
ATOM     82  C   UNL A   1      43.716  31.205  31.629  1.00  0.00     0.134 A 
ATOM     83  F   UNL A   1      40.376  31.469  30.319  1.00  0.00    -0.206 F 
ATOM     84  C   UNL A   1      42.263  32.701  29.805  1.00  0.00     0.040 A 
ATOM     85  C   UNL A   1      44.336  32.227  30.891  1.00  0.00     0.040 A 
ATOM     86  F   UNL A   1      44.477  30.510  32.489  1.00  0.00    -0.206 F 
ATOM     87  C   UNL A   1      43.606  32.987  29.983  1.00  0.00     0.006 A 
ENDBRANCH  63  80
ENDBRANCH  37  38
ENDBRANCH  29  32
ENDBRANCH  27  28
ENDBRANCH  26  27
ENDBRANCH   1  26
TORSDOF 13
ENDMDL
