MODEL 1
REMARK VINA RESULT:     -11.8      0.000      0.000
REMARK SMILES CCOC(=O)c1c(NC(=O)/C=C/C(=O)NCCCCNC(=O)c2ccc(-c3c4nc(c(-c5c(F)cccc5F)c5ccc([nH]5)c(-c5c(F)cccc5F)c5nc(c(-c6c(F)cccc6F)c6ccc3[nH]6)C=C5)C=C4)cc2)sc(C)c1-c1ccc(C)c(C)c1
REMARK SMILES IDX 16 1 15 2 13 3 14 4 12 6 11 7 9 8 8 9 10 11 7 12 6 13 80 14
REMARK SMILES IDX 77 15 78 16 79 17 4 18 5 19 3 20 2 21 1 22 81 23 82 24 88 25
REMARK SMILES IDX 83 26 86 27 84 28 87 29 85 30 17 31 18 32 19 33 20 34 21 35
REMARK SMILES IDX 22 37 23 38 24 39 76 40 25 41 75 42 26 43 27 44 28 45 69 46
REMARK SMILES IDX 29 47 74 48 68 49 70 50 30 51 73 52 67 53 66 54 31 56 57 57
REMARK SMILES IDX 40 58 56 59 41 60 44 61 55 62 71 63 42 64 43 65 54 67 72 68
REMARK SMILES IDX 45 69 32 70 33 71 38 72 34 73 35 74 37 75 39 76 36 77 58 78
REMARK SMILES IDX 59 79 64 80 60 81 61 82 63 83 65 84 62 85 46 86 47 87 52 88
REMARK SMILES IDX 48 89 49 90 51 91 53 92 50 93
REMARK H PARENT 15 5 8 10 20 36 70 55 44 66
REMARK Flexibility Score: inf
ROOT
ATOM      1  C   UNL A   1      35.045  19.834  24.930  1.00  0.00     0.116 C 
ENDROOT
BRANCH   1   2
ATOM      2  N   UNL A   1      34.185  18.700  25.195  1.00  0.00    -0.353 N 
ATOM      3  C   UNL A   1      32.981  18.442  24.616  1.00  0.00     0.244 C 
ATOM      4  O   UNL A   1      32.179  17.679  25.141  1.00  0.00    -0.270 OA
ATOM      5  H   UNL A   1      34.503  18.050  25.863  1.00  0.00     0.163 HD
BRANCH   3   6
ATOM      6  C   UNL A   1      32.664  19.107  23.339  1.00  0.00     0.077 C 
ATOM      7  C   UNL A   1      32.194  20.362  23.400  1.00  0.00     0.077 C 
BRANCH   7   8
ATOM      8  C   UNL A   1      32.100  21.197  22.200  1.00  0.00     0.249 C 
ATOM      9  N   UNL A   1      32.414  22.524  22.238  1.00  0.00    -0.313 N 
ATOM     10  H   UNL A   1      32.240  22.999  21.393  1.00  0.00     0.171 HD
ATOM     11  O   UNL A   1      31.704  20.677  21.156  1.00  0.00    -0.270 OA
BRANCH   9  12
ATOM     12  C   UNL A   1      32.934  23.333  23.239  1.00  0.00     0.111 A 
ATOM     13  C   UNL A   1      32.455  24.576  23.625  1.00  0.00     0.102 A 
ATOM     14  C   UNL A   1      33.404  25.243  24.496  1.00  0.00     0.012 A 
ATOM     15  S   UNL A   1      34.241  22.868  24.204  1.00  0.00    -0.122 S 
ATOM     16  C   UNL A   1      34.489  24.438  24.798  1.00  0.00     0.012 A 
ATOM     17  C   UNL A   1      35.746  24.705  25.561  1.00  0.00     0.057 C 
BRANCH  13  18
ATOM     18  C   UNL A   1      31.171  25.076  23.139  1.00  0.00     0.341 C 
ATOM     19  O   UNL A   1      30.141  24.440  23.258  1.00  0.00    -0.246 OA
BRANCH  18  20
ATOM     20  O   UNL A   1      31.260  26.292  22.525  1.00  0.00    -0.462 OA
BRANCH  20  21
ATOM     21  C   UNL A   1      30.128  27.157  22.687  1.00  0.00     0.230 C 
ATOM     22  C   UNL A   1      30.397  28.313  23.637  1.00  0.00     0.049 C 
ENDBRANCH  20  21
ENDBRANCH  18  20
ENDBRANCH  13  18
BRANCH  14  23
ATOM     23  C   UNL A   1      33.271  26.568  25.081  1.00  0.00    -0.016 A 
ATOM     24  C   UNL A   1      33.935  27.642  24.491  1.00  0.00     0.009 A 
ATOM     25  C   UNL A   1      32.481  26.775  26.217  1.00  0.00     0.012 A 
ATOM     26  C   UNL A   1      33.817  28.915  25.040  1.00  0.00     0.004 A 
ATOM     27  C   UNL A   1      32.339  28.059  26.769  1.00  0.00    -0.048 A 
ATOM     28  C   UNL A   1      33.020  29.140  26.176  1.00  0.00    -0.048 A 
ATOM     29  C   UNL A   1      31.458  28.234  27.975  1.00  0.00     0.044 C 
ATOM     30  C   UNL A   1      32.966  30.543  26.715  1.00  0.00     0.044 C 
ENDBRANCH  14  23
ENDBRANCH   9  12
ENDBRANCH   7   8
ENDBRANCH   3   6
ENDBRANCH   1   2
BRANCH   1  31
ATOM     31  C   UNL A   1      36.507  19.400  24.927  1.00  0.00     0.023 C 
BRANCH  31  32
ATOM     32  C   UNL A   1      37.485  20.542  24.647  1.00  0.00     0.023 C 
BRANCH  32  33
ATOM     33  C   UNL A   1      38.593  20.695  25.681  1.00  0.00     0.116 C 
BRANCH  33  34
ATOM     34  N   UNL A   1      39.573  19.618  25.634  1.00  0.00    -0.352 N 
ATOM     35  C   UNL A   1      40.895  19.652  25.996  1.00  0.00     0.251 C 
ATOM     36  H   UNL A   1      39.243  18.752  25.298  1.00  0.00     0.163 HD
ATOM     37  O   UNL A   1      41.624  18.683  25.822  1.00  0.00    -0.269 OA
BRANCH  35  38
ATOM     38  C   UNL A   1      41.433  20.900  26.559  1.00  0.00     0.039 A 
ATOM     39  C   UNL A   1      41.994  21.838  25.690  1.00  0.00     0.014 A 
ATOM     40  C   UNL A   1      41.303  21.168  27.924  1.00  0.00     0.014 A 
ATOM     41  C   UNL A   1      42.368  23.085  26.187  1.00  0.00     0.010 A 
ATOM     42  C   UNL A   1      41.611  22.435  28.401  1.00  0.00     0.010 A 
ATOM     43  C   UNL A   1      42.143  23.404  27.535  1.00  0.00    -0.014 A 
BRANCH  43  44
ATOM     44  C   UNL A   1      42.457  24.751  28.063  1.00  0.00     0.031 A 
ATOM     45  C   UNL A   1      43.858  25.076  28.495  1.00  0.00     0.074 A 
ATOM     46  C   UNL A   1      41.468  25.652  28.217  1.00  0.00     0.049 A 
ATOM     47  N   UNL A   1      44.319  26.167  29.048  1.00  0.00    -0.248 NA
ATOM     48  C   UNL A   1      44.867  24.022  28.307  1.00  0.00     0.031 C 
ATOM     49  C   UNL A   1      40.059  25.429  27.883  1.00  0.00     0.029 A 
ATOM     50  N   UNL A   1      41.495  26.932  28.707  1.00  0.00    -0.354 N 
ATOM     51  C   UNL A   1      45.664  25.925  29.289  1.00  0.00     0.074 A 
ATOM     52  C   UNL A   1      45.934  24.566  28.873  1.00  0.00     0.031 C 
ATOM     53  C   UNL A   1      39.362  26.544  28.157  1.00  0.00     0.029 A 
ATOM     54  C   UNL A   1      40.266  27.544  28.716  1.00  0.00     0.049 A 
ATOM     55  H   UNL A   1      42.318  27.371  29.021  1.00  0.00     0.167 HD
ATOM     56  C   UNL A   1      46.597  26.768  29.790  1.00  0.00     0.037 A 
ATOM     57  C   UNL A   1      39.910  28.773  29.133  1.00  0.00     0.037 A 
ATOM     58  C   UNL A   1      46.328  28.128  30.174  1.00  0.00     0.049 A 
ATOM     59  C   UNL A   1      40.965  29.694  29.679  1.00  0.00     0.074 A 
ATOM     60  C   UNL A   1      47.215  29.087  30.632  1.00  0.00     0.029 A 
ATOM     61  N   UNL A   1      45.075  28.722  30.145  1.00  0.00    -0.354 N 
ATOM     62  N   UNL A   1      42.249  29.478  29.836  1.00  0.00    -0.248 NA
ATOM     63  C   UNL A   1      40.525  31.030  30.101  1.00  0.00     0.031 C 
ATOM     64  C   UNL A   1      46.492  30.250  30.916  1.00  0.00     0.029 A 
ATOM     65  C   UNL A   1      45.161  30.029  30.594  1.00  0.00     0.049 A 
ATOM     66  H   UNL A   1      44.247  28.279  29.849  1.00  0.00     0.167 HD
ATOM     67  C   UNL A   1      42.774  30.657  30.348  1.00  0.00     0.074 A 
ATOM     68  C   UNL A   1      41.671  31.590  30.463  1.00  0.00     0.031 C 
ATOM     69  C   UNL A   1      44.053  30.943  30.693  1.00  0.00     0.037 A 
BRANCH  56  70
ATOM     70  C   UNL A   1      47.993  26.242  29.941  1.00  0.00     0.057 A 
ATOM     71  C   UNL A   1      48.457  25.718  31.156  1.00  0.00     0.134 A 
ATOM     72  C   UNL A   1      48.878  26.239  28.856  1.00  0.00     0.134 A 
ATOM     73  F   UNL A   1      47.665  25.705  32.237  1.00  0.00    -0.206 F 
ATOM     74  C   UNL A   1      49.759  25.236  31.292  1.00  0.00     0.040 A 
ATOM     75  C   UNL A   1      50.174  25.734  28.973  1.00  0.00     0.040 A 
ATOM     76  F   UNL A   1      48.497  26.723  27.664  1.00  0.00    -0.206 F 
ATOM     77  C   UNL A   1      50.620  25.236  30.197  1.00  0.00     0.006 A 
ENDBRANCH  56  70
BRANCH  57  78
ATOM     78  C   UNL A   1      38.497  29.216  29.026  1.00  0.00     0.057 A 
ATOM     79  C   UNL A   1      37.981  29.691  27.816  1.00  0.00     0.134 A 
ATOM     80  C   UNL A   1      37.633  29.179  30.127  1.00  0.00     0.134 A 
ATOM     81  F   UNL A   1      38.766  29.766  26.731  1.00  0.00    -0.206 F 
ATOM     82  C   UNL A   1      36.661  30.134  27.706  1.00  0.00     0.040 A 
ATOM     83  C   UNL A   1      36.305  29.597  30.026  1.00  0.00     0.040 A 
ATOM     84  F   UNL A   1      38.064  28.726  31.313  1.00  0.00    -0.206 F 
ATOM     85  C   UNL A   1      35.818  30.082  28.814  1.00  0.00     0.006 A 
ENDBRANCH  57  78
BRANCH  69  86
ATOM     86  C   UNL A   1      44.334  32.327  31.194  1.00  0.00     0.057 A 
ATOM     87  C   UNL A   1      44.642  33.380  30.322  1.00  0.00     0.134 A 
ATOM     88  C   UNL A   1      44.251  32.620  32.561  1.00  0.00     0.134 A 
ATOM     89  F   UNL A   1      44.750  33.161  29.004  1.00  0.00    -0.206 F 
ATOM     90  C   UNL A   1      44.876  34.671  30.796  1.00  0.00     0.040 A 
ATOM     91  C   UNL A   1      44.457  33.913  33.044  1.00  0.00     0.040 A 
ATOM     92  F   UNL A   1      43.951  31.658  33.447  1.00  0.00    -0.206 F 
ATOM     93  C   UNL A   1      44.777  34.941  32.160  1.00  0.00     0.006 A 
ENDBRANCH  69  86
ENDBRANCH  43  44
ENDBRANCH  35  38
ENDBRANCH  33  34
ENDBRANCH  32  33
ENDBRANCH  31  32
ENDBRANCH   1  31
TORSDOF 17
ENDMDL
MODEL 2
REMARK VINA RESULT:     -11.8      0.377      6.055
REMARK SMILES CCOC(=O)c1c(NC(=O)/C=C/C(=O)NCCCCNC(=O)c2ccc(-c3c4nc(c(-c5c(F)cccc5F)c5ccc([nH]5)c(-c5c(F)cccc5F)c5nc(c(-c6c(F)cccc6F)c6ccc3[nH]6)C=C5)C=C4)cc2)sc(C)c1-c1ccc(C)c(C)c1
REMARK SMILES IDX 16 1 15 2 13 3 14 4 12 6 11 7 9 8 8 9 10 11 7 12 6 13 80 14
REMARK SMILES IDX 77 15 78 16 79 17 4 18 5 19 3 20 2 21 1 22 81 23 82 24 88 25
REMARK SMILES IDX 83 26 86 27 84 28 87 29 85 30 17 31 18 32 19 33 20 34 21 35
REMARK SMILES IDX 22 37 23 38 24 39 76 40 25 41 75 42 26 43 27 44 28 45 69 46
REMARK SMILES IDX 29 47 74 48 68 49 70 50 30 51 73 52 67 53 66 54 31 56 57 57
REMARK SMILES IDX 40 58 56 59 41 60 44 61 55 62 71 63 42 64 43 65 54 67 72 68
REMARK SMILES IDX 45 69 32 70 33 71 38 72 34 73 35 74 37 75 39 76 36 77 58 78
REMARK SMILES IDX 59 79 64 80 60 81 61 82 63 83 65 84 62 85 46 86 47 87 52 88
REMARK SMILES IDX 48 89 49 90 51 91 53 92 50 93
REMARK H PARENT 15 5 8 10 20 36 70 55 44 66
REMARK Flexibility Score: inf
ROOT
ATOM      1  C   UNL A   1      35.008  19.987  24.999  1.00  0.00     0.116 C 
ENDROOT
BRANCH   1   2
ATOM      2  N   UNL A   1      34.191  18.816  25.239  1.00  0.00    -0.353 N 
ATOM      3  C   UNL A   1      33.027  18.498  24.611  1.00  0.00     0.244 C 
ATOM      4  O   UNL A   1      32.239  17.702  25.109  1.00  0.00    -0.270 OA
ATOM      5  H   UNL A   1      34.511  18.186  25.925  1.00  0.00     0.163 HD
BRANCH   3   6
ATOM      6  C   UNL A   1      32.734  19.138  23.316  1.00  0.00     0.077 C 
ATOM      7  C   UNL A   1      32.151  20.346  23.346  1.00  0.00     0.077 C 
BRANCH   7   8
ATOM      8  C   UNL A   1      32.060  21.175  22.141  1.00  0.00     0.249 C 
ATOM      9  N   UNL A   1      32.389  22.499  22.170  1.00  0.00    -0.313 N 
ATOM     10  H   UNL A   1      32.216  22.971  21.324  1.00  0.00     0.171 HD
ATOM     11  O   UNL A   1      31.654  20.654  21.102  1.00  0.00    -0.270 OA
BRANCH   9  12
ATOM     12  C   UNL A   1      32.922  23.309  23.165  1.00  0.00     0.111 A 
ATOM     13  C   UNL A   1      32.441  24.546  23.565  1.00  0.00     0.102 A 
ATOM     14  C   UNL A   1      33.401  25.217  24.420  1.00  0.00     0.012 A 
ATOM     15  S   UNL A   1      34.251  22.850  24.101  1.00  0.00    -0.122 S 
ATOM     16  C   UNL A   1      34.498  24.419  24.697  1.00  0.00     0.012 A 
ATOM     17  C   UNL A   1      35.768  24.693  25.437  1.00  0.00     0.057 C 
BRANCH  13  18
ATOM     18  C   UNL A   1      31.143  25.038  23.106  1.00  0.00     0.341 C 
ATOM     19  O   UNL A   1      30.113  24.421  23.298  1.00  0.00    -0.246 OA
BRANCH  18  20
ATOM     20  O   UNL A   1      31.220  26.221  22.430  1.00  0.00    -0.462 OA
BRANCH  20  21
ATOM     21  C   UNL A   1      30.310  27.243  22.856  1.00  0.00     0.230 C 
ATOM     22  C   UNL A   1      30.896  28.641  22.747  1.00  0.00     0.049 C 
ENDBRANCH  20  21
ENDBRANCH  18  20
ENDBRANCH  13  18
BRANCH  14  23
ATOM     23  C   UNL A   1      33.269  26.538  25.013  1.00  0.00    -0.016 A 
ATOM     24  C   UNL A   1      33.958  27.610  24.447  1.00  0.00     0.009 A 
ATOM     25  C   UNL A   1      32.457  26.744  26.133  1.00  0.00     0.012 A 
ATOM     26  C   UNL A   1      33.841  28.880  25.004  1.00  0.00     0.004 A 
ATOM     27  C   UNL A   1      32.316  28.025  26.693  1.00  0.00    -0.048 A 
ATOM     28  C   UNL A   1      33.022  29.104  26.124  1.00  0.00    -0.048 A 
ATOM     29  C   UNL A   1      31.412  28.200  27.881  1.00  0.00     0.044 C 
ATOM     30  C   UNL A   1      32.970  30.503  26.673  1.00  0.00     0.044 C 
ENDBRANCH  14  23
ENDBRANCH   9  12
ENDBRANCH   7   8
ENDBRANCH   3   6
ENDBRANCH   1   2
BRANCH   1  31
ATOM     31  C   UNL A   1      36.485  19.605  24.969  1.00  0.00     0.023 C 
BRANCH  31  32
ATOM     32  C   UNL A   1      37.419  20.789  24.714  1.00  0.00     0.023 C 
BRANCH  32  33
ATOM     33  C   UNL A   1      38.575  20.906  25.700  1.00  0.00     0.116 C 
BRANCH  33  34
ATOM     34  N   UNL A   1      39.489  19.773  25.649  1.00  0.00    -0.352 N 
ATOM     35  C   UNL A   1      40.810  19.726  26.013  1.00  0.00     0.251 C 
ATOM     36  H   UNL A   1      39.108  18.930  25.308  1.00  0.00     0.163 HD
ATOM     37  O   UNL A   1      41.480  18.716  25.835  1.00  0.00    -0.269 OA
BRANCH  35  38
ATOM     38  C   UNL A   1      41.420  20.938  26.583  1.00  0.00     0.039 A 
ATOM     39  C   UNL A   1      41.970  21.881  25.714  1.00  0.00     0.014 A 
ATOM     40  C   UNL A   1      41.370  21.168  27.961  1.00  0.00     0.014 A 
ATOM     41  C   UNL A   1      42.413  23.099  26.226  1.00  0.00     0.010 A 
ATOM     42  C   UNL A   1      41.746  22.408  28.457  1.00  0.00     0.010 A 
ATOM     43  C   UNL A   1      42.268  23.384  27.594  1.00  0.00    -0.014 A 
BRANCH  43  44
ATOM     44  C   UNL A   1      42.657  24.702  28.143  1.00  0.00     0.031 A 
ATOM     45  C   UNL A   1      41.614  25.765  28.343  1.00  0.00     0.074 A 
ATOM     46  C   UNL A   1      43.954  24.962  28.395  1.00  0.00     0.049 A 
ATOM     47  N   UNL A   1      41.762  27.001  28.742  1.00  0.00    -0.248 NA
ATOM     48  C   UNL A   1      40.226  25.396  28.022  1.00  0.00     0.031 C 
ATOM     49  C   UNL A   1      45.061  24.026  28.187  1.00  0.00     0.029 A 
ATOM     50  N   UNL A   1      44.562  26.096  28.867  1.00  0.00    -0.354 N 
ATOM     51  C   UNL A   1      40.491  27.560  28.704  1.00  0.00     0.074 A 
ATOM     52  C   UNL A   1      39.595  26.548  28.192  1.00  0.00     0.031 C 
ATOM     53  C   UNL A   1      46.210  24.618  28.553  1.00  0.00     0.029 A 
ATOM     54  C   UNL A   1      45.925  25.982  28.985  1.00  0.00     0.049 A 
ATOM     55  H   UNL A   1      44.068  26.915  29.099  1.00  0.00     0.167 HD
ATOM     56  C   UNL A   1      40.104  28.800  29.084  1.00  0.00     0.037 A 
ATOM     57  C   UNL A   1      46.841  26.879  29.394  1.00  0.00     0.037 A 
ATOM     58  C   UNL A   1      40.997  29.793  29.620  1.00  0.00     0.049 A 
ATOM     59  C   UNL A   1      46.385  28.248  29.818  1.00  0.00     0.074 A 
ATOM     60  C   UNL A   1      40.696  31.057  30.097  1.00  0.00     0.029 A 
ATOM     61  N   UNL A   1      42.368  29.632  29.750  1.00  0.00    -0.354 N 
ATOM     62  N   UNL A   1      45.171  28.742  29.845  1.00  0.00    -0.248 NA
ATOM     63  C   UNL A   1      47.423  29.181  30.274  1.00  0.00     0.031 C 
ATOM     64  C   UNL A   1      41.891  31.674  30.480  1.00  0.00     0.029 A 
ATOM     65  C   UNL A   1      42.930  30.779  30.282  1.00  0.00     0.049 A 
ATOM     66  H   UNL A   1      42.868  28.821  29.500  1.00  0.00     0.167 HD
ATOM     67  C   UNL A   1      45.295  30.031  30.344  1.00  0.00     0.074 A 
ATOM     68  C   UNL A   1      46.703  30.238  30.620  1.00  0.00     0.031 C 
ATOM     69  C   UNL A   1      44.332  30.961  30.556  1.00  0.00     0.037 A 
BRANCH  56  70
ATOM     70  C   UNL A   1      38.652  29.144  28.940  1.00  0.00     0.057 A 
ATOM     71  C   UNL A   1      38.112  29.575  27.720  1.00  0.00     0.134 A 
ATOM     72  C   UNL A   1      37.776  29.023  30.026  1.00  0.00     0.134 A 
ATOM     73  F   UNL A   1      38.900  29.727  26.645  1.00  0.00    -0.206 F 
ATOM     74  C   UNL A   1      36.762  29.900  27.593  1.00  0.00     0.040 A 
ATOM     75  C   UNL A   1      36.417  29.318  29.904  1.00  0.00     0.040 A 
ATOM     76  F   UNL A   1      38.226  28.611  31.221  1.00  0.00    -0.206 F 
ATOM     77  C   UNL A   1      35.908  29.765  28.685  1.00  0.00     0.006 A 
ENDBRANCH  56  70
BRANCH  57  78
ATOM     78  C   UNL A   1      48.277  26.507  29.448  1.00  0.00     0.057 A 
ATOM     79  C   UNL A   1      48.812  25.864  30.570  1.00  0.00     0.134 A 
ATOM     80  C   UNL A   1      49.147  26.786  28.388  1.00  0.00     0.134 A 
ATOM     81  F   UNL A   1      48.031  25.586  31.625  1.00  0.00    -0.206 F 
ATOM     82  C   UNL A   1      50.165  25.529  30.646  1.00  0.00     0.040 A 
ATOM     83  C   UNL A   1      50.497  26.436  28.440  1.00  0.00     0.040 A 
ATOM     84  F   UNL A   1      48.693  27.392  27.281  1.00  0.00    -0.206 F 
ATOM     85  C   UNL A   1      51.011  25.812  29.575  1.00  0.00     0.006 A 
ENDBRANCH  57  78
BRANCH  69  86
ATOM     86  C   UNL A   1      44.763  32.272  31.143  1.00  0.00     0.057 A 
ATOM     87  C   UNL A   1      44.840  32.472  32.527  1.00  0.00     0.134 A 
ATOM     88  C   UNL A   1      45.150  33.331  30.311  1.00  0.00     0.134 A 
ATOM     89  F   UNL A   1      44.470  31.501  33.375  1.00  0.00    -0.206 F 
ATOM     90  C   UNL A   1      45.267  33.687  33.063  1.00  0.00     0.040 A 
ATOM     91  C   UNL A   1      45.604  34.541  30.836  1.00  0.00     0.040 A 
ATOM     92  F   UNL A   1      45.109  33.200  28.977  1.00  0.00    -0.206 F 
ATOM     93  C   UNL A   1      45.658  34.723  32.217  1.00  0.00     0.006 A 
ENDBRANCH  69  86
ENDBRANCH  43  44
ENDBRANCH  35  38
ENDBRANCH  33  34
ENDBRANCH  32  33
ENDBRANCH  31  32
ENDBRANCH   1  31
TORSDOF 17
ENDMDL
MODEL 3
REMARK VINA RESULT:     -11.6      2.070      2.996
REMARK SMILES CCOC(=O)c1c(NC(=O)/C=C/C(=O)NCCCCNC(=O)c2ccc(-c3c4nc(c(-c5c(F)cccc5F)c5ccc([nH]5)c(-c5c(F)cccc5F)c5nc(c(-c6c(F)cccc6F)c6ccc3[nH]6)C=C5)C=C4)cc2)sc(C)c1-c1ccc(C)c(C)c1
REMARK SMILES IDX 16 1 15 2 13 3 14 4 12 6 11 7 9 8 8 9 10 11 7 12 6 13 80 14
REMARK SMILES IDX 77 15 78 16 79 17 4 18 5 19 3 20 2 21 1 22 81 23 82 24 88 25
REMARK SMILES IDX 83 26 86 27 84 28 87 29 85 30 17 31 18 32 19 33 20 34 21 35
REMARK SMILES IDX 22 37 23 38 24 39 76 40 25 41 75 42 26 43 27 44 28 45 69 46
REMARK SMILES IDX 29 47 74 48 68 49 70 50 30 51 73 52 67 53 66 54 31 56 57 57
REMARK SMILES IDX 40 58 56 59 41 60 44 61 55 62 71 63 42 64 43 65 54 67 72 68
REMARK SMILES IDX 45 69 32 70 33 71 38 72 34 73 35 74 37 75 39 76 36 77 58 78
REMARK SMILES IDX 59 79 64 80 60 81 61 82 63 83 65 84 62 85 46 86 47 87 52 88
REMARK SMILES IDX 48 89 49 90 51 91 53 92 50 93
REMARK H PARENT 15 5 8 10 20 36 70 55 44 66
REMARK Flexibility Score: inf
ROOT
ATOM      1  C   UNL A   1      37.808  23.224  26.071  1.00  0.00     0.116 C 
ENDROOT
BRANCH   1   2
ATOM      2  N   UNL A   1      37.595  23.500  24.666  1.00  0.00    -0.353 N 
ATOM      3  C   UNL A   1      36.656  22.932  23.861  1.00  0.00     0.244 C 
ATOM      4  O   UNL A   1      36.774  22.954  22.641  1.00  0.00    -0.270 OA
ATOM      5  H   UNL A   1      38.189  24.167  24.250  1.00  0.00     0.163 HD
BRANCH   3   6
ATOM      6  C   UNL A   1      35.493  22.283  24.494  1.00  0.00     0.077 C 
ATOM      7  C   UNL A   1      34.729  23.040  25.295  1.00  0.00     0.077 C 
BRANCH   7   8
ATOM      8  C   UNL A   1      33.419  22.574  25.756  1.00  0.00     0.249 C 
ATOM      9  N   UNL A   1      32.272  23.215  25.387  1.00  0.00    -0.313 N 
ATOM     10  H   UNL A   1      31.461  22.860  25.818  1.00  0.00     0.171 HD
ATOM     11  O   UNL A   1      33.377  21.600  26.509  1.00  0.00    -0.270 OA
BRANCH   9  12
ATOM     12  C   UNL A   1      32.030  24.272  24.519  1.00  0.00     0.111 A 
ATOM     13  C   UNL A   1      31.245  25.385  24.777  1.00  0.00     0.102 A 
ATOM     14  C   UNL A   1      30.995  26.130  23.557  1.00  0.00     0.012 A 
ATOM     15  S   UNL A   1      32.737  24.377  22.988  1.00  0.00    -0.122 S 
ATOM     16  C   UNL A   1      31.680  25.601  22.476  1.00  0.00     0.012 A 
ATOM     17  C   UNL A   1      31.671  25.952  21.023  1.00  0.00     0.057 C 
BRANCH  13  18
ATOM     18  C   UNL A   1      30.752  25.668  26.123  1.00  0.00     0.341 C 
ATOM     19  O   UNL A   1      29.591  25.488  26.438  1.00  0.00    -0.246 OA
BRANCH  18  20
ATOM     20  O   UNL A   1      31.709  26.172  26.956  1.00  0.00    -0.462 OA
BRANCH  20  21
ATOM     21  C   UNL A   1      32.323  27.396  26.531  1.00  0.00     0.230 C 
ATOM     22  C   UNL A   1      31.779  28.615  27.258  1.00  0.00     0.049 C 
ENDBRANCH  20  21
ENDBRANCH  18  20
ENDBRANCH  13  18
BRANCH  14  23
ATOM     23  C   UNL A   1      30.195  27.336  23.418  1.00  0.00    -0.016 A 
ATOM     24  C   UNL A   1      30.834  28.553  23.185  1.00  0.00     0.009 A 
ATOM     25  C   UNL A   1      28.800  27.286  23.505  1.00  0.00     0.012 A 
ATOM     26  C   UNL A   1      30.081  29.715  23.049  1.00  0.00     0.004 A 
ATOM     27  C   UNL A   1      28.028  28.448  23.351  1.00  0.00    -0.048 A 
ATOM     28  C   UNL A   1      28.678  29.678  23.126  1.00  0.00    -0.048 A 
ATOM     29  C   UNL A   1      26.530  28.339  23.428  1.00  0.00     0.044 C 
ATOM     30  C   UNL A   1      27.944  30.984  22.988  1.00  0.00     0.044 C 
ENDBRANCH  14  23
ENDBRANCH   9  12
ENDBRANCH   7   8
ENDBRANCH   3   6
ENDBRANCH   1   2
BRANCH   1  31
ATOM     31  C   UNL A   1      39.179  22.588  26.282  1.00  0.00     0.023 C 
BRANCH  31  32
ATOM     32  C   UNL A   1      39.277  21.154  25.759  1.00  0.00     0.023 C 
BRANCH  32  33
ATOM     33  C   UNL A   1      39.983  20.185  26.699  1.00  0.00     0.116 C 
BRANCH  33  34
ATOM     34  N   UNL A   1      41.027  19.408  26.043  1.00  0.00    -0.352 N 
ATOM     35  C   UNL A   1      42.313  19.783  25.751  1.00  0.00     0.251 C 
ATOM     36  H   UNL A   1      40.775  18.495  25.773  1.00  0.00     0.163 HD
ATOM     37  O   UNL A   1      43.058  19.046  25.117  1.00  0.00    -0.269 OA
BRANCH  35  38
ATOM     38  C   UNL A   1      42.766  21.115  26.180  1.00  0.00     0.039 A 
ATOM     39  C   UNL A   1      42.999  22.088  25.207  1.00  0.00     0.014 A 
ATOM     40  C   UNL A   1      42.877  21.415  27.541  1.00  0.00     0.014 A 
ATOM     41  C   UNL A   1      43.280  23.393  25.604  1.00  0.00     0.010 A 
ATOM     42  C   UNL A   1      43.087  22.730  27.933  1.00  0.00     0.010 A 
ATOM     43  C   UNL A   1      43.287  23.729  26.968  1.00  0.00    -0.014 A 
BRANCH  43  44
ATOM     44  C   UNL A   1      43.502  25.126  27.408  1.00  0.00     0.031 A 
ATOM     45  C   UNL A   1      44.898  25.670  27.510  1.00  0.00     0.074 A 
ATOM     46  C   UNL A   1      42.447  25.876  27.780  1.00  0.00     0.049 A 
ATOM     47  N   UNL A   1      45.300  26.838  27.942  1.00  0.00    -0.248 NA
ATOM     48  C   UNL A   1      45.989  24.771  27.101  1.00  0.00     0.031 C 
ATOM     49  C   UNL A   1      41.051  25.436  27.774  1.00  0.00     0.029 A 
ATOM     50  N   UNL A   1      42.389  27.164  28.247  1.00  0.00    -0.354 N 
ATOM     51  C   UNL A   1      46.686  26.805  27.872  1.00  0.00     0.074 A 
ATOM     52  C   UNL A   1      47.059  25.488  27.409  1.00  0.00     0.031 C 
ATOM     53  C   UNL A   1      40.271  26.445  28.197  1.00  0.00     0.029 A 
ATOM     54  C   UNL A   1      41.114  27.587  28.534  1.00  0.00     0.049 A 
ATOM     55  H   UNL A   1      43.184  27.731  28.366  1.00  0.00     0.167 HD
ATOM     56  C   UNL A   1      47.567  27.795  28.147  1.00  0.00     0.037 A 
ATOM     57  C   UNL A   1      40.677  28.764  29.018  1.00  0.00     0.037 A 
ATOM     58  C   UNL A   1      47.187  29.114  28.579  1.00  0.00     0.049 A 
ATOM     59  C   UNL A   1      41.675  29.851  29.309  1.00  0.00     0.074 A 
ATOM     60  C   UNL A   1      47.997  30.209  28.822  1.00  0.00     0.029 A 
ATOM     61  N   UNL A   1      45.884  29.515  28.833  1.00  0.00    -0.354 N 
ATOM     62  N   UNL A   1      42.979  29.832  29.171  1.00  0.00    -0.248 NA
ATOM     63  C   UNL A   1      41.142  31.122  29.816  1.00  0.00     0.031 C 
ATOM     64  C   UNL A   1      47.187  31.262  29.259  1.00  0.00     0.029 A 
ATOM     65  C   UNL A   1      45.869  30.835  29.248  1.00  0.00     0.049 A 
ATOM     66  H   UNL A   1      45.088  28.944  28.734  1.00  0.00     0.167 HD
ATOM     67  C   UNL A   1      43.419  31.094  29.548  1.00  0.00     0.074 A 
ATOM     68  C   UNL A   1      42.241  31.857  29.908  1.00  0.00     0.031 C 
ATOM     69  C   UNL A   1      44.685  31.578  29.593  1.00  0.00     0.037 A 
BRANCH  56  70
ATOM     70  C   UNL A   1      49.025  27.487  27.979  1.00  0.00     0.057 A 
ATOM     71  C   UNL A   1      49.804  27.000  29.038  1.00  0.00     0.134 A 
ATOM     72  C   UNL A   1      49.655  27.658  26.740  1.00  0.00     0.134 A 
ATOM     73  F   UNL A   1      49.265  26.829  30.255  1.00  0.00    -0.206 F 
ATOM     74  C   UNL A   1      51.162  26.722  28.878  1.00  0.00     0.040 A 
ATOM     75  C   UNL A   1      51.006  27.356  26.561  1.00  0.00     0.040 A 
ATOM     76  F   UNL A   1      48.967  28.117  25.683  1.00  0.00    -0.206 F 
ATOM     77  C   UNL A   1      51.765  26.893  27.634  1.00  0.00     0.006 A 
ENDBRANCH  56  70
BRANCH  57  78
ATOM     78  C   UNL A   1      39.226  28.989  29.233  1.00  0.00     0.057 A 
ATOM     79  C   UNL A   1      38.401  29.419  28.188  1.00  0.00     0.134 A 
ATOM     80  C   UNL A   1      38.631  28.786  30.484  1.00  0.00     0.134 A 
ATOM     81  F   UNL A   1      38.918  29.647  26.971  1.00  0.00    -0.206 F 
ATOM     82  C   UNL A   1      37.039  29.657  28.380  1.00  0.00     0.040 A 
ATOM     83  C   UNL A   1      37.266  28.998  30.685  1.00  0.00     0.040 A 
ATOM     84  F   UNL A   1      39.365  28.366  31.524  1.00  0.00    -0.206 F 
ATOM     85  C   UNL A   1      36.468  29.442  29.633  1.00  0.00     0.006 A 
ENDBRANCH  57  78
BRANCH  69  86
ATOM     86  C   UNL A   1      44.856  33.007  30.015  1.00  0.00     0.057 A 
ATOM     87  C   UNL A   1      44.784  34.062  29.096  1.00  0.00     0.134 A 
ATOM     88  C   UNL A   1      45.051  33.333  31.363  1.00  0.00     0.134 A 
ATOM     89  F   UNL A   1      44.614  33.814  27.789  1.00  0.00    -0.206 F 
ATOM     90  C   UNL A   1      44.920  35.389  29.502  1.00  0.00     0.040 A 
ATOM     91  C   UNL A   1      45.161  34.658  31.784  1.00  0.00     0.040 A 
ATOM     92  F   UNL A   1      45.120  32.369  32.294  1.00  0.00    -0.206 F 
ATOM     93  C   UNL A   1      45.101  35.691  30.850  1.00  0.00     0.006 A 
ENDBRANCH  69  86
ENDBRANCH  43  44
ENDBRANCH  35  38
ENDBRANCH  33  34
ENDBRANCH  32  33
ENDBRANCH  31  32
ENDBRANCH   1  31
TORSDOF 17
ENDMDL
