MODEL 1
REMARK VINA RESULT:     -10.7      0.000      0.000
REMARK SMILES CCCCCC[C@@H](C)N1C[C@H](C(=O)NCCCCNC(=O)c2ccc(-c3c4nc(c(-c5c(F)cccc5F)c5ccc([nH]5)c(-c5c(F)cccc5F)c5nc(c(-c6c(F)cccc6F)c6ccc3[nH]6)C=C5)C=C4)cc2)CC1=O
REMARK SMILES IDX 12 1 13 2 14 3 11 5 9 6 10 7 77 8 76 9 78 10 7 11 8 12 6 13
REMARK SMILES IDX 5 14 4 15 3 16 2 17 1 18 15 19 16 20 17 21 18 22 19 23 20 24
REMARK SMILES IDX 21 26 22 27 23 28 75 29 24 30 74 31 25 32 26 33 27 34 68 35
REMARK SMILES IDX 28 36 73 37 67 38 69 39 29 40 72 41 66 42 65 43 30 45 56 46
REMARK SMILES IDX 39 47 55 48 40 49 43 50 54 51 70 52 41 53 42 54 53 56 71 57
REMARK SMILES IDX 44 58 31 59 32 60 37 61 33 62 34 63 36 64 38 65 35 66 57 67
REMARK SMILES IDX 58 68 63 69 59 70 60 71 62 72 64 73 61 74 45 75 46 76 51 77
REMARK SMILES IDX 47 78 48 79 50 80 52 81 49 82
REMARK H PARENT 14 4 19 25 69 44 43 55
REMARK Flexibility Score: inf
ROOT
ATOM      1  C   UNL A   1      37.692  22.519  25.734  1.00  0.00     0.225 C 
ATOM      2  O   UNL A   1      37.151  23.565  26.089  1.00  0.00    -0.275 OA
ATOM      3  N   UNL A   1      38.793  22.115  26.423  1.00  0.00    -0.356 N 
ATOM      4  H   UNL A   1      38.977  22.625  27.244  1.00  0.00     0.163 HD
ENDROOT
BRANCH   1   5
ATOM      5  C   UNL A   1      37.132  21.655  24.617  1.00  0.00     0.107 C 
ATOM      6  N   UNL A   1      34.793  21.967  24.561  1.00  0.00    -0.339 N 
ATOM      7  C   UNL A   1      35.807  21.057  25.057  1.00  0.00     0.133 C 
ATOM      8  C   UNL A   1      35.315  22.796  23.571  1.00  0.00     0.223 C 
ATOM      9  C   UNL A   1      36.780  22.489  23.400  1.00  0.00     0.115 C 
ATOM     10  O   UNL A   1      34.723  23.597  22.863  1.00  0.00    -0.275 OA
BRANCH   6  11
ATOM     11  C   UNL A   1      33.361  21.786  24.896  1.00  0.00     0.082 C 
ATOM     12  C   UNL A   1      32.924  22.510  26.175  1.00  0.00     0.031 C 
BRANCH  11  13
ATOM     13  C   UNL A   1      32.977  20.286  24.968  1.00  0.00     0.025 C 
BRANCH  13  14
ATOM     14  C   UNL A   1      32.569  19.638  23.635  1.00  0.00     0.002 C 
BRANCH  14  15
ATOM     15  C   UNL A   1      32.445  18.110  23.674  1.00  0.00     0.000 C 
BRANCH  15  16
ATOM     16  C   UNL A   1      33.660  17.349  23.130  1.00  0.00    -0.000 C 
BRANCH  16  17
ATOM     17  C   UNL A   1      34.794  17.131  24.137  1.00  0.00    -0.003 C 
ATOM     18  C   UNL A   1      34.463  16.099  25.205  1.00  0.00     0.004 C 
ENDBRANCH  16  17
ENDBRANCH  15  16
ENDBRANCH  14  15
ENDBRANCH  13  14
ENDBRANCH  11  13
ENDBRANCH   6  11
ENDBRANCH   1   5
BRANCH   3  19
ATOM     19  C   UNL A   1      39.739  21.053  26.142  1.00  0.00     0.116 C 
BRANCH  19  20
ATOM     20  C   UNL A   1      40.730  20.881  27.293  1.00  0.00     0.023 C 
BRANCH  20  21
ATOM     21  C   UNL A   1      42.195  20.740  26.856  1.00  0.00     0.023 C 
BRANCH  21  22
ATOM     22  C   UNL A   1      43.088  21.939  27.160  1.00  0.00     0.116 C 
BRANCH  22  23
ATOM     23  N   UNL A   1      43.547  22.619  25.961  1.00  0.00    -0.352 N 
ATOM     24  C   UNL A   1      43.492  23.949  25.627  1.00  0.00     0.251 C 
ATOM     25  H   UNL A   1      43.959  22.035  25.284  1.00  0.00     0.163 HD
ATOM     26  O   UNL A   1      43.809  24.298  24.494  1.00  0.00    -0.269 OA
BRANCH  24  27
ATOM     27  C   UNL A   1      43.029  24.959  26.605  1.00  0.00     0.039 A 
ATOM     28  C   UNL A   1      41.972  24.620  27.454  1.00  0.00     0.014 A 
ATOM     29  C   UNL A   1      43.603  26.232  26.682  1.00  0.00     0.014 A 
ATOM     30  C   UNL A   1      41.531  25.534  28.412  1.00  0.00     0.010 A 
ATOM     31  C   UNL A   1      43.212  27.114  27.690  1.00  0.00     0.010 A 
ATOM     32  C   UNL A   1      42.171  26.775  28.567  1.00  0.00    -0.014 A 
BRANCH  32  33
ATOM     33  C   UNL A   1      41.766  27.696  29.662  1.00  0.00     0.031 A 
ATOM     34  C   UNL A   1      40.588  28.620  29.503  1.00  0.00     0.074 A 
ATOM     35  C   UNL A   1      42.475  27.701  30.808  1.00  0.00     0.049 A 
ATOM     36  N   UNL A   1      40.074  29.456  30.371  1.00  0.00    -0.248 NA
ATOM     37  C   UNL A   1      39.910  28.622  28.197  1.00  0.00     0.031 C 
ATOM     38  C   UNL A   1      43.671  26.895  31.068  1.00  0.00     0.029 A 
ATOM     39  N   UNL A   1      42.289  28.399  31.976  1.00  0.00    -0.354 N 
ATOM     40  C   UNL A   1      39.011  30.073  29.723  1.00  0.00     0.074 A 
ATOM     41  C   UNL A   1      38.994  29.564  28.368  1.00  0.00     0.031 C 
ATOM     42  C   UNL A   1      44.084  27.111  32.326  1.00  0.00     0.029 A 
ATOM     43  C   UNL A   1      43.209  28.097  32.951  1.00  0.00     0.049 A 
ATOM     44  H   UNL A   1      41.566  29.055  32.102  1.00  0.00     0.167 HD
ATOM     45  C   UNL A   1      38.114  30.958  30.218  1.00  0.00     0.037 A 
ATOM     46  C   UNL A   1      43.333  28.559  34.209  1.00  0.00     0.037 A 
ATOM     47  C   UNL A   1      38.128  31.462  31.568  1.00  0.00     0.049 A 
ATOM     48  C   UNL A   1      42.333  29.559  34.723  1.00  0.00     0.074 A 
ATOM     49  C   UNL A   1      37.242  32.336  32.172  1.00  0.00     0.029 A 
ATOM     50  N   UNL A   1      39.079  31.137  32.523  1.00  0.00    -0.354 N 
ATOM     51  N   UNL A   1      41.288  30.072  34.119  1.00  0.00    -0.248 NA
ATOM     52  C   UNL A   1      42.522  30.031  36.101  1.00  0.00     0.031 C 
ATOM     53  C   UNL A   1      37.682  32.578  33.478  1.00  0.00     0.029 A 
ATOM     54  C   UNL A   1      38.811  31.810  33.706  1.00  0.00     0.049 A 
ATOM     55  H   UNL A   1      39.833  30.520  32.383  1.00  0.00     0.167 HD
ATOM     56  C   UNL A   1      40.683  30.905  35.052  1.00  0.00     0.074 A 
ATOM     57  C   UNL A   1      41.458  30.799  36.271  1.00  0.00     0.031 C 
ATOM     58  C   UNL A   1      39.589  31.692  34.913  1.00  0.00     0.037 A 
BRANCH  45  59
ATOM     59  C   UNL A   1      37.021  31.431  29.301  1.00  0.00     0.057 A 
ATOM     60  C   UNL A   1      35.915  30.625  29.000  1.00  0.00     0.134 A 
ATOM     61  C   UNL A   1      37.037  32.727  28.770  1.00  0.00     0.134 A 
ATOM     62  F   UNL A   1      35.841  29.369  29.468  1.00  0.00    -0.206 F 
ATOM     63  C   UNL A   1      34.873  31.084  28.191  1.00  0.00     0.040 A 
ATOM     64  C   UNL A   1      35.988  33.207  27.982  1.00  0.00     0.040 A 
ATOM     65  F   UNL A   1      38.061  33.555  29.022  1.00  0.00    -0.206 F 
ATOM     66  C   UNL A   1      34.903  32.383  27.689  1.00  0.00     0.006 A 
ENDBRANCH  45  59
BRANCH  46  67
ATOM     67  C   UNL A   1      44.434  28.080  35.087  1.00  0.00     0.057 A 
ATOM     68  C   UNL A   1      45.727  28.606  34.983  1.00  0.00     0.134 A 
ATOM     69  C   UNL A   1      44.232  27.049  36.014  1.00  0.00     0.134 A 
ATOM     70  F   UNL A   1      45.989  29.584  34.102  1.00  0.00    -0.206 F 
ATOM     71  C   UNL A   1      46.788  28.099  35.735  1.00  0.00     0.040 A 
ATOM     72  C   UNL A   1      45.277  26.556  36.797  1.00  0.00     0.040 A 
ATOM     73  F   UNL A   1      43.016  26.507  36.171  1.00  0.00    -0.206 F 
ATOM     74  C   UNL A   1      46.562  27.071  36.647  1.00  0.00     0.006 A 
ENDBRANCH  46  67
BRANCH  58  75
ATOM     75  C   UNL A   1      39.151  32.469  36.123  1.00  0.00     0.057 A 
ATOM     76  C   UNL A   1      39.598  33.774  36.371  1.00  0.00     0.134 A 
ATOM     77  C   UNL A   1      38.278  31.899  37.059  1.00  0.00     0.134 A 
ATOM     78  F   UNL A   1      40.445  34.375  35.521  1.00  0.00    -0.206 F 
ATOM     79  C   UNL A   1      39.233  34.465  37.527  1.00  0.00     0.040 A 
ATOM     80  C   UNL A   1      37.878  32.592  38.202  1.00  0.00     0.040 A 
ATOM     81  F   UNL A   1      37.800  30.658  36.880  1.00  0.00    -0.206 F 
ATOM     82  C   UNL A   1      38.367  33.875  38.445  1.00  0.00     0.006 A 
ENDBRANCH  58  75
ENDBRANCH  32  33
ENDBRANCH  24  27
ENDBRANCH  22  23
ENDBRANCH  21  22
ENDBRANCH  20  21
ENDBRANCH  19  20
ENDBRANCH   3  19
TORSDOF 17
ENDMDL
MODEL 2
REMARK VINA RESULT:     -10.5      4.543      8.865
REMARK SMILES CCCCCC[C@@H](C)N1C[C@H](C(=O)NCCCCNC(=O)c2ccc(-c3c4nc(c(-c5c(F)cccc5F)c5ccc([nH]5)c(-c5c(F)cccc5F)c5nc(c(-c6c(F)cccc6F)c6ccc3[nH]6)C=C5)C=C4)cc2)CC1=O
REMARK SMILES IDX 12 1 13 2 14 3 11 5 9 6 10 7 77 8 76 9 78 10 7 11 8 12 6 13
REMARK SMILES IDX 5 14 4 15 3 16 2 17 1 18 15 19 16 20 17 21 18 22 19 23 20 24
REMARK SMILES IDX 21 26 22 27 23 28 75 29 24 30 74 31 25 32 26 33 27 34 68 35
REMARK SMILES IDX 28 36 73 37 67 38 69 39 29 40 72 41 66 42 65 43 30 45 56 46
REMARK SMILES IDX 39 47 55 48 40 49 43 50 54 51 70 52 41 53 42 54 53 56 71 57
REMARK SMILES IDX 44 58 31 59 32 60 37 61 33 62 34 63 36 64 38 65 35 66 57 67
REMARK SMILES IDX 58 68 63 69 59 70 60 71 62 72 64 73 61 74 45 75 46 76 51 77
REMARK SMILES IDX 47 78 48 79 50 80 52 81 49 82
REMARK H PARENT 14 4 19 25 69 44 43 55
REMARK Flexibility Score: inf
ROOT
ATOM      1  C   UNL A   1      35.130  23.909  25.040  1.00  0.00     0.225 C 
ATOM      2  O   UNL A   1      35.137  24.923  25.738  1.00  0.00    -0.275 OA
ATOM      3  N   UNL A   1      36.227  23.105  25.090  1.00  0.00    -0.356 N 
ATOM      4  H   UNL A   1      36.875  23.333  25.794  1.00  0.00     0.163 HD
ENDROOT
BRANCH   1   5
ATOM      5  C   UNL A   1      33.929  23.509  24.202  1.00  0.00     0.107 C 
ATOM      6  N   UNL A   1      32.685  25.461  23.739  1.00  0.00    -0.339 N 
ATOM      7  C   UNL A   1      32.720  24.320  24.633  1.00  0.00     0.133 C 
ATOM      8  C   UNL A   1      33.469  25.228  22.611  1.00  0.00     0.223 C 
ATOM      9  C   UNL A   1      34.128  23.880  22.744  1.00  0.00     0.115 C 
ATOM     10  O   UNL A   1      33.580  25.919  21.609  1.00  0.00    -0.275 OA
BRANCH   6  11
ATOM     11  C   UNL A   1      31.706  26.558  23.921  1.00  0.00     0.082 C 
ATOM     12  C   UNL A   1      31.586  27.052  25.368  1.00  0.00     0.031 C 
BRANCH  11  13
ATOM     13  C   UNL A   1      30.310  26.176  23.365  1.00  0.00     0.025 C 
BRANCH  13  14
ATOM     14  C   UNL A   1      29.214  27.242  23.525  1.00  0.00     0.002 C 
BRANCH  14  15
ATOM     15  C   UNL A   1      29.475  28.550  22.771  1.00  0.00     0.000 C 
BRANCH  15  16
ATOM     16  C   UNL A   1      28.215  29.318  22.355  1.00  0.00    -0.000 C 
BRANCH  16  17
ATOM     17  C   UNL A   1      28.123  30.753  22.884  1.00  0.00    -0.003 C 
ATOM     18  C   UNL A   1      29.252  31.118  23.837  1.00  0.00     0.004 C 
ENDBRANCH  16  17
ENDBRANCH  15  16
ENDBRANCH  14  15
ENDBRANCH  13  14
ENDBRANCH  11  13
ENDBRANCH   6  11
ENDBRANCH   1   5
BRANCH   3  19
ATOM     19  C   UNL A   1      36.594  21.967  24.269  1.00  0.00     0.116 C 
BRANCH  19  20
ATOM     20  C   UNL A   1      36.352  20.654  25.013  1.00  0.00     0.023 C 
BRANCH  20  21
ATOM     21  C   UNL A   1      37.546  19.689  25.004  1.00  0.00     0.023 C 
BRANCH  21  22
ATOM     22  C   UNL A   1      38.818  20.212  25.666  1.00  0.00     0.116 C 
BRANCH  22  23
ATOM     23  N   UNL A   1      39.865  19.208  25.747  1.00  0.00    -0.352 N 
ATOM     24  C   UNL A   1      41.198  19.349  26.037  1.00  0.00     0.251 C 
ATOM     25  H   UNL A   1      39.573  18.286  25.565  1.00  0.00     0.163 HD
ATOM     26  O   UNL A   1      41.946  18.384  25.912  1.00  0.00    -0.269 OA
BRANCH  24  27
ATOM     27  C   UNL A   1      41.748  20.655  26.468  1.00  0.00     0.039 A 
ATOM     28  C   UNL A   1      42.076  21.590  25.484  1.00  0.00     0.014 A 
ATOM     29  C   UNL A   1      41.964  20.958  27.816  1.00  0.00     0.014 A 
ATOM     30  C   UNL A   1      42.565  22.845  25.853  1.00  0.00     0.010 A 
ATOM     31  C   UNL A   1      42.380  22.237  28.186  1.00  0.00     0.010 A 
ATOM     32  C   UNL A   1      42.685  23.196  27.208  1.00  0.00    -0.014 A 
BRANCH  32  33
ATOM     33  C   UNL A   1      43.101  24.571  27.592  1.00  0.00     0.031 A 
ATOM     34  C   UNL A   1      44.541  25.000  27.500  1.00  0.00     0.074 A 
ATOM     35  C   UNL A   1      42.169  25.438  28.034  1.00  0.00     0.049 A 
ATOM     36  N   UNL A   1      45.070  26.172  27.754  1.00  0.00    -0.248 NA
ATOM     37  C   UNL A   1      45.519  23.980  27.087  1.00  0.00     0.031 C 
ATOM     38  C   UNL A   1      40.749  25.129  28.224  1.00  0.00     0.029 A 
ATOM     39  N   UNL A   1      42.269  26.758  28.396  1.00  0.00    -0.354 N 
ATOM     40  C   UNL A   1      46.433  26.033  27.524  1.00  0.00     0.074 A 
ATOM     41  C   UNL A   1      46.661  24.647  27.174  1.00  0.00     0.031 C 
ATOM     42  C   UNL A   1      40.106  26.237  28.622  1.00  0.00     0.029 A 
ATOM     43  C   UNL A   1      41.069  27.324  28.755  1.00  0.00     0.049 A 
ATOM     44  H   UNL A   1      43.121  27.252  28.399  1.00  0.00     0.167 HD
ATOM     45  C   UNL A   1      47.402  26.978  27.570  1.00  0.00     0.037 A 
ATOM     46  C   UNL A   1      40.777  28.579  29.145  1.00  0.00     0.037 A 
ATOM     47  C   UNL A   1      47.175  28.359  27.916  1.00  0.00     0.049 A 
ATOM     48  C   UNL A   1      41.880  29.601  29.208  1.00  0.00     0.074 A 
ATOM     49  C   UNL A   1      48.087  29.399  27.959  1.00  0.00     0.029 A 
ATOM     50  N   UNL A   1      45.948  28.892  28.280  1.00  0.00    -0.354 N 
ATOM     51  N   UNL A   1      43.150  29.469  28.912  1.00  0.00    -0.248 NA
ATOM     52  C   UNL A   1      41.501  30.951  29.645  1.00  0.00     0.031 C 
ATOM     53  C   UNL A   1      47.423  30.550  28.393  1.00  0.00     0.029 A 
ATOM     54  C   UNL A   1      46.085  30.241  28.567  1.00  0.00     0.049 A 
ATOM     55  H   UNL A   1      45.104  28.387  28.327  1.00  0.00     0.167 HD
ATOM     56  C   UNL A   1      43.715  30.725  29.101  1.00  0.00     0.074 A 
ATOM     57  C   UNL A   1      42.641  31.609  29.503  1.00  0.00     0.031 C 
ATOM     58  C   UNL A   1      45.007  31.111  28.962  1.00  0.00     0.037 A 
BRANCH  45  59
ATOM     59  C   UNL A   1      48.802  26.560  27.221  1.00  0.00     0.057 A 
ATOM     60  C   UNL A   1      49.693  26.090  28.196  1.00  0.00     0.134 A 
ATOM     61  C   UNL A   1      49.244  26.561  25.892  1.00  0.00     0.134 A 
ATOM     62  F   UNL A   1      49.337  26.073  29.490  1.00  0.00    -0.206 F 
ATOM     63  C   UNL A   1      50.976  25.651  27.864  1.00  0.00     0.040 A 
ATOM     64  C   UNL A   1      50.515  26.098  25.544  1.00  0.00     0.040 A 
ATOM     65  F   UNL A   1      48.442  26.991  24.907  1.00  0.00    -0.206 F 
ATOM     66  C   UNL A   1      51.386  25.644  26.533  1.00  0.00     0.006 A 
ENDBRANCH  45  59
BRANCH  46  67
ATOM     67  C   UNL A   1      39.382  28.957  29.496  1.00  0.00     0.057 A 
ATOM     68  C   UNL A   1      38.882  28.764  30.789  1.00  0.00     0.134 A 
ATOM     69  C   UNL A   1      38.502  29.471  28.536  1.00  0.00     0.134 A 
ATOM     70  F   UNL A   1      39.670  28.259  31.750  1.00  0.00    -0.206 F 
ATOM     71  C   UNL A   1      37.547  29.027  31.106  1.00  0.00     0.040 A 
ATOM     72  C   UNL A   1      37.175  29.770  28.847  1.00  0.00     0.040 A 
ATOM     73  F   UNL A   1      38.919  29.689  27.281  1.00  0.00    -0.206 F 
ATOM     74  C   UNL A   1      36.691  29.535  30.132  1.00  0.00     0.006 A 
ENDBRANCH  46  67
BRANCH  58  75
ATOM     75  C   UNL A   1      45.313  32.561  29.213  1.00  0.00     0.057 A 
ATOM     76  C   UNL A   1      45.698  33.032  30.477  1.00  0.00     0.134 A 
ATOM     77  C   UNL A   1      45.212  33.501  28.179  1.00  0.00     0.134 A 
ATOM     78  F   UNL A   1      45.803  32.187  31.514  1.00  0.00    -0.206 F 
ATOM     79  C   UNL A   1      45.923  34.389  30.714  1.00  0.00     0.040 A 
ATOM     80  C   UNL A   1      45.469  34.855  28.395  1.00  0.00     0.040 A 
ATOM     81  F   UNL A   1      44.861  33.120  26.942  1.00  0.00    -0.206 F 
ATOM     82  C   UNL A   1      45.812  35.305  29.670  1.00  0.00     0.006 A 
ENDBRANCH  58  75
ENDBRANCH  32  33
ENDBRANCH  24  27
ENDBRANCH  22  23
ENDBRANCH  21  22
ENDBRANCH  20  21
ENDBRANCH  19  20
ENDBRANCH   3  19
TORSDOF 17
ENDMDL
MODEL 3
REMARK VINA RESULT:     -10.5      4.638      8.724
REMARK SMILES CCCCCC[C@@H](C)N1C[C@H](C(=O)NCCCCNC(=O)c2ccc(-c3c4nc(c(-c5c(F)cccc5F)c5ccc([nH]5)c(-c5c(F)cccc5F)c5nc(c(-c6c(F)cccc6F)c6ccc3[nH]6)C=C5)C=C4)cc2)CC1=O
REMARK SMILES IDX 12 1 13 2 14 3 11 5 9 6 10 7 77 8 76 9 78 10 7 11 8 12 6 13
REMARK SMILES IDX 5 14 4 15 3 16 2 17 1 18 15 19 16 20 17 21 18 22 19 23 20 24
REMARK SMILES IDX 21 26 22 27 23 28 75 29 24 30 74 31 25 32 26 33 27 34 68 35
REMARK SMILES IDX 28 36 73 37 67 38 69 39 29 40 72 41 66 42 65 43 30 45 56 46
REMARK SMILES IDX 39 47 55 48 40 49 43 50 54 51 70 52 41 53 42 54 53 56 71 57
REMARK SMILES IDX 44 58 31 59 32 60 37 61 33 62 34 63 36 64 38 65 35 66 57 67
REMARK SMILES IDX 58 68 63 69 59 70 60 71 62 72 64 73 61 74 45 75 46 76 51 77
REMARK SMILES IDX 47 78 48 79 50 80 52 81 49 82
REMARK H PARENT 14 4 19 25 69 44 43 55
REMARK Flexibility Score: inf
ROOT
ATOM      1  C   UNL A   1      35.976  23.124  23.610  1.00  0.00     0.225 C 
ATOM      2  O   UNL A   1      35.989  23.611  22.480  1.00  0.00    -0.275 OA
ATOM      3  N   UNL A   1      37.125  22.551  24.060  1.00  0.00    -0.356 N 
ATOM      4  H   UNL A   1      37.914  22.704  23.492  1.00  0.00     0.163 HD
ENDROOT
BRANCH   1   5
ATOM      5  C   UNL A   1      34.761  23.210  24.516  1.00  0.00     0.107 C 
ATOM      6  N   UNL A   1      32.914  23.855  23.195  1.00  0.00    -0.339 N 
ATOM      7  C   UNL A   1      33.906  24.395  24.104  1.00  0.00     0.133 C 
ATOM      8  C   UNL A   1      32.832  22.470  23.321  1.00  0.00     0.223 C 
ATOM      9  C   UNL A   1      33.851  22.010  24.330  1.00  0.00     0.115 C 
ATOM     10  O   UNL A   1      32.033  21.707  22.797  1.00  0.00    -0.275 OA
BRANCH   6  11
ATOM     11  C   UNL A   1      31.961  24.734  22.479  1.00  0.00     0.082 C 
ATOM     12  C   UNL A   1      32.491  26.149  22.220  1.00  0.00     0.031 C 
BRANCH  11  13
ATOM     13  C   UNL A   1      30.589  24.797  23.200  1.00  0.00     0.025 C 
BRANCH  13  14
ATOM     14  C   UNL A   1      30.402  25.969  24.176  1.00  0.00     0.002 C 
BRANCH  14  15
ATOM     15  C   UNL A   1      30.152  25.560  25.632  1.00  0.00     0.000 C 
BRANCH  15  16
ATOM     16  C   UNL A   1      31.415  25.403  26.486  1.00  0.00    -0.000 C 
BRANCH  16  17
ATOM     17  C   UNL A   1      31.780  23.960  26.848  1.00  0.00    -0.003 C 
ATOM     18  C   UNL A   1      30.681  22.959  26.523  1.00  0.00     0.004 C 
ENDBRANCH  16  17
ENDBRANCH  15  16
ENDBRANCH  14  15
ENDBRANCH  13  14
ENDBRANCH  11  13
ENDBRANCH   6  11
ENDBRANCH   1   5
BRANCH   3  19
ATOM     19  C   UNL A   1      37.373  21.749  25.243  1.00  0.00     0.116 C 
BRANCH  19  20
ATOM     20  C   UNL A   1      37.021  20.283  24.995  1.00  0.00     0.023 C 
BRANCH  20  21
ATOM     21  C   UNL A   1      38.224  19.330  25.001  1.00  0.00     0.023 C 
BRANCH  21  22
ATOM     22  C   UNL A   1      39.389  19.750  25.892  1.00  0.00     0.116 C 
BRANCH  22  23
ATOM     23  N   UNL A   1      40.507  18.822  25.833  1.00  0.00    -0.352 N 
ATOM     24  C   UNL A   1      41.850  19.053  25.984  1.00  0.00     0.251 C 
ATOM     25  H   UNL A   1      40.261  17.886  25.657  1.00  0.00     0.163 HD
ATOM     26  O   UNL A   1      42.646  18.147  25.753  1.00  0.00    -0.269 OA
BRANCH  24  27
ATOM     27  C   UNL A   1      42.352  20.385  26.392  1.00  0.00     0.039 A 
ATOM     28  C   UNL A   1      42.926  21.202  25.414  1.00  0.00     0.014 A 
ATOM     29  C   UNL A   1      42.284  20.828  27.717  1.00  0.00     0.014 A 
ATOM     30  C   UNL A   1      43.378  22.478  25.754  1.00  0.00     0.010 A 
ATOM     31  C   UNL A   1      42.667  22.131  28.038  1.00  0.00     0.010 A 
ATOM     32  C   UNL A   1      43.218  22.971  27.060  1.00  0.00    -0.014 A 
BRANCH  32  33
ATOM     33  C   UNL A   1      43.602  24.370  27.384  1.00  0.00     0.031 A 
ATOM     34  C   UNL A   1      45.035  24.824  27.292  1.00  0.00     0.074 A 
ATOM     35  C   UNL A   1      42.647  25.238  27.775  1.00  0.00     0.049 A 
ATOM     36  N   UNL A   1      45.536  26.016  27.498  1.00  0.00    -0.248 NA
ATOM     37  C   UNL A   1      46.037  23.806  26.939  1.00  0.00     0.031 C 
ATOM     38  C   UNL A   1      41.230  24.909  27.960  1.00  0.00     0.029 A 
ATOM     39  N   UNL A   1      42.716  26.575  28.077  1.00  0.00    -0.354 N 
ATOM     40  C   UNL A   1      46.905  25.894  27.293  1.00  0.00     0.074 A 
ATOM     41  C   UNL A   1      47.165  24.499  27.009  1.00  0.00     0.031 C 
ATOM     42  C   UNL A   1      40.561  26.021  28.299  1.00  0.00     0.029 A 
ATOM     43  C   UNL A   1      41.501  27.132  28.394  1.00  0.00     0.049 A 
ATOM     44  H   UNL A   1      43.558  27.086  28.068  1.00  0.00     0.167 HD
ATOM     45  C   UNL A   1      47.855  26.860  27.308  1.00  0.00     0.037 A 
ATOM     46  C   UNL A   1      41.179  28.398  28.721  1.00  0.00     0.037 A 
ATOM     47  C   UNL A   1      47.596  28.250  27.586  1.00  0.00     0.049 A 
ATOM     48  C   UNL A   1      42.260  29.444  28.751  1.00  0.00     0.074 A 
ATOM     49  C   UNL A   1      48.488  29.309  27.593  1.00  0.00     0.029 A 
ATOM     50  N   UNL A   1      46.354  28.774  27.909  1.00  0.00    -0.354 N 
ATOM     51  N   UNL A   1      43.537  29.324  28.479  1.00  0.00    -0.248 NA
ATOM     52  C   UNL A   1      41.850  30.805  29.121  1.00  0.00     0.031 C 
ATOM     53  C   UNL A   1      47.795  30.466  27.966  1.00  0.00     0.029 A 
ATOM     54  C   UNL A   1      46.461  30.139  28.136  1.00  0.00     0.049 A 
ATOM     55  H   UNL A   1      45.520  28.256  27.969  1.00  0.00     0.167 HD
ATOM     56  C   UNL A   1      44.075  30.598  28.617  1.00  0.00     0.074 A 
ATOM     57  C   UNL A   1      42.979  31.478  28.963  1.00  0.00     0.031 C 
ATOM     58  C   UNL A   1      45.361  31.004  28.477  1.00  0.00     0.037 A 
BRANCH  45  59
ATOM     59  C   UNL A   1      49.268  26.455  26.996  1.00  0.00     0.057 A 
ATOM     60  C   UNL A   1      50.150  26.036  28.001  1.00  0.00     0.134 A 
ATOM     61  C   UNL A   1      49.731  26.416  25.675  1.00  0.00     0.134 A 
ATOM     62  F   UNL A   1      49.773  26.058  29.289  1.00  0.00    -0.206 F 
ATOM     63  C   UNL A   1      51.446  25.608  27.706  1.00  0.00     0.040 A 
ATOM     64  C   UNL A   1      51.016  25.964  25.365  1.00  0.00     0.040 A 
ATOM     65  F   UNL A   1      48.939  26.796  24.662  1.00  0.00    -0.206 F 
ATOM     66  C   UNL A   1      51.878  25.560  26.383  1.00  0.00     0.006 A 
ENDBRANCH  45  59
BRANCH  46  67
ATOM     67  C   UNL A   1      39.772  28.764  29.037  1.00  0.00     0.057 A 
ATOM     68  C   UNL A   1      39.265  28.643  30.336  1.00  0.00     0.134 A 
ATOM     69  C   UNL A   1      38.889  29.193  28.038  1.00  0.00     0.134 A 
ATOM     70  F   UNL A   1      40.056  28.221  31.334  1.00  0.00    -0.206 F 
ATOM     71  C   UNL A   1      37.922  28.893  30.624  1.00  0.00     0.040 A 
ATOM     72  C   UNL A   1      37.552  29.479  28.320  1.00  0.00     0.040 A 
ATOM     73  F   UNL A   1      39.312  29.339  26.775  1.00  0.00    -0.206 F 
ATOM     74  C   UNL A   1      37.062  29.315  29.613  1.00  0.00     0.006 A 
ENDBRANCH  46  67
BRANCH  58  75
ATOM     75  C   UNL A   1      45.635  32.469  28.664  1.00  0.00     0.057 A 
ATOM     76  C   UNL A   1      45.566  33.381  27.601  1.00  0.00     0.134 A 
ATOM     77  C   UNL A   1      45.984  32.975  29.924  1.00  0.00     0.134 A 
ATOM     78  F   UNL A   1      45.250  32.962  26.366  1.00  0.00    -0.206 F 
ATOM     79  C   UNL A   1      45.881  34.730  27.772  1.00  0.00     0.040 A 
ATOM     80  C   UNL A   1      46.267  34.328  30.115  1.00  0.00     0.040 A 
ATOM     81  F   UNL A   1      46.057  32.163  30.989  1.00  0.00    -0.206 F 
ATOM     82  C   UNL A   1      46.229  35.207  29.034  1.00  0.00     0.006 A 
ENDBRANCH  58  75
ENDBRANCH  32  33
ENDBRANCH  24  27
ENDBRANCH  22  23
ENDBRANCH  21  22
ENDBRANCH  20  21
ENDBRANCH  19  20
ENDBRANCH   3  19
TORSDOF 17
ENDMDL
