MODEL 1
REMARK VINA RESULT:     -11.1      0.000      0.000
REMARK SMILES Cc1noc(C)c1[C@@H](C)NC(=O)N(CC(=O)NCCCCNC(=O)c1ccc(-c2c3nc(c(-c4c(F)cccc4F)c4ccc([nH]4)c(-c4c(F)cccc4F)c4nc(c(-c5c(F)cccc5F)c5ccc2[nH]5)C=C4)C=C3)cc1)C(C)C
REMARK SMILES IDX 18 1 17 2 15 3 16 4 14 6 13 7 11 8 10 9 12 11 8 12 9 13 7 14
REMARK SMILES IDX 1 15 2 16 3 17 4 18 5 19 6 20 79 21 80 22 81 23 19 24 20 25
REMARK SMILES IDX 21 26 22 27 23 28 24 30 25 31 26 32 78 33 27 34 77 35 28 36
REMARK SMILES IDX 29 37 30 38 71 39 31 40 76 41 70 42 72 43 32 44 75 45 69 46
REMARK SMILES IDX 68 47 33 49 59 50 42 51 58 52 43 53 46 54 57 55 73 56 44 57
REMARK SMILES IDX 45 58 56 60 74 61 47 62 34 63 35 64 40 65 36 66 37 67 39 68
REMARK SMILES IDX 41 69 38 70 60 71 61 72 66 73 62 74 63 75 65 76 67 77 64 78
REMARK SMILES IDX 48 79 49 80 54 81 50 82 51 83 53 84 55 85 52 86
REMARK H PARENT 17 5 10 10 22 29 72 48 46 59
REMARK Flexibility Score: inf
ROOT
ATOM      1  C   UNL A   1      36.820  23.307  25.668  1.00  0.00     0.116 C 
ENDROOT
BRANCH   1   2
ATOM      2  N   UNL A   1      35.881  22.889  26.682  1.00  0.00    -0.355 N 
ATOM      3  C   UNL A   1      34.519  22.963  26.683  1.00  0.00     0.239 C 
ATOM      4  O   UNL A   1      33.923  22.324  27.557  1.00  0.00    -0.273 OA
ATOM      5  H   UNL A   1      36.282  22.493  27.489  1.00  0.00     0.163 HD
BRANCH   3   6
ATOM      6  C   UNL A   1      33.730  23.667  25.564  1.00  0.00     0.221 C 
BRANCH   6   7
ATOM      7  N   UNL A   1      32.268  23.594  25.646  1.00  0.00    -0.313 N 
BRANCH   7   8
ATOM      8  C   UNL A   1      31.428  24.233  26.513  1.00  0.00     0.318 C 
ATOM      9  N   UNL A   1      31.351  25.558  26.711  1.00  0.00    -0.331 N 
ATOM     10  H   UNL A   1      30.643  25.743  27.368  1.00  0.00     0.165 HD
ATOM     11  O   UNL A   1      30.640  23.602  27.228  1.00  0.00    -0.249 OA
BRANCH   9  12
ATOM     12  C   UNL A   1      31.950  26.825  26.291  1.00  0.00     0.116 C 
ATOM     13  C   UNL A   1      31.461  27.973  27.184  1.00  0.00     0.036 C 
BRANCH  12  14
ATOM     14  C   UNL A   1      31.636  27.034  24.843  1.00  0.00     0.040 A 
ATOM     15  C   UNL A   1      29.103  26.339  24.613  1.00  0.00     0.071 C 
ATOM     16  C   UNL A   1      30.414  26.834  24.128  1.00  0.00     0.086 A 
ATOM     17  N   UNL A   1      30.538  27.177  22.841  1.00  0.00    -0.085 NA
ATOM     18  O   UNL A   1      31.842  27.586  22.680  1.00  0.00    -0.361 OA
ATOM     19  C   UNL A   1      32.495  27.500  23.866  1.00  0.00     0.139 A 
ATOM     20  C   UNL A   1      33.914  27.906  23.846  1.00  0.00     0.091 C 
ENDBRANCH  12  14
ENDBRANCH   9  12
ENDBRANCH   7   8
BRANCH   7  21
ATOM     21  C   UNL A   1      31.672  22.709  24.599  1.00  0.00     0.081 C 
ATOM     22  C   UNL A   1      31.155  23.458  23.372  1.00  0.00     0.031 C 
ATOM     23  C   UNL A   1      32.580  21.543  24.194  1.00  0.00     0.031 C 
ENDBRANCH   7  21
ENDBRANCH   6   7
ENDBRANCH   3   6
ENDBRANCH   1   2
BRANCH   1  24
ATOM     24  C   UNL A   1      36.979  22.316  24.521  1.00  0.00     0.023 C 
BRANCH  24  25
ATOM     25  C   UNL A   1      37.549  20.964  24.934  1.00  0.00     0.023 C 
BRANCH  25  26
ATOM     26  C   UNL A   1      38.777  21.057  25.828  1.00  0.00     0.116 C 
BRANCH  26  27
ATOM     27  N   UNL A   1      39.672  19.917  25.691  1.00  0.00    -0.352 N 
ATOM     28  C   UNL A   1      41.019  19.865  25.975  1.00  0.00     0.251 C 
ATOM     29  H   UNL A   1      39.267  19.086  25.353  1.00  0.00     0.163 HD
ATOM     30  O   UNL A   1      41.685  18.875  25.724  1.00  0.00    -0.269 OA
BRANCH  28  31
ATOM     31  C   UNL A   1      41.645  21.063  26.567  1.00  0.00     0.039 A 
ATOM     32  C   UNL A   1      42.095  22.081  25.724  1.00  0.00     0.014 A 
ATOM     33  C   UNL A   1      41.685  21.208  27.955  1.00  0.00     0.014 A 
ATOM     34  C   UNL A   1      42.524  23.289  26.278  1.00  0.00     0.010 A 
ATOM     35  C   UNL A   1      42.049  22.432  28.499  1.00  0.00     0.010 A 
ATOM     36  C   UNL A   1      42.467  23.485  27.667  1.00  0.00    -0.014 A 
BRANCH  36  37
ATOM     37  C   UNL A   1      42.856  24.768  28.299  1.00  0.00     0.031 A 
ATOM     38  C   UNL A   1      41.799  25.805  28.550  1.00  0.00     0.074 A 
ATOM     39  C   UNL A   1      44.154  25.047  28.527  1.00  0.00     0.049 A 
ATOM     40  N   UNL A   1      41.935  27.064  28.875  1.00  0.00    -0.248 NA
ATOM     41  C   UNL A   1      40.403  25.375  28.370  1.00  0.00     0.031 C 
ATOM     42  C   UNL A   1      45.276  24.137  28.288  1.00  0.00     0.029 A 
ATOM     43  N   UNL A   1      44.750  26.196  28.983  1.00  0.00    -0.354 N 
ATOM     44  C   UNL A   1      40.649  27.587  28.887  1.00  0.00     0.074 A 
ATOM     45  C   UNL A   1      39.749  26.518  28.517  1.00  0.00     0.031 C 
ATOM     46  C   UNL A   1      46.424  24.764  28.600  1.00  0.00     0.029 A 
ATOM     47  C   UNL A   1      46.122  26.129  29.020  1.00  0.00     0.049 A 
ATOM     48  H   UNL A   1      44.243  26.993  29.258  1.00  0.00     0.167 HD
ATOM     49  C   UNL A   1      40.256  28.845  29.191  1.00  0.00     0.037 A 
ATOM     50  C   UNL A   1      47.032  27.071  29.335  1.00  0.00     0.037 A 
ATOM     51  C   UNL A   1      41.147  29.885  29.623  1.00  0.00     0.049 A 
ATOM     52  C   UNL A   1      46.562  28.445  29.723  1.00  0.00     0.074 A 
ATOM     53  C   UNL A   1      40.838  31.174  30.024  1.00  0.00     0.029 A 
ATOM     54  N   UNL A   1      42.522  29.750  29.728  1.00  0.00    -0.354 N 
ATOM     55  N   UNL A   1      45.340  28.917  29.769  1.00  0.00    -0.248 NA
ATOM     56  C   UNL A   1      47.596  29.420  30.104  1.00  0.00     0.031 C 
ATOM     57  C   UNL A   1      42.031  31.823  30.356  1.00  0.00     0.029 A 
ATOM     58  C   UNL A   1      43.077  30.930  30.188  1.00  0.00     0.049 A 
ATOM     59  H   UNL A   1      43.029  28.934  29.508  1.00  0.00     0.167 HD
ATOM     60  C   UNL A   1      45.455  30.227  30.215  1.00  0.00     0.074 A 
ATOM     61  C   UNL A   1      46.864  30.478  30.427  1.00  0.00     0.031 C 
ATOM     62  C   UNL A   1      44.479  31.142  30.428  1.00  0.00     0.037 A 
BRANCH  49  63
ATOM     63  C   UNL A   1      38.797  29.163  29.073  1.00  0.00     0.057 A 
ATOM     64  C   UNL A   1      37.942  29.125  30.180  1.00  0.00     0.134 A 
ATOM     65  C   UNL A   1      38.250  29.553  27.844  1.00  0.00     0.134 A 
ATOM     66  F   UNL A   1      38.402  28.745  31.382  1.00  0.00    -0.206 F 
ATOM     67  C   UNL A   1      36.589  29.447  30.066  1.00  0.00     0.040 A 
ATOM     68  C   UNL A   1      36.905  29.899  27.722  1.00  0.00     0.040 A 
ATOM     69  F   UNL A   1      39.018  29.612  26.744  1.00  0.00    -0.206 F 
ATOM     70  C   UNL A   1      36.069  29.843  28.836  1.00  0.00     0.006 A 
ENDBRANCH  49  63
BRANCH  50  71
ATOM     71  C   UNL A   1      48.481  26.750  29.309  1.00  0.00     0.057 A 
ATOM     72  C   UNL A   1      49.244  26.969  28.156  1.00  0.00     0.134 A 
ATOM     73  C   UNL A   1      49.130  26.200  30.419  1.00  0.00     0.134 A 
ATOM     74  F   UNL A   1      48.671  27.476  27.054  1.00  0.00    -0.206 F 
ATOM     75  C   UNL A   1      50.595  26.629  28.099  1.00  0.00     0.040 A 
ATOM     76  C   UNL A   1      50.487  25.874  30.382  1.00  0.00     0.040 A 
ATOM     77  F   UNL A   1      48.456  25.973  31.556  1.00  0.00    -0.206 F 
ATOM     78  C   UNL A   1      51.222  26.081  29.217  1.00  0.00     0.006 A 
ENDBRANCH  50  71
BRANCH  62  79
ATOM     79  C   UNL A   1      44.889  32.474  30.975  1.00  0.00     0.057 A 
ATOM     80  C   UNL A   1      45.183  33.555  30.137  1.00  0.00     0.134 A 
ATOM     81  C   UNL A   1      44.914  32.693  32.357  1.00  0.00     0.134 A 
ATOM     82  F   UNL A   1      45.185  33.402  28.805  1.00  0.00    -0.206 F 
ATOM     83  C   UNL A   1      45.497  34.811  30.658  1.00  0.00     0.040 A 
ATOM     84  C   UNL A   1      45.208  33.948  32.889  1.00  0.00     0.040 A 
ATOM     85  F   UNL A   1      44.633  31.697  33.210  1.00  0.00    -0.206 F 
ATOM     86  C   UNL A   1      45.501  35.012  32.038  1.00  0.00     0.006 A 
ENDBRANCH  62  79
ENDBRANCH  36  37
ENDBRANCH  28  31
ENDBRANCH  26  27
ENDBRANCH  25  26
ENDBRANCH  24  25
ENDBRANCH   1  24
TORSDOF 16
ENDMDL
MODEL 2
REMARK VINA RESULT:     -11.0      0.912      1.774
REMARK SMILES Cc1noc(C)c1[C@@H](C)NC(=O)N(CC(=O)NCCCCNC(=O)c1ccc(-c2c3nc(c(-c4c(F)cccc4F)c4ccc([nH]4)c(-c4c(F)cccc4F)c4nc(c(-c5c(F)cccc5F)c5ccc2[nH]5)C=C4)C=C3)cc1)C(C)C
REMARK SMILES IDX 18 1 17 2 15 3 16 4 14 6 13 7 11 8 10 9 12 11 8 12 9 13 7 14
REMARK SMILES IDX 1 15 2 16 3 17 4 18 5 19 6 20 79 21 80 22 81 23 19 24 20 25
REMARK SMILES IDX 21 26 22 27 23 28 24 30 25 31 26 32 78 33 27 34 77 35 28 36
REMARK SMILES IDX 29 37 30 38 71 39 31 40 76 41 70 42 72 43 32 44 75 45 69 46
REMARK SMILES IDX 68 47 33 49 59 50 42 51 58 52 43 53 46 54 57 55 73 56 44 57
REMARK SMILES IDX 45 58 56 60 74 61 47 62 34 63 35 64 40 65 36 66 37 67 39 68
REMARK SMILES IDX 41 69 38 70 60 71 61 72 66 73 62 74 63 75 65 76 67 77 64 78
REMARK SMILES IDX 48 79 49 80 54 81 50 82 51 83 53 84 55 85 52 86
REMARK H PARENT 17 5 10 10 22 29 72 48 46 59
REMARK Flexibility Score: inf
ROOT
ATOM      1  C   UNL A   1      36.962  23.183  25.504  1.00  0.00     0.116 C 
ENDROOT
BRANCH   1   2
ATOM      2  N   UNL A   1      36.131  22.780  26.614  1.00  0.00    -0.355 N 
ATOM      3  C   UNL A   1      34.791  22.954  26.798  1.00  0.00     0.239 C 
ATOM      4  O   UNL A   1      34.262  22.314  27.713  1.00  0.00    -0.273 OA
ATOM      5  H   UNL A   1      36.600  22.313  27.342  1.00  0.00     0.163 HD
BRANCH   3   6
ATOM      6  C   UNL A   1      33.923  23.774  25.825  1.00  0.00     0.221 C 
BRANCH   6   7
ATOM      7  N   UNL A   1      32.499  23.434  25.770  1.00  0.00    -0.313 N 
BRANCH   7   8
ATOM      8  C   UNL A   1      31.480  23.895  26.555  1.00  0.00     0.318 C 
ATOM      9  N   UNL A   1      30.719  24.973  26.313  1.00  0.00    -0.331 N 
ATOM     10  H   UNL A   1      30.045  25.054  27.025  1.00  0.00     0.165 HD
ATOM     11  O   UNL A   1      31.173  23.326  27.610  1.00  0.00    -0.249 OA
BRANCH   9  12
ATOM     12  C   UNL A   1      30.539  26.069  25.362  1.00  0.00     0.116 C 
ATOM     13  C   UNL A   1      30.212  25.522  23.966  1.00  0.00     0.036 C 
BRANCH  12  14
ATOM     14  C   UNL A   1      31.772  26.916  25.386  1.00  0.00     0.040 A 
ATOM     15  C   UNL A   1      31.597  28.269  27.641  1.00  0.00     0.071 C 
ATOM     16  C   UNL A   1      32.228  27.851  26.367  1.00  0.00     0.086 A 
ATOM     17  N   UNL A   1      33.411  28.378  26.029  1.00  0.00    -0.085 NA
ATOM     18  O   UNL A   1      33.743  27.820  24.816  1.00  0.00    -0.361 OA
ATOM     19  C   UNL A   1      32.772  26.954  24.432  1.00  0.00     0.139 A 
ATOM     20  C   UNL A   1      32.992  26.277  23.139  1.00  0.00     0.091 C 
ENDBRANCH  12  14
ENDBRANCH   9  12
ENDBRANCH   7   8
BRANCH   7  21
ATOM     21  C   UNL A   1      32.174  22.473  24.673  1.00  0.00     0.081 C 
ATOM     22  C   UNL A   1      33.060  22.617  23.436  1.00  0.00     0.031 C 
ATOM     23  C   UNL A   1      32.105  21.014  25.137  1.00  0.00     0.031 C 
ENDBRANCH   7  21
ENDBRANCH   6   7
ENDBRANCH   3   6
ENDBRANCH   1   2
BRANCH   1  24
ATOM     24  C   UNL A   1      37.134  22.112  24.434  1.00  0.00     0.023 C 
BRANCH  24  25
ATOM     25  C   UNL A   1      37.705  20.795  24.949  1.00  0.00     0.023 C 
BRANCH  25  26
ATOM     26  C   UNL A   1      38.983  20.951  25.760  1.00  0.00     0.116 C 
BRANCH  26  27
ATOM     27  N   UNL A   1      39.835  19.771  25.716  1.00  0.00    -0.352 N 
ATOM     28  C   UNL A   1      41.177  19.689  26.018  1.00  0.00     0.251 C 
ATOM     29  H   UNL A   1      39.402  18.933  25.436  1.00  0.00     0.163 HD
ATOM     30  O   UNL A   1      41.807  18.659  25.846  1.00  0.00    -0.269 OA
BRANCH  28  31
ATOM     31  C   UNL A   1      41.844  20.903  26.527  1.00  0.00     0.039 A 
ATOM     32  C   UNL A   1      42.256  21.883  25.621  1.00  0.00     0.014 A 
ATOM     33  C   UNL A   1      41.960  21.103  27.904  1.00  0.00     0.014 A 
ATOM     34  C   UNL A   1      42.723  23.107  26.102  1.00  0.00     0.010 A 
ATOM     35  C   UNL A   1      42.363  22.343  28.379  1.00  0.00     0.010 A 
ATOM     36  C   UNL A   1      42.743  23.358  27.484  1.00  0.00    -0.014 A 
BRANCH  36  37
ATOM     37  C   UNL A   1      43.176  24.661  28.043  1.00  0.00     0.031 A 
ATOM     38  C   UNL A   1      42.137  25.697  28.362  1.00  0.00     0.074 A 
ATOM     39  C   UNL A   1      44.487  24.955  28.143  1.00  0.00     0.049 A 
ATOM     40  N   UNL A   1      42.290  26.965  28.638  1.00  0.00    -0.248 NA
ATOM     41  C   UNL A   1      40.735  25.252  28.322  1.00  0.00     0.031 C 
ATOM     42  C   UNL A   1      45.591  24.047  27.827  1.00  0.00     0.029 A 
ATOM     43  N   UNL A   1      45.111  26.121  28.511  1.00  0.00    -0.354 N 
ATOM     44  C   UNL A   1      41.006  27.480  28.754  1.00  0.00     0.074 A 
ATOM     45  C   UNL A   1      40.085  26.394  28.497  1.00  0.00     0.031 C 
ATOM     46  C   UNL A   1      46.756  24.690  28.015  1.00  0.00     0.029 A 
ATOM     47  C   UNL A   1      46.481  26.064  28.424  1.00  0.00     0.049 A 
ATOM     48  H   UNL A   1      44.624  26.922  28.810  1.00  0.00     0.167 HD
ATOM     49  C   UNL A   1      40.630  28.743  29.058  1.00  0.00     0.037 A 
ATOM     50  C   UNL A   1      47.407  27.021  28.629  1.00  0.00     0.037 A 
ATOM     51  C   UNL A   1      41.547  29.801  29.378  1.00  0.00     0.049 A 
ATOM     52  C   UNL A   1      46.961  28.402  29.021  1.00  0.00     0.074 A 
ATOM     53  C   UNL A   1      41.263  31.098  29.771  1.00  0.00     0.029 A 
ATOM     54  N   UNL A   1      42.927  29.678  29.360  1.00  0.00    -0.354 N 
ATOM     55  N   UNL A   1      45.745  28.867  29.165  1.00  0.00    -0.248 NA
ATOM     56  C   UNL A   1      48.016  29.394  29.279  1.00  0.00     0.031 C 
ATOM     57  C   UNL A   1      42.475  31.765  29.974  1.00  0.00     0.029 A 
ATOM     58  C   UNL A   1      43.510  30.874  29.736  1.00  0.00     0.049 A 
ATOM     59  H   UNL A   1      43.419  28.860  29.117  1.00  0.00     0.167 HD
ATOM     60  C   UNL A   1      45.887  30.190  29.563  1.00  0.00     0.074 A 
ATOM     61  C   UNL A   1      47.308  30.456  29.639  1.00  0.00     0.031 C 
ATOM     62  C   UNL A   1      44.926  31.103  29.840  1.00  0.00     0.037 A 
BRANCH  49  63
ATOM     63  C   UNL A   1      39.163  29.047  29.066  1.00  0.00     0.057 A 
ATOM     64  C   UNL A   1      38.490  29.463  27.911  1.00  0.00     0.134 A 
ATOM     65  C   UNL A   1      38.408  28.883  30.234  1.00  0.00     0.134 A 
ATOM     66  F   UNL A   1      39.161  29.654  26.765  1.00  0.00    -0.206 F 
ATOM     67  C   UNL A   1      37.119  29.721  27.921  1.00  0.00     0.040 A 
ATOM     68  C   UNL A   1      37.033  29.115  30.250  1.00  0.00     0.040 A 
ATOM     69  F   UNL A   1      38.993  28.485  31.374  1.00  0.00    -0.206 F 
ATOM     70  C   UNL A   1      36.385  29.539  29.091  1.00  0.00     0.006 A 
ENDBRANCH  49  63
BRANCH  50  71
ATOM     71  C   UNL A   1      48.851  26.710  28.478  1.00  0.00     0.057 A 
ATOM     72  C   UNL A   1      49.507  26.918  27.260  1.00  0.00     0.134 A 
ATOM     73  C   UNL A   1      49.600  26.179  29.534  1.00  0.00     0.134 A 
ATOM     74  F   UNL A   1      48.834  27.406  26.207  1.00  0.00    -0.206 F 
ATOM     75  C   UNL A   1      50.851  26.586  27.088  1.00  0.00     0.040 A 
ATOM     76  C   UNL A   1      50.951  25.862  29.381  1.00  0.00     0.040 A 
ATOM     77  F   UNL A   1      49.030  25.964  30.729  1.00  0.00    -0.206 F 
ATOM     78  C   UNL A   1      51.578  26.058  28.153  1.00  0.00     0.006 A 
ENDBRANCH  50  71
BRANCH  62  79
ATOM     79  C   UNL A   1      45.371  32.453  30.311  1.00  0.00     0.057 A 
ATOM     80  C   UNL A   1      45.608  32.720  31.664  1.00  0.00     0.134 A 
ATOM     81  C   UNL A   1      45.638  33.471  29.388  1.00  0.00     0.134 A 
ATOM     82  F   UNL A   1      45.361  31.786  32.595  1.00  0.00    -0.206 F 
ATOM     83  C   UNL A   1      46.089  33.960  32.084  1.00  0.00     0.040 A 
ATOM     84  C   UNL A   1      46.136  34.708  29.794  1.00  0.00     0.040 A 
ATOM     85  F   UNL A   1      45.438  33.271  28.077  1.00  0.00    -0.206 F 
ATOM     86  C   UNL A   1      46.362  34.956  31.146  1.00  0.00     0.006 A 
ENDBRANCH  62  79
ENDBRANCH  36  37
ENDBRANCH  28  31
ENDBRANCH  26  27
ENDBRANCH  25  26
ENDBRANCH  24  25
ENDBRANCH   1  24
TORSDOF 16
ENDMDL
MODEL 3
REMARK VINA RESULT:     -11.0      3.968      8.762
REMARK SMILES Cc1noc(C)c1[C@@H](C)NC(=O)N(CC(=O)NCCCCNC(=O)c1ccc(-c2c3nc(c(-c4c(F)cccc4F)c4ccc([nH]4)c(-c4c(F)cccc4F)c4nc(c(-c5c(F)cccc5F)c5ccc2[nH]5)C=C4)C=C3)cc1)C(C)C
REMARK SMILES IDX 18 1 17 2 15 3 16 4 14 6 13 7 11 8 10 9 12 11 8 12 9 13 7 14
REMARK SMILES IDX 1 15 2 16 3 17 4 18 5 19 6 20 79 21 80 22 81 23 19 24 20 25
REMARK SMILES IDX 21 26 22 27 23 28 24 30 25 31 26 32 78 33 27 34 77 35 28 36
REMARK SMILES IDX 29 37 30 38 71 39 31 40 76 41 70 42 72 43 32 44 75 45 69 46
REMARK SMILES IDX 68 47 33 49 59 50 42 51 58 52 43 53 46 54 57 55 73 56 44 57
REMARK SMILES IDX 45 58 56 60 74 61 47 62 34 63 35 64 40 65 36 66 37 67 39 68
REMARK SMILES IDX 41 69 38 70 60 71 61 72 66 73 62 74 63 75 65 76 67 77 64 78
REMARK SMILES IDX 48 79 49 80 54 81 50 82 51 83 53 84 55 85 52 86
REMARK H PARENT 17 5 10 10 22 29 72 48 46 59
REMARK Flexibility Score: inf
ROOT
ATOM      1  C   UNL A   1      31.638  29.999  25.097  1.00  0.00     0.116 C 
ENDROOT
BRANCH   1   2
ATOM      2  N   UNL A   1      32.918  29.660  24.521  1.00  0.00    -0.355 N 
ATOM      3  C   UNL A   1      33.200  28.866  23.447  1.00  0.00     0.239 C 
ATOM      4  O   UNL A   1      34.350  28.918  22.997  1.00  0.00    -0.273 OA
ATOM      5  H   UNL A   1      33.699  30.059  24.966  1.00  0.00     0.163 HD
BRANCH   3   6
ATOM      6  C   UNL A   1      32.116  28.058  22.711  1.00  0.00     0.221 C 
BRANCH   6   7
ATOM      7  N   UNL A   1      32.093  26.614  22.956  1.00  0.00    -0.313 N 
BRANCH   7   8
ATOM      8  C   UNL A   1      33.064  25.688  22.696  1.00  0.00     0.318 C 
ATOM      9  N   UNL A   1      33.893  25.136  23.595  1.00  0.00    -0.331 N 
ATOM     10  H   UNL A   1      34.469  24.482  23.138  1.00  0.00     0.165 HD
ATOM     11  O   UNL A   1      33.268  25.275  21.548  1.00  0.00    -0.249 OA
BRANCH   9  12
ATOM     12  C   UNL A   1      34.240  25.163  25.015  1.00  0.00     0.116 C 
ATOM     13  C   UNL A   1      35.524  24.363  25.270  1.00  0.00     0.036 C 
BRANCH  12  14
ATOM     14  C   UNL A   1      33.068  24.655  25.793  1.00  0.00     0.040 A 
ATOM     15  C   UNL A   1      32.014  26.812  26.880  1.00  0.00     0.071 C 
ATOM     16  C   UNL A   1      32.110  25.363  26.584  1.00  0.00     0.086 A 
ATOM     17  N   UNL A   1      31.186  24.538  27.089  1.00  0.00    -0.085 NA
ATOM     18  O   UNL A   1      31.528  23.276  26.661  1.00  0.00    -0.361 OA
ATOM     19  C   UNL A   1      32.644  23.342  25.894  1.00  0.00     0.139 A 
ATOM     20  C   UNL A   1      33.134  22.055  25.363  1.00  0.00     0.091 C 
ENDBRANCH  12  14
ENDBRANCH   9  12
ENDBRANCH   7   8
BRANCH   7  21
ATOM     21  C   UNL A   1      30.826  26.155  23.603  1.00  0.00     0.081 C 
ATOM     22  C   UNL A   1      29.664  27.137  23.460  1.00  0.00     0.031 C 
ATOM     23  C   UNL A   1      30.407  24.739  23.193  1.00  0.00     0.031 C 
ENDBRANCH   7  21
ENDBRANCH   6   7
ENDBRANCH   3   6
ENDBRANCH   1   2
BRANCH   1  24
ATOM     24  C   UNL A   1      31.721  30.548  26.516  1.00  0.00     0.023 C 
BRANCH  24  25
ATOM     25  C   UNL A   1      31.546  32.060  26.615  1.00  0.00     0.023 C 
BRANCH  25  26
ATOM     26  C   UNL A   1      32.702  32.773  27.301  1.00  0.00     0.116 C 
BRANCH  26  27
ATOM     27  N   UNL A   1      32.397  34.154  27.648  1.00  0.00    -0.352 N 
ATOM     28  C   UNL A   1      33.010  34.939  28.599  1.00  0.00     0.251 C 
ATOM     29  H   UNL A   1      31.664  34.576  27.144  1.00  0.00     0.163 HD
ATOM     30  O   UNL A   1      32.597  36.054  28.867  1.00  0.00    -0.269 OA
BRANCH  28  31
ATOM     31  C   UNL A   1      34.170  34.374  29.315  1.00  0.00     0.039 A 
ATOM     32  C   UNL A   1      33.960  33.666  30.499  1.00  0.00     0.014 A 
ATOM     33  C   UNL A   1      35.444  34.464  28.748  1.00  0.00     0.014 A 
ATOM     34  C   UNL A   1      35.025  32.979  31.085  1.00  0.00     0.010 A 
ATOM     35  C   UNL A   1      36.485  33.728  29.296  1.00  0.00     0.010 A 
ATOM     36  C   UNL A   1      36.285  32.975  30.465  1.00  0.00    -0.014 A 
BRANCH  36  37
ATOM     37  C   UNL A   1      37.432  32.216  31.017  1.00  0.00     0.031 A 
ATOM     38  C   UNL A   1      38.113  32.724  32.255  1.00  0.00     0.074 A 
ATOM     39  C   UNL A   1      37.933  31.160  30.347  1.00  0.00     0.049 A 
ATOM     40  N   UNL A   1      39.254  32.362  32.780  1.00  0.00    -0.248 NA
ATOM     41  C   UNL A   1      37.436  33.815  32.974  1.00  0.00     0.031 C 
ATOM     42  C   UNL A   1      37.384  30.595  29.113  1.00  0.00     0.029 A 
ATOM     43  N   UNL A   1      39.043  30.392  30.598  1.00  0.00    -0.354 N 
ATOM     44  C   UNL A   1      39.456  33.214  33.858  1.00  0.00     0.074 A 
ATOM     45  C   UNL A   1      38.332  34.123  33.900  1.00  0.00     0.031 C 
ATOM     46  C   UNL A   1      38.159  29.572  28.715  1.00  0.00     0.029 A 
ATOM     47  C   UNL A   1      39.279  29.435  29.641  1.00  0.00     0.049 A 
ATOM     48  H   UNL A   1      39.615  30.515  31.389  1.00  0.00     0.167 HD
ATOM     49  C   UNL A   1      40.482  33.227  34.739  1.00  0.00     0.037 A 
ATOM     50  C   UNL A   1      40.298  28.562  29.515  1.00  0.00     0.037 A 
ATOM     51  C   UNL A   1      41.562  32.280  34.732  1.00  0.00     0.049 A 
ATOM     52  C   UNL A   1      41.397  28.563  30.541  1.00  0.00     0.074 A 
ATOM     53  C   UNL A   1      42.612  32.164  35.626  1.00  0.00     0.029 A 
ATOM     54  N   UNL A   1      41.718  31.272  33.794  1.00  0.00    -0.354 N 
ATOM     55  N   UNL A   1      41.557  29.348  31.578  1.00  0.00    -0.248 NA
ATOM     56  C   UNL A   1      42.458  27.558  30.381  1.00  0.00     0.031 C 
ATOM     57  C   UNL A   1      43.414  31.094  35.217  1.00  0.00     0.029 A 
ATOM     58  C   UNL A   1      42.846  30.528  34.087  1.00  0.00     0.049 A 
ATOM     59  H   UNL A   1      41.114  31.109  33.033  1.00  0.00     0.167 HD
ATOM     60  C   UNL A   1      42.712  28.911  32.212  1.00  0.00     0.074 A 
ATOM     61  C   UNL A   1      43.215  27.791  31.445  1.00  0.00     0.031 C 
ATOM     62  C   UNL A   1      43.305  29.395  33.330  1.00  0.00     0.037 A 
BRANCH  49  63
ATOM     63  C   UNL A   1      40.483  34.297  35.787  1.00  0.00     0.057 A 
ATOM     64  C   UNL A   1      39.878  34.108  37.035  1.00  0.00     0.134 A 
ATOM     65  C   UNL A   1      41.133  35.517  35.559  1.00  0.00     0.134 A 
ATOM     66  F   UNL A   1      39.226  32.967  37.307  1.00  0.00    -0.206 F 
ATOM     67  C   UNL A   1      39.904  35.100  38.015  1.00  0.00     0.040 A 
ATOM     68  C   UNL A   1      41.186  36.508  36.539  1.00  0.00     0.040 A 
ATOM     69  F   UNL A   1      41.734  35.760  34.385  1.00  0.00    -0.206 F 
ATOM     70  C   UNL A   1      40.566  36.301  37.771  1.00  0.00     0.006 A 
ENDBRANCH  49  63
BRANCH  50  71
ATOM     71  C   UNL A   1      40.328  27.605  28.381  1.00  0.00     0.057 A 
ATOM     72  C   UNL A   1      39.673  26.372  28.464  1.00  0.00     0.134 A 
ATOM     73  C   UNL A   1      41.026  27.888  27.202  1.00  0.00     0.134 A 
ATOM     74  F   UNL A   1      39.004  26.038  29.578  1.00  0.00    -0.206 F 
ATOM     75  C   UNL A   1      39.731  25.441  27.427  1.00  0.00     0.040 A 
ATOM     76  C   UNL A   1      41.075  26.975  26.147  1.00  0.00     0.040 A 
ATOM     77  F   UNL A   1      41.668  29.057  27.058  1.00  0.00    -0.206 F 
ATOM     78  C   UNL A   1      40.434  25.744  26.261  1.00  0.00     0.006 A 
ENDBRANCH  50  71
BRANCH  62  79
ATOM     79  C   UNL A   1      44.523  28.683  33.829  1.00  0.00     0.057 A 
ATOM     80  C   UNL A   1      45.812  29.071  33.446  1.00  0.00     0.134 A 
ATOM     81  C   UNL A   1      44.404  27.645  34.761  1.00  0.00     0.134 A 
ATOM     82  F   UNL A   1      45.988  30.051  32.547  1.00  0.00    -0.206 F 
ATOM     83  C   UNL A   1      46.943  28.445  33.970  1.00  0.00     0.040 A 
ATOM     84  C   UNL A   1      45.528  27.025  35.306  1.00  0.00     0.040 A 
ATOM     85  F   UNL A   1      43.195  27.235  35.172  1.00  0.00    -0.206 F 
ATOM     86  C   UNL A   1      46.802  27.424  34.910  1.00  0.00     0.006 A 
ENDBRANCH  62  79
ENDBRANCH  36  37
ENDBRANCH  28  31
ENDBRANCH  26  27
ENDBRANCH  25  26
ENDBRANCH  24  25
ENDBRANCH   1  24
TORSDOF 16
ENDMDL
