MODEL 1
REMARK VINA RESULT:     -11.9      0.000      0.000
REMARK SMILES COC(=O)C[C@@H](NC(=O)c1ccccc1C(=O)NCCCCNC(=O)c1ccc(-c2c3nc(c(-c4c(F)cccc4F)c4ccc([nH]4)c(-c4c(F)cccc4F)c4nc(c(-c5c(F)cccc5F)c5ccc2[nH]5)C=C4)C=C3)cc1)c1cccc(C)c1C
REMARK SMILES IDX 19 1 18 2 16 3 17 4 15 6 10 7 11 8 12 9 14 10 13 11 8 12
REMARK SMILES IDX 7 13 9 15 6 16 5 17 3 18 4 19 2 20 1 21 80 22 81 23 86 24
REMARK SMILES IDX 82 25 84 26 87 27 83 28 85 29 20 30 21 31 22 32 23 33 24 34
REMARK SMILES IDX 25 36 26 37 27 38 79 39 28 40 78 41 29 42 30 43 31 44 72 45
REMARK SMILES IDX 32 46 77 47 71 48 73 49 33 50 76 51 70 52 69 53 34 55 60 56
REMARK SMILES IDX 43 57 59 58 44 59 47 60 58 61 74 62 45 63 46 64 57 66 75 67
REMARK SMILES IDX 48 68 35 69 36 70 41 71 37 72 38 73 40 74 42 75 39 76 61 77
REMARK SMILES IDX 62 78 67 79 63 80 64 81 66 82 68 83 65 84 49 85 50 86 55 87
REMARK SMILES IDX 51 88 52 89 54 90 56 91 53 92
REMARK H PARENT 18 5 7 14 23 35 73 54 47 65
REMARK Flexibility Score: inf
ROOT
ATOM      1  C   UNL A   1      36.283  23.236  25.902  1.00  0.00     0.116 C 
ENDROOT
BRANCH   1   2
ATOM      2  N   UNL A   1      35.358  22.346  26.556  1.00  0.00    -0.352 N 
ATOM      3  C   UNL A   1      34.114  21.841  26.345  1.00  0.00     0.252 C 
ATOM      4  O   UNL A   1      33.813  20.927  27.125  1.00  0.00    -0.269 OA
ATOM      5  H   UNL A   1      35.737  22.003  27.399  1.00  0.00     0.163 HD
BRANCH   3   6
ATOM      6  C   UNL A   1      33.072  22.298  25.384  1.00  0.00     0.052 A 
ATOM      7  C   UNL A   1      31.955  23.111  25.564  1.00  0.00     0.052 A 
ATOM      8  C   UNL A   1      31.072  23.359  24.474  1.00  0.00     0.014 A 
ATOM      9  C   UNL A   1      31.328  22.884  23.192  1.00  0.00     0.001 A 
ATOM     10  C   UNL A   1      33.300  21.824  24.061  1.00  0.00     0.014 A 
ATOM     11  C   UNL A   1      32.458  22.120  22.983  1.00  0.00     0.001 A 
BRANCH   7  12
ATOM     12  C   UNL A   1      31.501  23.812  26.764  1.00  0.00     0.252 C 
ATOM     13  N   UNL A   1      31.189  25.147  26.793  1.00  0.00    -0.345 N 
ATOM     14  H   UNL A   1      30.327  25.322  27.236  1.00  0.00     0.164 HD
ATOM     15  O   UNL A   1      31.165  23.123  27.728  1.00  0.00    -0.269 OA
BRANCH  13  16
ATOM     16  C   UNL A   1      31.849  26.401  26.312  1.00  0.00     0.124 C 
BRANCH  16  17
ATOM     17  C   UNL A   1      31.361  27.518  27.258  1.00  0.00     0.152 C 
BRANCH  17  18
ATOM     18  C   UNL A   1      32.380  28.631  27.295  1.00  0.00     0.307 C 
ATOM     19  O   UNL A   1      33.591  28.458  27.359  1.00  0.00    -0.252 OA
BRANCH  18  20
ATOM     20  O   UNL A   1      31.754  29.839  27.264  1.00  0.00    -0.469 OA
ATOM     21  C   UNL A   1      31.768  30.515  26.001  1.00  0.00     0.282 C 
ENDBRANCH  18  20
ENDBRANCH  17  18
ENDBRANCH  16  17
BRANCH  16  22
ATOM     22  C   UNL A   1      31.678  26.767  24.830  1.00  0.00    -0.022 A 
ATOM     23  C   UNL A   1      30.502  27.399  24.403  1.00  0.00     0.006 A 
ATOM     24  C   UNL A   1      32.631  26.415  23.822  1.00  0.00    -0.043 A 
ATOM     25  C   UNL A   1      30.162  27.508  23.058  1.00  0.00     0.001 A 
ATOM     26  C   UNL A   1      32.356  26.713  22.458  1.00  0.00    -0.048 A 
ATOM     27  C   UNL A   1      33.964  25.781  24.149  1.00  0.00     0.045 C 
ATOM     28  C   UNL A   1      31.083  27.158  22.089  1.00  0.00     0.004 A 
ATOM     29  C   UNL A   1      33.368  26.557  21.352  1.00  0.00     0.044 C 
ENDBRANCH  16  22
ENDBRANCH  13  16
ENDBRANCH   7  12
ENDBRANCH   3   6
ENDBRANCH   1   2
BRANCH   1  30
ATOM     30  C   UNL A   1      36.808  22.738  24.562  1.00  0.00     0.023 C 
BRANCH  30  31
ATOM     31  C   UNL A   1      37.454  21.354  24.674  1.00  0.00     0.023 C 
BRANCH  31  32
ATOM     32  C   UNL A   1      38.597  21.239  25.680  1.00  0.00     0.116 C 
BRANCH  32  33
ATOM     33  N   UNL A   1      39.387  20.027  25.557  1.00  0.00    -0.352 N 
ATOM     34  C   UNL A   1      40.696  19.841  25.953  1.00  0.00     0.251 C 
ATOM     35  H   UNL A   1      38.939  19.253  25.145  1.00  0.00     0.163 HD
ATOM     36  O   UNL A   1      41.268  18.778  25.786  1.00  0.00    -0.269 OA
BRANCH  34  37
ATOM     37  C   UNL A   1      41.418  20.982  26.567  1.00  0.00     0.039 A 
ATOM     38  C   UNL A   1      42.067  21.887  25.724  1.00  0.00     0.014 A 
ATOM     39  C   UNL A   1      41.374  21.200  27.948  1.00  0.00     0.014 A 
ATOM     40  C   UNL A   1      42.588  23.066  26.258  1.00  0.00     0.010 A 
ATOM     41  C   UNL A   1      41.846  22.400  28.469  1.00  0.00     0.010 A 
ATOM     42  C   UNL A   1      42.433  23.353  27.624  1.00  0.00    -0.014 A 
BRANCH  42  43
ATOM     43  C   UNL A   1      42.795  24.679  28.174  1.00  0.00     0.031 A 
ATOM     44  C   UNL A   1      41.743  25.723  28.398  1.00  0.00     0.074 A 
ATOM     45  C   UNL A   1      44.098  24.965  28.364  1.00  0.00     0.049 A 
ATOM     46  N   UNL A   1      41.879  26.950  28.830  1.00  0.00    -0.248 NA
ATOM     47  C   UNL A   1      40.358  25.352  28.067  1.00  0.00     0.031 C 
ATOM     48  C   UNL A   1      45.212  24.052  28.088  1.00  0.00     0.029 A 
ATOM     49  N   UNL A   1      44.713  26.107  28.809  1.00  0.00    -0.354 N 
ATOM     50  C   UNL A   1      40.604  27.500  28.815  1.00  0.00     0.074 A 
ATOM     51  C   UNL A   1      39.713  26.489  28.289  1.00  0.00     0.031 C 
ATOM     52  C   UNL A   1      46.370  24.669  28.375  1.00  0.00     0.029 A 
ATOM     53  C   UNL A   1      46.083  26.024  28.831  1.00  0.00     0.049 A 
ATOM     54  H   UNL A   1      44.217  26.912  29.086  1.00  0.00     0.167 HD
ATOM     55  C   UNL A   1      40.217  28.732  29.218  1.00  0.00     0.037 A 
ATOM     56  C   UNL A   1      47.007  26.942  29.175  1.00  0.00     0.037 A 
ATOM     57  C   UNL A   1      41.116  29.721  29.755  1.00  0.00     0.049 A 
ATOM     58  C   UNL A   1      46.543  28.290  29.652  1.00  0.00     0.074 A 
ATOM     59  C   UNL A   1      40.813  30.962  30.286  1.00  0.00     0.029 A 
ATOM     60  N   UNL A   1      42.495  29.583  29.818  1.00  0.00    -0.354 N 
ATOM     61  N   UNL A   1      45.321  28.753  29.753  1.00  0.00    -0.248 NA
ATOM     62  C   UNL A   1      47.582  29.237  30.078  1.00  0.00     0.031 C 
ATOM     63  C   UNL A   1      42.013  31.597  30.623  1.00  0.00     0.029 A 
ATOM     64  C   UNL A   1      43.060  30.730  30.350  1.00  0.00     0.049 A 
ATOM     65  H   UNL A   1      42.996  28.788  29.526  1.00  0.00     0.167 HD
ATOM     66  C   UNL A   1      45.441  30.033  30.278  1.00  0.00     0.074 A 
ATOM     67  C   UNL A   1      46.855  30.265  30.491  1.00  0.00     0.031 C 
ATOM     68  C   UNL A   1      44.470  30.935  30.559  1.00  0.00     0.037 A 
BRANCH  55  69
ATOM     69  C   UNL A   1      38.763  29.085  29.104  1.00  0.00     0.057 A 
ATOM     70  C   UNL A   1      37.896  29.012  30.202  1.00  0.00     0.134 A 
ATOM     71  C   UNL A   1      38.237  29.565  27.897  1.00  0.00     0.134 A 
ATOM     72  F   UNL A   1      38.333  28.554  31.385  1.00  0.00    -0.206 F 
ATOM     73  C   UNL A   1      36.555  29.390  30.101  1.00  0.00     0.040 A 
ATOM     74  C   UNL A   1      36.904  29.967  27.790  1.00  0.00     0.040 A 
ATOM     75  F   UNL A   1      39.012  29.664  26.808  1.00  0.00    -0.206 F 
ATOM     76  C   UNL A   1      36.058  29.878  28.894  1.00  0.00     0.006 A 
ENDBRANCH  55  69
BRANCH  56  77
ATOM     77  C   UNL A   1      48.453  26.613  29.102  1.00  0.00     0.057 A 
ATOM     78  C   UNL A   1      49.191  26.840  27.933  1.00  0.00     0.134 A 
ATOM     79  C   UNL A   1      49.131  26.053  30.192  1.00  0.00     0.134 A 
ATOM     80  F   UNL A   1      48.594  27.360  26.850  1.00  0.00    -0.206 F 
ATOM     81  C   UNL A   1      50.540  26.496  27.840  1.00  0.00     0.040 A 
ATOM     82  C   UNL A   1      50.487  25.729  30.122  1.00  0.00     0.040 A 
ATOM     83  F   UNL A   1      48.486  25.822  31.345  1.00  0.00    -0.206 F 
ATOM     84  C   UNL A   1      51.193  25.942  28.940  1.00  0.00     0.006 A 
ENDBRANCH  56  77
BRANCH  68  85
ATOM     85  C   UNL A   1      44.904  32.241  31.154  1.00  0.00     0.057 A 
ATOM     86  C   UNL A   1      45.197  33.356  30.358  1.00  0.00     0.134 A 
ATOM     87  C   UNL A   1      44.993  32.395  32.544  1.00  0.00     0.134 A 
ATOM     88  F   UNL A   1      45.143  33.269  29.021  1.00  0.00    -0.206 F 
ATOM     89  C   UNL A   1      45.584  34.572  30.923  1.00  0.00     0.040 A 
ATOM     90  C   UNL A   1      45.351  33.614  33.120  1.00  0.00     0.040 A 
ATOM     91  F   UNL A   1      44.716  31.370  33.363  1.00  0.00    -0.206 F 
ATOM     92  C   UNL A   1      45.655  34.705  32.308  1.00  0.00     0.006 A 
ENDBRANCH  68  85
ENDBRANCH  42  43
ENDBRANCH  34  37
ENDBRANCH  32  33
ENDBRANCH  31  32
ENDBRANCH  30  31
ENDBRANCH   1  30
TORSDOF 17
ENDMDL
MODEL 2
REMARK VINA RESULT:     -11.9      0.409      5.963
REMARK SMILES COC(=O)C[C@@H](NC(=O)c1ccccc1C(=O)NCCCCNC(=O)c1ccc(-c2c3nc(c(-c4c(F)cccc4F)c4ccc([nH]4)c(-c4c(F)cccc4F)c4nc(c(-c5c(F)cccc5F)c5ccc2[nH]5)C=C4)C=C3)cc1)c1cccc(C)c1C
REMARK SMILES IDX 19 1 18 2 16 3 17 4 15 6 10 7 11 8 12 9 14 10 13 11 8 12
REMARK SMILES IDX 7 13 9 15 6 16 5 17 3 18 4 19 2 20 1 21 80 22 81 23 86 24
REMARK SMILES IDX 82 25 84 26 87 27 83 28 85 29 20 30 21 31 22 32 23 33 24 34
REMARK SMILES IDX 25 36 26 37 27 38 79 39 28 40 78 41 29 42 30 43 31 44 72 45
REMARK SMILES IDX 32 46 77 47 71 48 73 49 33 50 76 51 70 52 69 53 34 55 60 56
REMARK SMILES IDX 43 57 59 58 44 59 47 60 58 61 74 62 45 63 46 64 57 66 75 67
REMARK SMILES IDX 48 68 35 69 36 70 41 71 37 72 38 73 40 74 42 75 39 76 61 77
REMARK SMILES IDX 62 78 67 79 63 80 64 81 66 82 68 83 65 84 49 85 50 86 55 87
REMARK SMILES IDX 51 88 52 89 54 90 56 91 53 92
REMARK H PARENT 18 5 7 14 23 35 73 54 47 65
REMARK Flexibility Score: inf
ROOT
ATOM      1  C   UNL A   1      36.413  23.117  25.712  1.00  0.00     0.116 C 
ENDROOT
BRANCH   1   2
ATOM      2  N   UNL A   1      35.474  22.370  26.509  1.00  0.00    -0.352 N 
ATOM      3  C   UNL A   1      34.199  21.909  26.409  1.00  0.00     0.252 C 
ATOM      4  O   UNL A   1      33.887  21.121  27.313  1.00  0.00    -0.269 OA
ATOM      5  H   UNL A   1      35.870  22.120  27.376  1.00  0.00     0.163 HD
BRANCH   3   6
ATOM      6  C   UNL A   1      33.142  22.292  25.433  1.00  0.00     0.052 A 
ATOM      7  C   UNL A   1      31.980  23.043  25.591  1.00  0.00     0.052 A 
ATOM      8  C   UNL A   1      31.095  23.226  24.490  1.00  0.00     0.014 A 
ATOM      9  C   UNL A   1      31.388  22.746  23.218  1.00  0.00     0.001 A 
ATOM     10  C   UNL A   1      33.408  21.811  24.119  1.00  0.00     0.014 A 
ATOM     11  C   UNL A   1      32.561  22.043  23.030  1.00  0.00     0.001 A 
BRANCH   7  12
ATOM     12  C   UNL A   1      31.477  23.736  26.775  1.00  0.00     0.252 C 
ATOM     13  N   UNL A   1      31.161  25.071  26.800  1.00  0.00    -0.345 N 
ATOM     14  H   UNL A   1      30.282  25.241  27.209  1.00  0.00     0.164 HD
ATOM     15  O   UNL A   1      31.103  23.041  27.721  1.00  0.00    -0.269 OA
BRANCH  13  16
ATOM     16  C   UNL A   1      31.837  26.329  26.354  1.00  0.00     0.124 C 
BRANCH  16  17
ATOM     17  C   UNL A   1      31.350  27.429  27.319  1.00  0.00     0.152 C 
BRANCH  17  18
ATOM     18  C   UNL A   1      32.333  28.576  27.317  1.00  0.00     0.307 C 
ATOM     19  O   UNL A   1      33.549  28.444  27.355  1.00  0.00    -0.252 OA
BRANCH  18  20
ATOM     20  O   UNL A   1      31.665  29.762  27.283  1.00  0.00    -0.469 OA
ATOM     21  C   UNL A   1      31.917  30.585  26.139  1.00  0.00     0.282 C 
ENDBRANCH  18  20
ENDBRANCH  17  18
ENDBRANCH  16  17
BRANCH  16  22
ATOM     22  C   UNL A   1      31.684  26.729  24.879  1.00  0.00    -0.022 A 
ATOM     23  C   UNL A   1      30.520  27.385  24.455  1.00  0.00     0.006 A 
ATOM     24  C   UNL A   1      32.642  26.388  23.872  1.00  0.00    -0.043 A 
ATOM     25  C   UNL A   1      30.193  27.528  23.111  1.00  0.00     0.001 A 
ATOM     26  C   UNL A   1      32.383  26.719  22.512  1.00  0.00    -0.048 A 
ATOM     27  C   UNL A   1      33.964  25.730  24.196  1.00  0.00     0.045 C 
ATOM     28  C   UNL A   1      31.118  27.188  22.142  1.00  0.00     0.004 A 
ATOM     29  C   UNL A   1      33.402  26.575  21.411  1.00  0.00     0.044 C 
ENDBRANCH  16  22
ENDBRANCH  13  16
ENDBRANCH   7  12
ENDBRANCH   3   6
ENDBRANCH   1   2
BRANCH   1  30
ATOM     30  C   UNL A   1      36.997  22.353  24.531  1.00  0.00     0.023 C 
BRANCH  30  31
ATOM     31  C   UNL A   1      37.589  21.005  24.952  1.00  0.00     0.023 C 
BRANCH  31  32
ATOM     32  C   UNL A   1      38.863  21.077  25.790  1.00  0.00     0.116 C 
BRANCH  32  33
ATOM     33  N   UNL A   1      39.725  19.915  25.675  1.00  0.00    -0.352 N 
ATOM     34  C   UNL A   1      41.055  19.825  26.034  1.00  0.00     0.251 C 
ATOM     35  H   UNL A   1      39.317  19.102  25.298  1.00  0.00     0.163 HD
ATOM     36  O   UNL A   1      41.689  18.796  25.878  1.00  0.00    -0.269 OA
BRANCH  34  37
ATOM     37  C   UNL A   1      41.721  21.026  26.593  1.00  0.00     0.039 A 
ATOM     38  C   UNL A   1      42.309  21.931  25.708  1.00  0.00     0.014 A 
ATOM     39  C   UNL A   1      41.680  21.297  27.965  1.00  0.00     0.014 A 
ATOM     40  C   UNL A   1      42.771  23.157  26.188  1.00  0.00     0.010 A 
ATOM     41  C   UNL A   1      42.090  22.540  28.433  1.00  0.00     0.010 A 
ATOM     42  C   UNL A   1      42.614  23.489  27.544  1.00  0.00    -0.014 A 
BRANCH  42  43
ATOM     43  C   UNL A   1      42.910  24.854  28.037  1.00  0.00     0.031 A 
ATOM     44  C   UNL A   1      44.299  25.226  28.461  1.00  0.00     0.074 A 
ATOM     45  C   UNL A   1      41.888  25.717  28.198  1.00  0.00     0.049 A 
ATOM     46  N   UNL A   1      44.733  26.355  28.956  1.00  0.00    -0.248 NA
ATOM     47  C   UNL A   1      45.331  24.184  28.342  1.00  0.00     0.031 C 
ATOM     48  C   UNL A   1      40.481  25.425  27.905  1.00  0.00     0.029 A 
ATOM     49  N   UNL A   1      41.864  27.004  28.672  1.00  0.00    -0.354 N 
ATOM     50  C   UNL A   1      46.084  26.160  29.216  1.00  0.00     0.074 A 
ATOM     51  C   UNL A   1      46.388  24.789  28.865  1.00  0.00     0.031 C 
ATOM     52  C   UNL A   1      39.736  26.502  28.199  1.00  0.00     0.029 A 
ATOM     53  C   UNL A   1      40.604  27.550  28.722  1.00  0.00     0.049 A 
ATOM     54  H   UNL A   1      42.674  27.491  28.949  1.00  0.00     0.167 HD
ATOM     55  C   UNL A   1      46.985  27.051  29.689  1.00  0.00     0.037 A 
ATOM     56  C   UNL A   1      40.195  28.759  29.151  1.00  0.00     0.037 A 
ATOM     57  C   UNL A   1      46.668  28.417  30.017  1.00  0.00     0.049 A 
ATOM     58  C   UNL A   1      41.226  29.740  29.638  1.00  0.00     0.074 A 
ATOM     59  C   UNL A   1      47.525  29.430  30.408  1.00  0.00     0.029 A 
ATOM     60  N   UNL A   1      45.390  28.956  30.003  1.00  0.00    -0.354 N 
ATOM     61  N   UNL A   1      42.522  29.582  29.758  1.00  0.00    -0.248 NA
ATOM     62  C   UNL A   1      40.743  31.069  30.034  1.00  0.00     0.031 C 
ATOM     63  C   UNL A   1      46.759  30.568  30.681  1.00  0.00     0.029 A 
ATOM     64  C   UNL A   1      45.432  30.279  30.408  1.00  0.00     0.049 A 
ATOM     65  H   UNL A   1      44.575  28.469  29.743  1.00  0.00     0.167 HD
ATOM     66  C   UNL A   1      43.012  30.798  30.217  1.00  0.00     0.074 A 
ATOM     67  C   UNL A   1      41.875  31.688  30.336  1.00  0.00     0.031 C 
ATOM     68  C   UNL A   1      44.287  31.148  30.513  1.00  0.00     0.037 A 
BRANCH  55  69
ATOM     69  C   UNL A   1      48.400  26.588  29.877  1.00  0.00     0.057 A 
ATOM     70  C   UNL A   1      48.826  25.976  31.063  1.00  0.00     0.134 A 
ATOM     71  C   UNL A   1      49.332  26.698  28.836  1.00  0.00     0.134 A 
ATOM     72  F   UNL A   1      47.988  25.847  32.102  1.00  0.00    -0.206 F 
ATOM     73  C   UNL A   1      50.133  25.503  31.212  1.00  0.00     0.040 A 
ATOM     74  C   UNL A   1      50.632  26.207  28.965  1.00  0.00     0.040 A 
ATOM     75  F   UNL A   1      48.988  27.269  27.673  1.00  0.00    -0.206 F 
ATOM     76  C   UNL A   1      51.037  25.610  30.158  1.00  0.00     0.006 A 
ENDBRANCH  55  69
BRANCH  56  77
ATOM     77  C   UNL A   1      38.755  29.118  29.118  1.00  0.00     0.057 A 
ATOM     78  C   UNL A   1      38.150  29.587  27.945  1.00  0.00     0.134 A 
ATOM     79  C   UNL A   1      37.950  29.014  30.259  1.00  0.00     0.134 A 
ATOM     80  F   UNL A   1      38.873  29.723  26.823  1.00  0.00    -0.206 F 
ATOM     81  C   UNL A   1      36.807  29.966  27.914  1.00  0.00     0.040 A 
ATOM     82  C   UNL A   1      36.599  29.364  30.236  1.00  0.00     0.040 A 
ATOM     83  F   UNL A   1      38.464  28.560  31.412  1.00  0.00    -0.206 F 
ATOM     84  C   UNL A   1      36.027  29.851  29.062  1.00  0.00     0.006 A 
ENDBRANCH  56  77
BRANCH  68  85
ATOM     85  C   UNL A   1      44.521  32.558  30.965  1.00  0.00     0.057 A 
ATOM     86  C   UNL A   1      44.554  32.904  32.322  1.00  0.00     0.134 A 
ATOM     87  C   UNL A   1      44.752  33.575  30.030  1.00  0.00     0.134 A 
ATOM     88  F   UNL A   1      44.326  31.979  33.265  1.00  0.00    -0.206 F 
ATOM     89  C   UNL A   1      44.788  34.218  32.732  1.00  0.00     0.040 A 
ATOM     90  C   UNL A   1      45.016  34.886  30.429  1.00  0.00     0.040 A 
ATOM     91  F   UNL A   1      44.744  33.308  28.715  1.00  0.00    -0.206 F 
ATOM     92  C   UNL A   1      45.027  35.211  31.784  1.00  0.00     0.006 A 
ENDBRANCH  68  85
ENDBRANCH  42  43
ENDBRANCH  34  37
ENDBRANCH  32  33
ENDBRANCH  31  32
ENDBRANCH  30  31
ENDBRANCH   1  30
TORSDOF 17
ENDMDL
MODEL 3
REMARK VINA RESULT:     -11.8      1.227      3.086
REMARK SMILES COC(=O)C[C@@H](NC(=O)c1ccccc1C(=O)NCCCCNC(=O)c1ccc(-c2c3nc(c(-c4c(F)cccc4F)c4ccc([nH]4)c(-c4c(F)cccc4F)c4nc(c(-c5c(F)cccc5F)c5ccc2[nH]5)C=C4)C=C3)cc1)c1cccc(C)c1C
REMARK SMILES IDX 19 1 18 2 16 3 17 4 15 6 10 7 11 8 12 9 14 10 13 11 8 12
REMARK SMILES IDX 7 13 9 15 6 16 5 17 3 18 4 19 2 20 1 21 80 22 81 23 86 24
REMARK SMILES IDX 82 25 84 26 87 27 83 28 85 29 20 30 21 31 22 32 23 33 24 34
REMARK SMILES IDX 25 36 26 37 27 38 79 39 28 40 78 41 29 42 30 43 31 44 72 45
REMARK SMILES IDX 32 46 77 47 71 48 73 49 33 50 76 51 70 52 69 53 34 55 60 56
REMARK SMILES IDX 43 57 59 58 44 59 47 60 58 61 74 62 45 63 46 64 57 66 75 67
REMARK SMILES IDX 48 68 35 69 36 70 41 71 37 72 38 73 40 74 42 75 39 76 61 77
REMARK SMILES IDX 62 78 67 79 63 80 64 81 66 82 68 83 65 84 49 85 50 86 55 87
REMARK SMILES IDX 51 88 52 89 54 90 56 91 53 92
REMARK H PARENT 18 5 7 14 23 35 73 54 47 65
REMARK Flexibility Score: inf
ROOT
ATOM      1  C   UNL A   1      35.158  22.910  26.430  1.00  0.00     0.116 C 
ENDROOT
BRANCH   1   2
ATOM      2  N   UNL A   1      35.063  23.734  25.253  1.00  0.00    -0.352 N 
ATOM      3  C   UNL A   1      34.550  24.942  24.898  1.00  0.00     0.252 C 
ATOM      4  O   UNL A   1      34.902  25.316  23.771  1.00  0.00    -0.269 OA
ATOM      5  H   UNL A   1      35.493  23.296  24.482  1.00  0.00     0.163 HD
BRANCH   3   6
ATOM      6  C   UNL A   1      33.577  25.796  25.635  1.00  0.00     0.052 A 
ATOM      7  C   UNL A   1      32.338  25.497  26.196  1.00  0.00     0.052 A 
ATOM      8  C   UNL A   1      31.570  26.525  26.814  1.00  0.00     0.014 A 
ATOM      9  C   UNL A   1      32.050  27.822  26.957  1.00  0.00     0.001 A 
ATOM     10  C   UNL A   1      34.035  27.135  25.794  1.00  0.00     0.014 A 
ATOM     11  C   UNL A   1      33.299  28.126  26.453  1.00  0.00     0.001 A 
BRANCH   7  12
ATOM     12  C   UNL A   1      31.641  24.215  26.276  1.00  0.00     0.252 C 
ATOM     13  N   UNL A   1      31.328  23.449  25.182  1.00  0.00    -0.345 N 
ATOM     14  H   UNL A   1      31.580  22.504  25.300  1.00  0.00     0.164 HD
ATOM     15  O   UNL A   1      31.540  23.694  27.388  1.00  0.00    -0.269 OA
BRANCH  13  16
ATOM     16  C   UNL A   1      30.693  23.710  23.852  1.00  0.00     0.124 C 
BRANCH  16  17
ATOM     17  C   UNL A   1      31.203  22.591  22.920  1.00  0.00     0.152 C 
BRANCH  17  18
ATOM     18  C   UNL A   1      32.381  21.897  23.560  1.00  0.00     0.307 C 
ATOM     19  O   UNL A   1      33.549  22.222  23.393  1.00  0.00    -0.252 OA
BRANCH  18  20
ATOM     20  O   UNL A   1      31.950  20.859  24.328  1.00  0.00    -0.469 OA
ATOM     21  C   UNL A   1      32.823  19.725  24.388  1.00  0.00     0.282 C 
ENDBRANCH  18  20
ENDBRANCH  17  18
ENDBRANCH  16  17
BRANCH  16  22
ATOM     22  C   UNL A   1      30.871  25.110  23.245  1.00  0.00    -0.022 A 
ATOM     23  C   UNL A   1      31.951  25.362  22.388  1.00  0.00     0.006 A 
ATOM     24  C   UNL A   1      30.032  26.220  23.579  1.00  0.00    -0.043 A 
ATOM     25  C   UNL A   1      32.330  26.650  22.026  1.00  0.00     0.001 A 
ATOM     26  C   UNL A   1      30.318  27.505  23.040  1.00  0.00    -0.048 A 
ATOM     27  C   UNL A   1      28.802  26.078  24.447  1.00  0.00     0.045 C 
ATOM     28  C   UNL A   1      31.521  27.720  22.359  1.00  0.00     0.004 A 
ATOM     29  C   UNL A   1      29.395  28.689  23.176  1.00  0.00     0.044 C 
ENDBRANCH  16  22
ENDBRANCH  13  16
ENDBRANCH   7  12
ENDBRANCH   3   6
ENDBRANCH   1   2
BRANCH   1  30
ATOM     30  C   UNL A   1      35.586  21.472  26.169  1.00  0.00     0.023 C 
BRANCH  30  31
ATOM     31  C   UNL A   1      36.633  21.375  25.056  1.00  0.00     0.023 C 
BRANCH  31  32
ATOM     32  C   UNL A   1      38.089  21.451  25.510  1.00  0.00     0.116 C 
BRANCH  32  33
ATOM     33  N   UNL A   1      38.817  20.200  25.405  1.00  0.00    -0.352 N 
ATOM     34  C   UNL A   1      40.103  19.945  25.840  1.00  0.00     0.251 C 
ATOM     35  H   UNL A   1      38.343  19.451  24.977  1.00  0.00     0.163 HD
ATOM     36  O   UNL A   1      40.623  18.854  25.686  1.00  0.00    -0.269 OA
BRANCH  34  37
ATOM     37  C   UNL A   1      40.865  21.045  26.479  1.00  0.00     0.039 A 
ATOM     38  C   UNL A   1      41.565  21.932  25.658  1.00  0.00     0.014 A 
ATOM     39  C   UNL A   1      40.809  21.248  27.862  1.00  0.00     0.014 A 
ATOM     40  C   UNL A   1      42.130  23.080  26.215  1.00  0.00     0.010 A 
ATOM     41  C   UNL A   1      41.325  22.420  28.405  1.00  0.00     0.010 A 
ATOM     42  C   UNL A   1      41.966  23.356  27.582  1.00  0.00    -0.014 A 
BRANCH  42  43
ATOM     43  C   UNL A   1      42.378  24.658  28.154  1.00  0.00     0.031 A 
ATOM     44  C   UNL A   1      41.369  25.746  28.374  1.00  0.00     0.074 A 
ATOM     45  C   UNL A   1      43.688  24.883  28.370  1.00  0.00     0.049 A 
ATOM     46  N   UNL A   1      41.553  26.960  28.824  1.00  0.00    -0.248 NA
ATOM     47  C   UNL A   1      39.975  25.441  28.015  1.00  0.00     0.031 C 
ATOM     48  C   UNL A   1      44.765  23.924  28.101  1.00  0.00     0.029 A 
ATOM     49  N   UNL A   1      44.346  25.992  28.839  1.00  0.00    -0.354 N 
ATOM     50  C   UNL A   1      40.304  27.567  28.794  1.00  0.00     0.074 A 
ATOM     51  C   UNL A   1      39.378  26.603  28.240  1.00  0.00     0.031 C 
ATOM     52  C   UNL A   1      45.944  24.485  28.416  1.00  0.00     0.029 A 
ATOM     53  C   UNL A   1      45.711  25.846  28.883  1.00  0.00     0.049 A 
ATOM     54  H   UNL A   1      43.882  26.814  29.118  1.00  0.00     0.167 HD
ATOM     55  C   UNL A   1      39.965  28.811  29.206  1.00  0.00     0.037 A 
ATOM     56  C   UNL A   1      46.668  26.718  29.254  1.00  0.00     0.037 A 
ATOM     57  C   UNL A   1      40.898  29.751  29.771  1.00  0.00     0.049 A 
ATOM     58  C   UNL A   1      46.257  28.080  29.741  1.00  0.00     0.074 A 
ATOM     59  C   UNL A   1      40.642  30.999  30.312  1.00  0.00     0.029 A 
ATOM     60  N   UNL A   1      42.268  29.551  29.854  1.00  0.00    -0.354 N 
ATOM     61  N   UNL A   1      45.055  28.596  29.827  1.00  0.00    -0.248 NA
ATOM     62  C   UNL A   1      47.329  28.974  30.196  1.00  0.00     0.031 C 
ATOM     63  C   UNL A   1      41.863  31.575  30.676  1.00  0.00     0.029 A 
ATOM     64  C   UNL A   1      42.874  30.665  30.410  1.00  0.00     0.049 A 
ATOM     65  H   UNL A   1      42.739  28.738  29.561  1.00  0.00     0.167 HD
ATOM     66  C   UNL A   1      45.223  29.863  30.370  1.00  0.00     0.074 A 
ATOM     67  C   UNL A   1      46.642  30.029  30.610  1.00  0.00     0.031 C 
ATOM     68  C   UNL A   1      44.288  30.805  30.646  1.00  0.00     0.037 A 
BRANCH  55  69
ATOM     69  C   UNL A   1      38.531  29.230  29.072  1.00  0.00     0.057 A 
ATOM     70  C   UNL A   1      37.656  29.231  30.166  1.00  0.00     0.134 A 
ATOM     71  C   UNL A   1      38.035  29.699  27.848  1.00  0.00     0.134 A 
ATOM     72  F   UNL A   1      38.063  28.786  31.364  1.00  0.00    -0.206 F 
ATOM     73  C   UNL A   1      36.335  29.669  30.044  1.00  0.00     0.040 A 
ATOM     74  C   UNL A   1      36.724  30.162  27.720  1.00  0.00     0.040 A 
ATOM     75  F   UNL A   1      38.820  29.729  26.762  1.00  0.00    -0.206 F 
ATOM     76  C   UNL A   1      35.869  30.145  28.821  1.00  0.00     0.006 A 
ENDBRANCH  55  69
BRANCH  56  77
ATOM     77  C   UNL A   1      48.099  26.325  29.202  1.00  0.00     0.057 A 
ATOM     78  C   UNL A   1      48.736  25.756  30.312  1.00  0.00     0.134 A 
ATOM     79  C   UNL A   1      48.869  26.521  28.049  1.00  0.00     0.134 A 
ATOM     80  F   UNL A   1      48.056  25.556  31.450  1.00  0.00    -0.206 F 
ATOM     81  C   UNL A   1      50.091  25.421  30.287  1.00  0.00     0.040 A 
ATOM     82  C   UNL A   1      50.218  26.167  28.000  1.00  0.00     0.040 A 
ATOM     83  F   UNL A   1      48.317  27.051  26.947  1.00  0.00    -0.206 F 
ATOM     84  C   UNL A   1      50.835  25.624  29.126  1.00  0.00     0.006 A 
ENDBRANCH  56  77
BRANCH  68  85
ATOM     85  C   UNL A   1      44.770  32.083  31.264  1.00  0.00     0.057 A 
ATOM     86  C   UNL A   1      44.882  32.238  32.652  1.00  0.00     0.134 A 
ATOM     87  C   UNL A   1      45.161  33.160  30.458  1.00  0.00     0.134 A 
ATOM     88  F   UNL A   1      44.510  31.249  33.479  1.00  0.00    -0.206 F 
ATOM     89  C   UNL A   1      45.346  33.427  33.217  1.00  0.00     0.040 A 
ATOM     90  C   UNL A   1      45.653  34.342  31.010  1.00  0.00     0.040 A 
ATOM     91  F   UNL A   1      45.087  33.073  29.122  1.00  0.00    -0.206 F 
ATOM     92  C   UNL A   1      45.740  34.480  32.394  1.00  0.00     0.006 A 
ENDBRANCH  68  85
ENDBRANCH  42  43
ENDBRANCH  34  37
ENDBRANCH  32  33
ENDBRANCH  31  32
ENDBRANCH  30  31
ENDBRANCH   1  30
TORSDOF 17
ENDMDL
