MODEL 1
REMARK VINA RESULT:     -11.0      0.000      0.000
REMARK SMILES CCO[C@H](CCn1nnc2c(cnn2C)c1=O)C(=O)NCCCCNC(=O)c1ccc(-c2c3nc(c(-c4c(F)cccc4F)c4ccc([nH]4)c(-c4c(F)cccc4F)c4nc(c(-c5c(F)cccc5F)c5ccc2[nH]5)C=C4)C=C3)cc1
REMARK SMILES IDX 22 1 21 2 20 3 18 4 19 5 4 7 3 8 2 9 1 10 5 11 6 12 7 13
REMARK SMILES IDX 8 14 16 15 9 16 11 17 17 18 10 19 12 20 14 21 13 22 15 23
REMARK SMILES IDX 23 24 24 25 25 26 26 27 27 29 28 30 29 31 81 32 30 33 80 34
REMARK SMILES IDX 31 35 32 36 33 37 74 38 34 39 79 40 73 41 75 42 35 43 78 44
REMARK SMILES IDX 72 45 71 46 36 48 62 49 45 50 61 51 46 52 49 53 60 54 76 55
REMARK SMILES IDX 47 56 48 57 59 59 77 60 50 61 37 62 38 63 43 64 39 65 40 66
REMARK SMILES IDX 42 67 44 68 41 69 63 70 64 71 69 72 65 73 66 74 68 75 70 76
REMARK SMILES IDX 67 77 51 78 52 79 57 80 53 81 54 82 56 83 58 84 55 85
REMARK H PARENT 20 6 25 28 75 47 49 58
REMARK Flexibility Score: inf
ROOT
ATOM      1  C   UNL A   1      40.688  21.200  26.429  1.00  0.00     0.023 C 
ENDROOT
BRANCH   1   2
ATOM      2  C   UNL A   1      39.258  21.449  25.972  1.00  0.00     0.116 C 
BRANCH   2   3
ATOM      3  N   UNL A   1      38.832  22.835  25.976  1.00  0.00    -0.354 N 
ATOM      4  C   UNL A   1      37.576  23.348  25.826  1.00  0.00     0.249 C 
ATOM      5  O   UNL A   1      37.353  24.466  26.300  1.00  0.00    -0.272 OA
ATOM      6  H   UNL A   1      39.549  23.497  26.105  1.00  0.00     0.163 HD
BRANCH   4   7
ATOM      7  C   UNL A   1      36.468  22.560  25.112  1.00  0.00     0.208 C 
BRANCH   7   8
ATOM      8  O   UNL A   1      36.467  21.130  25.186  1.00  0.00    -0.369 OA
BRANCH   8   9
ATOM      9  C   UNL A   1      35.320  20.341  24.881  1.00  0.00     0.158 C 
ATOM     10  C   UNL A   1      34.014  20.654  25.604  1.00  0.00     0.035 C 
ENDBRANCH   8   9
ENDBRANCH   7   8
BRANCH   7  11
ATOM     11  C   UNL A   1      36.167  23.077  23.678  1.00  0.00     0.066 C 
BRANCH  11  12
ATOM     12  C   UNL A   1      34.695  23.441  23.322  1.00  0.00     0.153 C 
BRANCH  12  13
ATOM     13  N   UNL A   1      34.168  24.727  23.791  1.00  0.00    -0.210 N 
ATOM     14  N   UNL A   1      33.986  24.821  25.174  1.00  0.00    -0.062 NA
ATOM     15  C   UNL A   1      33.775  25.744  22.900  1.00  0.00     0.280 A 
ATOM     16  N   UNL A   1      33.760  25.933  25.725  1.00  0.00    -0.111 NA
ATOM     17  C   UNL A   1      33.462  26.975  23.567  1.00  0.00     0.108 A 
ATOM     18  O   UNL A   1      33.799  25.653  21.674  1.00  0.00    -0.267 OA
ATOM     19  C   UNL A   1      33.564  26.995  24.928  1.00  0.00     0.187 A 
ATOM     20  C   UNL A   1      33.209  28.304  23.195  1.00  0.00     0.151 A 
ATOM     21  N   UNL A   1      33.622  28.315  25.279  1.00  0.00    -0.249 N 
ATOM     22  N   UNL A   1      33.309  29.137  24.244  1.00  0.00    -0.179 NA
ATOM     23  C   UNL A   1      34.250  28.864  26.460  1.00  0.00     0.176 C 
ENDBRANCH  12  13
ENDBRANCH  11  12
ENDBRANCH   7  11
ENDBRANCH   4   7
ENDBRANCH   2   3
ENDBRANCH   1   2
BRANCH   1  24
ATOM     24  C   UNL A   1      41.267  19.840  26.074  1.00  0.00     0.023 C 
BRANCH  24  25
ATOM     25  C   UNL A   1      42.599  19.494  26.693  1.00  0.00     0.116 C 
BRANCH  25  26
ATOM     26  N   UNL A   1      43.643  19.281  25.713  1.00  0.00    -0.352 N 
ATOM     27  C   UNL A   1      44.223  20.255  24.932  1.00  0.00     0.251 C 
ATOM     28  H   UNL A   1      43.966  18.358  25.596  1.00  0.00     0.163 HD
ATOM     29  O   UNL A   1      44.772  19.968  23.876  1.00  0.00    -0.269 OA
BRANCH  27  30
ATOM     30  C   UNL A   1      44.148  21.660  25.382  1.00  0.00     0.039 A 
ATOM     31  C   UNL A   1      43.425  22.588  24.637  1.00  0.00     0.014 A 
ATOM     32  C   UNL A   1      44.786  22.040  26.568  1.00  0.00     0.014 A 
ATOM     33  C   UNL A   1      43.296  23.884  25.126  1.00  0.00     0.010 A 
ATOM     34  C   UNL A   1      44.563  23.291  27.108  1.00  0.00     0.010 A 
ATOM     35  C   UNL A   1      43.843  24.229  26.379  1.00  0.00    -0.014 A 
BRANCH  35  36
ATOM     36  C   UNL A   1      43.527  25.536  26.960  1.00  0.00     0.031 A 
ATOM     37  C   UNL A   1      44.505  26.594  26.599  1.00  0.00     0.074 A 
ATOM     38  C   UNL A   1      42.417  25.844  27.666  1.00  0.00     0.049 A 
ATOM     39  N   UNL A   1      45.440  27.064  27.354  1.00  0.00    -0.248 NA
ATOM     40  C   UNL A   1      44.567  27.072  25.209  1.00  0.00     0.031 C 
ATOM     41  C   UNL A   1      41.220  25.022  27.873  1.00  0.00     0.029 A 
ATOM     42  N   UNL A   1      42.097  27.009  28.310  1.00  0.00    -0.354 N 
ATOM     43  C   UNL A   1      46.047  28.080  26.621  1.00  0.00     0.074 A 
ATOM     44  C   UNL A   1      45.611  27.905  25.261  1.00  0.00     0.031 C 
ATOM     45  C   UNL A   1      40.232  25.779  28.402  1.00  0.00     0.029 A 
ATOM     46  C   UNL A   1      40.776  27.080  28.746  1.00  0.00     0.049 A 
ATOM     47  H   UNL A   1      42.745  27.737  28.452  1.00  0.00     0.167 HD
ATOM     48  C   UNL A   1      46.594  29.143  27.270  1.00  0.00     0.037 A 
ATOM     49  C   UNL A   1      40.176  28.114  29.386  1.00  0.00     0.037 A 
ATOM     50  C   UNL A   1      46.712  28.867  28.681  1.00  0.00     0.049 A 
ATOM     51  C   UNL A   1      41.237  28.892  30.057  1.00  0.00     0.074 A 
ATOM     52  C   UNL A   1      47.527  28.131  29.511  1.00  0.00     0.029 A 
ATOM     53  N   UNL A   1      45.573  29.156  29.380  1.00  0.00    -0.354 N 
ATOM     54  N   UNL A   1      41.906  28.454  31.084  1.00  0.00    -0.248 NA
ATOM     55  C   UNL A   1      41.773  30.087  29.414  1.00  0.00     0.031 C 
ATOM     56  C   UNL A   1      46.769  27.876  30.694  1.00  0.00     0.029 A 
ATOM     57  C   UNL A   1      45.527  28.490  30.571  1.00  0.00     0.049 A 
ATOM     58  H   UNL A   1      44.872  29.771  29.063  1.00  0.00     0.167 HD
ATOM     59  C   UNL A   1      43.146  29.033  30.940  1.00  0.00     0.074 A 
ATOM     60  C   UNL A   1      42.951  30.160  30.038  1.00  0.00     0.031 C 
ATOM     61  C   UNL A   1      44.272  28.343  31.270  1.00  0.00     0.037 A 
BRANCH  48  62
ATOM     62  C   UNL A   1      46.521  30.584  26.796  1.00  0.00     0.057 A 
ATOM     63  C   UNL A   1      47.684  31.378  26.875  1.00  0.00     0.134 A 
ATOM     64  C   UNL A   1      45.326  31.304  26.602  1.00  0.00     0.134 A 
ATOM     65  F   UNL A   1      48.888  30.819  27.071  1.00  0.00    -0.206 F 
ATOM     66  C   UNL A   1      47.646  32.779  26.848  1.00  0.00     0.040 A 
ATOM     67  C   UNL A   1      45.284  32.700  26.525  1.00  0.00     0.040 A 
ATOM     68  F   UNL A   1      44.125  30.716  26.580  1.00  0.00    -0.206 F 
ATOM     69  C   UNL A   1      46.440  33.445  26.682  1.00  0.00     0.006 A 
ENDBRANCH  48  62
BRANCH  49  70
ATOM     70  C   UNL A   1      38.773  28.582  29.413  1.00  0.00     0.057 A 
ATOM     71  C   UNL A   1      38.033  28.562  30.606  1.00  0.00     0.134 A 
ATOM     72  C   UNL A   1      38.252  29.365  28.373  1.00  0.00     0.134 A 
ATOM     73  F   UNL A   1      38.454  27.850  31.661  1.00  0.00    -0.206 F 
ATOM     74  C   UNL A   1      36.883  29.339  30.784  1.00  0.00     0.040 A 
ATOM     75  C   UNL A   1      37.099  30.143  28.537  1.00  0.00     0.040 A 
ATOM     76  F   UNL A   1      38.901  29.479  27.205  1.00  0.00    -0.206 F 
ATOM     77  C   UNL A   1      36.426  30.152  29.754  1.00  0.00     0.006 A 
ENDBRANCH  49  70
BRANCH  61  78
ATOM     78  C   UNL A   1      44.148  27.257  32.287  1.00  0.00     0.057 A 
ATOM     79  C   UNL A   1      44.152  25.887  32.000  1.00  0.00     0.134 A 
ATOM     80  C   UNL A   1      44.109  27.631  33.635  1.00  0.00     0.134 A 
ATOM     81  F   UNL A   1      44.243  25.440  30.740  1.00  0.00    -0.206 F 
ATOM     82  C   UNL A   1      44.103  24.929  33.018  1.00  0.00     0.040 A 
ATOM     83  C   UNL A   1      44.090  26.686  34.660  1.00  0.00     0.040 A 
ATOM     84  F   UNL A   1      44.129  28.929  33.976  1.00  0.00    -0.206 F 
ATOM     85  C   UNL A   1      44.081  25.330  34.353  1.00  0.00     0.006 A 
ENDBRANCH  61  78
ENDBRANCH  35  36
ENDBRANCH  27  30
ENDBRANCH  25  26
ENDBRANCH  24  25
ENDBRANCH   1  24
TORSDOF 16
ENDMDL
MODEL 2
REMARK VINA RESULT:     -10.9      2.675      7.528
REMARK SMILES CCO[C@H](CCn1nnc2c(cnn2C)c1=O)C(=O)NCCCCNC(=O)c1ccc(-c2c3nc(c(-c4c(F)cccc4F)c4ccc([nH]4)c(-c4c(F)cccc4F)c4nc(c(-c5c(F)cccc5F)c5ccc2[nH]5)C=C4)C=C3)cc1
REMARK SMILES IDX 22 1 21 2 20 3 18 4 19 5 4 7 3 8 2 9 1 10 5 11 6 12 7 13
REMARK SMILES IDX 8 14 16 15 9 16 11 17 17 18 10 19 12 20 14 21 13 22 15 23
REMARK SMILES IDX 23 24 24 25 25 26 26 27 27 29 28 30 29 31 81 32 30 33 80 34
REMARK SMILES IDX 31 35 32 36 33 37 74 38 34 39 79 40 73 41 75 42 35 43 78 44
REMARK SMILES IDX 72 45 71 46 36 48 62 49 45 50 61 51 46 52 49 53 60 54 76 55
REMARK SMILES IDX 47 56 48 57 59 59 77 60 50 61 37 62 38 63 43 64 39 65 40 66
REMARK SMILES IDX 42 67 44 68 41 69 63 70 64 71 69 72 65 73 66 74 68 75 70 76
REMARK SMILES IDX 67 77 51 78 52 79 57 80 53 81 54 82 56 83 58 84 55 85
REMARK H PARENT 20 6 25 28 75 47 49 58
REMARK Flexibility Score: inf
ROOT
ATOM      1  C   UNL A   1      33.099  27.547  26.568  1.00  0.00     0.023 C 
ENDROOT
BRANCH   1   2
ATOM      2  C   UNL A   1      33.270  26.651  25.351  1.00  0.00     0.116 C 
BRANCH   2   3
ATOM      3  N   UNL A   1      33.940  27.256  24.217  1.00  0.00    -0.354 N 
ATOM      4  C   UNL A   1      33.405  27.714  23.047  1.00  0.00     0.249 C 
ATOM      5  O   UNL A   1      34.034  28.577  22.428  1.00  0.00    -0.272 OA
ATOM      6  H   UNL A   1      34.916  27.351  24.303  1.00  0.00     0.163 HD
BRANCH   4   7
ATOM      7  C   UNL A   1      32.059  27.194  22.523  1.00  0.00     0.208 C 
BRANCH   7   8
ATOM      8  O   UNL A   1      30.885  27.352  23.328  1.00  0.00    -0.369 OA
BRANCH   8   9
ATOM      9  C   UNL A   1      30.265  28.616  23.549  1.00  0.00     0.158 C 
ATOM     10  C   UNL A   1      29.956  29.491  22.338  1.00  0.00     0.035 C 
ENDBRANCH   8   9
ENDBRANCH   7   8
BRANCH   7  11
ATOM     11  C   UNL A   1      32.148  25.780  21.884  1.00  0.00     0.066 C 
BRANCH  11  12
ATOM     12  C   UNL A   1      31.886  24.544  22.795  1.00  0.00     0.153 C 
BRANCH  12  13
ATOM     13  N   UNL A   1      33.028  23.699  23.160  1.00  0.00    -0.210 N 
ATOM     14  N   UNL A   1      34.274  24.182  22.751  1.00  0.00    -0.062 NA
ATOM     15  C   UNL A   1      32.862  22.444  23.778  1.00  0.00     0.280 A 
ATOM     16  N   UNL A   1      35.343  23.677  23.193  1.00  0.00    -0.111 NA
ATOM     17  C   UNL A   1      34.104  21.870  24.208  1.00  0.00     0.108 A 
ATOM     18  O   UNL A   1      31.777  21.927  24.038  1.00  0.00    -0.267 OA
ATOM     19  C   UNL A   1      35.243  22.578  23.957  1.00  0.00     0.187 A 
ATOM     20  C   UNL A   1      34.508  20.787  25.003  1.00  0.00     0.151 A 
ATOM     21  N   UNL A   1      36.198  22.057  24.786  1.00  0.00    -0.249 N 
ATOM     22  N   UNL A   1      35.797  20.897  25.367  1.00  0.00    -0.179 NA
ATOM     23  C   UNL A   1      37.358  22.748  25.302  1.00  0.00     0.176 C 
ENDBRANCH  12  13
ENDBRANCH  11  12
ENDBRANCH   7  11
ENDBRANCH   4   7
ENDBRANCH   2   3
ENDBRANCH   1   2
BRANCH   1  24
ATOM     24  C   UNL A   1      33.814  28.887  26.507  1.00  0.00     0.023 C 
BRANCH  24  25
ATOM     25  C   UNL A   1      35.185  28.948  27.135  1.00  0.00     0.116 C 
BRANCH  25  26
ATOM     26  N   UNL A   1      35.252  29.846  28.268  1.00  0.00    -0.352 N 
ATOM     27  C   UNL A   1      36.249  29.867  29.217  1.00  0.00     0.251 C 
ATOM     28  H   UNL A   1      34.522  30.498  28.368  1.00  0.00     0.163 HD
ATOM     29  O   UNL A   1      36.047  30.338  30.330  1.00  0.00    -0.269 OA
BRANCH  27  30
ATOM     30  C   UNL A   1      37.565  29.289  28.875  1.00  0.00     0.039 A 
ATOM     31  C   UNL A   1      38.224  29.703  27.721  1.00  0.00     0.014 A 
ATOM     32  C   UNL A   1      38.148  28.348  29.730  1.00  0.00     0.014 A 
ATOM     33  C   UNL A   1      39.500  29.210  27.466  1.00  0.00     0.010 A 
ATOM     34  C   UNL A   1      39.456  27.947  29.537  1.00  0.00     0.010 A 
ATOM     35  C   UNL A   1      40.129  28.352  28.391  1.00  0.00    -0.014 A 
BRANCH  35  36
ATOM     36  C   UNL A   1      41.539  28.005  28.198  1.00  0.00     0.031 A 
ATOM     37  C   UNL A   1      41.739  26.738  27.451  1.00  0.00     0.074 A 
ATOM     38  C   UNL A   1      42.599  28.771  28.540  1.00  0.00     0.049 A 
ATOM     39  N   UNL A   1      42.064  25.594  27.953  1.00  0.00    -0.248 NA
ATOM     40  C   UNL A   1      41.387  26.681  26.024  1.00  0.00     0.031 C 
ATOM     41  C   UNL A   1      42.596  30.159  29.015  1.00  0.00     0.029 A 
ATOM     42  N   UNL A   1      43.935  28.479  28.473  1.00  0.00    -0.354 N 
ATOM     43  C   UNL A   1      42.208  24.730  26.871  1.00  0.00     0.074 A 
ATOM     44  C   UNL A   1      41.592  25.389  25.750  1.00  0.00     0.031 C 
ATOM     45  C   UNL A   1      43.855  30.653  28.989  1.00  0.00     0.029 A 
ATOM     46  C   UNL A   1      44.773  29.571  28.682  1.00  0.00     0.049 A 
ATOM     47  H   UNL A   1      44.275  27.573  28.291  1.00  0.00     0.167 HD
ATOM     48  C   UNL A   1      43.096  23.702  26.945  1.00  0.00     0.037 A 
ATOM     49  C   UNL A   1      46.128  29.586  28.649  1.00  0.00     0.037 A 
ATOM     50  C   UNL A   1      43.533  23.509  28.306  1.00  0.00     0.049 A 
ATOM     51  C   UNL A   1      46.590  28.213  28.936  1.00  0.00     0.074 A 
ATOM     52  C   UNL A   1      43.035  22.967  29.469  1.00  0.00     0.029 A 
ATOM     53  N   UNL A   1      44.587  24.309  28.648  1.00  0.00    -0.354 N 
ATOM     54  N   UNL A   1      46.478  27.649  30.104  1.00  0.00    -0.248 NA
ATOM     55  C   UNL A   1      46.944  27.325  27.835  1.00  0.00     0.031 C 
ATOM     56  C   UNL A   1      43.754  23.583  30.538  1.00  0.00     0.029 A 
ATOM     57  C   UNL A   1      44.692  24.459  30.001  1.00  0.00     0.049 A 
ATOM     58  H   UNL A   1      45.197  24.727  27.997  1.00  0.00     0.167 HD
ATOM     59  C   UNL A   1      46.310  26.315  29.810  1.00  0.00     0.074 A 
ATOM     60  C   UNL A   1      46.800  26.149  28.449  1.00  0.00     0.031 C 
ATOM     61  C   UNL A   1      45.466  25.546  30.552  1.00  0.00     0.037 A 
BRANCH  48  62
ATOM     62  C   UNL A   1      43.982  23.233  25.804  1.00  0.00     0.057 A 
ATOM     63  C   UNL A   1      44.057  21.851  25.535  1.00  0.00     0.134 A 
ATOM     64  C   UNL A   1      44.995  24.007  25.206  1.00  0.00     0.134 A 
ATOM     65  F   UNL A   1      43.160  20.998  26.053  1.00  0.00    -0.206 F 
ATOM     66  C   UNL A   1      45.106  21.280  24.801  1.00  0.00     0.040 A 
ATOM     67  C   UNL A   1      46.019  23.453  24.431  1.00  0.00     0.040 A 
ATOM     68  F   UNL A   1      45.117  25.322  25.418  1.00  0.00    -0.206 F 
ATOM     69  C   UNL A   1      46.097  22.082  24.254  1.00  0.00     0.006 A 
ENDBRANCH  48  62
BRANCH  49  70
ATOM     70  C   UNL A   1      47.099  30.645  28.299  1.00  0.00     0.057 A 
ATOM     71  C   UNL A   1      47.067  31.260  27.037  1.00  0.00     0.134 A 
ATOM     72  C   UNL A   1      47.838  31.305  29.292  1.00  0.00     0.134 A 
ATOM     73  F   UNL A   1      46.380  30.710  26.025  1.00  0.00    -0.206 F 
ATOM     74  C   UNL A   1      47.666  32.500  26.795  1.00  0.00     0.040 A 
ATOM     75  C   UNL A   1      48.448  32.545  29.061  1.00  0.00     0.040 A 
ATOM     76  F   UNL A   1      47.903  30.819  30.539  1.00  0.00    -0.206 F 
ATOM     77  C   UNL A   1      48.340  33.159  27.817  1.00  0.00     0.006 A 
ENDBRANCH  49  70
BRANCH  61  78
ATOM     78  C   UNL A   1      45.202  25.965  31.961  1.00  0.00     0.057 A 
ATOM     79  C   UNL A   1      44.076  26.681  32.384  1.00  0.00     0.134 A 
ATOM     80  C   UNL A   1      46.101  25.540  32.944  1.00  0.00     0.134 A 
ATOM     81  F   UNL A   1      43.136  27.079  31.516  1.00  0.00    -0.206 F 
ATOM     82  C   UNL A   1      43.866  26.975  33.736  1.00  0.00     0.040 A 
ATOM     83  C   UNL A   1      45.889  25.800  34.297  1.00  0.00     0.040 A 
ATOM     84  F   UNL A   1      47.187  24.828  32.604  1.00  0.00    -0.206 F 
ATOM     85  C   UNL A   1      44.770  26.525  34.696  1.00  0.00     0.006 A 
ENDBRANCH  61  78
ENDBRANCH  35  36
ENDBRANCH  27  30
ENDBRANCH  25  26
ENDBRANCH  24  25
ENDBRANCH   1  24
TORSDOF 16
ENDMDL
MODEL 3
REMARK VINA RESULT:     -10.7      1.474      2.257
REMARK SMILES CCO[C@H](CCn1nnc2c(cnn2C)c1=O)C(=O)NCCCCNC(=O)c1ccc(-c2c3nc(c(-c4c(F)cccc4F)c4ccc([nH]4)c(-c4c(F)cccc4F)c4nc(c(-c5c(F)cccc5F)c5ccc2[nH]5)C=C4)C=C3)cc1
REMARK SMILES IDX 22 1 21 2 20 3 18 4 19 5 4 7 3 8 2 9 1 10 5 11 6 12 7 13
REMARK SMILES IDX 8 14 16 15 9 16 11 17 17 18 10 19 12 20 14 21 13 22 15 23
REMARK SMILES IDX 23 24 24 25 25 26 26 27 27 29 28 30 29 31 81 32 30 33 80 34
REMARK SMILES IDX 31 35 32 36 33 37 74 38 34 39 79 40 73 41 75 42 35 43 78 44
REMARK SMILES IDX 72 45 71 46 36 48 62 49 45 50 61 51 46 52 49 53 60 54 76 55
REMARK SMILES IDX 47 56 48 57 59 59 77 60 50 61 37 62 38 63 43 64 39 65 40 66
REMARK SMILES IDX 42 67 44 68 41 69 63 70 64 71 69 72 65 73 66 74 68 75 70 76
REMARK SMILES IDX 67 77 51 78 52 79 57 80 53 81 54 82 56 83 58 84 55 85
REMARK H PARENT 20 6 25 28 75 47 49 58
REMARK Flexibility Score: inf
ROOT
ATOM      1  C   UNL A   1      40.785  20.782  26.640  1.00  0.00     0.023 C 
ENDROOT
BRANCH   1   2
ATOM      2  C   UNL A   1      39.576  21.366  25.923  1.00  0.00     0.116 C 
BRANCH   2   3
ATOM      3  N   UNL A   1      39.353  22.784  26.127  1.00  0.00    -0.354 N 
ATOM      4  C   UNL A   1      38.174  23.472  26.159  1.00  0.00     0.249 C 
ATOM      5  O   UNL A   1      38.151  24.541  26.777  1.00  0.00    -0.272 OA
ATOM      6  H   UNL A   1      40.164  23.325  26.261  1.00  0.00     0.163 HD
BRANCH   4   7
ATOM      7  C   UNL A   1      36.912  22.932  25.471  1.00  0.00     0.208 C 
BRANCH   7   8
ATOM      8  O   UNL A   1      36.355  21.687  25.906  1.00  0.00    -0.369 OA
BRANCH   8   9
ATOM      9  C   UNL A   1      35.060  21.580  26.491  1.00  0.00     0.158 C 
ATOM     10  C   UNL A   1      34.413  22.844  27.049  1.00  0.00     0.035 C 
ENDBRANCH   8   9
ENDBRANCH   7   8
BRANCH   7  11
ATOM     11  C   UNL A   1      36.952  23.051  23.922  1.00  0.00     0.066 C 
BRANCH  11  12
ATOM     12  C   UNL A   1      35.662  22.700  23.125  1.00  0.00     0.153 C 
BRANCH  12  13
ATOM     13  N   UNL A   1      34.442  23.460  23.413  1.00  0.00    -0.210 N 
ATOM     14  N   UNL A   1      34.640  24.819  23.669  1.00  0.00    -0.062 NA
ATOM     15  C   UNL A   1      33.183  22.838  23.529  1.00  0.00     0.280 A 
ATOM     16  N   UNL A   1      33.667  25.622  23.704  1.00  0.00    -0.111 NA
ATOM     17  C   UNL A   1      32.107  23.780  23.634  1.00  0.00     0.108 A 
ATOM     18  O   UNL A   1      32.986  21.628  23.438  1.00  0.00    -0.267 OA
ATOM     19  C   UNL A   1      32.430  25.106  23.625  1.00  0.00     0.187 A 
ATOM     20  C   UNL A   1      30.705  23.741  23.587  1.00  0.00     0.151 A 
ATOM     21  N   UNL A   1      31.273  25.772  23.327  1.00  0.00    -0.249 N 
ATOM     22  N   UNL A   1      30.184  24.964  23.395  1.00  0.00    -0.179 NA
ATOM     23  C   UNL A   1      31.164  27.062  22.686  1.00  0.00     0.176 C 
ENDBRANCH  12  13
ENDBRANCH  11  12
ENDBRANCH   7  11
ENDBRANCH   4   7
ENDBRANCH   2   3
ENDBRANCH   1   2
BRANCH   1  24
ATOM     24  C   UNL A   1      41.345  19.497  26.051  1.00  0.00     0.023 C 
BRANCH  24  25
ATOM     25  C   UNL A   1      42.736  19.107  26.487  1.00  0.00     0.116 C 
BRANCH  25  26
ATOM     26  N   UNL A   1      43.628  18.846  25.378  1.00  0.00    -0.352 N 
ATOM     27  C   UNL A   1      44.179  19.797  24.549  1.00  0.00     0.251 C 
ATOM     28  H   UNL A   1      43.860  17.906  25.200  1.00  0.00     0.163 HD
ATOM     29  O   UNL A   1      44.567  19.502  23.425  1.00  0.00    -0.269 OA
BRANCH  27  30
ATOM     30  C   UNL A   1      44.274  21.189  25.034  1.00  0.00     0.039 A 
ATOM     31  C   UNL A   1      43.401  22.155  24.540  1.00  0.00     0.014 A 
ATOM     32  C   UNL A   1      45.225  21.518  26.005  1.00  0.00     0.014 A 
ATOM     33  C   UNL A   1      43.451  23.438  25.075  1.00  0.00     0.010 A 
ATOM     34  C   UNL A   1      45.198  22.758  26.615  1.00  0.00     0.010 A 
ATOM     35  C   UNL A   1      44.332  23.733  26.135  1.00  0.00    -0.014 A 
BRANCH  35  36
ATOM     36  C   UNL A   1      44.228  25.028  26.810  1.00  0.00     0.031 A 
ATOM     37  C   UNL A   1      45.363  25.940  26.517  1.00  0.00     0.074 A 
ATOM     38  C   UNL A   1      43.180  25.459  27.546  1.00  0.00     0.049 A 
ATOM     39  N   UNL A   1      46.360  26.199  27.295  1.00  0.00    -0.248 NA
ATOM     40  C   UNL A   1      45.505  26.501  25.165  1.00  0.00     0.031 C 
ATOM     41  C   UNL A   1      41.867  24.826  27.705  1.00  0.00     0.029 A 
ATOM     42  N   UNL A   1      43.048  26.611  28.275  1.00  0.00    -0.354 N 
ATOM     43  C   UNL A   1      47.123  27.155  26.631  1.00  0.00     0.074 A 
ATOM     44  C   UNL A   1      46.669  27.150  25.266  1.00  0.00     0.031 C 
ATOM     45  C   UNL A   1      41.011  25.691  28.295  1.00  0.00     0.029 A 
ATOM     46  C   UNL A   1      41.755  26.860  28.727  1.00  0.00     0.049 A 
ATOM     47  H   UNL A   1      43.805  27.214  28.462  1.00  0.00     0.167 HD
ATOM     48  C   UNL A   1      47.832  28.068  27.350  1.00  0.00     0.037 A 
ATOM     49  C   UNL A   1      41.327  27.928  29.444  1.00  0.00     0.037 A 
ATOM     50  C   UNL A   1      47.900  27.676  28.736  1.00  0.00     0.049 A 
ATOM     51  C   UNL A   1      42.496  28.476  30.159  1.00  0.00     0.074 A 
ATOM     52  C   UNL A   1      48.585  26.761  29.504  1.00  0.00     0.029 A 
ATOM     53  N   UNL A   1      46.821  28.093  29.464  1.00  0.00    -0.354 N 
ATOM     54  N   UNL A   1      43.084  27.865  31.146  1.00  0.00    -0.248 NA
ATOM     55  C   UNL A   1      43.218  29.613  29.598  1.00  0.00     0.031 C 
ATOM     56  C   UNL A   1      47.793  26.547  30.673  1.00  0.00     0.029 A 
ATOM     57  C   UNL A   1      46.666  27.358  30.604  1.00  0.00     0.049 A 
ATOM     58  H   UNL A   1      46.228  28.832  29.197  1.00  0.00     0.167 HD
ATOM     59  C   UNL A   1      44.402  28.247  31.033  1.00  0.00     0.074 A 
ATOM     60  C   UNL A   1      44.391  29.452  30.216  1.00  0.00     0.031 C 
ATOM     61  C   UNL A   1      45.402  27.364  31.303  1.00  0.00     0.037 A 
BRANCH  48  62
ATOM     62  C   UNL A   1      47.991  29.532  26.980  1.00  0.00     0.057 A 
ATOM     63  C   UNL A   1      49.263  30.126  27.117  1.00  0.00     0.134 A 
ATOM     64  C   UNL A   1      46.927  30.443  26.836  1.00  0.00     0.134 A 
ATOM     65  F   UNL A   1      50.363  29.372  27.273  1.00  0.00    -0.206 F 
ATOM     66  C   UNL A   1      49.446  31.514  27.191  1.00  0.00     0.040 A 
ATOM     67  C   UNL A   1      47.104  31.830  26.860  1.00  0.00     0.040 A 
ATOM     68  F   UNL A   1      45.649  30.054  26.771  1.00  0.00    -0.206 F 
ATOM     69  C   UNL A   1      48.361  32.371  27.071  1.00  0.00     0.006 A 
ENDBRANCH  48  62
BRANCH  49  70
ATOM     70  C   UNL A   1      40.017  28.610  29.517  1.00  0.00     0.057 A 
ATOM     71  C   UNL A   1      39.410  29.126  28.360  1.00  0.00     0.134 A 
ATOM     72  C   UNL A   1      39.189  28.467  30.640  1.00  0.00     0.134 A 
ATOM     73  F   UNL A   1      40.117  29.291  27.232  1.00  0.00    -0.206 F 
ATOM     74  C   UNL A   1      38.041  29.407  28.296  1.00  0.00     0.040 A 
ATOM     75  C   UNL A   1      37.818  28.751  30.591  1.00  0.00     0.040 A 
ATOM     76  F   UNL A   1      39.662  27.953  31.783  1.00  0.00    -0.206 F 
ATOM     77  C   UNL A   1      37.235  29.197  29.409  1.00  0.00     0.006 A 
ENDBRANCH  49  70
BRANCH  61  78
ATOM     78  C   UNL A   1      45.103  26.241  32.241  1.00  0.00     0.057 A 
ATOM     79  C   UNL A   1      45.051  26.356  33.636  1.00  0.00     0.134 A 
ATOM     80  C   UNL A   1      44.770  25.001  31.686  1.00  0.00     0.134 A 
ATOM     81  F   UNL A   1      45.302  27.521  34.248  1.00  0.00    -0.206 F 
ATOM     82  C   UNL A   1      44.695  25.271  34.443  1.00  0.00     0.040 A 
ATOM     83  C   UNL A   1      44.385  23.920  32.477  1.00  0.00     0.040 A 
ATOM     84  F   UNL A   1      44.777  24.835  30.354  1.00  0.00    -0.206 F 
ATOM     85  C   UNL A   1      44.352  24.052  33.862  1.00  0.00     0.006 A 
ENDBRANCH  61  78
ENDBRANCH  35  36
ENDBRANCH  27  30
ENDBRANCH  25  26
ENDBRANCH  24  25
ENDBRANCH   1  24
TORSDOF 16
ENDMDL
