MODEL 1
REMARK VINA RESULT:     -10.3      0.000      0.000
REMARK SMILES C=CCC(=O)N[C@@](C)(CC)C(=O)NCCCCNC(=O)c1ccc(-c2c3nc(c(-c4c(F)cccc4F)c4ccc([nH]4)c(-c4c(F)cccc4F)c4nc(c(-c5c(F)cccc5F)c5ccc2[nH]5)C=C4)C=C3)cc1
REMARK SMILES IDX 15 1 14 2 13 3 11 4 12 5 7 7 8 8 6 9 4 10 5 11 3 13 2 14
REMARK SMILES IDX 1 15 9 16 10 17 16 18 17 19 18 20 19 21 20 23 21 24 22 25
REMARK SMILES IDX 74 26 23 27 73 28 24 29 25 30 26 31 67 32 27 33 72 34 66 35
REMARK SMILES IDX 68 36 28 37 71 38 65 39 64 40 29 42 55 43 38 44 54 45 39 46
REMARK SMILES IDX 42 47 53 48 69 49 40 50 41 51 52 53 70 54 43 55 30 56 31 57
REMARK SMILES IDX 36 58 32 59 33 60 35 61 37 62 34 63 56 64 57 65 62 66 58 67
REMARK SMILES IDX 59 68 61 69 63 70 60 71 44 72 45 73 50 74 46 75 47 76 49 77
REMARK SMILES IDX 51 78 48 79
REMARK H PARENT 13 6 6 12 18 22 68 41 42 52
REMARK Flexibility Score: inf
ROOT
ATOM      1  C   UNL A   1      31.356  30.641  25.406  1.00  0.00     0.023 C 
ENDROOT
BRANCH   1   2
ATOM      2  C   UNL A   1      32.558  29.696  25.473  1.00  0.00     0.116 C 
BRANCH   2   3
ATOM      3  N   UNL A   1      32.116  28.318  25.400  1.00  0.00    -0.354 N 
ATOM      4  C   UNL A   1      31.350  27.730  24.433  1.00  0.00     0.245 C 
ATOM      5  O   UNL A   1      30.394  27.067  24.844  1.00  0.00    -0.272 OA
ATOM      6  H   UNL A   1      32.402  27.733  26.138  1.00  0.00     0.163 HD
BRANCH   4   7
ATOM      7  C   UNL A   1      31.637  27.942  22.916  1.00  0.00     0.116 C 
ATOM      8  C   UNL A   1      31.023  26.829  22.042  1.00  0.00     0.045 C 
BRANCH   7   9
ATOM      9  N   UNL A   1      31.105  29.232  22.387  1.00  0.00    -0.342 N 
ATOM     10  C   UNL A   1      29.841  29.633  22.078  1.00  0.00     0.224 C 
ATOM     11  O   UNL A   1      29.720  30.389  21.108  1.00  0.00    -0.275 OA
ATOM     12  H   UNL A   1      31.794  29.918  22.233  1.00  0.00     0.164 HD
BRANCH  10  13
ATOM     13  C   UNL A   1      28.629  29.277  22.932  1.00  0.00     0.126 C 
BRANCH  13  14
ATOM     14  C   UNL A   1      27.643  30.390  23.124  1.00  0.00    -0.025 C 
ATOM     15  C   UNL A   1      27.927  31.525  23.778  1.00  0.00     0.004 C 
ENDBRANCH  13  14
ENDBRANCH  10  13
ENDBRANCH   7   9
BRANCH   7  16
ATOM     16  C   UNL A   1      33.180  27.970  22.706  1.00  0.00     0.035 C 
ATOM     17  C   UNL A   1      33.805  26.595  22.466  1.00  0.00     0.007 C 
ENDBRANCH   7  16
ENDBRANCH   4   7
ENDBRANCH   2   3
ENDBRANCH   1   2
BRANCH   1  18
ATOM     18  C   UNL A   1      31.276  31.650  26.558  1.00  0.00     0.023 C 
BRANCH  18  19
ATOM     19  C   UNL A   1      32.577  32.381  26.874  1.00  0.00     0.116 C 
BRANCH  19  20
ATOM     20  N   UNL A   1      32.353  33.721  27.388  1.00  0.00    -0.352 N 
ATOM     21  C   UNL A   1      33.010  34.395  28.383  1.00  0.00     0.251 C 
ATOM     22  H   UNL A   1      31.621  34.218  26.958  1.00  0.00     0.163 HD
ATOM     23  O   UNL A   1      32.573  35.479  28.771  1.00  0.00    -0.269 OA
BRANCH  21  24
ATOM     24  C   UNL A   1      34.216  33.821  29.012  1.00  0.00     0.039 A 
ATOM     25  C   UNL A   1      34.053  32.787  29.936  1.00  0.00     0.014 A 
ATOM     26  C   UNL A   1      35.496  34.303  28.720  1.00  0.00     0.014 A 
ATOM     27  C   UNL A   1      35.172  32.207  30.532  1.00  0.00     0.010 A 
ATOM     28  C   UNL A   1      36.617  33.676  29.260  1.00  0.00     0.010 A 
ATOM     29  C   UNL A   1      36.466  32.627  30.178  1.00  0.00    -0.014 A 
BRANCH  29  30
ATOM     30  C   UNL A   1      37.654  31.958  30.766  1.00  0.00     0.031 A 
ATOM     31  C   UNL A   1      38.121  32.298  32.154  1.00  0.00     0.074 A 
ATOM     32  C   UNL A   1      38.322  31.046  30.033  1.00  0.00     0.049 A 
ATOM     33  N   UNL A   1      39.101  31.773  32.845  1.00  0.00    -0.248 NA
ATOM     34  C   UNL A   1      37.413  33.385  32.848  1.00  0.00     0.031 C 
ATOM     35  C   UNL A   1      38.008  30.678  28.651  1.00  0.00     0.029 A 
ATOM     36  N   UNL A   1      39.396  30.255  30.352  1.00  0.00    -0.354 N 
ATOM     37  C   UNL A   1      39.127  32.464  34.051  1.00  0.00     0.074 A 
ATOM     38  C   UNL A   1      38.106  33.486  33.973  1.00  0.00     0.031 C 
ATOM     39  C   UNL A   1      38.842  29.703  28.256  1.00  0.00     0.029 A 
ATOM     40  C   UNL A   1      39.764  29.396  29.345  1.00  0.00     0.049 A 
ATOM     41  H   UNL A   1      39.860  30.298  31.220  1.00  0.00     0.167 HD
ATOM     42  C   UNL A   1      39.911  32.249  35.134  1.00  0.00     0.037 A 
ATOM     43  C   UNL A   1      40.727  28.456  29.309  1.00  0.00     0.037 A 
ATOM     44  C   UNL A   1      40.917  31.221  35.214  1.00  0.00     0.049 A 
ATOM     45  C   UNL A   1      41.568  28.223  30.531  1.00  0.00     0.074 A 
ATOM     46  C   UNL A   1      41.726  30.886  36.286  1.00  0.00     0.029 A 
ATOM     47  N   UNL A   1      41.252  30.362  34.178  1.00  0.00    -0.354 N 
ATOM     48  N   UNL A   1      41.526  28.827  31.694  1.00  0.00    -0.248 NA
ATOM     49  C   UNL A   1      42.582  27.163  30.442  1.00  0.00     0.031 C 
ATOM     50  C   UNL A   1      42.580  29.853  35.885  1.00  0.00     0.029 A 
ATOM     51  C   UNL A   1      42.269  29.510  34.579  1.00  0.00     0.049 A 
ATOM     52  H   UNL A   1      40.830  30.358  33.289  1.00  0.00     0.167 HD
ATOM     53  C   UNL A   1      42.487  28.207  32.481  1.00  0.00     0.074 A 
ATOM     54  C   UNL A   1      43.078  27.163  31.669  1.00  0.00     0.031 C 
ATOM     55  C   UNL A   1      42.850  28.478  33.759  1.00  0.00     0.037 A 
BRANCH  42  56
ATOM     56  C   UNL A   1      39.705  33.140  36.326  1.00  0.00     0.057 A 
ATOM     57  C   UNL A   1      38.782  32.824  37.332  1.00  0.00     0.134 A 
ATOM     58  C   UNL A   1      40.458  34.309  36.487  1.00  0.00     0.134 A 
ATOM     59  F   UNL A   1      38.018  31.725  37.233  1.00  0.00    -0.206 F 
ATOM     60  C   UNL A   1      38.598  33.650  38.442  1.00  0.00     0.040 A 
ATOM     61  C   UNL A   1      40.303  35.130  37.607  1.00  0.00     0.040 A 
ATOM     62  F   UNL A   1      41.363  34.670  35.565  1.00  0.00    -0.206 F 
ATOM     63  C   UNL A   1      39.366  34.804  38.585  1.00  0.00     0.006 A 
ENDBRANCH  42  56
BRANCH  43  64
ATOM     64  C   UNL A   1      40.917  27.633  28.088  1.00  0.00     0.057 A 
ATOM     65  C   UNL A   1      41.753  28.062  27.050  1.00  0.00     0.134 A 
ATOM     66  C   UNL A   1      40.262  26.407  27.924  1.00  0.00     0.134 A 
ATOM     67  F   UNL A   1      42.394  29.236  27.142  1.00  0.00    -0.206 F 
ATOM     68  C   UNL A   1      41.913  27.314  25.883  1.00  0.00     0.040 A 
ATOM     69  C   UNL A   1      40.434  25.635  26.774  1.00  0.00     0.040 A 
ATOM     70  F   UNL A   1      39.456  25.936  28.887  1.00  0.00    -0.206 F 
ATOM     71  C   UNL A   1      41.255  26.093  25.746  1.00  0.00     0.006 A 
ENDBRANCH  43  64
BRANCH  55  72
ATOM     72  C   UNL A   1      43.919  27.611  34.358  1.00  0.00     0.057 A 
ATOM     73  C   UNL A   1      43.624  26.379  34.959  1.00  0.00     0.134 A 
ATOM     74  C   UNL A   1      45.261  28.013  34.334  1.00  0.00     0.134 A 
ATOM     75  F   UNL A   1      42.358  25.942  35.027  1.00  0.00    -0.206 F 
ATOM     76  C   UNL A   1      44.621  25.599  35.547  1.00  0.00     0.040 A 
ATOM     77  C   UNL A   1      46.269  27.226  34.891  1.00  0.00     0.040 A 
ATOM     78  F   UNL A   1      45.613  29.176  33.764  1.00  0.00    -0.206 F 
ATOM     79  C   UNL A   1      45.948  26.021  35.511  1.00  0.00     0.006 A 
ENDBRANCH  55  72
ENDBRANCH  29  30
ENDBRANCH  21  24
ENDBRANCH  19  20
ENDBRANCH  18  19
ENDBRANCH   1  18
TORSDOF 15
ENDMDL
MODEL 2
REMARK VINA RESULT:     -10.2      6.149     11.035
REMARK SMILES C=CCC(=O)N[C@@](C)(CC)C(=O)NCCCCNC(=O)c1ccc(-c2c3nc(c(-c4c(F)cccc4F)c4ccc([nH]4)c(-c4c(F)cccc4F)c4nc(c(-c5c(F)cccc5F)c5ccc2[nH]5)C=C4)C=C3)cc1
REMARK SMILES IDX 15 1 14 2 13 3 11 4 12 5 7 7 8 8 6 9 4 10 5 11 3 13 2 14
REMARK SMILES IDX 1 15 9 16 10 17 16 18 17 19 18 20 19 21 20 23 21 24 22 25
REMARK SMILES IDX 74 26 23 27 73 28 24 29 25 30 26 31 67 32 27 33 72 34 66 35
REMARK SMILES IDX 68 36 28 37 71 38 65 39 64 40 29 42 55 43 38 44 54 45 39 46
REMARK SMILES IDX 42 47 53 48 69 49 40 50 41 51 52 53 70 54 43 55 30 56 31 57
REMARK SMILES IDX 36 58 32 59 33 60 35 61 37 62 34 63 56 64 57 65 62 66 58 67
REMARK SMILES IDX 59 68 61 69 63 70 60 71 44 72 45 73 50 74 46 75 47 76 49 77
REMARK SMILES IDX 51 78 48 79
REMARK H PARENT 13 6 6 12 18 22 68 41 42 52
REMARK Flexibility Score: inf
ROOT
ATOM      1  C   UNL A   1      37.349  20.801  24.453  1.00  0.00     0.023 C 
ENDROOT
BRANCH   1   2
ATOM      2  C   UNL A   1      36.100  21.059  25.298  1.00  0.00     0.116 C 
BRANCH   2   3
ATOM      3  N   UNL A   1      35.282  22.085  24.683  1.00  0.00    -0.354 N 
ATOM      4  C   UNL A   1      33.930  22.080  24.490  1.00  0.00     0.245 C 
ATOM      5  O   UNL A   1      33.555  22.372  23.351  1.00  0.00    -0.272 OA
ATOM      6  H   UNL A   1      35.760  22.884  24.365  1.00  0.00     0.163 HD
BRANCH   4   7
ATOM      7  C   UNL A   1      32.940  21.668  25.622  1.00  0.00     0.116 C 
ATOM      8  C   UNL A   1      31.466  21.785  25.183  1.00  0.00     0.045 C 
BRANCH   7   9
ATOM      9  N   UNL A   1      33.127  20.264  26.091  1.00  0.00    -0.342 N 
ATOM     10  C   UNL A   1      32.978  19.069  25.457  1.00  0.00     0.224 C 
ATOM     11  O   UNL A   1      32.542  18.131  26.135  1.00  0.00    -0.275 OA
ATOM     12  H   UNL A   1      33.409  20.189  27.032  1.00  0.00     0.164 HD
BRANCH  10  13
ATOM     13  C   UNL A   1      33.423  18.836  24.017  1.00  0.00     0.126 C 
BRANCH  13  14
ATOM     14  C   UNL A   1      34.375  17.693  23.828  1.00  0.00    -0.025 C 
ATOM     15  C   UNL A   1      34.012  16.504  23.328  1.00  0.00     0.004 C 
ENDBRANCH  13  14
ENDBRANCH  10  13
ENDBRANCH   7   9
BRANCH   7  16
ATOM     16  C   UNL A   1      33.186  22.592  26.851  1.00  0.00     0.035 C 
ATOM     17  C   UNL A   1      33.397  24.064  26.496  1.00  0.00     0.007 C 
ENDBRANCH   7  16
ENDBRANCH   4   7
ENDBRANCH   2   3
ENDBRANCH   1   2
BRANCH   1  18
ATOM     18  C   UNL A   1      38.168  19.578  24.884  1.00  0.00     0.023 C 
BRANCH  18  19
ATOM     19  C   UNL A   1      39.226  19.848  25.950  1.00  0.00     0.116 C 
BRANCH  19  20
ATOM     20  N   UNL A   1      40.350  18.931  25.863  1.00  0.00    -0.352 N 
ATOM     21  C   UNL A   1      41.690  19.179  25.990  1.00  0.00     0.251 C 
ATOM     22  H   UNL A   1      40.112  17.991  25.687  1.00  0.00     0.163 HD
ATOM     23  O   UNL A   1      42.499  18.285  25.740  1.00  0.00    -0.269 OA
BRANCH  21  24
ATOM     24  C   UNL A   1      42.174  20.514  26.396  1.00  0.00     0.039 A 
ATOM     25  C   UNL A   1      42.599  21.395  25.399  1.00  0.00     0.014 A 
ATOM     26  C   UNL A   1      42.233  20.896  27.739  1.00  0.00     0.014 A 
ATOM     27  C   UNL A   1      43.040  22.671  25.745  1.00  0.00     0.010 A 
ATOM     28  C   UNL A   1      42.605  22.196  28.078  1.00  0.00     0.010 A 
ATOM     29  C   UNL A   1      43.021  23.094  27.085  1.00  0.00    -0.014 A 
BRANCH  29  30
ATOM     30  C   UNL A   1      43.427  24.478  27.437  1.00  0.00     0.031 A 
ATOM     31  C   UNL A   1      44.862  24.911  27.323  1.00  0.00     0.074 A 
ATOM     32  C   UNL A   1      42.493  25.344  27.874  1.00  0.00     0.049 A 
ATOM     33  N   UNL A   1      45.386  26.093  27.532  1.00  0.00    -0.248 NA
ATOM     34  C   UNL A   1      45.842  23.879  26.950  1.00  0.00     0.031 C 
ATOM     35  C   UNL A   1      41.081  25.026  28.092  1.00  0.00     0.029 A 
ATOM     36  N   UNL A   1      42.589  26.672  28.205  1.00  0.00    -0.354 N 
ATOM     37  C   UNL A   1      46.751  25.947  27.317  1.00  0.00     0.074 A 
ATOM     38  C   UNL A   1      46.983  24.550  27.022  1.00  0.00     0.031 C 
ATOM     39  C   UNL A   1      40.434  26.137  28.477  1.00  0.00     0.029 A 
ATOM     40  C   UNL A   1      41.388  27.238  28.559  1.00  0.00     0.049 A 
ATOM     41  H   UNL A   1      43.437  27.172  28.191  1.00  0.00     0.167 HD
ATOM     42  C   UNL A   1      47.717  26.894  27.337  1.00  0.00     0.037 A 
ATOM     43  C   UNL A   1      41.088  28.505  28.898  1.00  0.00     0.037 A 
ATOM     44  C   UNL A   1      47.481  28.287  27.617  1.00  0.00     0.049 A 
ATOM     45  C   UNL A   1      42.175  29.542  28.891  1.00  0.00     0.074 A 
ATOM     46  C   UNL A   1      48.384  29.336  27.608  1.00  0.00     0.029 A 
ATOM     47  N   UNL A   1      46.249  28.826  27.958  1.00  0.00    -0.354 N 
ATOM     48  N   UNL A   1      43.448  29.406  28.604  1.00  0.00    -0.248 NA
ATOM     49  C   UNL A   1      41.781  30.914  29.239  1.00  0.00     0.031 C 
ATOM     50  C   UNL A   1      47.708  30.502  27.985  1.00  0.00     0.029 A 
ATOM     51  C   UNL A   1      46.372  30.188  28.181  1.00  0.00     0.049 A 
ATOM     52  H   UNL A   1      45.411  28.315  28.033  1.00  0.00     0.167 HD
ATOM     53  C   UNL A   1      44.000  30.675  28.712  1.00  0.00     0.074 A 
ATOM     54  C   UNL A   1      42.918  31.571  29.068  1.00  0.00     0.031 C 
ATOM     55  C   UNL A   1      45.287  31.066  28.537  1.00  0.00     0.037 A 
BRANCH  42  56
ATOM     56  C   UNL A   1      49.123  26.456  27.039  1.00  0.00     0.057 A 
ATOM     57  C   UNL A   1      49.978  25.985  28.044  1.00  0.00     0.134 A 
ATOM     58  C   UNL A   1      49.619  26.474  25.729  1.00  0.00     0.134 A 
ATOM     59  F   UNL A   1      49.571  25.953  29.323  1.00  0.00    -0.206 F 
ATOM     60  C   UNL A   1      51.281  25.571  27.763  1.00  0.00     0.040 A 
ATOM     61  C   UNL A   1      50.912  26.037  25.431  1.00  0.00     0.040 A 
ATOM     62  F   UNL A   1      48.854  26.909  24.717  1.00  0.00    -0.206 F 
ATOM     63  C   UNL A   1      51.749  25.590  26.451  1.00  0.00     0.006 A 
ENDBRANCH  42  56
BRANCH  43  64
ATOM     64  C   UNL A   1      39.689  28.875  29.228  1.00  0.00     0.057 A 
ATOM     65  C   UNL A   1      39.199  28.760  30.534  1.00  0.00     0.134 A 
ATOM     66  C   UNL A   1      38.806  29.342  28.246  1.00  0.00     0.134 A 
ATOM     67  F   UNL A   1      39.992  28.303  31.514  1.00  0.00    -0.206 F 
ATOM     68  C   UNL A   1      37.876  29.072  30.849  1.00  0.00     0.040 A 
ATOM     69  C   UNL A   1      37.488  29.683  28.552  1.00  0.00     0.040 A 
ATOM     70  F   UNL A   1      39.217  29.484  26.978  1.00  0.00    -0.206 F 
ATOM     71  C   UNL A   1      37.018  29.540  29.856  1.00  0.00     0.006 A 
ENDBRANCH  43  64
BRANCH  55  72
ATOM     72  C   UNL A   1      45.580  32.528  28.704  1.00  0.00     0.057 A 
ATOM     73  C   UNL A   1      45.497  33.428  27.632  1.00  0.00     0.134 A 
ATOM     74  C   UNL A   1      45.951  33.044  29.952  1.00  0.00     0.134 A 
ATOM     75  F   UNL A   1      45.161  32.996  26.407  1.00  0.00    -0.206 F 
ATOM     76  C   UNL A   1      45.809  34.779  27.788  1.00  0.00     0.040 A 
ATOM     77  C   UNL A   1      46.235  34.399  30.127  1.00  0.00     0.040 A 
ATOM     78  F   UNL A   1      46.039  32.240  31.023  1.00  0.00    -0.206 F 
ATOM     79  C   UNL A   1      46.176  35.268  29.040  1.00  0.00     0.006 A 
ENDBRANCH  55  72
ENDBRANCH  29  30
ENDBRANCH  21  24
ENDBRANCH  19  20
ENDBRANCH  18  19
ENDBRANCH   1  18
TORSDOF 15
ENDMDL
MODEL 3
REMARK VINA RESULT:     -10.1      5.072      9.732
REMARK SMILES C=CCC(=O)N[C@@](C)(CC)C(=O)NCCCCNC(=O)c1ccc(-c2c3nc(c(-c4c(F)cccc4F)c4ccc([nH]4)c(-c4c(F)cccc4F)c4nc(c(-c5c(F)cccc5F)c5ccc2[nH]5)C=C4)C=C3)cc1
REMARK SMILES IDX 15 1 14 2 13 3 11 4 12 5 7 7 8 8 6 9 4 10 5 11 3 13 2 14
REMARK SMILES IDX 1 15 9 16 10 17 16 18 17 19 18 20 19 21 20 23 21 24 22 25
REMARK SMILES IDX 74 26 23 27 73 28 24 29 25 30 26 31 67 32 27 33 72 34 66 35
REMARK SMILES IDX 68 36 28 37 71 38 65 39 64 40 29 42 55 43 38 44 54 45 39 46
REMARK SMILES IDX 42 47 53 48 69 49 40 50 41 51 52 53 70 54 43 55 30 56 31 57
REMARK SMILES IDX 36 58 32 59 33 60 35 61 37 62 34 63 56 64 57 65 62 66 58 67
REMARK SMILES IDX 59 68 61 69 63 70 60 71 44 72 45 73 50 74 46 75 47 76 49 77
REMARK SMILES IDX 51 78 48 79
REMARK H PARENT 13 6 6 12 18 22 68 41 42 52
REMARK Flexibility Score: inf
ROOT
ATOM      1  C   UNL A   1      36.467  20.269  24.977  1.00  0.00     0.023 C 
ENDROOT
BRANCH   1   2
ATOM      2  C   UNL A   1      36.085  21.627  25.570  1.00  0.00     0.116 C 
BRANCH   2   3
ATOM      3  N   UNL A   1      35.181  21.447  26.689  1.00  0.00    -0.354 N 
ATOM      4  C   UNL A   1      33.964  22.033  26.890  1.00  0.00     0.245 C 
ATOM      5  O   UNL A   1      33.795  22.538  28.003  1.00  0.00    -0.272 OA
ATOM      6  H   UNL A   1      35.482  20.826  27.391  1.00  0.00     0.163 HD
BRANCH   4   7
ATOM      7  C   UNL A   1      32.892  22.109  25.761  1.00  0.00     0.116 C 
ATOM      8  C   UNL A   1      31.580  22.765  26.240  1.00  0.00     0.045 C 
BRANCH   7   9
ATOM      9  N   UNL A   1      33.340  22.889  24.571  1.00  0.00    -0.342 N 
ATOM     10  C   UNL A   1      33.506  24.226  24.372  1.00  0.00     0.224 C 
ATOM     11  O   UNL A   1      33.230  24.659  23.248  1.00  0.00    -0.275 OA
ATOM     12  H   UNL A   1      33.553  22.336  23.784  1.00  0.00     0.164 HD
BRANCH  10  13
ATOM     13  C   UNL A   1      34.107  25.149  25.427  1.00  0.00     0.126 C 
BRANCH  13  14
ATOM     14  C   UNL A   1      33.663  26.578  25.341  1.00  0.00    -0.025 C 
ATOM     15  C   UNL A   1      33.657  27.415  26.388  1.00  0.00     0.004 C 
ENDBRANCH  13  14
ENDBRANCH  10  13
ENDBRANCH   7   9
BRANCH   7  16
ATOM     16  C   UNL A   1      32.594  20.663  25.267  1.00  0.00     0.035 C 
ATOM     17  C   UNL A   1      32.418  20.540  23.753  1.00  0.00     0.007 C 
ENDBRANCH   7  16
ENDBRANCH   4   7
ENDBRANCH   2   3
ENDBRANCH   1   2
BRANCH   1  18
ATOM     18  C   UNL A   1      37.965  20.095  24.700  1.00  0.00     0.023 C 
BRANCH  18  19
ATOM     19  C   UNL A   1      38.861  20.123  25.935  1.00  0.00     0.116 C 
BRANCH  19  20
ATOM     20  N   UNL A   1      40.044  19.293  25.785  1.00  0.00    -0.352 N 
ATOM     21  C   UNL A   1      41.359  19.600  26.007  1.00  0.00     0.251 C 
ATOM     22  H   UNL A   1      39.874  18.373  25.479  1.00  0.00     0.163 HD
ATOM     23  O   UNL A   1      42.233  18.795  25.682  1.00  0.00    -0.269 OA
BRANCH  21  24
ATOM     24  C   UNL A   1      41.740  20.896  26.603  1.00  0.00     0.039 A 
ATOM     25  C   UNL A   1      42.112  21.935  25.747  1.00  0.00     0.014 A 
ATOM     26  C   UNL A   1      41.756  21.090  27.988  1.00  0.00     0.014 A 
ATOM     27  C   UNL A   1      42.455  23.179  26.276  1.00  0.00     0.010 A 
ATOM     28  C   UNL A   1      42.029  22.353  28.511  1.00  0.00     0.010 A 
ATOM     29  C   UNL A   1      42.390  23.408  27.661  1.00  0.00    -0.014 A 
BRANCH  29  30
ATOM     30  C   UNL A   1      42.691  24.754  28.210  1.00  0.00     0.031 A 
ATOM     31  C   UNL A   1      44.100  25.147  28.555  1.00  0.00     0.074 A 
ATOM     32  C   UNL A   1      41.680  25.622  28.407  1.00  0.00     0.049 A 
ATOM     33  N   UNL A   1      44.552  26.296  28.989  1.00  0.00    -0.248 NA
ATOM     34  C   UNL A   1      45.133  24.108  28.421  1.00  0.00     0.031 C 
ATOM     35  C   UNL A   1      40.263  25.337  28.175  1.00  0.00     0.029 A 
ATOM     36  N   UNL A   1      41.690  26.923  28.840  1.00  0.00    -0.354 N 
ATOM     37  C   UNL A   1      45.917  26.120  29.180  1.00  0.00     0.074 A 
ATOM     38  C   UNL A   1      46.210  24.736  28.874  1.00  0.00     0.031 C 
ATOM     39  C   UNL A   1      39.545  26.444  28.424  1.00  0.00     0.029 A 
ATOM     40  C   UNL A   1      40.446  27.506  28.859  1.00  0.00     0.049 A 
ATOM     41  H   UNL A   1      42.511  27.396  29.112  1.00  0.00     0.167 HD
ATOM     42  C   UNL A   1      46.847  27.033  29.549  1.00  0.00     0.037 A 
ATOM     43  C   UNL A   1      40.075  28.760  29.178  1.00  0.00     0.037 A 
ATOM     44  C   UNL A   1      46.555  28.413  29.839  1.00  0.00     0.049 A 
ATOM     45  C   UNL A   1      41.128  29.759  29.563  1.00  0.00     0.074 A 
ATOM     46  C   UNL A   1      47.434  29.431  30.168  1.00  0.00     0.029 A 
ATOM     47  N   UNL A   1      45.284  28.969  29.835  1.00  0.00    -0.354 N 
ATOM     48  N   UNL A   1      42.426  29.600  29.658  1.00  0.00    -0.248 NA
ATOM     49  C   UNL A   1      40.665  31.119  29.870  1.00  0.00     0.031 C 
ATOM     50  C   UNL A   1      46.691  30.593  30.405  1.00  0.00     0.029 A 
ATOM     51  C   UNL A   1      45.353  30.311  30.174  1.00  0.00     0.049 A 
ATOM     52  H   UNL A   1      44.456  28.482  29.623  1.00  0.00     0.167 HD
ATOM     53  C   UNL A   1      42.937  30.842  30.011  1.00  0.00     0.074 A 
ATOM     54  C   UNL A   1      41.810  31.749  30.088  1.00  0.00     0.031 C 
ATOM     55  C   UNL A   1      44.222  31.200  30.251  1.00  0.00     0.037 A 
BRANCH  42  56
ATOM     56  C   UNL A   1      48.271  26.568  29.652  1.00  0.00     0.057 A 
ATOM     57  C   UNL A   1      48.795  26.053  30.846  1.00  0.00     0.134 A 
ATOM     58  C   UNL A   1      49.121  26.604  28.539  1.00  0.00     0.134 A 
ATOM     59  F   UNL A   1      48.039  26.002  31.953  1.00  0.00    -0.206 F 
ATOM     60  C   UNL A   1      50.117  25.615  30.937  1.00  0.00     0.040 A 
ATOM     61  C   UNL A   1      50.438  26.144  28.610  1.00  0.00     0.040 A 
ATOM     62  F   UNL A   1      48.685  27.080  27.364  1.00  0.00    -0.206 F 
ATOM     63  C   UNL A   1      50.941  25.653  29.814  1.00  0.00     0.006 A 
ENDBRANCH  42  56
BRANCH  43  64
ATOM     64  C   UNL A   1      38.645  29.154  29.102  1.00  0.00     0.057 A 
ATOM     65  C   UNL A   1      37.812  29.073  30.224  1.00  0.00     0.134 A 
ATOM     66  C   UNL A   1      38.077  29.610  27.907  1.00  0.00     0.134 A 
ATOM     67  F   UNL A   1      38.296  28.627  31.392  1.00  0.00    -0.206 F 
ATOM     68  C   UNL A   1      36.459  29.408  30.156  1.00  0.00     0.040 A 
ATOM     69  C   UNL A   1      36.731  29.975  27.831  1.00  0.00     0.040 A 
ATOM     70  F   UNL A   1      38.824  29.721  26.800  1.00  0.00    -0.206 F 
ATOM     71  C   UNL A   1      35.917  29.865  28.957  1.00  0.00     0.006 A 
ENDBRANCH  43  64
BRANCH  55  72
ATOM     72  C   UNL A   1      44.472  32.640  30.595  1.00  0.00     0.057 A 
ATOM     73  C   UNL A   1      44.694  33.610  29.608  1.00  0.00     0.134 A 
ATOM     74  C   UNL A   1      44.490  33.062  31.931  1.00  0.00     0.134 A 
ATOM     75  F   UNL A   1      44.703  33.269  28.310  1.00  0.00    -0.206 F 
ATOM     76  C   UNL A   1      44.963  34.939  29.939  1.00  0.00     0.040 A 
ATOM     77  C   UNL A   1      44.727  34.394  32.272  1.00  0.00     0.040 A 
ATOM     78  F   UNL A   1      44.274  32.187  32.924  1.00  0.00    -0.206 F 
ATOM     79  C   UNL A   1      44.977  35.333  31.275  1.00  0.00     0.006 A 
ENDBRANCH  55  72
ENDBRANCH  29  30
ENDBRANCH  21  24
ENDBRANCH  19  20
ENDBRANCH  18  19
ENDBRANCH   1  18
TORSDOF 15
ENDMDL
