MODEL 1
REMARK VINA RESULT:     -11.5      0.000      0.000
REMARK SMILES O=C(Cc1cn2ccsc2n1)N[C@@H]1C=C[C@H](C(=O)NCCCCNC(=O)c2ccc(-c3c4nc(c(-c5c(F)cccc5F)c5ccc([nH]5)c(-c5c(F)cccc5F)c5nc(c(-c6c(F)cccc6F)c6ccc3[nH]6)C=C5)C=C4)cc2)C1
REMARK SMILES IDX 21 1 20 2 19 3 17 4 18 5 16 7 13 8 14 9 81 10 15 11 12 12
REMARK SMILES IDX 1 13 2 14 3 16 4 17 5 18 11 19 6 20 10 21 7 22 9 23 8 24
REMARK SMILES IDX 22 25 23 26 24 27 25 28 26 30 27 31 28 32 80 33 29 34 79 35
REMARK SMILES IDX 30 36 31 37 32 38 73 39 33 40 78 41 72 42 74 43 34 44 77 45
REMARK SMILES IDX 71 46 70 47 35 49 61 50 44 51 60 52 45 53 48 54 59 55 75 56
REMARK SMILES IDX 46 57 47 58 58 60 76 61 49 62 36 63 37 64 42 65 38 66 39 67
REMARK SMILES IDX 41 68 43 69 40 70 62 71 63 72 68 73 64 74 65 75 67 76 69 77
REMARK SMILES IDX 66 78 50 79 51 80 56 81 52 82 53 83 55 84 57 85 54 86
REMARK H PARENT 19 6 12 15 24 29 74 48 48 59
REMARK Flexibility Score: inf
ROOT
ATOM      1  C   UNL A   1      31.771  30.463  26.822  1.00  0.00     0.023 C 
ENDROOT
BRANCH   1   2
ATOM      2  C   UNL A   1      33.223  30.080  27.104  1.00  0.00     0.116 C 
BRANCH   2   3
ATOM      3  N   UNL A   1      33.477  28.694  26.762  1.00  0.00    -0.356 N 
ATOM      4  C   UNL A   1      33.316  27.981  25.619  1.00  0.00     0.227 C 
ATOM      5  O   UNL A   1      33.534  26.765  25.705  1.00  0.00    -0.274 OA
ATOM      6  H   UNL A   1      33.836  28.164  27.509  1.00  0.00     0.163 HD
BRANCH   4   7
ATOM      7  C   UNL A   1      32.979  28.582  24.245  1.00  0.00     0.103 C 
ATOM      8  C   UNL A   1      32.626  27.079  22.320  1.00  0.00     0.106 C 
ATOM      9  C   UNL A   1      33.869  27.892  22.184  1.00  0.00    -0.006 C 
ATOM     10  C   UNL A   1      31.927  27.710  23.531  1.00  0.00     0.047 C 
ATOM     11  C   UNL A   1      34.042  28.737  23.209  1.00  0.00    -0.016 C 
BRANCH   8  12
ATOM     12  N   UNL A   1      32.968  25.696  22.558  1.00  0.00    -0.350 N 
ATOM     13  O   UNL A   1      33.075  25.137  20.333  1.00  0.00    -0.275 OA
ATOM     14  C   UNL A   1      33.100  24.801  21.516  1.00  0.00     0.226 C 
ATOM     15  H   UNL A   1      33.109  25.386  23.481  1.00  0.00     0.164 HD
BRANCH  14  16
ATOM     16  C   UNL A   1      33.191  23.345  21.922  1.00  0.00     0.157 C 
BRANCH  16  17
ATOM     17  C   UNL A   1      33.394  23.171  23.384  1.00  0.00     0.070 A 
ATOM     18  C   UNL A   1      34.540  22.760  24.059  1.00  0.00     0.118 A 
ATOM     19  N   UNL A   1      32.338  23.375  24.265  1.00  0.00    -0.223 NA
ATOM     20  N   UNL A   1      34.162  22.696  25.364  1.00  0.00    -0.297 N 
ATOM     21  C   UNL A   1      32.852  23.063  25.423  1.00  0.00     0.193 A 
ATOM     22  C   UNL A   1      34.742  22.360  26.564  1.00  0.00     0.104 A 
ATOM     23  S   UNL A   1      32.255  22.992  27.051  1.00  0.00    -0.105 S 
ATOM     24  C   UNL A   1      33.866  22.463  27.579  1.00  0.00     0.087 A 
ENDBRANCH  16  17
ENDBRANCH  14  16
ENDBRANCH   8  12
ENDBRANCH   4   7
ENDBRANCH   2   3
ENDBRANCH   1   2
BRANCH   1  25
ATOM     25  C   UNL A   1      31.510  31.972  26.829  1.00  0.00     0.023 C 
BRANCH  25  26
ATOM     26  C   UNL A   1      32.724  32.836  27.157  1.00  0.00     0.116 C 
BRANCH  26  27
ATOM     27  N   UNL A   1      32.371  34.153  27.665  1.00  0.00    -0.352 N 
ATOM     28  C   UNL A   1      32.986  34.902  28.636  1.00  0.00     0.251 C 
ATOM     29  H   UNL A   1      31.577  34.566  27.253  1.00  0.00     0.163 HD
ATOM     30  O   UNL A   1      32.474  35.949  29.024  1.00  0.00    -0.269 OA
BRANCH  28  31
ATOM     31  C   UNL A   1      34.243  34.423  29.248  1.00  0.00     0.039 A 
ATOM     32  C   UNL A   1      34.169  33.704  30.442  1.00  0.00     0.014 A 
ATOM     33  C   UNL A   1      35.482  34.664  28.648  1.00  0.00     0.014 A 
ATOM     34  C   UNL A   1      35.332  33.173  31.001  1.00  0.00     0.010 A 
ATOM     35  C   UNL A   1      36.629  34.063  29.161  1.00  0.00     0.010 A 
ATOM     36  C   UNL A   1      36.567  33.314  30.344  1.00  0.00    -0.014 A 
BRANCH  36  37
ATOM     37  C   UNL A   1      37.781  32.654  30.889  1.00  0.00     0.031 A 
ATOM     38  C   UNL A   1      38.420  33.142  32.159  1.00  0.00     0.074 A 
ATOM     39  C   UNL A   1      38.320  31.617  30.220  1.00  0.00     0.049 A 
ATOM     40  N   UNL A   1      39.444  32.648  32.809  1.00  0.00    -0.248 NA
ATOM     41  C   UNL A   1      37.852  34.354  32.770  1.00  0.00     0.031 C 
ATOM     42  C   UNL A   1      37.836  31.094  28.939  1.00  0.00     0.029 A 
ATOM     43  N   UNL A   1      39.385  30.807  30.527  1.00  0.00    -0.354 N 
ATOM     44  C   UNL A   1      39.641  33.484  33.900  1.00  0.00     0.074 A 
ATOM     45  C   UNL A   1      38.674  34.555  33.790  1.00  0.00     0.031 C 
ATOM     46  C   UNL A   1      38.570  30.024  28.596  1.00  0.00     0.029 A 
ATOM     47  C   UNL A   1      39.594  29.804  29.611  1.00  0.00     0.049 A 
ATOM     48  H   UNL A   1      39.945  30.933  31.326  1.00  0.00     0.167 HD
ATOM     49  C   UNL A   1      40.528  33.359  34.917  1.00  0.00     0.037 A 
ATOM     50  C   UNL A   1      40.502  28.811  29.598  1.00  0.00     0.037 A 
ATOM     51  C   UNL A   1      41.487  32.289  35.027  1.00  0.00     0.049 A 
ATOM     52  C   UNL A   1      41.469  28.689  30.742  1.00  0.00     0.074 A 
ATOM     53  C   UNL A   1      42.394  32.044  36.043  1.00  0.00     0.029 A 
ATOM     54  N   UNL A   1      41.667  31.289  34.082  1.00  0.00    -0.354 N 
ATOM     55  N   UNL A   1      41.586  29.437  31.812  1.00  0.00    -0.248 NA
ATOM     56  C   UNL A   1      42.421  27.571  30.682  1.00  0.00     0.031 C 
ATOM     57  C   UNL A   1      43.158  30.926  35.689  1.00  0.00     0.029 A 
ATOM     58  C   UNL A   1      42.688  30.440  34.481  1.00  0.00     0.049 A 
ATOM     59  H   UNL A   1      41.149  31.198  33.250  1.00  0.00     0.167 HD
ATOM     60  C   UNL A   1      42.606  28.869  32.563  1.00  0.00     0.074 A 
ATOM     61  C   UNL A   1      43.053  27.697  31.839  1.00  0.00     0.031 C 
ATOM     62  C   UNL A   1      43.129  29.281  33.746  1.00  0.00     0.037 A 
BRANCH  49  63
ATOM     63  C   UNL A   1      40.498  34.406  35.995  1.00  0.00     0.057 A 
ATOM     64  C   UNL A   1      41.309  35.548  35.939  1.00  0.00     0.134 A 
ATOM     65  C   UNL A   1      39.624  34.291  37.083  1.00  0.00     0.134 A 
ATOM     66  F   UNL A   1      42.178  35.716  34.930  1.00  0.00    -0.206 F 
ATOM     67  C   UNL A   1      41.274  36.521  36.940  1.00  0.00     0.040 A 
ATOM     68  C   UNL A   1      39.557  35.272  38.074  1.00  0.00     0.040 A 
ATOM     69  F   UNL A   1      38.814  33.228  37.198  1.00  0.00    -0.206 F 
ATOM     70  C   UNL A   1      40.389  36.388  38.008  1.00  0.00     0.006 A 
ENDBRANCH  49  63
BRANCH  50  71
ATOM     71  C   UNL A   1      40.516  27.828  28.484  1.00  0.00     0.057 A 
ATOM     72  C   UNL A   1      41.241  28.070  27.311  1.00  0.00     0.134 A 
ATOM     73  C   UNL A   1      39.794  26.631  28.559  1.00  0.00     0.134 A 
ATOM     74  F   UNL A   1      41.938  29.208  27.171  1.00  0.00    -0.206 F 
ATOM     75  C   UNL A   1      41.229  27.172  26.243  1.00  0.00     0.040 A 
ATOM     76  C   UNL A   1      39.797  25.709  27.510  1.00  0.00     0.040 A 
ATOM     77  F   UNL A   1      39.086  26.333  29.658  1.00  0.00    -0.206 F 
ATOM     78  C   UNL A   1      40.508  25.984  26.344  1.00  0.00     0.006 A 
ENDBRANCH  50  71
BRANCH  62  79
ATOM     79  C   UNL A   1      44.222  28.435  34.335  1.00  0.00     0.057 A 
ATOM     80  C   UNL A   1      45.577  28.681  34.069  1.00  0.00     0.134 A 
ATOM     81  C   UNL A   1      43.916  27.355  35.173  1.00  0.00     0.134 A 
ATOM     82  F   UNL A   1      45.940  29.692  33.265  1.00  0.00    -0.206 F 
ATOM     83  C   UNL A   1      46.582  27.855  34.577  1.00  0.00     0.040 A 
ATOM     84  C   UNL A   1      44.914  26.544  35.715  1.00  0.00     0.040 A 
ATOM     85  F   UNL A   1      42.641  27.070  35.480  1.00  0.00    -0.206 F 
ATOM     86  C   UNL A   1      46.251  26.784  35.405  1.00  0.00     0.006 A 
ENDBRANCH  62  79
ENDBRANCH  36  37
ENDBRANCH  28  31
ENDBRANCH  26  27
ENDBRANCH  25  26
ENDBRANCH   1  25
TORSDOF 14
ENDMDL
MODEL 2
REMARK VINA RESULT:     -11.5      4.723      9.889
REMARK SMILES O=C(Cc1cn2ccsc2n1)N[C@@H]1C=C[C@H](C(=O)NCCCCNC(=O)c2ccc(-c3c4nc(c(-c5c(F)cccc5F)c5ccc([nH]5)c(-c5c(F)cccc5F)c5nc(c(-c6c(F)cccc6F)c6ccc3[nH]6)C=C5)C=C4)cc2)C1
REMARK SMILES IDX 21 1 20 2 19 3 17 4 18 5 16 7 13 8 14 9 81 10 15 11 12 12
REMARK SMILES IDX 1 13 2 14 3 16 4 17 5 18 11 19 6 20 10 21 7 22 9 23 8 24
REMARK SMILES IDX 22 25 23 26 24 27 25 28 26 30 27 31 28 32 80 33 29 34 79 35
REMARK SMILES IDX 30 36 31 37 32 38 73 39 33 40 78 41 72 42 74 43 34 44 77 45
REMARK SMILES IDX 71 46 70 47 35 49 61 50 44 51 60 52 45 53 48 54 59 55 75 56
REMARK SMILES IDX 46 57 47 58 58 60 76 61 49 62 36 63 37 64 42 65 38 66 39 67
REMARK SMILES IDX 41 68 43 69 40 70 62 71 63 72 68 73 64 74 65 75 67 76 69 77
REMARK SMILES IDX 66 78 50 79 51 80 56 81 52 82 53 83 55 84 57 85 54 86
REMARK H PARENT 19 6 12 15 24 29 74 48 48 59
REMARK Flexibility Score: inf
ROOT
ATOM      1  C   UNL A   1      37.228  21.186  24.656  1.00  0.00     0.023 C 
ENDROOT
BRANCH   1   2
ATOM      2  C   UNL A   1      35.738  21.048  24.964  1.00  0.00     0.116 C 
BRANCH   2   3
ATOM      3  N   UNL A   1      35.206  22.267  25.540  1.00  0.00    -0.356 N 
ATOM      4  C   UNL A   1      34.074  22.978  25.312  1.00  0.00     0.227 C 
ATOM      5  O   UNL A   1      33.979  24.054  25.918  1.00  0.00    -0.274 OA
ATOM      6  H   UNL A   1      35.782  22.657  26.237  1.00  0.00     0.163 HD
BRANCH   4   7
ATOM      7  C   UNL A   1      32.896  22.507  24.444  1.00  0.00     0.103 C 
ATOM      8  C   UNL A   1      31.941  24.040  22.763  1.00  0.00     0.106 C 
ATOM      9  C   UNL A   1      30.999  23.775  23.889  1.00  0.00    -0.006 C 
ATOM     10  C   UNL A   1      33.064  23.021  23.001  1.00  0.00     0.047 C 
ATOM     11  C   UNL A   1      31.500  22.913  24.783  1.00  0.00    -0.016 C 
BRANCH   8  12
ATOM     12  N   UNL A   1      32.424  25.399  22.835  1.00  0.00    -0.350 N 
ATOM     13  O   UNL A   1      33.150  25.462  20.657  1.00  0.00    -0.275 OA
ATOM     14  C   UNL A   1      33.068  25.988  21.767  1.00  0.00     0.226 C 
ATOM     15  H   UNL A   1      32.291  25.915  23.663  1.00  0.00     0.164 HD
BRANCH  14  16
ATOM     16  C   UNL A   1      33.752  27.304  22.070  1.00  0.00     0.157 C 
BRANCH  16  17
ATOM     17  C   UNL A   1      33.279  27.915  23.339  1.00  0.00     0.070 A 
ATOM     18  C   UNL A   1      32.398  28.978  23.516  1.00  0.00     0.118 A 
ATOM     19  N   UNL A   1      33.769  27.461  24.559  1.00  0.00    -0.223 NA
ATOM     20  N   UNL A   1      32.373  29.180  24.861  1.00  0.00    -0.297 N 
ATOM     21  C   UNL A   1      33.206  28.260  25.422  1.00  0.00     0.193 A 
ATOM     22  C   UNL A   1      31.758  30.042  25.738  1.00  0.00     0.104 A 
ATOM     23  S   UNL A   1      33.269  28.444  27.147  1.00  0.00    -0.105 S 
ATOM     24  C   UNL A   1      32.121  29.791  27.008  1.00  0.00     0.087 A 
ENDBRANCH  16  17
ENDBRANCH  14  16
ENDBRANCH   8  12
ENDBRANCH   4   7
ENDBRANCH   2   3
ENDBRANCH   1   2
BRANCH   1  25
ATOM     25  C   UNL A   1      38.048  19.927  24.956  1.00  0.00     0.023 C 
BRANCH  25  26
ATOM     26  C   UNL A   1      39.153  20.107  25.994  1.00  0.00     0.116 C 
BRANCH  26  27
ATOM     27  N   UNL A   1      40.210  19.114  25.884  1.00  0.00    -0.352 N 
ATOM     28  C   UNL A   1      41.562  19.263  26.063  1.00  0.00     0.251 C 
ATOM     29  H   UNL A   1      39.913  18.204  25.649  1.00  0.00     0.163 HD
ATOM     30  O   UNL A   1      42.323  18.333  25.809  1.00  0.00    -0.269 OA
BRANCH  28  31
ATOM     31  C   UNL A   1      42.105  20.560  26.517  1.00  0.00     0.039 A 
ATOM     32  C   UNL A   1      42.538  21.473  25.554  1.00  0.00     0.014 A 
ATOM     33  C   UNL A   1      42.175  20.884  27.874  1.00  0.00     0.014 A 
ATOM     34  C   UNL A   1      42.982  22.735  25.950  1.00  0.00     0.010 A 
ATOM     35  C   UNL A   1      42.538  22.172  28.262  1.00  0.00     0.010 A 
ATOM     36  C   UNL A   1      42.949  23.110  27.305  1.00  0.00    -0.014 A 
BRANCH  36  37
ATOM     37  C   UNL A   1      43.321  24.490  27.706  1.00  0.00     0.031 A 
ATOM     38  C   UNL A   1      44.755  24.941  27.684  1.00  0.00     0.074 A 
ATOM     39  C   UNL A   1      42.356  25.338  28.112  1.00  0.00     0.049 A 
ATOM     40  N   UNL A   1      45.251  26.125  27.942  1.00  0.00    -0.248 NA
ATOM     41  C   UNL A   1      45.768  23.927  27.350  1.00  0.00     0.031 C 
ATOM     42  C   UNL A   1      40.936  25.000  28.246  1.00  0.00     0.029 A 
ATOM     43  N   UNL A   1      42.417  26.660  28.473  1.00  0.00    -0.354 N 
ATOM     44  C   UNL A   1      46.627  25.999  27.801  1.00  0.00     0.074 A 
ATOM     45  C   UNL A   1      46.894  24.609  27.500  1.00  0.00     0.031 C 
ATOM     46  C   UNL A   1      40.256  26.098  28.613  1.00  0.00     0.029 A 
ATOM     47  C   UNL A   1      41.191  27.206  28.771  1.00  0.00     0.049 A 
ATOM     48  H   UNL A   1      43.259  27.169  28.517  1.00  0.00     0.167 HD
ATOM     49  C   UNL A   1      47.581  26.958  27.887  1.00  0.00     0.037 A 
ATOM     50  C   UNL A   1      40.858  28.461  29.122  1.00  0.00     0.037 A 
ATOM     51  C   UNL A   1      47.311  28.342  28.183  1.00  0.00     0.049 A 
ATOM     52  C   UNL A   1      41.933  29.509  29.202  1.00  0.00     0.074 A 
ATOM     53  C   UNL A   1      48.201  29.401  28.242  1.00  0.00     0.029 A 
ATOM     54  N   UNL A   1      46.057  28.858  28.476  1.00  0.00    -0.354 N 
ATOM     55  N   UNL A   1      43.221  29.394  28.980  1.00  0.00    -0.248 NA
ATOM     56  C   UNL A   1      41.504  30.866  29.566  1.00  0.00     0.031 C 
ATOM     57  C   UNL A   1      47.493  30.547  28.622  1.00  0.00     0.029 A 
ATOM     58  C   UNL A   1      46.154  30.216  28.741  1.00  0.00     0.049 A 
ATOM     59  H   UNL A   1      45.222  28.337  28.495  1.00  0.00     0.167 HD
ATOM     60  C   UNL A   1      43.751  30.665  29.155  1.00  0.00     0.074 A 
ATOM     61  C   UNL A   1      42.640  31.539  29.471  1.00  0.00     0.031 C 
ATOM     62  C   UNL A   1      45.041  31.073  29.064  1.00  0.00     0.037 A 
BRANCH  49  63
ATOM     63  C   UNL A   1      49.005  26.540  27.655  1.00  0.00     0.057 A 
ATOM     64  C   UNL A   1      49.580  26.550  26.376  1.00  0.00     0.134 A 
ATOM     65  C   UNL A   1      49.824  26.155  28.724  1.00  0.00     0.134 A 
ATOM     66  F   UNL A   1      48.849  26.896  25.305  1.00  0.00    -0.206 F 
ATOM     67  C   UNL A   1      50.905  26.166  26.166  1.00  0.00     0.040 A 
ATOM     68  C   UNL A   1      51.160  25.799  28.530  1.00  0.00     0.040 A 
ATOM     69  F   UNL A   1      49.343  26.128  29.976  1.00  0.00    -0.206 F 
ATOM     70  C   UNL A   1      51.702  25.796  27.247  1.00  0.00     0.006 A 
ENDBRANCH  49  63
BRANCH  50  71
ATOM     71  C   UNL A   1      39.438  28.810  29.384  1.00  0.00     0.057 A 
ATOM     72  C   UNL A   1      38.881  28.674  30.662  1.00  0.00     0.134 A 
ATOM     73  C   UNL A   1      38.600  29.274  28.363  1.00  0.00     0.134 A 
ATOM     74  F   UNL A   1      39.628  28.217  31.678  1.00  0.00    -0.206 F 
ATOM     75  C   UNL A   1      37.538  28.960  30.910  1.00  0.00     0.040 A 
ATOM     76  C   UNL A   1      37.262  29.593  28.603  1.00  0.00     0.040 A 
ATOM     77  F   UNL A   1      39.073  29.436  27.119  1.00  0.00    -0.206 F 
ATOM     78  C   UNL A   1      36.726  29.427  29.878  1.00  0.00     0.006 A 
ENDBRANCH  50  71
BRANCH  62  79
ATOM     79  C   UNL A   1      45.307  32.536  29.283  1.00  0.00     0.057 A 
ATOM     80  C   UNL A   1      45.211  33.472  28.243  1.00  0.00     0.134 A 
ATOM     81  C   UNL A   1      45.674  33.013  30.548  1.00  0.00     0.134 A 
ATOM     82  F   UNL A   1      44.877  33.081  27.004  1.00  0.00    -0.206 F 
ATOM     83  C   UNL A   1      45.515  34.820  28.444  1.00  0.00     0.040 A 
ATOM     84  C   UNL A   1      45.946  34.364  30.769  1.00  0.00     0.040 A 
ATOM     85  F   UNL A   1      45.773  32.175  31.590  1.00  0.00    -0.206 F 
ATOM     86  C   UNL A   1      45.880  35.269  29.712  1.00  0.00     0.006 A 
ENDBRANCH  62  79
ENDBRANCH  36  37
ENDBRANCH  28  31
ENDBRANCH  26  27
ENDBRANCH  25  26
ENDBRANCH   1  25
TORSDOF 14
ENDMDL
MODEL 3
REMARK VINA RESULT:     -11.5      5.108     10.261
REMARK SMILES O=C(Cc1cn2ccsc2n1)N[C@@H]1C=C[C@H](C(=O)NCCCCNC(=O)c2ccc(-c3c4nc(c(-c5c(F)cccc5F)c5ccc([nH]5)c(-c5c(F)cccc5F)c5nc(c(-c6c(F)cccc6F)c6ccc3[nH]6)C=C5)C=C4)cc2)C1
REMARK SMILES IDX 21 1 20 2 19 3 17 4 18 5 16 7 13 8 14 9 81 10 15 11 12 12
REMARK SMILES IDX 1 13 2 14 3 16 4 17 5 18 11 19 6 20 10 21 7 22 9 23 8 24
REMARK SMILES IDX 22 25 23 26 24 27 25 28 26 30 27 31 28 32 80 33 29 34 79 35
REMARK SMILES IDX 30 36 31 37 32 38 73 39 33 40 78 41 72 42 74 43 34 44 77 45
REMARK SMILES IDX 71 46 70 47 35 49 61 50 44 51 60 52 45 53 48 54 59 55 75 56
REMARK SMILES IDX 46 57 47 58 58 60 76 61 49 62 36 63 37 64 42 65 38 66 39 67
REMARK SMILES IDX 41 68 43 69 40 70 62 71 63 72 68 73 64 74 65 75 67 76 69 77
REMARK SMILES IDX 66 78 50 79 51 80 56 81 52 82 53 83 55 84 57 85 54 86
REMARK H PARENT 19 6 12 15 24 29 74 48 48 59
REMARK Flexibility Score: inf
ROOT
ATOM      1  C   UNL A   1      37.316  21.005  24.542  1.00  0.00     0.023 C 
ENDROOT
BRANCH   1   2
ATOM      2  C   UNL A   1      37.435  22.184  25.506  1.00  0.00     0.116 C 
BRANCH   2   3
ATOM      3  N   UNL A   1      36.155  22.502  26.107  1.00  0.00    -0.356 N 
ATOM      4  C   UNL A   1      34.892  22.552  25.616  1.00  0.00     0.227 C 
ATOM      5  O   UNL A   1      34.025  22.973  26.393  1.00  0.00    -0.274 OA
ATOM      6  H   UNL A   1      36.214  22.728  27.064  1.00  0.00     0.163 HD
BRANCH   4   7
ATOM      7  C   UNL A   1      34.465  22.049  24.227  1.00  0.00     0.103 C 
ATOM      8  C   UNL A   1      33.355  23.604  22.665  1.00  0.00     0.106 C 
ATOM      9  C   UNL A   1      32.436  22.534  23.150  1.00  0.00    -0.006 C 
ATOM     10  C   UNL A   1      34.728  23.137  23.168  1.00  0.00     0.047 C 
ATOM     11  C   UNL A   1      33.046  21.667  23.967  1.00  0.00    -0.016 C 
BRANCH   8  12
ATOM     12  N   UNL A   1      32.977  24.874  23.238  1.00  0.00    -0.350 N 
ATOM     13  O   UNL A   1      33.650  26.113  21.425  1.00  0.00    -0.275 OA
ATOM     14  C   UNL A   1      33.226  26.060  22.579  1.00  0.00     0.226 C 
ATOM     15  H   UNL A   1      32.532  24.894  24.116  1.00  0.00     0.164 HD
BRANCH  14  16
ATOM     16  C   UNL A   1      33.026  27.314  23.405  1.00  0.00     0.157 C 
BRANCH  16  17
ATOM     17  C   UNL A   1      31.672  27.900  23.233  1.00  0.00     0.070 A 
ATOM     18  C   UNL A   1      30.439  27.359  23.588  1.00  0.00     0.118 A 
ATOM     19  N   UNL A   1      31.517  29.126  22.596  1.00  0.00    -0.223 NA
ATOM     20  N   UNL A   1      29.528  28.264  23.140  1.00  0.00    -0.297 N 
ATOM     21  C   UNL A   1      30.223  29.281  22.557  1.00  0.00     0.193 A 
ATOM     22  C   UNL A   1      28.158  28.389  23.121  1.00  0.00     0.104 A 
ATOM     23  S   UNL A   1      29.149  30.489  21.924  1.00  0.00    -0.105 S 
ATOM     24  C   UNL A   1      27.778  29.525  22.509  1.00  0.00     0.087 A 
ENDBRANCH  16  17
ENDBRANCH  14  16
ENDBRANCH   8  12
ENDBRANCH   4   7
ENDBRANCH   2   3
ENDBRANCH   1   2
BRANCH   1  25
ATOM     25  C   UNL A   1      38.095  19.760  24.977  1.00  0.00     0.023 C 
BRANCH  25  26
ATOM     26  C   UNL A   1      39.267  20.027  25.918  1.00  0.00     0.116 C 
BRANCH  26  27
ATOM     27  N   UNL A   1      40.315  19.022  25.829  1.00  0.00    -0.352 N 
ATOM     28  C   UNL A   1      41.670  19.166  25.984  1.00  0.00     0.251 C 
ATOM     29  H   UNL A   1      40.007  18.107  25.632  1.00  0.00     0.163 HD
ATOM     30  O   UNL A   1      42.421  18.222  25.753  1.00  0.00    -0.269 OA
BRANCH  28  31
ATOM     31  C   UNL A   1      42.230  20.475  26.383  1.00  0.00     0.039 A 
ATOM     32  C   UNL A   1      42.614  21.367  25.381  1.00  0.00     0.014 A 
ATOM     33  C   UNL A   1      42.363  20.829  27.729  1.00  0.00     0.014 A 
ATOM     34  C   UNL A   1      43.072  22.638  25.728  1.00  0.00     0.010 A 
ATOM     35  C   UNL A   1      42.740  22.125  28.071  1.00  0.00     0.010 A 
ATOM     36  C   UNL A   1      43.102  23.043  27.075  1.00  0.00    -0.014 A 
BRANCH  36  37
ATOM     37  C   UNL A   1      43.487  24.432  27.428  1.00  0.00     0.031 A 
ATOM     38  C   UNL A   1      44.913  24.893  27.304  1.00  0.00     0.074 A 
ATOM     39  C   UNL A   1      42.543  25.281  27.881  1.00  0.00     0.049 A 
ATOM     40  N   UNL A   1      45.415  26.085  27.510  1.00  0.00    -0.248 NA
ATOM     41  C   UNL A   1      45.911  23.881  26.922  1.00  0.00     0.031 C 
ATOM     42  C   UNL A   1      41.139  24.935  28.113  1.00  0.00     0.029 A 
ATOM     43  N   UNL A   1      42.617  26.609  28.216  1.00  0.00    -0.354 N 
ATOM     44  C   UNL A   1      46.780  25.966  27.282  1.00  0.00     0.074 A 
ATOM     45  C   UNL A   1      47.038  24.573  26.988  1.00  0.00     0.031 C 
ATOM     46  C   UNL A   1      40.474  26.034  28.505  1.00  0.00     0.029 A 
ATOM     47  C   UNL A   1      41.409  27.151  28.583  1.00  0.00     0.049 A 
ATOM     48  H   UNL A   1      43.456  27.124  28.195  1.00  0.00     0.167 HD
ATOM     49  C   UNL A   1      47.729  26.933  27.290  1.00  0.00     0.037 A 
ATOM     50  C   UNL A   1      41.089  28.410  28.934  1.00  0.00     0.037 A 
ATOM     51  C   UNL A   1      47.469  28.320  27.579  1.00  0.00     0.049 A 
ATOM     52  C   UNL A   1      42.158  29.466  28.926  1.00  0.00     0.074 A 
ATOM     53  C   UNL A   1      48.351  29.387  27.563  1.00  0.00     0.029 A 
ATOM     54  N   UNL A   1      46.232  28.833  27.944  1.00  0.00    -0.354 N 
ATOM     55  N   UNL A   1      43.430  29.357  28.623  1.00  0.00    -0.248 NA
ATOM     56  C   UNL A   1      41.743  30.826  29.295  1.00  0.00     0.031 C 
ATOM     57  C   UNL A   1      47.661  30.534  27.968  1.00  0.00     0.029 A 
ATOM     58  C   UNL A   1      46.334  30.195  28.179  1.00  0.00     0.049 A 
ATOM     59  H   UNL A   1      45.404  28.306  28.026  1.00  0.00     0.167 HD
ATOM     60  C   UNL A   1      43.960  30.635  28.741  1.00  0.00     0.074 A 
ATOM     61  C   UNL A   1      42.865  31.506  29.114  1.00  0.00     0.031 C 
ATOM     62  C   UNL A   1      45.238  31.050  28.560  1.00  0.00     0.037 A 
BRANCH  49  63
ATOM     63  C   UNL A   1      49.140  26.521  26.972  1.00  0.00     0.057 A 
ATOM     64  C   UNL A   1      49.985  25.969  27.944  1.00  0.00     0.134 A 
ATOM     65  C   UNL A   1      49.648  26.646  25.673  1.00  0.00     0.134 A 
ATOM     66  F   UNL A   1      49.566  25.832  29.212  1.00  0.00    -0.206 F 
ATOM     67  C   UNL A   1      51.293  25.583  27.643  1.00  0.00     0.040 A 
ATOM     68  C   UNL A   1      50.944  26.234  25.353  1.00  0.00     0.040 A 
ATOM     69  F   UNL A   1      48.893  27.160  24.692  1.00  0.00    -0.206 F 
ATOM     70  C   UNL A   1      51.772  25.708  26.341  1.00  0.00     0.006 A 
ENDBRANCH  49  63
BRANCH  50  71
ATOM     71  C   UNL A   1      39.686  28.753  29.282  1.00  0.00     0.057 A 
ATOM     72  C   UNL A   1      38.787  29.209  28.310  1.00  0.00     0.134 A 
ATOM     73  C   UNL A   1      39.213  28.646  30.596  1.00  0.00     0.134 A 
ATOM     74  F   UNL A   1      39.185  29.350  27.036  1.00  0.00    -0.206 F 
ATOM     75  C   UNL A   1      37.479  29.571  28.634  1.00  0.00     0.040 A 
ATOM     76  C   UNL A   1      37.899  28.976  30.929  1.00  0.00     0.040 A 
ATOM     77  F   UNL A   1      40.020  28.206  31.572  1.00  0.00    -0.206 F 
ATOM     78  C   UNL A   1      37.030  29.449  29.947  1.00  0.00     0.006 A 
ENDBRANCH  50  71
BRANCH  62  79
ATOM     79  C   UNL A   1      45.506  32.518  28.736  1.00  0.00     0.057 A 
ATOM     80  C   UNL A   1      45.374  33.430  27.679  1.00  0.00     0.134 A 
ATOM     81  C   UNL A   1      45.910  33.026  29.978  1.00  0.00     0.134 A 
ATOM     82  F   UNL A   1      45.003  33.009  26.460  1.00  0.00    -0.206 F 
ATOM     83  C   UNL A   1      45.679  34.783  27.839  1.00  0.00     0.040 A 
ATOM     84  C   UNL A   1      46.183  34.382  30.159  1.00  0.00     0.040 A 
ATOM     85  F   UNL A   1      46.044  32.212  31.036  1.00  0.00    -0.206 F 
ATOM     86  C   UNL A   1      46.082  35.263  29.084  1.00  0.00     0.006 A 
ENDBRANCH  62  79
ENDBRANCH  36  37
ENDBRANCH  28  31
ENDBRANCH  26  27
ENDBRANCH  25  26
ENDBRANCH   1  25
TORSDOF 14
ENDMDL
