MODEL 1
REMARK VINA RESULT:     -12.8      0.000      0.000
REMARK SMILES Cc1cc(NC(=O)c2ccc(Br)cc2N)ccc1C(=O)NCCCCNC(=O)c1ccc(-c2c3nc(c(-c4c(F)cccc4F)c4ccc([nH]4)c(-c4c(F)cccc4F)c4nc(c(-c5c(F)cccc5F)c5ccc2[nH]5)C=C4)C=C3)cc1
REMARK SMILES IDX 23 1 22 2 21 3 19 4 20 5 18 7 1 8 2 9 3 10 4 11 17 12 16 13
REMARK SMILES IDX 5 14 6 15 7 17 8 18 9 19 14 20 10 21 13 22 11 23 12 24 15 25
REMARK SMILES IDX 24 28 25 29 26 30 27 31 28 33 29 34 30 35 82 36 31 37 81 38
REMARK SMILES IDX 32 39 33 40 34 41 75 42 35 43 80 44 74 45 76 46 36 47 79 48
REMARK SMILES IDX 73 49 72 50 37 52 63 53 46 54 62 55 47 56 50 57 61 58 77 59
REMARK SMILES IDX 48 60 49 61 60 63 78 64 51 65 38 66 39 67 44 68 40 69 41 70
REMARK SMILES IDX 43 71 45 72 42 73 64 74 65 75 70 76 66 77 67 78 69 79 71 80
REMARK SMILES IDX 68 81 52 82 53 83 58 84 54 85 55 86 57 87 59 88 56 89
REMARK H PARENT 21 6 5 16 15 26 15 27 26 32 76 51 50 62
REMARK Flexibility Score: inf
ROOT
ATOM      1  C   UNL A   1      32.500  30.106  26.941  1.00  0.00     0.023 C 
ENDROOT
BRANCH   1   2
ATOM      2  C   UNL A   1      32.847  29.756  25.486  1.00  0.00     0.116 C 
BRANCH   2   3
ATOM      3  N   UNL A   1      31.666  29.845  24.659  1.00  0.00    -0.352 N 
ATOM      4  C   UNL A   1      30.905  28.960  23.947  1.00  0.00     0.251 C 
ATOM      5  O   UNL A   1      30.004  29.490  23.285  1.00  0.00    -0.269 OA
ATOM      6  H   UNL A   1      31.326  30.767  24.593  1.00  0.00     0.163 HD
BRANCH   4   7
ATOM      7  C   UNL A   1      30.979  27.453  23.949  1.00  0.00     0.042 A 
ATOM      8  C   UNL A   1      30.811  26.779  26.468  1.00  0.00     0.045 C 
ATOM      9  C   UNL A   1      30.908  26.518  25.000  1.00  0.00    -0.036 A 
ATOM     10  C   UNL A   1      31.004  25.141  24.696  1.00  0.00     0.030 A 
ATOM     11  C   UNL A   1      31.198  24.662  23.408  1.00  0.00     0.041 A 
ATOM     12  C   UNL A   1      31.260  26.936  22.653  1.00  0.00     0.016 A 
ATOM     13  C   UNL A   1      31.404  25.569  22.387  1.00  0.00     0.027 A 
BRANCH  11  14
ATOM     14  N   UNL A   1      31.180  23.290  23.121  1.00  0.00    -0.322 N 
ATOM     15  C   UNL A   1      32.242  22.403  23.106  1.00  0.00     0.257 C 
ATOM     16  H   UNL A   1      30.300  22.909  22.902  1.00  0.00     0.170 HD
ATOM     17  O   UNL A   1      32.141  21.336  22.502  1.00  0.00    -0.269 OA
BRANCH  15  18
ATOM     18  C   UNL A   1      33.495  22.684  23.872  1.00  0.00     0.063 A 
ATOM     19  C   UNL A   1      34.597  23.133  23.125  1.00  0.00     0.017 A 
ATOM     20  C   UNL A   1      33.612  22.495  25.269  1.00  0.00     0.045 A 
ATOM     21  C   UNL A   1      35.818  23.393  23.749  1.00  0.00     0.016 A 
ATOM     22  C   UNL A   1      34.853  22.749  25.874  1.00  0.00     0.042 A 
ATOM     23  C   UNL A   1      35.941  23.191  25.120  1.00  0.00     0.020 A 
ATOM     24  Br  UNL A   1      37.613  23.456  25.957  1.00  0.00    -0.051 Br
BRANCH  20  25
ATOM     25  N   UNL A   1      32.617  21.919  26.058  1.00  0.00    -0.398 N 
ATOM     26  H   UNL A   1      32.651  20.958  26.269  1.00  0.00     0.156 HD
ATOM     27  H   UNL A   1      31.881  22.473  26.404  1.00  0.00     0.156 HD
ENDBRANCH  20  25
ENDBRANCH  15  18
ENDBRANCH  11  14
ENDBRANCH   4   7
ENDBRANCH   2   3
ENDBRANCH   1   2
BRANCH   1  28
ATOM     28  C   UNL A   1      33.353  31.193  27.583  1.00  0.00     0.023 C 
BRANCH  28  29
ATOM     29  C   UNL A   1      34.836  30.893  27.516  1.00  0.00     0.116 C 
BRANCH  29  30
ATOM     30  N   UNL A   1      35.654  31.603  28.497  1.00  0.00    -0.352 N 
ATOM     31  C   UNL A   1      36.744  31.148  29.221  1.00  0.00     0.251 C 
ATOM     32  H   UNL A   1      35.393  32.537  28.667  1.00  0.00     0.163 HD
ATOM     33  O   UNL A   1      37.282  31.885  30.048  1.00  0.00    -0.269 OA
BRANCH  31  34
ATOM     34  C   UNL A   1      37.366  29.843  28.880  1.00  0.00     0.039 A 
ATOM     35  C   UNL A   1      37.470  28.893  29.902  1.00  0.00     0.014 A 
ATOM     36  C   UNL A   1      38.119  29.697  27.721  1.00  0.00     0.014 A 
ATOM     37  C   UNL A   1      38.551  28.020  29.905  1.00  0.00     0.010 A 
ATOM     38  C   UNL A   1      39.273  28.948  27.792  1.00  0.00     0.010 A 
ATOM     39  C   UNL A   1      39.530  28.174  28.928  1.00  0.00    -0.014 A 
BRANCH  39  40
ATOM     40  C   UNL A   1      40.905  27.716  29.101  1.00  0.00     0.031 A 
ATOM     41  C   UNL A   1      41.334  26.411  28.563  1.00  0.00     0.074 A 
ATOM     42  C   UNL A   1      41.811  28.555  29.656  1.00  0.00     0.049 A 
ATOM     43  N   UNL A   1      42.389  25.774  28.941  1.00  0.00    -0.248 NA
ATOM     44  C   UNL A   1      40.549  25.680  27.578  1.00  0.00     0.031 C 
ATOM     45  C   UNL A   1      43.266  28.431  29.641  1.00  0.00     0.029 A 
ATOM     46  N   UNL A   1      41.562  29.612  30.543  1.00  0.00    -0.354 N 
ATOM     47  C   UNL A   1      42.585  24.723  28.070  1.00  0.00     0.074 A 
ATOM     48  C   UNL A   1      41.362  24.657  27.309  1.00  0.00     0.031 C 
ATOM     49  C   UNL A   1      43.772  29.150  30.655  1.00  0.00     0.029 A 
ATOM     50  C   UNL A   1      42.650  29.635  31.441  1.00  0.00     0.049 A 
ATOM     51  H   UNL A   1      40.786  30.217  30.539  1.00  0.00     0.167 HD
ATOM     52  C   UNL A   1      43.817  24.136  28.015  1.00  0.00     0.037 A 
ATOM     53  C   UNL A   1      42.470  29.390  32.772  1.00  0.00     0.037 A 
ATOM     54  C   UNL A   1      44.672  24.629  29.101  1.00  0.00     0.049 A 
ATOM     55  C   UNL A   1      43.219  28.180  33.282  1.00  0.00     0.074 A 
ATOM     56  C   UNL A   1      45.694  25.563  29.149  1.00  0.00     0.029 A 
ATOM     57  N   UNL A   1      44.319  24.368  30.423  1.00  0.00    -0.354 N 
ATOM     58  N   UNL A   1      43.722  27.258  32.510  1.00  0.00    -0.248 NA
ATOM     59  C   UNL A   1      43.429  27.892  34.700  1.00  0.00     0.031 C 
ATOM     60  C   UNL A   1      45.900  25.921  30.506  1.00  0.00     0.029 A 
ATOM     61  C   UNL A   1      45.022  25.187  31.285  1.00  0.00     0.049 A 
ATOM     62  H   UNL A   1      43.660  23.693  30.704  1.00  0.00     0.167 HD
ATOM     63  C   UNL A   1      44.262  26.259  33.277  1.00  0.00     0.074 A 
ATOM     64  C   UNL A   1      44.080  26.717  34.641  1.00  0.00     0.031 C 
ATOM     65  C   UNL A   1      44.791  25.130  32.722  1.00  0.00     0.037 A 
BRANCH  52  66
ATOM     66  C   UNL A   1      44.353  23.367  26.813  1.00  0.00     0.057 A 
ATOM     67  C   UNL A   1      43.839  22.090  26.495  1.00  0.00     0.134 A 
ATOM     68  C   UNL A   1      45.423  23.757  25.988  1.00  0.00     0.134 A 
ATOM     69  F   UNL A   1      42.743  21.603  27.090  1.00  0.00    -0.206 F 
ATOM     70  C   UNL A   1      44.422  21.238  25.543  1.00  0.00     0.040 A 
ATOM     71  C   UNL A   1      46.041  22.905  25.059  1.00  0.00     0.040 A 
ATOM     72  F   UNL A   1      45.901  25.002  25.979  1.00  0.00    -0.206 F 
ATOM     73  C   UNL A   1      45.553  21.629  24.846  1.00  0.00     0.006 A 
ENDBRANCH  52  66
BRANCH  53  74
ATOM     74  C   UNL A   1      41.160  29.868  33.287  1.00  0.00     0.057 A 
ATOM     75  C   UNL A   1      41.008  31.239  33.554  1.00  0.00     0.134 A 
ATOM     76  C   UNL A   1      39.992  29.113  33.162  1.00  0.00     0.134 A 
ATOM     77  F   UNL A   1      42.088  32.025  33.666  1.00  0.00    -0.206 F 
ATOM     78  C   UNL A   1      39.754  31.855  33.592  1.00  0.00     0.040 A 
ATOM     79  C   UNL A   1      38.728  29.717  33.205  1.00  0.00     0.040 A 
ATOM     80  F   UNL A   1      40.052  27.806  32.871  1.00  0.00    -0.206 F 
ATOM     81  C   UNL A   1      38.609  31.095  33.382  1.00  0.00     0.006 A 
ENDBRANCH  53  74
BRANCH  65  82
ATOM     82  C   UNL A   1      45.204  23.893  33.477  1.00  0.00     0.057 A 
ATOM     83  C   UNL A   1      46.486  23.684  34.007  1.00  0.00     0.134 A 
ATOM     84  C   UNL A   1      44.241  22.922  33.833  1.00  0.00     0.134 A 
ATOM     85  F   UNL A   1      47.468  24.578  33.833  1.00  0.00    -0.206 F 
ATOM     86  C   UNL A   1      46.800  22.567  34.792  1.00  0.00     0.040 A 
ATOM     87  C   UNL A   1      44.531  21.831  34.657  1.00  0.00     0.040 A 
ATOM     88  F   UNL A   1      42.970  23.006  33.411  1.00  0.00    -0.206 F 
ATOM     89  C   UNL A   1      45.820  21.643  35.132  1.00  0.00     0.006 A 
ENDBRANCH  65  82
ENDBRANCH  39  40
ENDBRANCH  31  34
ENDBRANCH  29  30
ENDBRANCH  28  29
ENDBRANCH   1  28
TORSDOF 14
ENDMDL
MODEL 2
REMARK VINA RESULT:     -12.8      1.380      2.051
REMARK SMILES Cc1cc(NC(=O)c2ccc(Br)cc2N)ccc1C(=O)NCCCCNC(=O)c1ccc(-c2c3nc(c(-c4c(F)cccc4F)c4ccc([nH]4)c(-c4c(F)cccc4F)c4nc(c(-c5c(F)cccc5F)c5ccc2[nH]5)C=C4)C=C3)cc1
REMARK SMILES IDX 23 1 22 2 21 3 19 4 20 5 18 7 1 8 2 9 3 10 4 11 17 12 16 13
REMARK SMILES IDX 5 14 6 15 7 17 8 18 9 19 14 20 10 21 13 22 11 23 12 24 15 25
REMARK SMILES IDX 24 28 25 29 26 30 27 31 28 33 29 34 30 35 82 36 31 37 81 38
REMARK SMILES IDX 32 39 33 40 34 41 75 42 35 43 80 44 74 45 76 46 36 47 79 48
REMARK SMILES IDX 73 49 72 50 37 52 63 53 46 54 62 55 47 56 50 57 61 58 77 59
REMARK SMILES IDX 48 60 49 61 60 63 78 64 51 65 38 66 39 67 44 68 40 69 41 70
REMARK SMILES IDX 43 71 45 72 42 73 64 74 65 75 70 76 66 77 67 78 69 79 71 80
REMARK SMILES IDX 68 81 52 82 53 83 58 84 54 85 55 86 57 87 59 88 56 89
REMARK H PARENT 21 6 5 16 15 26 15 27 26 32 76 51 50 62
REMARK Flexibility Score: inf
ROOT
ATOM      1  C   UNL A   1      33.216  30.375  27.021  1.00  0.00     0.023 C 
ENDROOT
BRANCH   1   2
ATOM      2  C   UNL A   1      31.978  30.638  26.151  1.00  0.00     0.116 C 
BRANCH   2   3
ATOM      3  N   UNL A   1      32.211  30.172  24.803  1.00  0.00    -0.352 N 
ATOM      4  C   UNL A   1      32.049  28.987  24.139  1.00  0.00     0.251 C 
ATOM      5  O   UNL A   1      32.473  29.001  22.976  1.00  0.00    -0.269 OA
ATOM      6  H   UNL A   1      32.574  30.879  24.221  1.00  0.00     0.163 HD
BRANCH   4   7
ATOM      7  C   UNL A   1      31.352  27.738  24.616  1.00  0.00     0.042 A 
ATOM      8  C   UNL A   1      29.105  27.676  23.284  1.00  0.00     0.045 C 
ATOM      9  C   UNL A   1      30.125  27.154  24.242  1.00  0.00    -0.036 A 
ATOM     10  C   UNL A   1      29.721  25.953  24.869  1.00  0.00     0.030 A 
ATOM     11  C   UNL A   1      30.464  25.333  25.864  1.00  0.00     0.041 A 
ATOM     12  C   UNL A   1      32.047  27.123  25.695  1.00  0.00     0.016 A 
ATOM     13  C   UNL A   1      31.598  25.963  26.336  1.00  0.00     0.027 A 
BRANCH  11  14
ATOM     14  N   UNL A   1      30.094  24.087  26.390  1.00  0.00    -0.322 N 
ATOM     15  C   UNL A   1      30.598  22.838  26.071  1.00  0.00     0.257 C 
ATOM     16  H   UNL A   1      29.385  24.102  27.072  1.00  0.00     0.170 HD
ATOM     17  O   UNL A   1      29.948  21.828  26.338  1.00  0.00    -0.269 OA
BRANCH  15  18
ATOM     18  C   UNL A   1      31.957  22.684  25.467  1.00  0.00     0.063 A 
ATOM     19  C   UNL A   1      33.023  22.504  26.366  1.00  0.00     0.017 A 
ATOM     20  C   UNL A   1      32.203  22.738  24.075  1.00  0.00     0.045 A 
ATOM     21  C   UNL A   1      34.332  22.380  25.897  1.00  0.00     0.016 A 
ATOM     22  C   UNL A   1      33.528  22.626  23.627  1.00  0.00     0.042 A 
ATOM     23  C   UNL A   1      34.577  22.451  24.530  1.00  0.00     0.020 A 
ATOM     24  Br  UNL A   1      36.355  22.373  23.895  1.00  0.00    -0.051 Br
BRANCH  20  25
ATOM     25  N   UNL A   1      31.227  23.055  23.130  1.00  0.00    -0.398 N 
ATOM     26  H   UNL A   1      31.037  23.997  22.917  1.00  0.00     0.156 HD
ATOM     27  H   UNL A   1      30.730  22.337  22.676  1.00  0.00     0.156 HD
ENDBRANCH  20  25
ENDBRANCH  15  18
ENDBRANCH  11  14
ENDBRANCH   4   7
ENDBRANCH   2   3
ENDBRANCH   1   2
BRANCH   1  28
ATOM     28  C   UNL A   1      33.802  31.594  27.724  1.00  0.00     0.023 C 
BRANCH  28  29
ATOM     29  C   UNL A   1      34.721  31.226  28.871  1.00  0.00     0.116 C 
BRANCH  29  30
ATOM     30  N   UNL A   1      35.936  32.032  28.970  1.00  0.00    -0.352 N 
ATOM     31  C   UNL A   1      37.259  31.621  29.003  1.00  0.00     0.251 C 
ATOM     32  H   UNL A   1      35.794  33.005  29.020  1.00  0.00     0.163 HD
ATOM     33  O   UNL A   1      38.156  32.452  29.141  1.00  0.00    -0.269 OA
BRANCH  31  34
ATOM     34  C   UNL A   1      37.601  30.207  28.702  1.00  0.00     0.039 A 
ATOM     35  C   UNL A   1      37.634  29.311  29.775  1.00  0.00     0.014 A 
ATOM     36  C   UNL A   1      38.198  29.862  27.495  1.00  0.00     0.014 A 
ATOM     37  C   UNL A   1      38.536  28.254  29.746  1.00  0.00     0.010 A 
ATOM     38  C   UNL A   1      39.201  28.918  27.518  1.00  0.00     0.010 A 
ATOM     39  C   UNL A   1      39.426  28.173  28.679  1.00  0.00    -0.014 A 
BRANCH  39  40
ATOM     40  C   UNL A   1      40.708  27.479  28.764  1.00  0.00     0.031 A 
ATOM     41  C   UNL A   1      40.790  26.024  28.529  1.00  0.00     0.074 A 
ATOM     42  C   UNL A   1      41.836  28.205  28.942  1.00  0.00     0.049 A 
ATOM     43  N   UNL A   1      41.771  25.276  28.902  1.00  0.00    -0.248 NA
ATOM     44  C   UNL A   1      39.714  25.277  27.894  1.00  0.00     0.031 C 
ATOM     45  C   UNL A   1      43.216  27.768  28.749  1.00  0.00     0.029 A 
ATOM     46  N   UNL A   1      41.953  29.463  29.549  1.00  0.00    -0.354 N 
ATOM     47  C   UNL A   1      41.608  24.039  28.317  1.00  0.00     0.074 A 
ATOM     48  C   UNL A   1      40.268  24.068  27.786  1.00  0.00     0.031 C 
ATOM     49  C   UNL A   1      44.027  28.571  29.455  1.00  0.00     0.029 A 
ATOM     50  C   UNL A   1      43.182  29.453  30.241  1.00  0.00     0.049 A 
ATOM     51  H   UNL A   1      41.308  30.206  29.501  1.00  0.00     0.167 HD
ATOM     52  C   UNL A   1      42.684  23.202  28.238  1.00  0.00     0.037 A 
ATOM     53  C   UNL A   1      43.225  29.562  31.601  1.00  0.00     0.037 A 
ATOM     54  C   UNL A   1      43.807  23.731  29.022  1.00  0.00     0.049 A 
ATOM     55  C   UNL A   1      43.837  28.366  32.296  1.00  0.00     0.074 A 
ATOM     56  C   UNL A   1      44.966  24.407  28.675  1.00  0.00     0.029 A 
ATOM     57  N   UNL A   1      43.679  23.859  30.402  1.00  0.00    -0.354 N 
ATOM     58  N   UNL A   1      44.012  27.206  31.726  1.00  0.00    -0.248 NA
ATOM     59  C   UNL A   1      44.265  28.368  33.693  1.00  0.00     0.031 C 
ATOM     60  C   UNL A   1      45.492  25.010  29.847  1.00  0.00     0.029 A 
ATOM     61  C   UNL A   1      44.668  24.680  30.909  1.00  0.00     0.049 A 
ATOM     62  H   UNL A   1      42.979  23.425  30.943  1.00  0.00     0.167 HD
ATOM     63  C   UNL A   1      44.508  26.315  32.641  1.00  0.00     0.074 A 
ATOM     64  C   UNL A   1      44.678  27.098  33.850  1.00  0.00     0.031 C 
ATOM     65  C   UNL A   1      44.715  25.002  32.329  1.00  0.00     0.037 A 
BRANCH  52  66
ATOM     66  C   UNL A   1      42.834  22.083  27.214  1.00  0.00     0.057 A 
ATOM     67  C   UNL A   1      42.048  20.914  27.313  1.00  0.00     0.134 A 
ATOM     68  C   UNL A   1      43.780  22.030  26.175  1.00  0.00     0.134 A 
ATOM     69  F   UNL A   1      41.015  20.828  28.162  1.00  0.00    -0.206 F 
ATOM     70  C   UNL A   1      42.275  19.762  26.544  1.00  0.00     0.040 A 
ATOM     71  C   UNL A   1      44.045  20.875  25.422  1.00  0.00     0.040 A 
ATOM     72  F   UNL A   1      44.464  23.103  25.776  1.00  0.00    -0.206 F 
ATOM     73  C   UNL A   1      43.304  19.725  25.617  1.00  0.00     0.006 A 
ENDBRANCH  52  66
BRANCH  53  74
ATOM     74  C   UNL A   1      42.144  30.416  32.159  1.00  0.00     0.057 A 
ATOM     75  C   UNL A   1      42.309  31.811  32.122  1.00  0.00     0.134 A 
ATOM     76  C   UNL A   1      40.848  29.937  32.365  1.00  0.00     0.134 A 
ATOM     77  F   UNL A   1      43.523  32.337  31.907  1.00  0.00    -0.206 F 
ATOM     78  C   UNL A   1      41.225  32.690  32.180  1.00  0.00     0.040 A 
ATOM     79  C   UNL A   1      39.752  30.808  32.431  1.00  0.00     0.040 A 
ATOM     80  F   UNL A   1      40.602  28.619  32.377  1.00  0.00    -0.206 F 
ATOM     81  C   UNL A   1      39.936  32.185  32.301  1.00  0.00     0.006 A 
ENDBRANCH  53  74
BRANCH  65  82
ATOM     82  C   UNL A   1      45.045  23.909  33.313  1.00  0.00     0.057 A 
ATOM     83  C   UNL A   1      44.151  22.897  33.694  1.00  0.00     0.134 A 
ATOM     84  C   UNL A   1      46.365  23.758  33.794  1.00  0.00     0.134 A 
ATOM     85  F   UNL A   1      42.896  22.861  33.229  1.00  0.00    -0.206 F 
ATOM     86  C   UNL A   1      44.529  21.839  34.532  1.00  0.00     0.040 A 
ATOM     87  C   UNL A   1      46.765  22.680  34.587  1.00  0.00     0.040 A 
ATOM     88  F   UNL A   1      47.327  24.643  33.493  1.00  0.00    -0.206 F 
ATOM     89  C   UNL A   1      45.842  21.719  34.970  1.00  0.00     0.006 A 
ENDBRANCH  65  82
ENDBRANCH  39  40
ENDBRANCH  31  34
ENDBRANCH  29  30
ENDBRANCH  28  29
ENDBRANCH   1  28
TORSDOF 14
ENDMDL
MODEL 3
REMARK VINA RESULT:     -12.7      3.963      9.465
REMARK SMILES Cc1cc(NC(=O)c2ccc(Br)cc2N)ccc1C(=O)NCCCCNC(=O)c1ccc(-c2c3nc(c(-c4c(F)cccc4F)c4ccc([nH]4)c(-c4c(F)cccc4F)c4nc(c(-c5c(F)cccc5F)c5ccc2[nH]5)C=C4)C=C3)cc1
REMARK SMILES IDX 23 1 22 2 21 3 19 4 20 5 18 7 1 8 2 9 3 10 4 11 17 12 16 13
REMARK SMILES IDX 5 14 6 15 7 17 8 18 9 19 14 20 10 21 13 22 11 23 12 24 15 25
REMARK SMILES IDX 24 28 25 29 26 30 27 31 28 33 29 34 30 35 82 36 31 37 81 38
REMARK SMILES IDX 32 39 33 40 34 41 75 42 35 43 80 44 74 45 76 46 36 47 79 48
REMARK SMILES IDX 73 49 72 50 37 52 63 53 46 54 62 55 47 56 50 57 61 58 77 59
REMARK SMILES IDX 48 60 49 61 60 63 78 64 51 65 38 66 39 67 44 68 40 69 41 70
REMARK SMILES IDX 43 71 45 72 42 73 64 74 65 75 70 76 66 77 67 78 69 79 71 80
REMARK SMILES IDX 68 81 52 82 53 83 58 84 54 85 55 86 57 87 59 88 56 89
REMARK H PARENT 21 6 5 16 15 26 15 27 26 32 76 51 50 62
REMARK Flexibility Score: inf
ROOT
ATOM      1  C   UNL A   1      37.516  21.336  24.997  1.00  0.00     0.023 C 
ENDROOT
BRANCH   1   2
ATOM      2  C   UNL A   1      36.266  21.628  25.842  1.00  0.00     0.116 C 
BRANCH   2   3
ATOM      3  N   UNL A   1      35.264  20.612  25.612  1.00  0.00    -0.352 N 
ATOM      4  C   UNL A   1      33.948  20.609  25.238  1.00  0.00     0.251 C 
ATOM      5  O   UNL A   1      33.426  19.487  25.249  1.00  0.00    -0.269 OA
ATOM      6  H   UNL A   1      35.613  19.703  25.758  1.00  0.00     0.163 HD
BRANCH   4   7
ATOM      7  C   UNL A   1      33.115  21.764  24.743  1.00  0.00     0.042 A 
ATOM      8  C   UNL A   1      34.618  22.959  22.970  1.00  0.00     0.045 C 
ATOM      9  C   UNL A   1      33.370  22.745  23.764  1.00  0.00    -0.036 A 
ATOM     10  C   UNL A   1      32.383  23.722  23.502  1.00  0.00     0.030 A 
ATOM     11  C   UNL A   1      31.178  23.781  24.189  1.00  0.00     0.041 A 
ATOM     12  C   UNL A   1      31.908  21.903  25.485  1.00  0.00     0.016 A 
ATOM     13  C   UNL A   1      30.970  22.912  25.242  1.00  0.00     0.027 A 
BRANCH  11  14
ATOM     14  N   UNL A   1      30.172  24.692  23.834  1.00  0.00    -0.322 N 
ATOM     15  C   UNL A   1      29.968  25.974  24.314  1.00  0.00     0.257 C 
ATOM     16  H   UNL A   1      29.529  24.379  23.158  1.00  0.00     0.170 HD
ATOM     17  O   UNL A   1      28.867  26.508  24.185  1.00  0.00    -0.269 OA
BRANCH  15  18
ATOM     18  C   UNL A   1      31.084  26.756  24.928  1.00  0.00     0.063 A 
ATOM     19  C   UNL A   1      31.098  26.828  26.332  1.00  0.00     0.017 A 
ATOM     20  C   UNL A   1      32.075  27.425  24.172  1.00  0.00     0.045 A 
ATOM     21  C   UNL A   1      32.085  27.560  26.994  1.00  0.00     0.016 A 
ATOM     22  C   UNL A   1      33.049  28.167  24.858  1.00  0.00     0.042 A 
ATOM     23  C   UNL A   1      33.050  28.233  26.252  1.00  0.00     0.020 A 
ATOM     24  Br  UNL A   1      34.334  29.298  27.137  1.00  0.00    -0.051 Br
BRANCH  20  25
ATOM     25  N   UNL A   1      32.051  27.523  22.781  1.00  0.00    -0.398 N 
ATOM     26  H   UNL A   1      31.640  26.806  22.245  1.00  0.00     0.156 HD
ATOM     27  H   UNL A   1      32.443  28.308  22.336  1.00  0.00     0.156 HD
ENDBRANCH  20  25
ENDBRANCH  15  18
ENDBRANCH  11  14
ENDBRANCH   4   7
ENDBRANCH   2   3
ENDBRANCH   1   2
BRANCH   1  28
ATOM     28  C   UNL A   1      38.848  21.431  25.729  1.00  0.00     0.023 C 
BRANCH  28  29
ATOM     29  C   UNL A   1      39.105  22.807  26.308  1.00  0.00     0.116 C 
BRANCH  29  30
ATOM     30  N   UNL A   1      40.494  23.072  26.676  1.00  0.00    -0.352 N 
ATOM     31  C   UNL A   1      41.093  24.271  27.030  1.00  0.00     0.251 C 
ATOM     32  H   UNL A   1      41.089  22.287  26.672  1.00  0.00     0.163 HD
ATOM     33  O   UNL A   1      42.300  24.307  27.264  1.00  0.00    -0.269 OA
BRANCH  31  34
ATOM     34  C   UNL A   1      40.252  25.467  27.296  1.00  0.00     0.039 A 
ATOM     35  C   UNL A   1      40.470  26.595  26.498  1.00  0.00     0.014 A 
ATOM     36  C   UNL A   1      39.542  25.587  28.484  1.00  0.00     0.014 A 
ATOM     37  C   UNL A   1      40.285  27.858  27.048  1.00  0.00     0.010 A 
ATOM     38  C   UNL A   1      39.505  26.824  29.090  1.00  0.00     0.010 A 
ATOM     39  C   UNL A   1      39.960  27.950  28.399  1.00  0.00    -0.014 A 
BRANCH  39  40
ATOM     40  C   UNL A   1      40.241  29.134  29.205  1.00  0.00     0.031 A 
ATOM     41  C   UNL A   1      39.201  30.160  29.417  1.00  0.00     0.074 A 
ATOM     42  C   UNL A   1      41.425  29.220  29.854  1.00  0.00     0.049 A 
ATOM     43  N   UNL A   1      39.433  31.367  29.807  1.00  0.00    -0.248 NA
ATOM     44  C   UNL A   1      37.795  29.912  29.137  1.00  0.00     0.031 C 
ATOM     45  C   UNL A   1      41.785  30.135  30.933  1.00  0.00     0.029 A 
ATOM     46  N   UNL A   1      42.635  28.604  29.504  1.00  0.00    -0.354 N 
ATOM     47  C   UNL A   1      38.222  31.954  30.109  1.00  0.00     0.074 A 
ATOM     48  C   UNL A   1      37.240  31.041  29.581  1.00  0.00     0.031 C 
ATOM     49  C   UNL A   1      43.122  30.245  30.980  1.00  0.00     0.029 A 
ATOM     50  C   UNL A   1      43.654  29.521  29.838  1.00  0.00     0.049 A 
ATOM     51  H   UNL A   1      42.751  27.711  29.107  1.00  0.00     0.167 HD
ATOM     52  C   UNL A   1      38.213  33.073  30.893  1.00  0.00     0.037 A 
ATOM     53  C   UNL A   1      44.453  30.067  28.876  1.00  0.00     0.037 A 
ATOM     54  C   UNL A   1      39.577  33.574  31.094  1.00  0.00     0.049 A 
ATOM     55  C   UNL A   1      44.354  31.573  28.774  1.00  0.00     0.074 A 
ATOM     56  C   UNL A   1      40.474  33.479  32.145  1.00  0.00     0.029 A 
ATOM     57  N   UNL A   1      40.308  34.031  29.999  1.00  0.00    -0.354 N 
ATOM     58  N   UNL A   1      43.387  32.274  29.297  1.00  0.00    -0.248 NA
ATOM     59  C   UNL A   1      45.311  32.403  28.046  1.00  0.00     0.031 C 
ATOM     60  C   UNL A   1      41.765  33.805  31.656  1.00  0.00     0.029 A 
ATOM     61  C   UNL A   1      41.650  34.124  30.314  1.00  0.00     0.049 A 
ATOM     62  H   UNL A   1      39.921  34.256  29.122  1.00  0.00     0.167 HD
ATOM     63  C   UNL A   1      43.540  33.593  28.958  1.00  0.00     0.074 A 
ATOM     64  C   UNL A   1      44.777  33.627  28.200  1.00  0.00     0.031 C 
ATOM     65  C   UNL A   1      42.623  34.539  29.313  1.00  0.00     0.037 A 
BRANCH  52  66
ATOM     66  C   UNL A   1      37.023  33.529  31.730  1.00  0.00     0.057 A 
ATOM     67  C   UNL A   1      35.873  34.062  31.108  1.00  0.00     0.134 A 
ATOM     68  C   UNL A   1      36.965  33.570  33.135  1.00  0.00     0.134 A 
ATOM     69  F   UNL A   1      35.695  33.997  29.782  1.00  0.00    -0.206 F 
ATOM     70  C   UNL A   1      34.836  34.694  31.812  1.00  0.00     0.040 A 
ATOM     71  C   UNL A   1      35.954  34.230  33.853  1.00  0.00     0.040 A 
ATOM     72  F   UNL A   1      37.841  32.925  33.906  1.00  0.00    -0.206 F 
ATOM     73  C   UNL A   1      34.892  34.814  33.191  1.00  0.00     0.006 A 
ENDBRANCH  52  66
BRANCH  53  74
ATOM     74  C   UNL A   1      44.720  29.147  27.739  1.00  0.00     0.057 A 
ATOM     75  C   UNL A   1      45.685  28.139  27.909  1.00  0.00     0.134 A 
ATOM     76  C   UNL A   1      43.824  28.994  26.679  1.00  0.00     0.134 A 
ATOM     77  F   UNL A   1      46.563  28.214  28.919  1.00  0.00    -0.206 F 
ATOM     78  C   UNL A   1      45.695  26.980  27.129  1.00  0.00     0.040 A 
ATOM     79  C   UNL A   1      43.827  27.839  25.885  1.00  0.00     0.040 A 
ATOM     80  F   UNL A   1      42.851  29.894  26.473  1.00  0.00    -0.206 F 
ATOM     81  C   UNL A   1      44.739  26.814  26.133  1.00  0.00     0.006 A 
ENDBRANCH  53  74
BRANCH  65  82
ATOM     82  C   UNL A   1      42.588  35.959  28.808  1.00  0.00     0.057 A 
ATOM     83  C   UNL A   1      43.115  37.055  29.506  1.00  0.00     0.134 A 
ATOM     84  C   UNL A   1      42.148  36.237  27.495  1.00  0.00     0.134 A 
ATOM     85  F   UNL A   1      43.659  36.915  30.722  1.00  0.00    -0.206 F 
ATOM     86  C   UNL A   1      43.156  38.344  28.958  1.00  0.00     0.040 A 
ATOM     87  C   UNL A   1      42.232  37.508  26.919  1.00  0.00     0.040 A 
ATOM     88  F   UNL A   1      41.639  35.278  26.708  1.00  0.00    -0.206 F 
ATOM     89  C   UNL A   1      42.728  38.572  27.656  1.00  0.00     0.006 A 
ENDBRANCH  65  82
ENDBRANCH  39  40
ENDBRANCH  31  34
ENDBRANCH  29  30
ENDBRANCH  28  29
ENDBRANCH   1  28
TORSDOF 14
ENDMDL
