MODEL 1
REMARK VINA RESULT:     -13.8      0.000      0.000
REMARK SMILES Cc1cccc(OC2(C(=O)NCCCCNC(=O)c3ccc(-c4c5nc(c(-c6c(F)cccc6F)c6ccc([nH]6)c(-c6c(F)cccc6F)c6nc(c(-c7c(F)cccc7F)c7ccc4[nH]7)C=C6)C=C5)cc3)CCN(C(=O)c3cnc[nH]c3=O)CC2)c1
REMARK SMILES IDX 13 1 12 2 11 3 9 4 10 5 8 7 73 8 86 9 74 10 85 11 75 12
REMARK SMILES IDX 76 13 77 14 7 15 6 16 1 17 2 18 3 19 87 20 4 21 5 22 78 23
REMARK SMILES IDX 79 24 83 25 80 26 82 27 84 28 81 29 14 31 15 32 16 33 17 34
REMARK SMILES IDX 18 36 19 37 20 38 72 39 21 40 71 41 22 42 23 43 24 44 65 45
REMARK SMILES IDX 25 46 70 47 64 48 66 49 26 50 69 51 63 52 62 53 27 55 53 56
REMARK SMILES IDX 36 57 52 58 37 59 40 60 51 61 67 62 38 63 39 64 50 66 68 67
REMARK SMILES IDX 41 68 28 69 29 70 34 71 30 72 31 73 33 74 35 75 32 76 54 77
REMARK SMILES IDX 55 78 60 79 56 80 57 81 59 82 61 83 58 84 42 85 43 86 48 87
REMARK SMILES IDX 44 88 45 89 47 90 49 91 46 92
REMARK H PARENT 11 6 82 30 16 35 66 54 40 65
REMARK Flexibility Score: inf
ROOT
ATOM      1  C   UNL A   1      37.789  21.351  25.118  1.00  0.00     0.023 C 
ENDROOT
BRANCH   1   2
ATOM      2  C   UNL A   1      36.755  22.465  25.411  1.00  0.00     0.116 C 
BRANCH   2   3
ATOM      3  N   UNL A   1      35.821  22.263  26.522  1.00  0.00    -0.353 N 
ATOM      4  C   UNL A   1      34.479  21.997  26.620  1.00  0.00     0.264 C 
ATOM      5  O   UNL A   1      34.141  21.485  27.697  1.00  0.00    -0.270 OA
ATOM      6  H   UNL A   1      36.258  22.336  27.401  1.00  0.00     0.163 HD
BRANCH   4   7
ATOM      7  C   UNL A   1      33.414  22.295  25.506  1.00  0.00     0.190 C 
ATOM      8  C   UNL A   1      32.016  22.160  26.091  1.00  0.00     0.080 C 
ATOM      9  C   UNL A   1      33.606  23.744  24.972  1.00  0.00     0.080 C 
ATOM     10  C   UNL A   1      30.884  22.655  25.224  1.00  0.00     0.124 C 
ATOM     11  C   UNL A   1      32.410  24.189  24.105  1.00  0.00     0.124 C 
ATOM     12  N   UNL A   1      31.177  24.026  24.868  1.00  0.00    -0.338 N 
ATOM     13  C   UNL A   1      30.653  25.046  25.647  1.00  0.00     0.261 C 
ATOM     14  O   UNL A   1      30.356  24.915  26.832  1.00  0.00    -0.269 OA
BRANCH   7  15
ATOM     15  O   UNL A   1      33.773  21.474  24.378  1.00  0.00    -0.477 OA
BRANCH  15  16
ATOM     16  C   UNL A   1      33.681  20.145  24.149  1.00  0.00     0.121 A 
ATOM     17  C   UNL A   1      34.972  16.682  25.050  1.00  0.00     0.044 C 
ATOM     18  C   UNL A   1      34.146  17.768  24.422  1.00  0.00    -0.047 A 
ATOM     19  C   UNL A   1      33.024  17.447  23.658  1.00  0.00     0.003 A 
ATOM     20  C   UNL A   1      34.486  19.118  24.618  1.00  0.00     0.049 A 
ATOM     21  C   UNL A   1      32.245  18.463  23.114  1.00  0.00     0.004 A 
ATOM     22  C   UNL A   1      32.568  19.797  23.371  1.00  0.00     0.046 A 
ENDBRANCH  15  16
ENDBRANCH   7  15
BRANCH  13  23
ATOM     23  C   UNL A   1      30.412  26.311  24.939  1.00  0.00     0.123 A 
ATOM     24  C   UNL A   1      29.422  26.414  24.041  1.00  0.00     0.132 A 
ATOM     25  C   UNL A   1      31.283  27.484  25.129  1.00  0.00     0.263 A 
ATOM     26  N   UNL A   1      29.124  27.551  23.327  1.00  0.00    -0.246 NA
ATOM     27  N   UNL A   1      30.939  28.582  24.394  1.00  0.00    -0.312 N 
ATOM     28  O   UNL A   1      32.260  27.492  25.870  1.00  0.00    -0.269 OA
ATOM     29  C   UNL A   1      29.886  28.573  23.529  1.00  0.00     0.199 A 
ATOM     30  H   UNL A   1      31.470  29.406  24.491  1.00  0.00     0.171 HD
ENDBRANCH  13  23
ENDBRANCH   4   7
ENDBRANCH   2   3
ENDBRANCH   1   2
BRANCH   1  31
ATOM     31  C   UNL A   1      39.114  21.436  25.864  1.00  0.00     0.023 C 
BRANCH  31  32
ATOM     32  C   UNL A   1      39.337  22.803  26.473  1.00  0.00     0.116 C 
BRANCH  32  33
ATOM     33  N   UNL A   1      40.731  23.105  26.800  1.00  0.00    -0.352 N 
ATOM     34  C   UNL A   1      41.308  24.333  27.110  1.00  0.00     0.251 C 
ATOM     35  H   UNL A   1      41.343  22.334  26.801  1.00  0.00     0.163 HD
ATOM     36  O   UNL A   1      42.489  24.426  27.371  1.00  0.00    -0.269 OA
BRANCH  34  37
ATOM     37  C   UNL A   1      40.408  25.506  27.257  1.00  0.00     0.039 A 
ATOM     38  C   UNL A   1      40.711  26.646  26.504  1.00  0.00     0.014 A 
ATOM     39  C   UNL A   1      39.541  25.578  28.340  1.00  0.00     0.014 A 
ATOM     40  C   UNL A   1      40.390  27.895  27.024  1.00  0.00     0.010 A 
ATOM     41  C   UNL A   1      39.346  26.812  28.925  1.00  0.00     0.010 A 
ATOM     42  C   UNL A   1      39.838  27.964  28.301  1.00  0.00    -0.014 A 
BRANCH  42  43
ATOM     43  C   UNL A   1      39.851  29.182  29.106  1.00  0.00     0.031 A 
ATOM     44  C   UNL A   1      38.793  30.195  28.924  1.00  0.00     0.074 A 
ATOM     45  C   UNL A   1      40.792  29.346  30.063  1.00  0.00     0.049 A 
ATOM     46  N   UNL A   1      38.916  31.441  29.233  1.00  0.00    -0.248 NA
ATOM     47  C   UNL A   1      37.506  29.879  28.318  1.00  0.00     0.031 C 
ATOM     48  C   UNL A   1      40.815  30.350  31.123  1.00  0.00     0.029 A 
ATOM     49  N   UNL A   1      42.056  28.742  30.130  1.00  0.00    -0.354 N 
ATOM     50  C   UNL A   1      37.675  32.027  29.124  1.00  0.00     0.074 A 
ATOM     51  C   UNL A   1      36.845  31.025  28.500  1.00  0.00     0.031 C 
ATOM     52  C   UNL A   1      42.080  30.506  31.546  1.00  0.00     0.029 A 
ATOM     53  C   UNL A   1      42.926  29.713  30.671  1.00  0.00     0.049 A 
ATOM     54  H   UNL A   1      42.289  27.827  29.855  1.00  0.00     0.167 HD
ATOM     55  C   UNL A   1      37.461  33.249  29.691  1.00  0.00     0.037 A 
ATOM     56  C   UNL A   1      43.985  30.197  29.959  1.00  0.00     0.037 A 
ATOM     57  C   UNL A   1      38.696  33.789  30.257  1.00  0.00     0.049 A 
ATOM     58  C   UNL A   1      43.936  31.689  29.730  1.00  0.00     0.074 A 
ATOM     59  C   UNL A   1      39.215  33.783  31.542  1.00  0.00     0.029 A 
ATOM     60  N   UNL A   1      39.739  34.154  29.413  1.00  0.00    -0.354 N 
ATOM     61  N   UNL A   1      42.857  32.410  29.853  1.00  0.00    -0.248 NA
ATOM     62  C   UNL A   1      45.089  32.482  29.304  1.00  0.00     0.031 C 
ATOM     63  C   UNL A   1      40.595  34.088  31.461  1.00  0.00     0.029 A 
ATOM     64  C   UNL A   1      40.910  34.302  30.130  1.00  0.00     0.049 A 
ATOM     65  H   UNL A   1      39.654  34.288  28.441  1.00  0.00     0.167 HD
ATOM     66  C   UNL A   1      43.127  33.705  29.497  1.00  0.00     0.074 A 
ATOM     67  C   UNL A   1      44.544  33.706  29.189  1.00  0.00     0.031 C 
ATOM     68  C   UNL A   1      42.154  34.662  29.464  1.00  0.00     0.037 A 
BRANCH  55  69
ATOM     69  C   UNL A   1      36.084  33.797  30.004  1.00  0.00     0.057 A 
ATOM     70  C   UNL A   1      35.233  34.244  28.973  1.00  0.00     0.134 A 
ATOM     71  C   UNL A   1      35.561  33.978  31.296  1.00  0.00     0.134 A 
ATOM     72  F   UNL A   1      35.516  34.031  27.682  1.00  0.00    -0.206 F 
ATOM     73  C   UNL A   1      34.039  34.938  29.212  1.00  0.00     0.040 A 
ATOM     74  C   UNL A   1      34.399  34.721  31.554  1.00  0.00     0.040 A 
ATOM     75  F   UNL A   1      36.112  33.391  32.364  1.00  0.00    -0.206 F 
ATOM     76  C   UNL A   1      33.641  35.222  30.509  1.00  0.00     0.006 A 
ENDBRANCH  55  69
BRANCH  56  77
ATOM     77  C   UNL A   1      44.551  29.208  29.002  1.00  0.00     0.057 A 
ATOM     78  C   UNL A   1      45.432  28.225  29.488  1.00  0.00     0.134 A 
ATOM     79  C   UNL A   1      43.975  28.983  27.749  1.00  0.00     0.134 A 
ATOM     80  F   UNL A   1      46.019  28.380  30.687  1.00  0.00    -0.206 F 
ATOM     81  C   UNL A   1      45.638  27.019  28.815  1.00  0.00     0.040 A 
ATOM     82  C   UNL A   1      44.184  27.782  27.059  1.00  0.00     0.040 A 
ATOM     83  F   UNL A   1      43.106  29.861  27.229  1.00  0.00    -0.206 F 
ATOM     84  C   UNL A   1      44.985  26.782  27.611  1.00  0.00     0.006 A 
ENDBRANCH  56  77
BRANCH  68  85
ATOM     85  C   UNL A   1      42.290  36.045  28.878  1.00  0.00     0.057 A 
ATOM     86  C   UNL A   1      42.956  37.106  29.510  1.00  0.00     0.134 A 
ATOM     87  C   UNL A   1      41.872  36.304  27.553  1.00  0.00     0.134 A 
ATOM     88  F   UNL A   1      43.499  36.968  30.726  1.00  0.00    -0.206 F 
ATOM     89  C   UNL A   1      43.143  38.350  28.891  1.00  0.00     0.040 A 
ATOM     90  C   UNL A   1      42.102  37.521  26.907  1.00  0.00     0.040 A 
ATOM     91  F   UNL A   1      41.244  35.373  26.820  1.00  0.00    -0.206 F 
ATOM     92  C   UNL A   1      42.728  38.557  27.581  1.00  0.00     0.006 A 
ENDBRANCH  68  85
ENDBRANCH  42  43
ENDBRANCH  34  37
ENDBRANCH  32  33
ENDBRANCH  31  32
ENDBRANCH   1  31
TORSDOF 14
ENDMDL
MODEL 2
REMARK VINA RESULT:     -13.7      4.050      9.210
REMARK SMILES Cc1cccc(OC2(C(=O)NCCCCNC(=O)c3ccc(-c4c5nc(c(-c6c(F)cccc6F)c6ccc([nH]6)c(-c6c(F)cccc6F)c6nc(c(-c7c(F)cccc7F)c7ccc4[nH]7)C=C6)C=C5)cc3)CCN(C(=O)c3cnc[nH]c3=O)CC2)c1
REMARK SMILES IDX 13 1 12 2 11 3 9 4 10 5 8 7 73 8 86 9 74 10 85 11 75 12
REMARK SMILES IDX 76 13 77 14 7 15 6 16 1 17 2 18 3 19 87 20 4 21 5 22 78 23
REMARK SMILES IDX 79 24 83 25 80 26 82 27 84 28 81 29 14 31 15 32 16 33 17 34
REMARK SMILES IDX 18 36 19 37 20 38 72 39 21 40 71 41 22 42 23 43 24 44 65 45
REMARK SMILES IDX 25 46 70 47 64 48 66 49 26 50 69 51 63 52 62 53 27 55 53 56
REMARK SMILES IDX 36 57 52 58 37 59 40 60 51 61 67 62 38 63 39 64 50 66 68 67
REMARK SMILES IDX 41 68 28 69 29 70 34 71 30 72 31 73 33 74 35 75 32 76 54 77
REMARK SMILES IDX 55 78 60 79 56 80 57 81 59 82 61 83 58 84 42 85 43 86 48 87
REMARK SMILES IDX 44 88 45 89 47 90 49 91 46 92
REMARK H PARENT 11 6 82 30 16 35 66 54 40 65
REMARK Flexibility Score: inf
ROOT
ATOM      1  C   UNL A   1      32.431  30.398  27.259  1.00  0.00     0.023 C 
ENDROOT
BRANCH   1   2
ATOM      2  C   UNL A   1      32.979  28.952  27.327  1.00  0.00     0.116 C 
BRANCH   2   3
ATOM      3  N   UNL A   1      32.015  27.848  27.309  1.00  0.00    -0.353 N 
ATOM      4  C   UNL A   1      31.504  27.027  26.337  1.00  0.00     0.264 C 
ATOM      5  O   UNL A   1      31.042  25.959  26.765  1.00  0.00    -0.270 OA
ATOM      6  H   UNL A   1      31.651  27.651  28.202  1.00  0.00     0.163 HD
BRANCH   4   7
ATOM      7  C   UNL A   1      31.470  27.354  24.802  1.00  0.00     0.190 C 
ATOM      8  C   UNL A   1      30.283  26.654  24.159  1.00  0.00     0.080 C 
ATOM      9  C   UNL A   1      31.328  28.890  24.597  1.00  0.00     0.080 C 
ATOM     10  C   UNL A   1      29.960  27.061  22.742  1.00  0.00     0.124 C 
ATOM     11  C   UNL A   1      30.988  29.236  23.133  1.00  0.00     0.124 C 
ATOM     12  N   UNL A   1      29.794  28.498  22.731  1.00  0.00    -0.338 N 
ATOM     13  C   UNL A   1      28.520  29.026  22.874  1.00  0.00     0.261 C 
ATOM     14  O   UNL A   1      27.603  28.445  23.451  1.00  0.00    -0.269 OA
BRANCH   7  15
ATOM     15  O   UNL A   1      32.793  27.073  24.303  1.00  0.00    -0.477 OA
BRANCH  15  16
ATOM     16  C   UNL A   1      33.519  25.935  24.231  1.00  0.00     0.121 A 
ATOM     17  C   UNL A   1      35.744  23.480  26.098  1.00  0.00     0.044 C 
ATOM     18  C   UNL A   1      34.922  24.098  25.005  1.00  0.00    -0.047 A 
ATOM     19  C   UNL A   1      34.677  23.396  23.825  1.00  0.00     0.003 A 
ATOM     20  C   UNL A   1      34.376  25.383  25.172  1.00  0.00     0.049 A 
ATOM     21  C   UNL A   1      33.881  23.965  22.836  1.00  0.00     0.004 A 
ATOM     22  C   UNL A   1      33.300  25.217  23.048  1.00  0.00     0.046 A 
ENDBRANCH  15  16
ENDBRANCH   7  15
BRANCH  13  23
ATOM     23  C   UNL A   1      28.308  30.329  22.231  1.00  0.00     0.123 A 
ATOM     24  C   UNL A   1      27.973  30.405  20.936  1.00  0.00     0.132 A 
ATOM     25  C   UNL A   1      28.524  31.595  22.953  1.00  0.00     0.263 A 
ATOM     26  N   UNL A   1      27.759  31.576  20.246  1.00  0.00    -0.246 NA
ATOM     27  N   UNL A   1      28.298  32.723  22.218  1.00  0.00    -0.312 N 
ATOM     28  O   UNL A   1      28.897  31.656  24.119  1.00  0.00    -0.269 OA
ATOM     29  C   UNL A   1      27.930  32.671  20.907  1.00  0.00     0.199 A 
ATOM     30  H   UNL A   1      28.404  33.602  22.650  1.00  0.00     0.171 HD
ENDBRANCH  13  23
ENDBRANCH   4   7
ENDBRANCH   2   3
ENDBRANCH   1   2
BRANCH   1  31
ATOM     31  C   UNL A   1      33.406  31.514  27.608  1.00  0.00     0.023 C 
BRANCH  31  32
ATOM     32  C   UNL A   1      34.841  31.032  27.626  1.00  0.00     0.116 C 
BRANCH  32  33
ATOM     33  N   UNL A   1      35.726  31.782  28.517  1.00  0.00    -0.352 N 
ATOM     34  C   UNL A   1      36.879  31.352  29.166  1.00  0.00     0.251 C 
ATOM     35  H   UNL A   1      35.471  32.720  28.678  1.00  0.00     0.163 HD
ATOM     36  O   UNL A   1      37.520  32.101  29.874  1.00  0.00    -0.269 OA
BRANCH  34  37
ATOM     37  C   UNL A   1      37.386  29.992  28.852  1.00  0.00     0.039 A 
ATOM     38  C   UNL A   1      37.518  29.094  29.917  1.00  0.00     0.014 A 
ATOM     39  C   UNL A   1      38.023  29.756  27.640  1.00  0.00     0.014 A 
ATOM     40  C   UNL A   1      38.525  28.137  29.863  1.00  0.00     0.010 A 
ATOM     41  C   UNL A   1      39.108  28.906  27.640  1.00  0.00     0.010 A 
ATOM     42  C   UNL A   1      39.402  28.151  28.781  1.00  0.00    -0.014 A 
BRANCH  42  43
ATOM     43  C   UNL A   1      40.710  27.503  28.812  1.00  0.00     0.031 A 
ATOM     44  C   UNL A   1      40.826  26.064  28.503  1.00  0.00     0.074 A 
ATOM     45  C   UNL A   1      41.819  28.238  29.055  1.00  0.00     0.049 A 
ATOM     46  N   UNL A   1      41.795  25.311  28.896  1.00  0.00    -0.248 NA
ATOM     47  C   UNL A   1      39.807  25.344  27.752  1.00  0.00     0.031 C 
ATOM     48  C   UNL A   1      43.211  27.833  28.873  1.00  0.00     0.029 A 
ATOM     49  N   UNL A   1      41.900  29.461  29.736  1.00  0.00    -0.354 N 
ATOM     50  C   UNL A   1      41.677  24.100  28.249  1.00  0.00     0.074 A 
ATOM     51  C   UNL A   1      40.394  24.156  27.591  1.00  0.00     0.031 C 
ATOM     52  C   UNL A   1      43.992  28.603  29.647  1.00  0.00     0.029 A 
ATOM     53  C   UNL A   1      43.113  29.429  30.458  1.00  0.00     0.049 A 
ATOM     54  H   UNL A   1      41.244  30.194  29.714  1.00  0.00     0.167 HD
ATOM     55  C   UNL A   1      42.736  23.241  28.242  1.00  0.00     0.037 A 
ATOM     56  C   UNL A   1      43.132  29.485  31.821  1.00  0.00     0.037 A 
ATOM     57  C   UNL A   1      43.834  23.754  29.061  1.00  0.00     0.049 A 
ATOM     58  C   UNL A   1      43.768  28.280  32.474  1.00  0.00     0.074 A 
ATOM     59  C   UNL A   1      44.982  24.462  28.745  1.00  0.00     0.029 A 
ATOM     60  N   UNL A   1      43.680  23.848  30.439  1.00  0.00    -0.354 N 
ATOM     61  N   UNL A   1      43.954  27.139  31.871  1.00  0.00    -0.248 NA
ATOM     62  C   UNL A   1      44.209  28.252  33.867  1.00  0.00     0.031 C 
ATOM     63  C   UNL A   1      45.487  25.036  29.937  1.00  0.00     0.029 A 
ATOM     64  C   UNL A   1      44.659  24.659  30.979  1.00  0.00     0.049 A 
ATOM     65  H   UNL A   1      42.972  23.400  30.956  1.00  0.00     0.167 HD
ATOM     66  C   UNL A   1      44.473  26.232  32.757  1.00  0.00     0.074 A 
ATOM     67  C   UNL A   1      44.642  26.985  33.985  1.00  0.00     0.031 C 
ATOM     68  C   UNL A   1      44.699  24.931  32.409  1.00  0.00     0.037 A 
BRANCH  55  69
ATOM     69  C   UNL A   1      42.887  22.108  27.248  1.00  0.00     0.057 A 
ATOM     70  C   UNL A   1      42.107  20.940  27.361  1.00  0.00     0.134 A 
ATOM     71  C   UNL A   1      43.826  22.070  26.203  1.00  0.00     0.134 A 
ATOM     72  F   UNL A   1      41.080  20.857  28.216  1.00  0.00    -0.206 F 
ATOM     73  C   UNL A   1      42.339  19.787  26.598  1.00  0.00     0.040 A 
ATOM     74  C   UNL A   1      44.111  20.907  25.472  1.00  0.00     0.040 A 
ATOM     75  F   UNL A   1      44.468  23.171  25.796  1.00  0.00    -0.206 F 
ATOM     76  C   UNL A   1      43.377  19.750  25.681  1.00  0.00     0.006 A 
ENDBRANCH  55  69
BRANCH  56  77
ATOM     77  C   UNL A   1      41.999  30.262  32.393  1.00  0.00     0.057 A 
ATOM     78  C   UNL A   1      40.865  29.566  32.850  1.00  0.00     0.134 A 
ATOM     79  C   UNL A   1      42.158  31.579  32.831  1.00  0.00     0.134 A 
ATOM     80  F   UNL A   1      40.655  28.295  32.467  1.00  0.00    -0.206 F 
ATOM     81  C   UNL A   1      39.993  30.113  33.794  1.00  0.00     0.040 A 
ATOM     82  C   UNL A   1      41.281  32.143  33.767  1.00  0.00     0.040 A 
ATOM     83  F   UNL A   1      43.225  32.300  32.460  1.00  0.00    -0.206 F 
ATOM     84  C   UNL A   1      40.220  31.396  34.280  1.00  0.00     0.006 A 
ENDBRANCH  56  77
BRANCH  68  85
ATOM     85  C   UNL A   1      45.050  23.809  33.353  1.00  0.00     0.057 A 
ATOM     86  C   UNL A   1      44.184  22.755  33.682  1.00  0.00     0.134 A 
ATOM     87  C   UNL A   1      46.367  23.680  33.851  1.00  0.00     0.134 A 
ATOM     88  F   UNL A   1      42.939  22.692  33.192  1.00  0.00    -0.206 F 
ATOM     89  C   UNL A   1      44.582  21.681  34.489  1.00  0.00     0.040 A 
ATOM     90  C   UNL A   1      46.789  22.587  34.611  1.00  0.00     0.040 A 
ATOM     91  F   UNL A   1      47.308  24.601  33.596  1.00  0.00    -0.206 F 
ATOM     92  C   UNL A   1      45.890  21.586  34.946  1.00  0.00     0.006 A 
ENDBRANCH  68  85
ENDBRANCH  42  43
ENDBRANCH  34  37
ENDBRANCH  32  33
ENDBRANCH  31  32
ENDBRANCH   1  31
TORSDOF 14
ENDMDL
MODEL 3
REMARK VINA RESULT:     -13.5      3.474      9.617
REMARK SMILES Cc1cccc(OC2(C(=O)NCCCCNC(=O)c3ccc(-c4c5nc(c(-c6c(F)cccc6F)c6ccc([nH]6)c(-c6c(F)cccc6F)c6nc(c(-c7c(F)cccc7F)c7ccc4[nH]7)C=C6)C=C5)cc3)CCN(C(=O)c3cnc[nH]c3=O)CC2)c1
REMARK SMILES IDX 13 1 12 2 11 3 9 4 10 5 8 7 73 8 86 9 74 10 85 11 75 12
REMARK SMILES IDX 76 13 77 14 7 15 6 16 1 17 2 18 3 19 87 20 4 21 5 22 78 23
REMARK SMILES IDX 79 24 83 25 80 26 82 27 84 28 81 29 14 31 15 32 16 33 17 34
REMARK SMILES IDX 18 36 19 37 20 38 72 39 21 40 71 41 22 42 23 43 24 44 65 45
REMARK SMILES IDX 25 46 70 47 64 48 66 49 26 50 69 51 63 52 62 53 27 55 53 56
REMARK SMILES IDX 36 57 52 58 37 59 40 60 51 61 67 62 38 63 39 64 50 66 68 67
REMARK SMILES IDX 41 68 28 69 29 70 34 71 30 72 31 73 33 74 35 75 32 76 54 77
REMARK SMILES IDX 55 78 60 79 56 80 57 81 59 82 61 83 58 84 42 85 43 86 48 87
REMARK SMILES IDX 44 88 45 89 47 90 49 91 46 92
REMARK H PARENT 11 6 82 30 16 35 66 54 40 65
REMARK Flexibility Score: inf
ROOT
ATOM      1  C   UNL A   1      34.165  29.823  26.633  1.00  0.00     0.023 C 
ENDROOT
BRANCH   1   2
ATOM      2  C   UNL A   1      33.268  29.604  25.392  1.00  0.00     0.116 C 
BRANCH   2   3
ATOM      3  N   UNL A   1      33.880  29.025  24.193  1.00  0.00    -0.353 N 
ATOM      4  C   UNL A   1      33.511  28.061  23.289  1.00  0.00     0.264 C 
ATOM      5  O   UNL A   1      34.086  28.145  22.194  1.00  0.00    -0.270 OA
ATOM      6  H   UNL A   1      34.759  29.419  23.989  1.00  0.00     0.163 HD
BRANCH   4   7
ATOM      7  C   UNL A   1      32.465  26.922  23.558  1.00  0.00     0.190 C 
ATOM      8  C   UNL A   1      32.200  26.160  22.268  1.00  0.00     0.080 C 
ATOM      9  C   UNL A   1      33.025  25.938  24.625  1.00  0.00     0.080 C 
ATOM     10  C   UNL A   1      31.412  24.880  22.403  1.00  0.00     0.124 C 
ATOM     11  C   UNL A   1      32.181  24.648  24.703  1.00  0.00     0.124 C 
ATOM     12  N   UNL A   1      32.092  24.052  23.374  1.00  0.00    -0.338 N 
ATOM     13  C   UNL A   1      33.007  23.111  22.927  1.00  0.00     0.261 C 
ATOM     14  O   UNL A   1      33.625  23.210  21.869  1.00  0.00    -0.269 OA
BRANCH   7  15
ATOM     15  O   UNL A   1      31.356  27.547  24.232  1.00  0.00    -0.477 OA
BRANCH  15  16
ATOM     16  C   UNL A   1      30.243  28.167  23.778  1.00  0.00     0.121 A 
ATOM     17  C   UNL A   1      28.834  31.155  21.893  1.00  0.00     0.044 C 
ATOM     18  C   UNL A   1      28.905  29.845  22.623  1.00  0.00    -0.047 A 
ATOM     19  C   UNL A   1      27.777  29.030  22.718  1.00  0.00     0.003 A 
ATOM     20  C   UNL A   1      30.116  29.421  23.198  1.00  0.00     0.049 A 
ATOM     21  C   UNL A   1      27.866  27.801  23.364  1.00  0.00     0.004 A 
ATOM     22  C   UNL A   1      29.093  27.374  23.876  1.00  0.00     0.046 A 
ENDBRANCH  15  16
ENDBRANCH   7  15
BRANCH  13  23
ATOM     23  C   UNL A   1      33.156  21.928  23.786  1.00  0.00     0.123 A 
ATOM     24  C   UNL A   1      32.153  21.050  23.920  1.00  0.00     0.132 A 
ATOM     25  C   UNL A   1      34.374  21.698  24.584  1.00  0.00     0.263 A 
ATOM     26  N   UNL A   1      32.197  19.920  24.703  1.00  0.00    -0.246 NA
ATOM     27  N   UNL A   1      34.359  20.563  25.342  1.00  0.00    -0.312 N 
ATOM     28  O   UNL A   1      35.331  22.464  24.599  1.00  0.00    -0.269 OA
ATOM     29  C   UNL A   1      33.283  19.728  25.374  1.00  0.00     0.199 A 
ATOM     30  H   UNL A   1      35.152  20.341  25.883  1.00  0.00     0.171 HD
ENDBRANCH  13  23
ENDBRANCH   4   7
ENDBRANCH   2   3
ENDBRANCH   1   2
BRANCH   1  31
ATOM     31  C   UNL A   1      34.026  31.160  27.349  1.00  0.00     0.023 C 
BRANCH  31  32
ATOM     32  C   UNL A   1      34.560  31.106  28.764  1.00  0.00     0.116 C 
BRANCH  32  33
ATOM     33  N   UNL A   1      35.671  32.019  29.032  1.00  0.00    -0.352 N 
ATOM     34  C   UNL A   1      37.027  31.731  29.149  1.00  0.00     0.251 C 
ATOM     35  H   UNL A   1      35.426  32.966  29.143  1.00  0.00     0.163 HD
ATOM     36  O   UNL A   1      37.840  32.605  29.367  1.00  0.00    -0.269 OA
BRANCH  34  37
ATOM     37  C   UNL A   1      37.471  30.344  28.856  1.00  0.00     0.039 A 
ATOM     38  C   UNL A   1      37.604  29.469  29.939  1.00  0.00     0.014 A 
ATOM     39  C   UNL A   1      38.058  30.054  27.630  1.00  0.00     0.014 A 
ATOM     40  C   UNL A   1      38.571  28.472  29.878  1.00  0.00     0.010 A 
ATOM     41  C   UNL A   1      39.109  29.161  27.617  1.00  0.00     0.010 A 
ATOM     42  C   UNL A   1      39.412  28.424  28.768  1.00  0.00    -0.014 A 
BRANCH  42  43
ATOM     43  C   UNL A   1      40.694  27.727  28.774  1.00  0.00     0.031 A 
ATOM     44  C   UNL A   1      40.744  26.278  28.497  1.00  0.00     0.074 A 
ATOM     45  C   UNL A   1      41.837  28.423  28.965  1.00  0.00     0.049 A 
ATOM     46  N   UNL A   1      41.695  25.496  28.878  1.00  0.00    -0.248 NA
ATOM     47  C   UNL A   1      39.674  25.581  27.795  1.00  0.00     0.031 C 
ATOM     48  C   UNL A   1      43.206  27.959  28.749  1.00  0.00     0.029 A 
ATOM     49  N   UNL A   1      41.987  29.658  29.612  1.00  0.00    -0.354 N 
ATOM     50  C   UNL A   1      41.510  24.276  28.265  1.00  0.00     0.074 A 
ATOM     51  C   UNL A   1      40.210  24.367  27.646  1.00  0.00     0.031 C 
ATOM     52  C   UNL A   1      44.040  28.716  29.479  1.00  0.00     0.029 A 
ATOM     53  C   UNL A   1      43.220  29.594  30.297  1.00  0.00     0.049 A 
ATOM     54  H   UNL A   1      41.360  30.415  29.593  1.00  0.00     0.167 HD
ATOM     55  C   UNL A   1      42.535  23.376  28.245  1.00  0.00     0.037 A 
ATOM     56  C   UNL A   1      43.285  29.681  31.657  1.00  0.00     0.037 A 
ATOM     57  C   UNL A   1      43.677  23.865  29.017  1.00  0.00     0.049 A 
ATOM     58  C   UNL A   1      43.896  28.468  32.319  1.00  0.00     0.074 A 
ATOM     59  C   UNL A   1      44.841  24.520  28.648  1.00  0.00     0.029 A 
ATOM     60  N   UNL A   1      43.572  23.997  30.396  1.00  0.00    -0.354 N 
ATOM     61  N   UNL A   1      44.018  27.306  31.738  1.00  0.00    -0.248 NA
ATOM     62  C   UNL A   1      44.379  28.454  33.698  1.00  0.00     0.031 C 
ATOM     63  C   UNL A   1      45.406  25.101  29.809  1.00  0.00     0.029 A 
ATOM     64  C   UNL A   1      44.598  24.781  30.886  1.00  0.00     0.049 A 
ATOM     65  H   UNL A   1      42.864  23.589  30.946  1.00  0.00     0.167 HD
ATOM     66  C   UNL A   1      44.530  26.401  32.630  1.00  0.00     0.074 A 
ATOM     67  C   UNL A   1      44.767  27.174  33.834  1.00  0.00     0.031 C 
ATOM     68  C   UNL A   1      44.694  25.084  32.307  1.00  0.00     0.037 A 
BRANCH  55  69
ATOM     69  C   UNL A   1      42.610  22.215  27.275  1.00  0.00     0.057 A 
ATOM     70  C   UNL A   1      41.788  21.084  27.439  1.00  0.00     0.134 A 
ATOM     71  C   UNL A   1      43.515  22.115  26.204  1.00  0.00     0.134 A 
ATOM     72  F   UNL A   1      40.784  21.062  28.326  1.00  0.00    -0.206 F 
ATOM     73  C   UNL A   1      41.951  19.905  26.698  1.00  0.00     0.040 A 
ATOM     74  C   UNL A   1      43.731  20.925  25.493  1.00  0.00     0.040 A 
ATOM     75  F   UNL A   1      44.187  23.179  25.752  1.00  0.00    -0.206 F 
ATOM     76  C   UNL A   1      42.957  19.805  25.752  1.00  0.00     0.006 A 
ENDBRANCH  55  69
BRANCH  56  77
ATOM     77  C   UNL A   1      42.203  30.515  32.245  1.00  0.00     0.057 A 
ATOM     78  C   UNL A   1      42.345  31.915  32.231  1.00  0.00     0.134 A 
ATOM     79  C   UNL A   1      40.920  30.008  32.465  1.00  0.00     0.134 A 
ATOM     80  F   UNL A   1      43.552  32.468  32.022  1.00  0.00    -0.206 F 
ATOM     81  C   UNL A   1      41.244  32.771  32.311  1.00  0.00     0.040 A 
ATOM     82  C   UNL A   1      39.810  30.858  32.561  1.00  0.00     0.040 A 
ATOM     83  F   UNL A   1      40.699  28.686  32.468  1.00  0.00    -0.206 F 
ATOM     84  C   UNL A   1      39.967  32.239  32.444  1.00  0.00     0.006 A 
ENDBRANCH  56  77
BRANCH  68  85
ATOM     85  C   UNL A   1      45.032  23.971  33.267  1.00  0.00     0.057 A 
ATOM     86  C   UNL A   1      44.144  22.948  33.630  1.00  0.00     0.134 A 
ATOM     87  C   UNL A   1      46.353  23.817  33.744  1.00  0.00     0.134 A 
ATOM     88  F   UNL A   1      42.890  22.909  33.162  1.00  0.00    -0.206 F 
ATOM     89  C   UNL A   1      44.527  21.878  34.452  1.00  0.00     0.040 A 
ATOM     90  C   UNL A   1      46.759  22.727  34.519  1.00  0.00     0.040 A 
ATOM     91  F   UNL A   1      47.314  24.707  33.456  1.00  0.00    -0.206 F 
ATOM     92  C   UNL A   1      45.841  21.758  34.888  1.00  0.00     0.006 A 
ENDBRANCH  68  85
ENDBRANCH  42  43
ENDBRANCH  34  37
ENDBRANCH  32  33
ENDBRANCH  31  32
ENDBRANCH   1  31
TORSDOF 14
ENDMDL
