MODEL 1
REMARK VINA RESULT:     -10.4      0.000      0.000
REMARK SMILES CC(=O)/C=C(/C)NCC(=O)NCCCCNC(=O)c1ccc(-c2c3nc(c(-c4c(F)cccc4F)c4ccc([nH]4)c(-c4c(F)cccc4F)c4nc(c(-c5c(F)cccc5F)c5ccc2[nH]5)C=C4)C=C3)cc1
REMARK SMILES IDX 13 1 12 2 11 3 9 4 10 5 8 7 7 8 5 10 4 11 6 12 2 13 1 14
REMARK SMILES IDX 3 15 14 16 15 17 16 18 17 19 18 21 19 22 20 23 72 24 21 25
REMARK SMILES IDX 71 26 22 27 23 28 24 29 65 30 25 31 70 32 64 33 66 34 26 35
REMARK SMILES IDX 69 36 63 37 62 38 27 40 53 41 36 42 52 43 37 44 40 45 51 46
REMARK SMILES IDX 67 47 38 48 39 49 50 51 68 52 41 53 28 54 29 55 34 56 30 57
REMARK SMILES IDX 31 58 33 59 35 60 32 61 54 62 55 63 60 64 56 65 57 66 59 67
REMARK SMILES IDX 61 68 58 69 42 70 43 71 48 72 44 73 45 74 47 75 49 76 46 77
REMARK H PARENT 11 6 7 9 16 20 66 39 40 50
REMARK Flexibility Score: inf
ROOT
ATOM      1  C   UNL A   1      37.292  20.780  24.654  1.00  0.00     0.023 C 
ENDROOT
BRANCH   1   2
ATOM      2  C   UNL A   1      35.895  20.664  25.259  1.00  0.00     0.116 C 
BRANCH   2   3
ATOM      3  N   UNL A   1      35.612  21.735  26.191  1.00  0.00    -0.355 N 
ATOM      4  C   UNL A   1      34.494  21.991  26.927  1.00  0.00     0.239 C 
ATOM      5  O   UNL A   1      34.521  22.997  27.646  1.00  0.00    -0.273 OA
ATOM      6  H   UNL A   1      36.345  22.382  26.313  1.00  0.00     0.163 HD
BRANCH   4   7
ATOM      7  C   UNL A   1      33.272  21.058  26.956  1.00  0.00     0.213 C 
BRANCH   7   8
ATOM      8  N   UNL A   1      32.352  21.208  25.845  1.00  0.00    -0.380 N 
ATOM      9  H   UNL A   1      31.499  21.629  26.101  1.00  0.00     0.160 HD
BRANCH   8  10
ATOM     10  C   UNL A   1      32.417  20.885  24.502  1.00  0.00     0.011 C 
ATOM     11  C   UNL A   1      32.495  19.718  23.828  1.00  0.00     0.067 C 
ATOM     12  C   UNL A   1      32.525  22.140  23.632  1.00  0.00     0.064 C 
BRANCH  11  13
ATOM     13  C   UNL A   1      32.574  18.253  24.104  1.00  0.00     0.154 C 
ATOM     14  C   UNL A   1      33.224  17.278  23.175  1.00  0.00     0.093 C 
ATOM     15  O   UNL A   1      32.084  17.852  25.164  1.00  0.00    -0.295 OA
ENDBRANCH  11  13
ENDBRANCH   8  10
ENDBRANCH   7   8
ENDBRANCH   4   7
ENDBRANCH   2   3
ENDBRANCH   1   2
BRANCH   1  16
ATOM     16  C   UNL A   1      38.216  19.610  24.996  1.00  0.00     0.023 C 
BRANCH  16  17
ATOM     17  C   UNL A   1      39.412  19.971  25.868  1.00  0.00     0.116 C 
BRANCH  17  18
ATOM     18  N   UNL A   1      40.438  18.940  25.891  1.00  0.00    -0.352 N 
ATOM     19  C   UNL A   1      41.791  19.082  26.107  1.00  0.00     0.251 C 
ATOM     20  H   UNL A   1      40.125  18.021  25.730  1.00  0.00     0.163 HD
ATOM     21  O   UNL A   1      42.549  18.136  25.970  1.00  0.00    -0.269 OA
BRANCH  19  22
ATOM     22  C   UNL A   1      42.321  20.415  26.469  1.00  0.00     0.039 A 
ATOM     23  C   UNL A   1      42.828  21.236  25.459  1.00  0.00     0.014 A 
ATOM     24  C   UNL A   1      42.278  20.864  27.791  1.00  0.00     0.014 A 
ATOM     25  C   UNL A   1      43.227  22.538  25.765  1.00  0.00     0.010 A 
ATOM     26  C   UNL A   1      42.605  22.184  28.081  1.00  0.00     0.010 A 
ATOM     27  C   UNL A   1      43.082  23.034  27.071  1.00  0.00    -0.014 A 
BRANCH  27  28
ATOM     28  C   UNL A   1      43.420  24.440  27.403  1.00  0.00     0.031 A 
ATOM     29  C   UNL A   1      44.850  24.902  27.368  1.00  0.00     0.074 A 
ATOM     30  C   UNL A   1      42.449  25.284  27.803  1.00  0.00     0.049 A 
ATOM     31  N   UNL A   1      45.350  26.069  27.682  1.00  0.00    -0.248 NA
ATOM     32  C   UNL A   1      45.851  23.907  26.952  1.00  0.00     0.031 C 
ATOM     33  C   UNL A   1      41.030  24.947  27.922  1.00  0.00     0.029 A 
ATOM     34  N   UNL A   1      42.512  26.599  28.188  1.00  0.00    -0.354 N 
ATOM     35  C   UNL A   1      46.724  25.945  27.517  1.00  0.00     0.074 A 
ATOM     36  C   UNL A   1      46.981  24.574  27.132  1.00  0.00     0.031 C 
ATOM     37  C   UNL A   1      40.353  26.035  28.320  1.00  0.00     0.029 A 
ATOM     38  C   UNL A   1      41.292  27.135  28.519  1.00  0.00     0.049 A 
ATOM     39  H   UNL A   1      43.354  27.110  28.224  1.00  0.00     0.167 HD
ATOM     40  C   UNL A   1      47.682  26.894  27.647  1.00  0.00     0.037 A 
ATOM     41  C   UNL A   1      40.967  28.373  28.935  1.00  0.00     0.037 A 
ATOM     42  C   UNL A   1      47.422  28.261  28.013  1.00  0.00     0.049 A 
ATOM     43  C   UNL A   1      42.049  29.405  29.091  1.00  0.00     0.074 A 
ATOM     44  C   UNL A   1      48.316  29.312  28.115  1.00  0.00     0.029 A 
ATOM     45  N   UNL A   1      46.172  28.766  28.340  1.00  0.00    -0.354 N 
ATOM     46  N   UNL A   1      43.336  29.295  28.867  1.00  0.00    -0.248 NA
ATOM     47  C   UNL A   1      41.630  30.736  29.554  1.00  0.00     0.031 C 
ATOM     48  C   UNL A   1      47.613  30.443  28.546  1.00  0.00     0.029 A 
ATOM     49  C   UNL A   1      46.274  30.109  28.667  1.00  0.00     0.049 A 
ATOM     50  H   UNL A   1      45.336  28.246  28.340  1.00  0.00     0.167 HD
ATOM     51  C   UNL A   1      43.877  30.545  29.135  1.00  0.00     0.074 A 
ATOM     52  C   UNL A   1      42.776  31.401  29.528  1.00  0.00     0.031 C 
ATOM     53  C   UNL A   1      45.169  30.948  29.057  1.00  0.00     0.037 A 
BRANCH  40  54
ATOM     54  C   UNL A   1      49.100  26.470  27.395  1.00  0.00     0.057 A 
ATOM     55  C   UNL A   1      49.652  26.467  26.106  1.00  0.00     0.134 A 
ATOM     56  C   UNL A   1      49.924  26.056  28.449  1.00  0.00     0.134 A 
ATOM     57  F   UNL A   1      48.913  26.839  25.050  1.00  0.00    -0.206 F 
ATOM     58  C   UNL A   1      50.956  26.028  25.870  1.00  0.00     0.040 A 
ATOM     59  C   UNL A   1      51.238  25.643  28.230  1.00  0.00     0.040 A 
ATOM     60  F   UNL A   1      49.462  26.040  29.709  1.00  0.00    -0.206 F 
ATOM     61  C   UNL A   1      51.755  25.618  26.935  1.00  0.00     0.006 A 
ENDBRANCH  40  54
BRANCH  41  62
ATOM     62  C   UNL A   1      39.547  28.716  29.189  1.00  0.00     0.057 A 
ATOM     63  C   UNL A   1      38.981  28.530  30.455  1.00  0.00     0.134 A 
ATOM     64  C   UNL A   1      38.727  29.248  28.187  1.00  0.00     0.134 A 
ATOM     65  F   UNL A   1      39.714  28.007  31.450  1.00  0.00    -0.206 F 
ATOM     66  C   UNL A   1      37.649  28.852  30.716  1.00  0.00     0.040 A 
ATOM     67  C   UNL A   1      37.399  29.594  28.438  1.00  0.00     0.040 A 
ATOM     68  F   UNL A   1      39.213  29.456  26.954  1.00  0.00    -0.206 F 
ATOM     69  C   UNL A   1      36.855  29.392  29.705  1.00  0.00     0.006 A 
ENDBRANCH  41  62
BRANCH  53  70
ATOM     70  C   UNL A   1      45.458  32.386  29.372  1.00  0.00     0.057 A 
ATOM     71  C   UNL A   1      45.820  32.803  30.660  1.00  0.00     0.134 A 
ATOM     72  C   UNL A   1      45.409  33.359  28.366  1.00  0.00     0.134 A 
ATOM     73  F   UNL A   1      45.871  31.922  31.670  1.00  0.00    -0.206 F 
ATOM     74  C   UNL A   1      46.104  34.141  30.940  1.00  0.00     0.040 A 
ATOM     75  C   UNL A   1      45.715  34.696  28.629  1.00  0.00     0.040 A 
ATOM     76  F   UNL A   1      45.076  33.026  27.110  1.00  0.00    -0.206 F 
ATOM     77  C   UNL A   1      46.059  35.090  29.920  1.00  0.00     0.006 A 
ENDBRANCH  53  70
ENDBRANCH  27  28
ENDBRANCH  19  22
ENDBRANCH  17  18
ENDBRANCH  16  17
ENDBRANCH   1  16
TORSDOF 14
ENDMDL
MODEL 2
REMARK VINA RESULT:     -10.4      6.463     10.631
REMARK SMILES CC(=O)/C=C(/C)NCC(=O)NCCCCNC(=O)c1ccc(-c2c3nc(c(-c4c(F)cccc4F)c4ccc([nH]4)c(-c4c(F)cccc4F)c4nc(c(-c5c(F)cccc5F)c5ccc2[nH]5)C=C4)C=C3)cc1
REMARK SMILES IDX 13 1 12 2 11 3 9 4 10 5 8 7 7 8 5 10 4 11 6 12 2 13 1 14
REMARK SMILES IDX 3 15 14 16 15 17 16 18 17 19 18 21 19 22 20 23 72 24 21 25
REMARK SMILES IDX 71 26 22 27 23 28 24 29 65 30 25 31 70 32 64 33 66 34 26 35
REMARK SMILES IDX 69 36 63 37 62 38 27 40 53 41 36 42 52 43 37 44 40 45 51 46
REMARK SMILES IDX 67 47 38 48 39 49 50 51 68 52 41 53 28 54 29 55 34 56 30 57
REMARK SMILES IDX 31 58 33 59 35 60 32 61 54 62 55 63 60 64 56 65 57 66 59 67
REMARK SMILES IDX 61 68 58 69 42 70 43 71 48 72 44 73 45 74 47 75 49 76 46 77
REMARK H PARENT 11 6 7 9 16 20 66 39 40 50
REMARK Flexibility Score: inf
ROOT
ATOM      1  C   UNL A   1      32.067  30.343  26.672  1.00  0.00     0.023 C 
ENDROOT
BRANCH   1   2
ATOM      2  C   UNL A   1      31.712  29.772  25.301  1.00  0.00     0.116 C 
BRANCH   2   3
ATOM      3  N   UNL A   1      32.862  29.702  24.424  1.00  0.00    -0.355 N 
ATOM      4  C   UNL A   1      33.150  28.830  23.417  1.00  0.00     0.239 C 
ATOM      5  O   UNL A   1      34.224  28.998  22.828  1.00  0.00    -0.273 OA
ATOM      6  H   UNL A   1      33.544  30.394  24.580  1.00  0.00     0.163 HD
BRANCH   4   7
ATOM      7  C   UNL A   1      32.180  27.733  22.948  1.00  0.00     0.213 C 
BRANCH   7   8
ATOM      8  N   UNL A   1      30.918  28.208  22.415  1.00  0.00    -0.380 N 
ATOM      9  H   UNL A   1      31.017  28.717  21.577  1.00  0.00     0.160 HD
BRANCH   8  10
ATOM     10  C   UNL A   1      29.604  28.101  22.834  1.00  0.00     0.011 C 
ATOM     11  C   UNL A   1      28.517  28.889  22.699  1.00  0.00     0.067 C 
ATOM     12  C   UNL A   1      29.400  26.868  23.718  1.00  0.00     0.064 C 
BRANCH  11  13
ATOM     13  C   UNL A   1      28.139  30.208  22.109  1.00  0.00     0.154 C 
ATOM     14  C   UNL A   1      27.873  31.428  22.932  1.00  0.00     0.093 C 
ATOM     15  O   UNL A   1      28.062  30.272  20.878  1.00  0.00    -0.295 OA
ENDBRANCH  11  13
ENDBRANCH   8  10
ENDBRANCH   7   8
ENDBRANCH   4   7
ENDBRANCH   2   3
ENDBRANCH   1   2
BRANCH   1  16
ATOM     16  C   UNL A   1      31.727  31.825  26.834  1.00  0.00     0.023 C 
BRANCH  16  17
ATOM     17  C   UNL A   1      32.892  32.706  27.269  1.00  0.00     0.116 C 
BRANCH  17  18
ATOM     18  N   UNL A   1      32.492  34.066  27.595  1.00  0.00    -0.352 N 
ATOM     19  C   UNL A   1      33.006  34.901  28.562  1.00  0.00     0.251 C 
ATOM     20  H   UNL A   1      31.759  34.438  27.055  1.00  0.00     0.163 HD
ATOM     21  O   UNL A   1      32.481  35.976  28.804  1.00  0.00    -0.269 OA
BRANCH  19  22
ATOM     22  C   UNL A   1      34.186  34.457  29.337  1.00  0.00     0.039 A 
ATOM     23  C   UNL A   1      33.987  33.868  30.588  1.00  0.00     0.014 A 
ATOM     24  C   UNL A   1      35.473  34.586  28.812  1.00  0.00     0.014 A 
ATOM     25  C   UNL A   1      35.078  33.341  31.282  1.00  0.00     0.010 A 
ATOM     26  C   UNL A   1      36.547  33.995  29.469  1.00  0.00     0.010 A 
ATOM     27  C   UNL A   1      36.360  33.367  30.709  1.00  0.00    -0.014 A 
BRANCH  27  28
ATOM     28  C   UNL A   1      37.520  32.740  31.390  1.00  0.00     0.031 A 
ATOM     29  C   UNL A   1      38.201  31.548  30.778  1.00  0.00     0.074 A 
ATOM     30  C   UNL A   1      37.917  33.199  32.592  1.00  0.00     0.049 A 
ATOM     31  N   UNL A   1      39.187  30.827  31.248  1.00  0.00    -0.248 NA
ATOM     32  C   UNL A   1      37.684  31.091  29.479  1.00  0.00     0.031 C 
ATOM     33  C   UNL A   1      37.311  34.319  33.314  1.00  0.00     0.029 A 
ATOM     34  N   UNL A   1      38.923  32.774  33.423  1.00  0.00    -0.354 N 
ATOM     35  C   UNL A   1      39.398  29.824  30.311  1.00  0.00     0.074 A 
ATOM     36  C   UNL A   1      38.400  29.995  29.277  1.00  0.00     0.031 C 
ATOM     37  C   UNL A   1      37.977  34.512  34.462  1.00  0.00     0.029 A 
ATOM     38  C   UNL A   1      39.032  33.510  34.577  1.00  0.00     0.049 A 
ATOM     39  H   UNL A   1      39.511  32.013  33.211  1.00  0.00     0.167 HD
ATOM     40  C   UNL A   1      40.352  28.863  30.298  1.00  0.00     0.037 A 
ATOM     41  C   UNL A   1      39.887  33.391  35.609  1.00  0.00     0.037 A 
ATOM     42  C   UNL A   1      41.355  28.705  31.318  1.00  0.00     0.049 A 
ATOM     43  C   UNL A   1      40.927  32.306  35.583  1.00  0.00     0.074 A 
ATOM     44  C   UNL A   1      42.400  27.801  31.369  1.00  0.00     0.029 A 
ATOM     45  N   UNL A   1      41.433  29.471  32.472  1.00  0.00    -0.354 N 
ATOM     46  N   UNL A   1      41.159  31.405  34.661  1.00  0.00    -0.248 NA
ATOM     47  C   UNL A   1      41.825  32.225  36.744  1.00  0.00     0.031 C 
ATOM     48  C   UNL A   1      43.086  27.992  32.574  1.00  0.00     0.029 A 
ATOM     49  C   UNL A   1      42.495  29.045  33.253  1.00  0.00     0.049 A 
ATOM     50  H   UNL A   1      40.823  30.209  32.702  1.00  0.00     0.167 HD
ATOM     51  C   UNL A   1      42.246  30.668  35.113  1.00  0.00     0.074 A 
ATOM     52  C   UNL A   1      42.632  31.234  36.389  1.00  0.00     0.031 C 
ATOM     53  C   UNL A   1      42.869  29.619  34.522  1.00  0.00     0.037 A 
BRANCH  40  54
ATOM     54  C   UNL A   1      40.344  27.908  29.139  1.00  0.00     0.057 A 
ATOM     55  C   UNL A   1      41.124  28.127  27.996  1.00  0.00     0.134 A 
ATOM     56  C   UNL A   1      39.544  26.759  29.162  1.00  0.00     0.134 A 
ATOM     57  F   UNL A   1      41.903  29.216  27.903  1.00  0.00    -0.206 F 
ATOM     58  C   UNL A   1      41.078  27.262  26.902  1.00  0.00     0.040 A 
ATOM     59  C   UNL A   1      39.512  25.870  28.087  1.00  0.00     0.040 A 
ATOM     60  F   UNL A   1      38.776  26.484  30.228  1.00  0.00    -0.206 F 
ATOM     61  C   UNL A   1      40.273  26.126  26.947  1.00  0.00     0.006 A 
ENDBRANCH  40  54
BRANCH  41  62
ATOM     62  C   UNL A   1      39.823  34.356  36.734  1.00  0.00     0.057 A 
ATOM     63  C   UNL A   1      40.494  35.582  36.663  1.00  0.00     0.134 A 
ATOM     64  C   UNL A   1      39.086  34.089  37.893  1.00  0.00     0.134 A 
ATOM     65  F   UNL A   1      41.230  35.886  35.583  1.00  0.00    -0.206 F 
ATOM     66  C   UNL A   1      40.442  36.506  37.707  1.00  0.00     0.040 A 
ATOM     67  C   UNL A   1      39.009  35.011  38.938  1.00  0.00     0.040 A 
ATOM     68  F   UNL A   1      38.417  32.933  38.019  1.00  0.00    -0.206 F 
ATOM     69  C   UNL A   1      39.692  36.223  38.847  1.00  0.00     0.006 A 
ENDBRANCH  41  62
BRANCH  53  70
ATOM     70  C   UNL A   1      44.055  29.037  35.233  1.00  0.00     0.057 A 
ATOM     71  C   UNL A   1      45.357  29.495  34.995  1.00  0.00     0.134 A 
ATOM     72  C   UNL A   1      43.886  28.032  36.193  1.00  0.00     0.134 A 
ATOM     73  F   UNL A   1      45.587  30.445  34.077  1.00  0.00    -0.206 F 
ATOM     74  C   UNL A   1      46.453  28.959  35.674  1.00  0.00     0.040 A 
ATOM     75  C   UNL A   1      44.971  27.506  36.896  1.00  0.00     0.040 A 
ATOM     76  F   UNL A   1      42.664  27.554  36.473  1.00  0.00    -0.206 F 
ATOM     77  C   UNL A   1      46.259  27.966  36.634  1.00  0.00     0.006 A 
ENDBRANCH  53  70
ENDBRANCH  27  28
ENDBRANCH  19  22
ENDBRANCH  17  18
ENDBRANCH  16  17
ENDBRANCH   1  16
TORSDOF 14
ENDMDL
MODEL 3
REMARK VINA RESULT:     -10.3      1.409      2.107
REMARK SMILES CC(=O)/C=C(/C)NCC(=O)NCCCCNC(=O)c1ccc(-c2c3nc(c(-c4c(F)cccc4F)c4ccc([nH]4)c(-c4c(F)cccc4F)c4nc(c(-c5c(F)cccc5F)c5ccc2[nH]5)C=C4)C=C3)cc1
REMARK SMILES IDX 13 1 12 2 11 3 9 4 10 5 8 7 7 8 5 10 4 11 6 12 2 13 1 14
REMARK SMILES IDX 3 15 14 16 15 17 16 18 17 19 18 21 19 22 20 23 72 24 21 25
REMARK SMILES IDX 71 26 22 27 23 28 24 29 65 30 25 31 70 32 64 33 66 34 26 35
REMARK SMILES IDX 69 36 63 37 62 38 27 40 53 41 36 42 52 43 37 44 40 45 51 46
REMARK SMILES IDX 67 47 38 48 39 49 50 51 68 52 41 53 28 54 29 55 34 56 30 57
REMARK SMILES IDX 31 58 33 59 35 60 32 61 54 62 55 63 60 64 56 65 57 66 59 67
REMARK SMILES IDX 61 68 58 69 42 70 43 71 48 72 44 73 45 74 47 75 49 76 46 77
REMARK H PARENT 11 6 7 9 16 20 66 39 40 50
REMARK Flexibility Score: inf
ROOT
ATOM      1  C   UNL A   1      37.183  21.440  24.459  1.00  0.00     0.023 C 
ENDROOT
BRANCH   1   2
ATOM      2  C   UNL A   1      35.673  21.444  24.683  1.00  0.00     0.116 C 
BRANCH   2   3
ATOM      3  N   UNL A   1      35.330  21.399  26.089  1.00  0.00    -0.355 N 
ATOM      4  C   UNL A   1      34.131  21.583  26.710  1.00  0.00     0.239 C 
ATOM      5  O   UNL A   1      34.125  21.496  27.943  1.00  0.00    -0.273 OA
ATOM      6  H   UNL A   1      36.083  21.203  26.693  1.00  0.00     0.163 HD
BRANCH   4   7
ATOM      7  C   UNL A   1      32.813  21.807  25.950  1.00  0.00     0.213 C 
BRANCH   7   8
ATOM      8  N   UNL A   1      32.247  20.623  25.331  1.00  0.00    -0.380 N 
ATOM      9  H   UNL A   1      31.664  20.110  25.935  1.00  0.00     0.160 HD
BRANCH   8  10
ATOM     10  C   UNL A   1      32.354  20.062  24.071  1.00  0.00     0.011 C 
ATOM     11  C   UNL A   1      32.638  18.820  23.626  1.00  0.00     0.067 C 
ATOM     12  C   UNL A   1      32.214  21.122  22.975  1.00  0.00     0.064 C 
BRANCH  11  13
ATOM     13  C   UNL A   1      32.993  17.475  24.170  1.00  0.00     0.154 C 
ATOM     14  C   UNL A   1      33.901  16.520  23.464  1.00  0.00     0.093 C 
ATOM     15  O   UNL A   1      32.512  17.165  25.264  1.00  0.00    -0.295 OA
ENDBRANCH  11  13
ENDBRANCH   8  10
ENDBRANCH   7   8
ENDBRANCH   4   7
ENDBRANCH   2   3
ENDBRANCH   1   2
BRANCH   1  16
ATOM     16  C   UNL A   1      37.877  20.162  24.932  1.00  0.00     0.023 C 
BRANCH  16  17
ATOM     17  C   UNL A   1      38.992  20.376  25.949  1.00  0.00     0.116 C 
BRANCH  17  18
ATOM     18  N   UNL A   1      40.064  19.399  25.840  1.00  0.00    -0.352 N 
ATOM     19  C   UNL A   1      41.410  19.577  26.070  1.00  0.00     0.251 C 
ATOM     20  H   UNL A   1      39.793  18.494  25.565  1.00  0.00     0.163 HD
ATOM     21  O   UNL A   1      42.210  18.691  25.814  1.00  0.00    -0.269 OA
BRANCH  19  22
ATOM     22  C   UNL A   1      41.881  20.877  26.597  1.00  0.00     0.039 A 
ATOM     23  C   UNL A   1      42.282  21.864  25.693  1.00  0.00     0.014 A 
ATOM     24  C   UNL A   1      41.884  21.130  27.970  1.00  0.00     0.014 A 
ATOM     25  C   UNL A   1      42.621  23.133  26.166  1.00  0.00     0.010 A 
ATOM     26  C   UNL A   1      42.149  22.415  28.432  1.00  0.00     0.010 A 
ATOM     27  C   UNL A   1      42.519  23.428  27.536  1.00  0.00    -0.014 A 
BRANCH  27  28
ATOM     28  C   UNL A   1      42.793  24.792  28.051  1.00  0.00     0.031 A 
ATOM     29  C   UNL A   1      44.190  25.188  28.438  1.00  0.00     0.074 A 
ATOM     30  C   UNL A   1      41.773  25.653  28.237  1.00  0.00     0.049 A 
ATOM     31  N   UNL A   1      44.618  26.308  28.963  1.00  0.00    -0.248 NA
ATOM     32  C   UNL A   1      45.239  24.177  28.235  1.00  0.00     0.031 C 
ATOM     33  C   UNL A   1      40.366  25.375  27.943  1.00  0.00     0.029 A 
ATOM     34  N   UNL A   1      41.764  26.936  28.723  1.00  0.00    -0.354 N 
ATOM     35  C   UNL A   1      45.980  26.131  29.166  1.00  0.00     0.074 A 
ATOM     36  C   UNL A   1      46.295  24.777  28.763  1.00  0.00     0.031 C 
ATOM     37  C   UNL A   1      39.637  26.466  28.224  1.00  0.00     0.029 A 
ATOM     38  C   UNL A   1      40.515  27.505  28.752  1.00  0.00     0.049 A 
ATOM     39  H   UNL A   1      42.578  27.404  29.023  1.00  0.00     0.167 HD
ATOM     40  C   UNL A   1      46.892  27.023  29.621  1.00  0.00     0.037 A 
ATOM     41  C   UNL A   1      40.124  28.727  29.157  1.00  0.00     0.037 A 
ATOM     42  C   UNL A   1      46.580  28.375  30.005  1.00  0.00     0.049 A 
ATOM     43  C   UNL A   1      41.150  29.696  29.676  1.00  0.00     0.074 A 
ATOM     44  C   UNL A   1      47.440  29.374  30.424  1.00  0.00     0.029 A 
ATOM     45  N   UNL A   1      45.302  28.915  30.020  1.00  0.00    -0.354 N 
ATOM     46  N   UNL A   1      42.445  29.540  29.800  1.00  0.00    -0.248 NA
ATOM     47  C   UNL A   1      40.656  31.011  30.107  1.00  0.00     0.031 C 
ATOM     48  C   UNL A   1      46.677  30.506  30.732  1.00  0.00     0.029 A 
ATOM     49  C   UNL A   1      45.347  30.227  30.463  1.00  0.00     0.049 A 
ATOM     50  H   UNL A   1      44.484  28.436  29.755  1.00  0.00     0.167 HD
ATOM     51  C   UNL A   1      42.927  30.744  30.297  1.00  0.00     0.074 A 
ATOM     52  C   UNL A   1      41.784  31.623  30.443  1.00  0.00     0.031 C 
ATOM     53  C   UNL A   1      44.201  31.090  30.602  1.00  0.00     0.037 A 
BRANCH  40  54
ATOM     54  C   UNL A   1      48.313  26.551  29.730  1.00  0.00     0.057 A 
ATOM     55  C   UNL A   1      49.235  26.738  28.691  1.00  0.00     0.134 A 
ATOM     56  C   UNL A   1      48.766  25.897  30.883  1.00  0.00     0.134 A 
ATOM     57  F   UNL A   1      48.863  27.345  27.553  1.00  0.00    -0.206 F 
ATOM     58  C   UNL A   1      50.542  26.257  28.777  1.00  0.00     0.040 A 
ATOM     59  C   UNL A   1      50.079  25.437  30.993  1.00  0.00     0.040 A 
ATOM     60  F   UNL A   1      47.939  25.690  31.918  1.00  0.00    -0.206 F 
ATOM     61  C   UNL A   1      50.969  25.607  29.933  1.00  0.00     0.006 A 
ENDBRANCH  40  54
BRANCH  41  62
ATOM     62  C   UNL A   1      38.698  29.119  29.043  1.00  0.00     0.057 A 
ATOM     63  C   UNL A   1      38.171  29.555  27.821  1.00  0.00     0.134 A 
ATOM     64  C   UNL A   1      37.827  29.057  30.137  1.00  0.00     0.134 A 
ATOM     65  F   UNL A   1      38.963  29.651  26.743  1.00  0.00    -0.206 F 
ATOM     66  C   UNL A   1      36.831  29.923  27.692  1.00  0.00     0.040 A 
ATOM     67  C   UNL A   1      36.480  29.402  30.018  1.00  0.00     0.040 A 
ATOM     68  F   UNL A   1      38.270  28.642  31.333  1.00  0.00    -0.206 F 
ATOM     69  C   UNL A   1      35.980  29.841  28.793  1.00  0.00     0.006 A 
ENDBRANCH  41  62
BRANCH  53  70
ATOM     70  C   UNL A   1      44.433  32.489  31.091  1.00  0.00     0.057 A 
ATOM     71  C   UNL A   1      44.666  33.552  30.208  1.00  0.00     0.134 A 
ATOM     72  C   UNL A   1      44.387  32.782  32.459  1.00  0.00     0.134 A 
ATOM     73  F   UNL A   1      44.736  33.336  28.887  1.00  0.00    -0.206 F 
ATOM     74  C   UNL A   1      44.863  34.854  30.672  1.00  0.00     0.040 A 
ATOM     75  C   UNL A   1      44.559  34.084  32.933  1.00  0.00     0.040 A 
ATOM     76  F   UNL A   1      44.162  31.811  33.358  1.00  0.00    -0.206 F 
ATOM     77  C   UNL A   1      44.802  35.123  32.039  1.00  0.00     0.006 A 
ENDBRANCH  53  70
ENDBRANCH  27  28
ENDBRANCH  19  22
ENDBRANCH  17  18
ENDBRANCH  16  17
ENDBRANCH   1  16
TORSDOF 14
ENDMDL
