MODEL 1
REMARK VINA RESULT:     -12.0      0.000      0.000
REMARK SMILES CCOc1ccc2nc(S[C@@H](C(=O)NCCCCNC(=O)c3ccc(-c4c5nc(c(-c6c(F)cccc6F)c6ccc([nH]6)c(-c6c(F)cccc6F)c6nc(c(-c7c(F)cccc7F)c7ccc4[nH]7)C=C6)C=C5)cc3)c3ccccc3)[nH]c2c1
REMARK SMILES IDX 15 1 14 2 12 3 13 4 11 6 10 7 9 8 4 9 5 10 84 11 6 12 83 13
REMARK SMILES IDX 7 14 82 15 8 16 3 18 2 19 1 20 76 21 77 22 81 23 78 24 80 25
REMARK SMILES IDX 79 26 16 27 17 28 18 29 19 30 20 31 21 33 22 34 23 35 75 36
REMARK SMILES IDX 24 37 74 38 25 39 26 40 27 41 68 42 28 43 73 44 67 45 69 46
REMARK SMILES IDX 29 47 72 48 66 49 65 50 30 52 56 53 39 54 55 55 40 56 43 57
REMARK SMILES IDX 54 58 70 59 41 60 42 61 53 63 71 64 44 65 31 66 32 67 37 68
REMARK SMILES IDX 33 69 34 70 36 71 38 72 35 73 57 74 58 75 63 76 59 77 60 78
REMARK SMILES IDX 62 79 64 80 61 81 45 82 46 83 51 84 47 85 48 86 50 87 52 88
REMARK SMILES IDX 49 89
REMARK H PARENT 14 5 82 17 19 32 69 51 43 62
REMARK Flexibility Score: inf
ROOT
ATOM      1  C   UNL A   1      36.134  21.606  25.636  1.00  0.00     0.116 C 
ENDROOT
BRANCH   1   2
ATOM      2  N   UNL A   1      35.235  21.460  26.767  1.00  0.00    -0.355 N 
ATOM      3  C   UNL A   1      33.878  21.645  26.817  1.00  0.00     0.238 C 
ATOM      4  O   UNL A   1      33.388  21.833  27.936  1.00  0.00    -0.273 OA
ATOM      5  H   UNL A   1      35.657  21.190  27.615  1.00  0.00     0.163 HD
BRANCH   3   6
ATOM      6  C   UNL A   1      33.025  21.625  25.524  1.00  0.00     0.174 C 
BRANCH   6   7
ATOM      7  S   UNL A   1      31.453  22.502  25.875  1.00  0.00    -0.070 SA
BRANCH   7   8
ATOM      8  C   UNL A   1      31.856  24.170  26.053  1.00  0.00     0.167 A 
ATOM      9  C   UNL A   1      32.419  28.600  26.738  1.00  0.00     0.121 A 
ATOM     10  C   UNL A   1      33.656  28.274  26.180  1.00  0.00     0.049 A 
ATOM     11  C   UNL A   1      31.434  27.627  26.958  1.00  0.00     0.074 A 
ATOM     12  C   UNL A   1      33.931  26.971  25.757  1.00  0.00     0.034 A 
ATOM     13  C   UNL A   1      31.744  26.327  26.544  1.00  0.00     0.070 A 
ATOM     14  C   UNL A   1      32.954  25.989  25.948  1.00  0.00     0.090 A 
ATOM     15  N   UNL A   1      31.060  25.136  26.609  1.00  0.00    -0.333 N 
ATOM     16  N   UNL A   1      33.002  24.656  25.644  1.00  0.00    -0.223 NA
ATOM     17  H   UNL A   1      30.162  25.001  26.988  1.00  0.00     0.169 HD
BRANCH   9  18
ATOM     18  O   UNL A   1      32.185  29.866  27.206  1.00  0.00    -0.494 OA
BRANCH  18  19
ATOM     19  C   UNL A   1      31.832  30.793  26.169  1.00  0.00     0.226 C 
ATOM     20  C   UNL A   1      31.349  32.123  26.729  1.00  0.00     0.049 C 
ENDBRANCH  18  19
ENDBRANCH   9  18
ENDBRANCH   7   8
ENDBRANCH   6   7
BRANCH   6  21
ATOM     21  C   UNL A   1      32.809  20.244  24.880  1.00  0.00    -0.025 A 
ATOM     22  C   UNL A   1      32.538  20.114  23.502  1.00  0.00     0.005 A 
ATOM     23  C   UNL A   1      32.924  19.055  25.620  1.00  0.00     0.005 A 
ATOM     24  C   UNL A   1      32.278  18.873  22.919  1.00  0.00     0.000 A 
ATOM     25  C   UNL A   1      32.667  17.809  25.037  1.00  0.00     0.000 A 
ATOM     26  C   UNL A   1      32.326  17.720  23.692  1.00  0.00     0.000 A 
ENDBRANCH   6  21
ENDBRANCH   3   6
ENDBRANCH   1   2
BRANCH   1  27
ATOM     27  C   UNL A   1      36.444  20.245  25.000  1.00  0.00     0.023 C 
BRANCH  27  28
ATOM     28  C   UNL A   1      37.922  20.005  24.682  1.00  0.00     0.023 C 
BRANCH  28  29
ATOM     29  C   UNL A   1      38.865  20.122  25.871  1.00  0.00     0.116 C 
BRANCH  29  30
ATOM     30  N   UNL A   1      39.988  19.202  25.797  1.00  0.00    -0.352 N 
ATOM     31  C   UNL A   1      41.317  19.441  26.049  1.00  0.00     0.251 C 
ATOM     32  H   UNL A   1      39.766  18.281  25.528  1.00  0.00     0.163 HD
ATOM     33  O   UNL A   1      42.157  18.580  25.810  1.00  0.00    -0.269 OA
BRANCH  31  34
ATOM     34  C   UNL A   1      41.735  20.755  26.580  1.00  0.00     0.039 A 
ATOM     35  C   UNL A   1      42.216  21.719  25.690  1.00  0.00     0.014 A 
ATOM     36  C   UNL A   1      41.636  21.043  27.943  1.00  0.00     0.014 A 
ATOM     37  C   UNL A   1      42.539  22.994  26.162  1.00  0.00     0.010 A 
ATOM     38  C   UNL A   1      41.882  22.335  28.398  1.00  0.00     0.010 A 
ATOM     39  C   UNL A   1      42.340  23.323  27.512  1.00  0.00    -0.014 A 
BRANCH  39  40
ATOM     40  C   UNL A   1      42.618  24.690  28.022  1.00  0.00     0.031 A 
ATOM     41  C   UNL A   1      44.015  25.068  28.434  1.00  0.00     0.074 A 
ATOM     42  C   UNL A   1      41.609  25.573  28.164  1.00  0.00     0.049 A 
ATOM     43  N   UNL A   1      44.446  26.178  28.979  1.00  0.00    -0.248 NA
ATOM     44  C   UNL A   1      45.064  24.057  28.228  1.00  0.00     0.031 C 
ATOM     45  C   UNL A   1      40.205  25.318  27.832  1.00  0.00     0.029 A 
ATOM     46  N   UNL A   1      41.609  26.862  28.632  1.00  0.00    -0.354 N 
ATOM     47  C   UNL A   1      45.808  25.997  29.180  1.00  0.00     0.074 A 
ATOM     48  C   UNL A   1      46.123  24.649  28.762  1.00  0.00     0.031 C 
ATOM     49  C   UNL A   1      39.486  26.424  28.086  1.00  0.00     0.029 A 
ATOM     50  C   UNL A   1      40.366  27.449  28.637  1.00  0.00     0.049 A 
ATOM     51  H   UNL A   1      42.423  27.325  28.938  1.00  0.00     0.167 HD
ATOM     52  C   UNL A   1      46.721  26.883  29.642  1.00  0.00     0.037 A 
ATOM     53  C   UNL A   1      39.979  28.671  29.050  1.00  0.00     0.037 A 
ATOM     54  C   UNL A   1      46.412  28.230  30.044  1.00  0.00     0.049 A 
ATOM     55  C   UNL A   1      41.011  29.620  29.599  1.00  0.00     0.074 A 
ATOM     56  C   UNL A   1      47.273  29.210  30.506  1.00  0.00     0.029 A 
ATOM     57  N   UNL A   1      45.143  28.787  30.024  1.00  0.00    -0.354 N 
ATOM     58  N   UNL A   1      42.304  29.450  29.737  1.00  0.00    -0.248 NA
ATOM     59  C   UNL A   1      40.530  30.936  30.045  1.00  0.00     0.031 C 
ATOM     60  C   UNL A   1      46.518  30.350  30.802  1.00  0.00     0.029 A 
ATOM     61  C   UNL A   1      45.196  30.095  30.475  1.00  0.00     0.049 A 
ATOM     62  H   UNL A   1      44.326  28.323  29.731  1.00  0.00     0.167 HD
ATOM     63  C   UNL A   1      42.793  30.648  30.244  1.00  0.00     0.074 A 
ATOM     64  C   UNL A   1      41.662  31.540  30.376  1.00  0.00     0.031 C 
ATOM     65  C   UNL A   1      44.065  30.980  30.571  1.00  0.00     0.037 A 
BRANCH  52  66
ATOM     66  C   UNL A   1      48.151  26.431  29.719  1.00  0.00     0.057 A 
ATOM     67  C   UNL A   1      49.048  26.661  28.668  1.00  0.00     0.134 A 
ATOM     68  C   UNL A   1      48.650  25.813  30.872  1.00  0.00     0.134 A 
ATOM     69  F   UNL A   1      48.631  27.237  27.530  1.00  0.00    -0.206 F 
ATOM     70  C   UNL A   1      50.388  26.277  28.755  1.00  0.00     0.040 A 
ATOM     71  C   UNL A   1      49.994  25.449  30.981  1.00  0.00     0.040 A 
ATOM     72  F   UNL A   1      47.847  25.568  31.918  1.00  0.00    -0.206 F 
ATOM     73  C   UNL A   1      50.865  25.678  29.918  1.00  0.00     0.006 A 
ENDBRANCH  52  66
BRANCH  53  74
ATOM     74  C   UNL A   1      38.556  29.088  28.958  1.00  0.00     0.057 A 
ATOM     75  C   UNL A   1      38.030  29.612  27.770  1.00  0.00     0.134 A 
ATOM     76  C   UNL A   1      37.702  29.030  30.067  1.00  0.00     0.134 A 
ATOM     77  F   UNL A   1      38.803  29.712  26.678  1.00  0.00    -0.206 F 
ATOM     78  C   UNL A   1      36.724  30.099  27.698  1.00  0.00     0.040 A 
ATOM     79  C   UNL A   1      36.384  29.485  30.000  1.00  0.00     0.040 A 
ATOM     80  F   UNL A   1      38.138  28.533  31.233  1.00  0.00    -0.206 F 
ATOM     81  C   UNL A   1      35.896  30.034  28.815  1.00  0.00     0.006 A 
ENDBRANCH  53  74
BRANCH  65  82
ATOM     82  C   UNL A   1      44.312  32.384  31.042  1.00  0.00     0.057 A 
ATOM     83  C   UNL A   1      44.593  33.429  30.154  1.00  0.00     0.134 A 
ATOM     84  C   UNL A   1      44.232  32.698  32.405  1.00  0.00     0.134 A 
ATOM     85  F   UNL A   1      44.697  33.194  28.837  1.00  0.00    -0.206 F 
ATOM     86  C   UNL A   1      44.811  34.731  30.607  1.00  0.00     0.040 A 
ATOM     87  C   UNL A   1      44.418  34.001  32.867  1.00  0.00     0.040 A 
ATOM     88  F   UNL A   1      43.956  31.745  33.309  1.00  0.00    -0.206 F 
ATOM     89  C   UNL A   1      44.717  35.021  31.967  1.00  0.00     0.006 A 
ENDBRANCH  65  82
ENDBRANCH  39  40
ENDBRANCH  31  34
ENDBRANCH  29  30
ENDBRANCH  28  29
ENDBRANCH  27  28
ENDBRANCH   1  27
TORSDOF 16
ENDMDL
MODEL 2
REMARK VINA RESULT:     -11.9      1.289      6.146
REMARK SMILES CCOc1ccc2nc(S[C@@H](C(=O)NCCCCNC(=O)c3ccc(-c4c5nc(c(-c6c(F)cccc6F)c6ccc([nH]6)c(-c6c(F)cccc6F)c6nc(c(-c7c(F)cccc7F)c7ccc4[nH]7)C=C6)C=C5)cc3)c3ccccc3)[nH]c2c1
REMARK SMILES IDX 15 1 14 2 12 3 13 4 11 6 10 7 9 8 4 9 5 10 84 11 6 12 83 13
REMARK SMILES IDX 7 14 82 15 8 16 3 18 2 19 1 20 76 21 77 22 81 23 78 24 80 25
REMARK SMILES IDX 79 26 16 27 17 28 18 29 19 30 20 31 21 33 22 34 23 35 75 36
REMARK SMILES IDX 24 37 74 38 25 39 26 40 27 41 68 42 28 43 73 44 67 45 69 46
REMARK SMILES IDX 29 47 72 48 66 49 65 50 30 52 56 53 39 54 55 55 40 56 43 57
REMARK SMILES IDX 54 58 70 59 41 60 42 61 53 63 71 64 44 65 31 66 32 67 37 68
REMARK SMILES IDX 33 69 34 70 36 71 38 72 35 73 57 74 58 75 63 76 59 77 60 78
REMARK SMILES IDX 62 79 64 80 61 81 45 82 46 83 51 84 47 85 48 86 50 87 52 88
REMARK SMILES IDX 49 89
REMARK H PARENT 14 5 82 17 19 32 69 51 43 62
REMARK Flexibility Score: inf
ROOT
ATOM      1  C   UNL A   1      36.157  21.654  25.731  1.00  0.00     0.116 C 
ENDROOT
BRANCH   1   2
ATOM      2  N   UNL A   1      35.244  21.485  26.848  1.00  0.00    -0.355 N 
ATOM      3  C   UNL A   1      33.886  21.666  26.885  1.00  0.00     0.238 C 
ATOM      4  O   UNL A   1      33.382  21.832  28.000  1.00  0.00    -0.273 OA
ATOM      5  H   UNL A   1      35.656  21.199  27.696  1.00  0.00     0.163 HD
BRANCH   3   6
ATOM      6  C   UNL A   1      33.049  21.669  25.580  1.00  0.00     0.174 C 
BRANCH   6   7
ATOM      7  S   UNL A   1      31.476  22.545  25.925  1.00  0.00    -0.070 SA
BRANCH   7   8
ATOM      8  C   UNL A   1      31.871  24.218  26.069  1.00  0.00     0.167 A 
ATOM      9  C   UNL A   1      32.410  28.666  26.649  1.00  0.00     0.121 A 
ATOM     10  C   UNL A   1      33.663  28.327  26.134  1.00  0.00     0.049 A 
ATOM     11  C   UNL A   1      31.421  27.697  26.868  1.00  0.00     0.074 A 
ATOM     12  C   UNL A   1      33.951  27.014  25.754  1.00  0.00     0.034 A 
ATOM     13  C   UNL A   1      31.744  26.388  26.498  1.00  0.00     0.070 A 
ATOM     14  C   UNL A   1      32.970  26.035  25.944  1.00  0.00     0.090 A 
ATOM     15  N   UNL A   1      31.060  25.198  26.577  1.00  0.00    -0.333 N 
ATOM     16  N   UNL A   1      33.028  24.695  25.679  1.00  0.00    -0.223 NA
ATOM     17  H   UNL A   1      30.152  25.072  26.935  1.00  0.00     0.169 HD
BRANCH   9  18
ATOM     18  O   UNL A   1      32.163  29.944  27.075  1.00  0.00    -0.494 OA
BRANCH  18  19
ATOM     19  C   UNL A   1      31.510  30.751  26.085  1.00  0.00     0.226 C 
ATOM     20  C   UNL A   1      31.406  32.209  26.511  1.00  0.00     0.049 C 
ENDBRANCH  18  19
ENDBRANCH   9  18
ENDBRANCH   7   8
ENDBRANCH   6   7
BRANCH   6  21
ATOM     21  C   UNL A   1      32.838  20.299  24.913  1.00  0.00    -0.025 A 
ATOM     22  C   UNL A   1      32.901  19.104  25.660  1.00  0.00     0.005 A 
ATOM     23  C   UNL A   1      32.520  20.180  23.549  1.00  0.00     0.005 A 
ATOM     24  C   UNL A   1      32.774  17.853  25.054  1.00  0.00     0.000 A 
ATOM     25  C   UNL A   1      32.389  18.927  22.940  1.00  0.00     0.000 A 
ATOM     26  C   UNL A   1      32.534  17.764  23.689  1.00  0.00     0.000 A 
ENDBRANCH   6  21
ENDBRANCH   3   6
ENDBRANCH   1   2
BRANCH   1  27
ATOM     27  C   UNL A   1      36.401  20.320  25.014  1.00  0.00     0.023 C 
BRANCH  27  28
ATOM     28  C   UNL A   1      37.858  20.055  24.626  1.00  0.00     0.023 C 
BRANCH  28  29
ATOM     29  C   UNL A   1      38.871  20.262  25.742  1.00  0.00     0.116 C 
BRANCH  29  30
ATOM     30  N   UNL A   1      39.853  19.193  25.823  1.00  0.00    -0.352 N 
ATOM     31  C   UNL A   1      41.202  19.279  26.069  1.00  0.00     0.251 C 
ATOM     32  H   UNL A   1      39.504  18.284  25.680  1.00  0.00     0.163 HD
ATOM     33  O   UNL A   1      41.912  18.283  25.972  1.00  0.00    -0.269 OA
BRANCH  31  34
ATOM     34  C   UNL A   1      41.799  20.583  26.421  1.00  0.00     0.039 A 
ATOM     35  C   UNL A   1      42.055  21.503  25.403  1.00  0.00     0.014 A 
ATOM     36  C   UNL A   1      42.089  20.905  27.750  1.00  0.00     0.014 A 
ATOM     37  C   UNL A   1      42.544  22.772  25.725  1.00  0.00     0.010 A 
ATOM     38  C   UNL A   1      42.500  22.194  28.076  1.00  0.00     0.010 A 
ATOM     39  C   UNL A   1      42.735  23.139  27.066  1.00  0.00    -0.014 A 
BRANCH  39  40
ATOM     40  C   UNL A   1      43.195  24.503  27.435  1.00  0.00     0.031 A 
ATOM     41  C   UNL A   1      42.193  25.548  27.843  1.00  0.00     0.074 A 
ATOM     42  C   UNL A   1      44.504  24.816  27.352  1.00  0.00     0.049 A 
ATOM     43  N   UNL A   1      42.383  26.814  28.121  1.00  0.00    -0.248 NA
ATOM     44  C   UNL A   1      40.787  25.122  27.930  1.00  0.00     0.031 C 
ATOM     45  C   UNL A   1      45.571  23.903  26.937  1.00  0.00     0.029 A 
ATOM     46  N   UNL A   1      45.158  25.996  27.606  1.00  0.00    -0.354 N 
ATOM     47  C   UNL A   1      41.128  27.330  28.411  1.00  0.00     0.074 A 
ATOM     48  C   UNL A   1      40.173  26.262  28.214  1.00  0.00     0.031 C 
ATOM     49  C   UNL A   1      46.748  24.550  26.988  1.00  0.00     0.029 A 
ATOM     50  C   UNL A   1      46.515  25.931  27.396  1.00  0.00     0.049 A 
ATOM     51  H   UNL A   1      44.699  26.812  27.910  1.00  0.00     0.167 HD
ATOM     52  C   UNL A   1      40.800  28.574  28.835  1.00  0.00     0.037 A 
ATOM     53  C   UNL A   1      47.462  26.882  27.509  1.00  0.00     0.037 A 
ATOM     54  C   UNL A   1      41.750  29.633  29.048  1.00  0.00     0.049 A 
ATOM     55  C   UNL A   1      47.061  28.268  27.942  1.00  0.00     0.074 A 
ATOM     56  C   UNL A   1      41.517  30.922  29.497  1.00  0.00     0.029 A 
ATOM     57  N   UNL A   1      43.115  29.524  28.833  1.00  0.00    -0.354 N 
ATOM     58  N   UNL A   1      45.875  28.727  28.260  1.00  0.00    -0.248 NA
ATOM     59  C   UNL A   1      48.135  29.268  28.036  1.00  0.00     0.031 C 
ATOM     60  C   UNL A   1      42.738  31.604  29.516  1.00  0.00     0.029 A 
ATOM     61  C   UNL A   1      43.736  30.726  29.130  1.00  0.00     0.049 A 
ATOM     62  H   UNL A   1      43.575  28.712  28.517  1.00  0.00     0.167 HD
ATOM     63  C   UNL A   1      46.067  30.051  28.632  1.00  0.00     0.074 A 
ATOM     64  C   UNL A   1      47.484  30.319  28.514  1.00  0.00     0.031 C 
ATOM     65  C   UNL A   1      45.152  30.966  29.036  1.00  0.00     0.037 A 
BRANCH  52  66
ATOM     66  C   UNL A   1      39.352  28.852  29.120  1.00  0.00     0.057 A 
ATOM     67  C   UNL A   1      38.806  28.654  30.395  1.00  0.00     0.134 A 
ATOM     68  C   UNL A   1      38.511  29.375  28.131  1.00  0.00     0.134 A 
ATOM     69  F   UNL A   1      39.554  28.143  31.384  1.00  0.00    -0.206 F 
ATOM     70  C   UNL A   1      37.469  28.951  30.671  1.00  0.00     0.040 A 
ATOM     71  C   UNL A   1      37.180  29.701  28.402  1.00  0.00     0.040 A 
ATOM     72  F   UNL A   1      38.971  29.595  26.889  1.00  0.00    -0.206 F 
ATOM     73  C   UNL A   1      36.656  29.485  29.674  1.00  0.00     0.006 A 
ENDBRANCH  52  66
BRANCH  53  74
ATOM     74  C   UNL A   1      48.887  26.573  27.221  1.00  0.00     0.057 A 
ATOM     75  C   UNL A   1      49.424  26.764  25.942  1.00  0.00     0.134 A 
ATOM     76  C   UNL A   1      49.730  26.026  28.196  1.00  0.00     0.134 A 
ATOM     77  F   UNL A   1      48.662  27.266  24.958  1.00  0.00    -0.206 F 
ATOM     78  C   UNL A   1      50.731  26.386  25.631  1.00  0.00     0.040 A 
ATOM     79  C   UNL A   1      51.049  25.672  27.907  1.00  0.00     0.040 A 
ATOM     80  F   UNL A   1      49.282  25.824  29.443  1.00  0.00    -0.206 F 
ATOM     81  C   UNL A   1      51.549  25.840  26.617  1.00  0.00     0.006 A 
ENDBRANCH  53  74
BRANCH  65  82
ATOM     82  C   UNL A   1      45.662  32.319  29.440  1.00  0.00     0.057 A 
ATOM     83  C   UNL A   1      45.750  33.382  28.535  1.00  0.00     0.134 A 
ATOM     84  C   UNL A   1      46.036  32.567  30.767  1.00  0.00     0.134 A 
ATOM     85  F   UNL A   1      45.419  33.208  27.246  1.00  0.00    -0.206 F 
ATOM     86  C   UNL A   1      46.217  34.638  28.928  1.00  0.00     0.040 A 
ATOM     87  C   UNL A   1      46.476  33.825  31.180  1.00  0.00     0.040 A 
ATOM     88  F   UNL A   1      45.966  31.594  31.689  1.00  0.00    -0.206 F 
ATOM     89  C   UNL A   1      46.575  34.863  30.256  1.00  0.00     0.006 A 
ENDBRANCH  65  82
ENDBRANCH  39  40
ENDBRANCH  31  34
ENDBRANCH  29  30
ENDBRANCH  28  29
ENDBRANCH  27  28
ENDBRANCH   1  27
TORSDOF 16
ENDMDL
MODEL 3
REMARK VINA RESULT:     -11.8      1.475      7.742
REMARK SMILES CCOc1ccc2nc(S[C@@H](C(=O)NCCCCNC(=O)c3ccc(-c4c5nc(c(-c6c(F)cccc6F)c6ccc([nH]6)c(-c6c(F)cccc6F)c6nc(c(-c7c(F)cccc7F)c7ccc4[nH]7)C=C6)C=C5)cc3)c3ccccc3)[nH]c2c1
REMARK SMILES IDX 15 1 14 2 12 3 13 4 11 6 10 7 9 8 4 9 5 10 84 11 6 12 83 13
REMARK SMILES IDX 7 14 82 15 8 16 3 18 2 19 1 20 76 21 77 22 81 23 78 24 80 25
REMARK SMILES IDX 79 26 16 27 17 28 18 29 19 30 20 31 21 33 22 34 23 35 75 36
REMARK SMILES IDX 24 37 74 38 25 39 26 40 27 41 68 42 28 43 73 44 67 45 69 46
REMARK SMILES IDX 29 47 72 48 66 49 65 50 30 52 56 53 39 54 55 55 40 56 43 57
REMARK SMILES IDX 54 58 70 59 41 60 42 61 53 63 71 64 44 65 31 66 32 67 37 68
REMARK SMILES IDX 33 69 34 70 36 71 38 72 35 73 57 74 58 75 63 76 59 77 60 78
REMARK SMILES IDX 62 79 64 80 61 81 45 82 46 83 51 84 47 85 48 86 50 87 52 88
REMARK SMILES IDX 49 89
REMARK H PARENT 14 5 82 17 19 32 69 51 43 62
REMARK Flexibility Score: inf
ROOT
ATOM      1  C   UNL A   1      35.526  22.220  24.517  1.00  0.00     0.116 C 
ENDROOT
BRANCH   1   2
ATOM      2  N   UNL A   1      34.957  23.249  23.663  1.00  0.00    -0.355 N 
ATOM      3  C   UNL A   1      33.809  23.976  23.840  1.00  0.00     0.238 C 
ATOM      4  O   UNL A   1      33.333  24.508  22.832  1.00  0.00    -0.273 OA
ATOM      5  H   UNL A   1      35.467  23.454  22.846  1.00  0.00     0.163 HD
BRANCH   3   6
ATOM      6  C   UNL A   1      33.155  24.101  25.239  1.00  0.00     0.174 C 
BRANCH   6   7
ATOM      7  S   UNL A   1      31.578  23.167  25.206  1.00  0.00    -0.070 SA
BRANCH   7   8
ATOM      8  C   UNL A   1      31.975  21.556  24.736  1.00  0.00     0.167 A 
ATOM      9  C   UNL A   1      33.100  17.238  24.029  1.00  0.00     0.121 A 
ATOM     10  C   UNL A   1      32.821  17.641  22.721  1.00  0.00     0.049 A 
ATOM     11  C   UNL A   1      32.963  18.116  25.112  1.00  0.00     0.074 A 
ATOM     12  C   UNL A   1      32.459  18.961  22.440  1.00  0.00     0.034 A 
ATOM     13  C   UNL A   1      32.579  19.425  24.803  1.00  0.00     0.070 A 
ATOM     14  C   UNL A   1      32.337  19.859  23.505  1.00  0.00     0.090 A 
ATOM     15  N   UNL A   1      32.329  20.534  25.577  1.00  0.00    -0.333 N 
ATOM     16  N   UNL A   1      31.973  21.177  23.481  1.00  0.00    -0.223 NA
ATOM     17  H   UNL A   1      32.391  20.585  26.558  1.00  0.00     0.169 HD
BRANCH   9  18
ATOM     18  O   UNL A   1      33.392  15.927  24.299  1.00  0.00    -0.494 OA
BRANCH  18  19
ATOM     19  C   UNL A   1      34.095  15.750  25.537  1.00  0.00     0.226 C 
ATOM     20  C   UNL A   1      35.605  15.746  25.344  1.00  0.00     0.049 C 
ENDBRANCH  18  19
ENDBRANCH   9  18
ENDBRANCH   7   8
ENDBRANCH   6   7
BRANCH   6  21
ATOM     21  C   UNL A   1      32.992  25.532  25.781  1.00  0.00    -0.025 A 
ATOM     22  C   UNL A   1      34.035  26.476  25.677  1.00  0.00     0.005 A 
ATOM     23  C   UNL A   1      31.788  25.977  26.352  1.00  0.00     0.005 A 
ATOM     24  C   UNL A   1      33.923  27.756  26.221  1.00  0.00     0.000 A 
ATOM     25  C   UNL A   1      31.672  27.261  26.896  1.00  0.00     0.000 A 
ATOM     26  C   UNL A   1      32.745  28.144  26.847  1.00  0.00     0.000 A 
ENDBRANCH   6  21
ENDBRANCH   3   6
ENDBRANCH   1   2
BRANCH   1  27
ATOM     27  C   UNL A   1      37.022  22.034  24.232  1.00  0.00     0.023 C 
BRANCH  27  28
ATOM     28  C   UNL A   1      37.576  20.651  24.583  1.00  0.00     0.023 C 
BRANCH  28  29
ATOM     29  C   UNL A   1      38.494  20.612  25.796  1.00  0.00     0.116 C 
BRANCH  29  30
ATOM     30  N   UNL A   1      39.528  19.595  25.694  1.00  0.00    -0.352 N 
ATOM     31  C   UNL A   1      40.870  19.699  25.967  1.00  0.00     0.251 C 
ATOM     32  H   UNL A   1      39.224  18.710  25.386  1.00  0.00     0.163 HD
ATOM     33  O   UNL A   1      41.629  18.772  25.700  1.00  0.00    -0.269 OA
BRANCH  31  34
ATOM     34  C   UNL A   1      41.401  20.946  26.554  1.00  0.00     0.039 A 
ATOM     35  C   UNL A   1      41.927  21.920  25.704  1.00  0.00     0.014 A 
ATOM     36  C   UNL A   1      41.366  21.161  27.934  1.00  0.00     0.014 A 
ATOM     37  C   UNL A   1      42.359  23.139  26.233  1.00  0.00     0.010 A 
ATOM     38  C   UNL A   1      41.722  22.403  28.451  1.00  0.00     0.010 A 
ATOM     39  C   UNL A   1      42.227  23.403  27.605  1.00  0.00    -0.014 A 
BRANCH  39  40
ATOM     40  C   UNL A   1      42.623  24.715  28.180  1.00  0.00     0.031 A 
ATOM     41  C   UNL A   1      41.592  25.795  28.366  1.00  0.00     0.074 A 
ATOM     42  C   UNL A   1      43.914  24.953  28.485  1.00  0.00     0.049 A 
ATOM     43  N   UNL A   1      41.751  27.030  28.772  1.00  0.00    -0.248 NA
ATOM     44  C   UNL A   1      40.202  25.451  28.030  1.00  0.00     0.031 C 
ATOM     45  C   UNL A   1      45.015  24.000  28.320  1.00  0.00     0.029 A 
ATOM     46  N   UNL A   1      44.521  26.075  28.991  1.00  0.00    -0.354 N 
ATOM     47  C   UNL A   1      40.488  27.605  28.738  1.00  0.00     0.074 A 
ATOM     48  C   UNL A   1      39.582  26.608  28.210  1.00  0.00     0.031 C 
ATOM     49  C   UNL A   1      46.157  24.571  28.740  1.00  0.00     0.029 A 
ATOM     50  C   UNL A   1      45.879  25.939  29.162  1.00  0.00     0.049 A 
ATOM     51  H   UNL A   1      44.031  26.900  29.212  1.00  0.00     0.167 HD
ATOM     52  C   UNL A   1      40.108  28.841  29.139  1.00  0.00     0.037 A 
ATOM     53  C   UNL A   1      46.795  26.824  29.598  1.00  0.00     0.037 A 
ATOM     54  C   UNL A   1      41.004  29.828  29.679  1.00  0.00     0.049 A 
ATOM     55  C   UNL A   1      46.349  28.206  29.998  1.00  0.00     0.074 A 
ATOM     56  C   UNL A   1      40.711  31.102  30.134  1.00  0.00     0.029 A 
ATOM     57  N   UNL A   1      42.369  29.648  29.844  1.00  0.00    -0.354 N 
ATOM     58  N   UNL A   1      45.142  28.718  30.005  1.00  0.00    -0.248 NA
ATOM     59  C   UNL A   1      47.395  29.133  30.455  1.00  0.00     0.031 C 
ATOM     60  C   UNL A   1      41.905  31.707  30.538  1.00  0.00     0.029 A 
ATOM     61  C   UNL A   1      42.933  30.792  30.384  1.00  0.00     0.049 A 
ATOM     62  H   UNL A   1      42.864  28.828  29.613  1.00  0.00     0.167 HD
ATOM     63  C   UNL A   1      45.279  30.006  30.506  1.00  0.00     0.074 A 
ATOM     64  C   UNL A   1      46.683  30.194  30.804  1.00  0.00     0.031 C 
ATOM     65  C   UNL A   1      44.328  30.951  30.703  1.00  0.00     0.037 A 
BRANCH  52  66
ATOM     66  C   UNL A   1      38.652  29.190  29.029  1.00  0.00     0.057 A 
ATOM     67  C   UNL A   1      37.805  29.157  30.145  1.00  0.00     0.134 A 
ATOM     68  C   UNL A   1      38.103  29.619  27.815  1.00  0.00     0.134 A 
ATOM     69  F   UNL A   1      38.265  28.743  31.336  1.00  0.00    -0.206 F 
ATOM     70  C   UNL A   1      36.460  29.520  30.053  1.00  0.00     0.040 A 
ATOM     71  C   UNL A   1      36.766  30.011  27.716  1.00  0.00     0.040 A 
ATOM     72  F   UNL A   1      38.859  29.680  26.708  1.00  0.00    -0.206 F 
ATOM     73  C   UNL A   1      35.941  29.958  28.837  1.00  0.00     0.006 A 
ENDBRANCH  52  66
BRANCH  53  74
ATOM     74  C   UNL A   1      48.229  26.445  29.696  1.00  0.00     0.057 A 
ATOM     75  C   UNL A   1      48.747  25.868  30.863  1.00  0.00     0.134 A 
ATOM     76  C   UNL A   1      49.129  26.702  28.654  1.00  0.00     0.134 A 
ATOM     77  F   UNL A   1      47.940  25.615  31.905  1.00  0.00    -0.206 F 
ATOM     78  C   UNL A   1      50.109  25.599  31.006  1.00  0.00     0.040 A 
ATOM     79  C   UNL A   1      50.488  26.409  28.772  1.00  0.00     0.040 A 
ATOM     80  F   UNL A   1      48.699  27.246  27.507  1.00  0.00    -0.206 F 
ATOM     81  C   UNL A   1      50.984  25.868  29.957  1.00  0.00     0.006 A 
ENDBRANCH  53  74
BRANCH  65  82
ATOM     82  C   UNL A   1      44.761  32.247  31.325  1.00  0.00     0.057 A 
ATOM     83  C   UNL A   1      44.776  32.439  32.711  1.00  0.00     0.134 A 
ATOM     84  C   UNL A   1      45.202  33.305  30.521  1.00  0.00     0.134 A 
ATOM     85  F   UNL A   1      44.354  31.470  33.538  1.00  0.00    -0.206 F 
ATOM     86  C   UNL A   1      45.190  33.647  33.275  1.00  0.00     0.040 A 
ATOM     87  C   UNL A   1      45.646  34.507  31.073  1.00  0.00     0.040 A 
ATOM     88  F   UNL A   1      45.222  33.184  29.184  1.00  0.00    -0.206 F 
ATOM     89  C   UNL A   1      45.633  34.683  32.454  1.00  0.00     0.006 A 
ENDBRANCH  65  82
ENDBRANCH  39  40
ENDBRANCH  31  34
ENDBRANCH  29  30
ENDBRANCH  28  29
ENDBRANCH  27  28
ENDBRANCH   1  27
TORSDOF 16
ENDMDL
