MODEL 1
REMARK VINA RESULT:     -11.8      0.000      0.000
REMARK SMILES O=C(NCCCCNC(=O)[C@H]1CC(=O)N(CCc2ccc3c(c2)OCO3)C1)c1ccc(-c2c3nc(c(-c4c(F)cccc4F)c4ccc([nH]4)c(-c4c(F)cccc4F)c4nc(c(-c5c(F)cccc5F)c5ccc2[nH]5)C=C4)C=C3)cc1
REMARK SMILES IDX 6 1 5 2 4 3 3 4 1 5 2 6 28 8 29 9 81 10 30 11 80 12 31 13
REMARK SMILES IDX 32 14 33 15 74 16 34 17 79 18 73 19 75 20 35 21 78 22 72 23
REMARK SMILES IDX 71 24 36 26 62 27 45 28 61 29 46 30 49 31 60 32 76 33 47 34
REMARK SMILES IDX 48 35 59 37 77 38 50 39 37 40 38 41 43 42 39 43 40 44 42 45
REMARK SMILES IDX 44 46 41 47 63 48 64 49 69 50 65 51 66 52 68 53 70 54 67 55
REMARK SMILES IDX 51 56 52 57 57 58 53 59 54 60 56 61 58 62 55 63 7 64 8 65
REMARK SMILES IDX 9 66 10 68 11 69 12 70 27 71 13 72 15 73 14 74 16 75 17 76
REMARK SMILES IDX 18 77 19 78 23 79 20 80 22 81 21 82 24 83 26 84 25 85
REMARK H PARENT 3 7 75 25 49 36 8 67
REMARK Flexibility Score: inf
ROOT
ATOM      1  C   UNL A   1      36.296  20.624  25.000  1.00  0.00     0.023 C 
ENDROOT
BRANCH   1   2
ATOM      2  C   UNL A   1      37.532  19.728  24.914  1.00  0.00     0.023 C 
BRANCH   2   3
ATOM      3  C   UNL A   1      38.782  20.286  25.581  1.00  0.00     0.116 C 
BRANCH   3   4
ATOM      4  N   UNL A   1      39.855  19.309  25.687  1.00  0.00    -0.352 N 
ATOM      5  O   UNL A   1      41.973  18.578  25.965  1.00  0.00    -0.269 OA
ATOM      6  C   UNL A   1      41.163  19.495  26.067  1.00  0.00     0.251 C 
ATOM      7  H   UNL A   1      39.610  18.384  25.453  1.00  0.00     0.163 HD
BRANCH   6   8
ATOM      8  C   UNL A   1      41.595  20.815  26.572  1.00  0.00     0.039 A 
ATOM      9  C   UNL A   1      41.490  21.120  27.930  1.00  0.00     0.014 A 
ATOM     10  C   UNL A   1      42.096  21.762  25.675  1.00  0.00     0.014 A 
ATOM     11  C   UNL A   1      41.725  22.418  28.363  1.00  0.00     0.010 A 
ATOM     12  C   UNL A   1      42.434  23.040  26.133  1.00  0.00     0.010 A 
ATOM     13  C   UNL A   1      42.222  23.388  27.476  1.00  0.00    -0.014 A 
BRANCH  13  14
ATOM     14  C   UNL A   1      42.575  24.731  28.002  1.00  0.00     0.031 A 
ATOM     15  C   UNL A   1      41.529  25.789  28.221  1.00  0.00     0.074 A 
ATOM     16  C   UNL A   1      43.863  24.977  28.315  1.00  0.00     0.049 A 
ATOM     17  N   UNL A   1      41.675  27.004  28.688  1.00  0.00    -0.248 NA
ATOM     18  C   UNL A   1      40.144  25.445  27.869  1.00  0.00     0.031 C 
ATOM     19  C   UNL A   1      44.967  24.030  28.137  1.00  0.00     0.029 A 
ATOM     20  N   UNL A   1      44.461  26.082  28.862  1.00  0.00    -0.354 N 
ATOM     21  C   UNL A   1      40.406  27.572  28.680  1.00  0.00     0.074 A 
ATOM     22  C   UNL A   1      39.509  26.581  28.126  1.00  0.00     0.031 C 
ATOM     23  C   UNL A   1      46.096  24.576  28.609  1.00  0.00     0.029 A 
ATOM     24  C   UNL A   1      45.813  25.935  29.052  1.00  0.00     0.049 A 
ATOM     25  H   UNL A   1      43.968  26.903  29.095  1.00  0.00     0.167 HD
ATOM     26  C   UNL A   1      40.027  28.801  29.108  1.00  0.00     0.037 A 
ATOM     27  C   UNL A   1      46.732  26.805  29.508  1.00  0.00     0.037 A 
ATOM     28  C   UNL A   1      40.930  29.784  29.655  1.00  0.00     0.049 A 
ATOM     29  C   UNL A   1      46.290  28.179  29.918  1.00  0.00     0.074 A 
ATOM     30  C   UNL A   1      40.641  31.053  30.127  1.00  0.00     0.029 A 
ATOM     31  N   UNL A   1      42.300  29.611  29.796  1.00  0.00    -0.354 N 
ATOM     32  N   UNL A   1      45.082  28.688  29.935  1.00  0.00    -0.248 NA
ATOM     33  C   UNL A   1      47.339  29.099  30.373  1.00  0.00     0.031 C 
ATOM     34  C   UNL A   1      41.840  31.667  30.503  1.00  0.00     0.029 A 
ATOM     35  C   UNL A   1      42.871  30.758  30.326  1.00  0.00     0.049 A 
ATOM     36  H   UNL A   1      42.793  28.794  29.556  1.00  0.00     0.167 HD
ATOM     37  C   UNL A   1      45.223  29.979  30.425  1.00  0.00     0.074 A 
ATOM     38  C   UNL A   1      46.630  30.165  30.715  1.00  0.00     0.031 C 
ATOM     39  C   UNL A   1      44.273  30.926  30.615  1.00  0.00     0.037 A 
BRANCH  26  40
ATOM     40  C   UNL A   1      38.572  29.162  28.993  1.00  0.00     0.057 A 
ATOM     41  C   UNL A   1      37.697  29.066  30.083  1.00  0.00     0.134 A 
ATOM     42  C   UNL A   1      38.051  29.662  27.792  1.00  0.00     0.134 A 
ATOM     43  F   UNL A   1      38.125  28.587  31.260  1.00  0.00    -0.206 F 
ATOM     44  C   UNL A   1      36.352  29.432  29.976  1.00  0.00     0.040 A 
ATOM     45  C   UNL A   1      36.717  30.058  27.681  1.00  0.00     0.040 A 
ATOM     46  F   UNL A   1      38.834  29.791  26.710  1.00  0.00    -0.206 F 
ATOM     47  C   UNL A   1      35.861  29.938  28.775  1.00  0.00     0.006 A 
ENDBRANCH  26  40
BRANCH  27  48
ATOM     48  C   UNL A   1      48.161  26.408  29.577  1.00  0.00     0.057 A 
ATOM     49  C   UNL A   1      49.026  26.613  28.497  1.00  0.00     0.134 A 
ATOM     50  C   UNL A   1      48.693  25.800  30.722  1.00  0.00     0.134 A 
ATOM     51  F   UNL A   1      48.573  27.177  27.367  1.00  0.00    -0.206 F 
ATOM     52  C   UNL A   1      50.359  26.202  28.539  1.00  0.00     0.040 A 
ATOM     53  C   UNL A   1      50.031  25.417  30.792  1.00  0.00     0.040 A 
ATOM     54  F   UNL A   1      47.921  25.587  31.798  1.00  0.00    -0.206 F 
ATOM     55  C   UNL A   1      50.866  25.606  29.693  1.00  0.00     0.006 A 
ENDBRANCH  27  48
BRANCH  39  56
ATOM     56  C   UNL A   1      44.723  32.233  31.204  1.00  0.00     0.057 A 
ATOM     57  C   UNL A   1      44.743  32.458  32.587  1.00  0.00     0.134 A 
ATOM     58  C   UNL A   1      45.157  33.275  30.374  1.00  0.00     0.134 A 
ATOM     59  F   UNL A   1      44.324  31.507  33.437  1.00  0.00    -0.206 F 
ATOM     60  C   UNL A   1      45.148  33.682  33.121  1.00  0.00     0.040 A 
ATOM     61  C   UNL A   1      45.593  34.492  30.898  1.00  0.00     0.040 A 
ATOM     62  F   UNL A   1      45.170  33.125  29.041  1.00  0.00    -0.206 F 
ATOM     63  C   UNL A   1      45.581  34.701  32.275  1.00  0.00     0.006 A 
ENDBRANCH  39  56
ENDBRANCH  13  14
ENDBRANCH   6   8
ENDBRANCH   3   4
ENDBRANCH   2   3
ENDBRANCH   1   2
BRANCH   1  64
ATOM     64  C   UNL A   1      36.557  22.105  24.737  1.00  0.00     0.116 C 
BRANCH  64  65
ATOM     65  N   UNL A   1      35.827  22.593  23.584  1.00  0.00    -0.356 N 
ATOM     66  C   UNL A   1      34.722  23.392  23.534  1.00  0.00     0.225 C 
ATOM     67  H   UNL A   1      36.180  22.307  22.710  1.00  0.00     0.163 HD
ATOM     68  O   UNL A   1      34.328  23.759  22.429  1.00  0.00    -0.275 OA
BRANCH  66  69
ATOM     69  C   UNL A   1      34.036  23.782  24.832  1.00  0.00     0.107 C 
ATOM     70  C   UNL A   1      34.496  25.140  25.366  1.00  0.00     0.115 C 
ATOM     71  C   UNL A   1      32.540  23.933  24.596  1.00  0.00     0.133 C 
ATOM     72  C   UNL A   1      33.231  25.844  25.772  1.00  0.00     0.223 C 
ATOM     73  N   UNL A   1      32.154  25.143  25.272  1.00  0.00    -0.342 N 
ATOM     74  O   UNL A   1      33.182  26.882  26.416  1.00  0.00    -0.275 OA
BRANCH  73  75
ATOM     75  C   UNL A   1      30.768  25.596  25.382  1.00  0.00     0.124 C 
BRANCH  75  76
ATOM     76  C   UNL A   1      30.060  25.836  24.032  1.00  0.00     0.057 C 
BRANCH  76  77
ATOM     77  C   UNL A   1      29.896  27.308  23.716  1.00  0.00    -0.042 A 
ATOM     78  C   UNL A   1      30.919  28.228  24.044  1.00  0.00     0.008 A 
ATOM     79  C   UNL A   1      28.676  27.781  23.213  1.00  0.00     0.054 A 
ATOM     80  C   UNL A   1      30.697  29.607  23.964  1.00  0.00     0.051 A 
ATOM     81  C   UNL A   1      28.460  29.142  23.224  1.00  0.00     0.166 A 
ATOM     82  C   UNL A   1      29.439  30.030  23.598  1.00  0.00     0.165 A 
ATOM     83  O   UNL A   1      27.273  29.755  22.968  1.00  0.00    -0.454 OA
ATOM     84  O   UNL A   1      28.995  31.315  23.603  1.00  0.00    -0.454 OA
ATOM     85  C   UNL A   1      27.590  31.110  23.344  1.00  0.00     0.468 C 
ENDBRANCH  76  77
ENDBRANCH  75  76
ENDBRANCH  73  75
ENDBRANCH  66  69
ENDBRANCH  64  65
ENDBRANCH   1  64
TORSDOF 14
ENDMDL
MODEL 2
REMARK VINA RESULT:     -11.7      3.135      7.917
REMARK SMILES O=C(NCCCCNC(=O)[C@H]1CC(=O)N(CCc2ccc3c(c2)OCO3)C1)c1ccc(-c2c3nc(c(-c4c(F)cccc4F)c4ccc([nH]4)c(-c4c(F)cccc4F)c4nc(c(-c5c(F)cccc5F)c5ccc2[nH]5)C=C4)C=C3)cc1
REMARK SMILES IDX 6 1 5 2 4 3 3 4 1 5 2 6 28 8 29 9 81 10 30 11 80 12 31 13
REMARK SMILES IDX 32 14 33 15 74 16 34 17 79 18 73 19 75 20 35 21 78 22 72 23
REMARK SMILES IDX 71 24 36 26 62 27 45 28 61 29 46 30 49 31 60 32 76 33 47 34
REMARK SMILES IDX 48 35 59 37 77 38 50 39 37 40 38 41 43 42 39 43 40 44 42 45
REMARK SMILES IDX 44 46 41 47 63 48 64 49 69 50 65 51 66 52 68 53 70 54 67 55
REMARK SMILES IDX 51 56 52 57 57 58 53 59 54 60 56 61 58 62 55 63 7 64 8 65
REMARK SMILES IDX 9 66 10 68 11 69 12 70 27 71 13 72 15 73 14 74 16 75 17 76
REMARK SMILES IDX 18 77 19 78 23 79 20 80 22 81 21 82 24 83 26 84 25 85
REMARK H PARENT 3 7 75 25 49 36 8 67
REMARK Flexibility Score: inf
ROOT
ATOM      1  C   UNL A   1      37.156  20.403  24.879  1.00  0.00     0.023 C 
ENDROOT
BRANCH   1   2
ATOM      2  C   UNL A   1      38.454  19.600  24.786  1.00  0.00     0.023 C 
BRANCH   2   3
ATOM      3  C   UNL A   1      39.337  19.655  26.024  1.00  0.00     0.116 C 
BRANCH   3   4
ATOM      4  N   UNL A   1      40.552  18.863  25.893  1.00  0.00    -0.352 N 
ATOM      5  O   UNL A   1      42.770  18.485  25.713  1.00  0.00    -0.269 OA
ATOM      6  C   UNL A   1      41.863  19.264  25.992  1.00  0.00     0.251 C 
ATOM      7  H   UNL A   1      40.414  17.906  25.708  1.00  0.00     0.163 HD
BRANCH   6   8
ATOM      8  C   UNL A   1      42.174  20.648  26.407  1.00  0.00     0.039 A 
ATOM      9  C   UNL A   1      42.415  21.634  25.449  1.00  0.00     0.014 A 
ATOM     10  C   UNL A   1      42.241  20.957  27.768  1.00  0.00     0.014 A 
ATOM     11  C   UNL A   1      42.882  22.879  25.848  1.00  0.00     0.010 A 
ATOM     12  C   UNL A   1      42.611  22.246  28.168  1.00  0.00     0.010 A 
ATOM     13  C   UNL A   1      42.965  23.208  27.211  1.00  0.00    -0.014 A 
BRANCH  13  14
ATOM     14  C   UNL A   1      43.356  24.588  27.596  1.00  0.00     0.031 A 
ATOM     15  C   UNL A   1      44.783  25.053  27.516  1.00  0.00     0.074 A 
ATOM     16  C   UNL A   1      42.388  25.439  27.992  1.00  0.00     0.049 A 
ATOM     17  N   UNL A   1      45.282  26.230  27.802  1.00  0.00    -0.248 NA
ATOM     18  C   UNL A   1      45.782  24.073  27.064  1.00  0.00     0.031 C 
ATOM     19  C   UNL A   1      40.968  25.100  28.117  1.00  0.00     0.029 A 
ATOM     20  N   UNL A   1      42.443  26.763  28.345  1.00  0.00    -0.354 N 
ATOM     21  C   UNL A   1      46.649  26.133  27.570  1.00  0.00     0.074 A 
ATOM     22  C   UNL A   1      46.907  24.770  27.159  1.00  0.00     0.031 C 
ATOM     23  C   UNL A   1      40.281  26.195  28.471  1.00  0.00     0.029 A 
ATOM     24  C   UNL A   1      41.218  27.293  28.671  1.00  0.00     0.049 A 
ATOM     25  H   UNL A   1      43.279  27.283  28.362  1.00  0.00     0.167 HD
ATOM     26  C   UNL A   1      47.596  27.097  27.681  1.00  0.00     0.037 A 
ATOM     27  C   UNL A   1      40.886  28.520  29.110  1.00  0.00     0.037 A 
ATOM     28  C   UNL A   1      47.330  28.452  28.097  1.00  0.00     0.049 A 
ATOM     29  C   UNL A   1      41.966  29.548  29.279  1.00  0.00     0.074 A 
ATOM     30  C   UNL A   1      48.220  29.504  28.229  1.00  0.00     0.029 A 
ATOM     31  N   UNL A   1      46.082  28.940  28.456  1.00  0.00    -0.354 N 
ATOM     32  N   UNL A   1      43.248  29.449  29.025  1.00  0.00    -0.248 NA
ATOM     33  C   UNL A   1      41.551  30.858  29.795  1.00  0.00     0.031 C 
ATOM     34  C   UNL A   1      47.521  30.613  28.718  1.00  0.00     0.029 A 
ATOM     35  C   UNL A   1      46.183  30.271  28.832  1.00  0.00     0.049 A 
ATOM     36  H   UNL A   1      45.247  28.419  28.446  1.00  0.00     0.167 HD
ATOM     37  C   UNL A   1      43.790  30.691  29.327  1.00  0.00     0.074 A 
ATOM     38  C   UNL A   1      42.692  31.532  29.759  1.00  0.00     0.031 C 
ATOM     39  C   UNL A   1      45.080  31.097  29.255  1.00  0.00     0.037 A 
BRANCH  26  40
ATOM     40  C   UNL A   1      49.015  26.721  27.357  1.00  0.00     0.057 A 
ATOM     41  C   UNL A   1      49.880  26.192  28.325  1.00  0.00     0.134 A 
ATOM     42  C   UNL A   1      49.508  26.839  26.051  1.00  0.00     0.134 A 
ATOM     43  F   UNL A   1      49.478  26.059  29.598  1.00  0.00    -0.206 F 
ATOM     44  C   UNL A   1      51.188  25.815  28.010  1.00  0.00     0.040 A 
ATOM     45  C   UNL A   1      50.804  26.440  25.718  1.00  0.00     0.040 A 
ATOM     46  F   UNL A   1      48.733  27.328  25.071  1.00  0.00    -0.206 F 
ATOM     47  C   UNL A   1      51.651  25.931  26.701  1.00  0.00     0.006 A 
ENDBRANCH  26  40
BRANCH  27  48
ATOM     48  C   UNL A   1      39.473  28.833  29.441  1.00  0.00     0.057 A 
ATOM     49  C   UNL A   1      38.961  28.616  30.725  1.00  0.00     0.134 A 
ATOM     50  C   UNL A   1      38.594  29.344  28.476  1.00  0.00     0.134 A 
ATOM     51  F   UNL A   1      39.747  28.115  31.689  1.00  0.00    -0.206 F 
ATOM     52  C   UNL A   1      37.623  28.867  31.030  1.00  0.00     0.040 A 
ATOM     53  C   UNL A   1      37.264  29.632  28.776  1.00  0.00     0.040 A 
ATOM     54  F   UNL A   1      39.025  29.587  27.229  1.00  0.00    -0.206 F 
ATOM     55  C   UNL A   1      36.771  29.382  30.054  1.00  0.00     0.006 A 
ENDBRANCH  27  48
BRANCH  39  56
ATOM     56  C   UNL A   1      45.364  32.529  29.612  1.00  0.00     0.057 A 
ATOM     57  C   UNL A   1      45.709  32.917  30.913  1.00  0.00     0.134 A 
ATOM     58  C   UNL A   1      45.307  33.530  28.633  1.00  0.00     0.134 A 
ATOM     59  F   UNL A   1      45.765  32.010  31.901  1.00  0.00    -0.206 F 
ATOM     60  C   UNL A   1      45.954  34.252  31.235  1.00  0.00     0.040 A 
ATOM     61  C   UNL A   1      45.581  34.864  28.937  1.00  0.00     0.040 A 
ATOM     62  F   UNL A   1      44.990  33.227  27.365  1.00  0.00    -0.206 F 
ATOM     63  C   UNL A   1      45.897  35.229  30.243  1.00  0.00     0.006 A 
ENDBRANCH  39  56
ENDBRANCH  13  14
ENDBRANCH   6   8
ENDBRANCH   3   4
ENDBRANCH   2   3
ENDBRANCH   1   2
BRANCH   1  64
ATOM     64  C   UNL A   1      37.207  21.783  24.226  1.00  0.00     0.116 C 
BRANCH  64  65
ATOM     65  N   UNL A   1      37.775  22.784  25.107  1.00  0.00    -0.356 N 
ATOM     66  C   UNL A   1      37.143  23.700  25.897  1.00  0.00     0.225 C 
ATOM     67  H   UNL A   1      38.759  22.805  25.141  1.00  0.00     0.163 HD
ATOM     68  O   UNL A   1      37.836  24.392  26.641  1.00  0.00    -0.275 OA
BRANCH  66  69
ATOM     69  C   UNL A   1      35.632  23.824  25.818  1.00  0.00     0.107 C 
ATOM     70  C   UNL A   1      35.124  24.038  24.390  1.00  0.00     0.115 C 
ATOM     71  C   UNL A   1      34.986  22.526  26.279  1.00  0.00     0.133 C 
ATOM     72  C   UNL A   1      33.950  23.108  24.254  1.00  0.00     0.223 C 
ATOM     73  N   UNL A   1      33.943  22.242  25.328  1.00  0.00    -0.342 N 
ATOM     74  O   UNL A   1      33.156  23.112  23.325  1.00  0.00    -0.275 OA
BRANCH  73  75
ATOM     75  C   UNL A   1      33.005  21.131  25.470  1.00  0.00     0.124 C 
BRANCH  75  76
ATOM     76  C   UNL A   1      33.024  20.118  24.305  1.00  0.00     0.057 C 
BRANCH  76  77
ATOM     77  C   UNL A   1      33.422  18.727  24.752  1.00  0.00    -0.042 A 
ATOM     78  C   UNL A   1      34.669  18.181  24.366  1.00  0.00     0.008 A 
ATOM     79  C   UNL A   1      32.502  17.927  25.444  1.00  0.00     0.054 A 
ATOM     80  C   UNL A   1      34.958  16.829  24.580  1.00  0.00     0.051 A 
ATOM     81  C   UNL A   1      32.781  16.584  25.566  1.00  0.00     0.166 A 
ATOM     82  C   UNL A   1      33.971  16.048  25.138  1.00  0.00     0.165 A 
ATOM     83  O   UNL A   1      31.918  15.636  26.020  1.00  0.00    -0.454 OA
ATOM     84  O   UNL A   1      34.012  14.696  25.290  1.00  0.00    -0.454 OA
ATOM     85  C   UNL A   1      32.656  14.437  25.711  1.00  0.00     0.468 C 
ENDBRANCH  76  77
ENDBRANCH  75  76
ENDBRANCH  73  75
ENDBRANCH  66  69
ENDBRANCH  64  65
ENDBRANCH   1  64
TORSDOF 14
ENDMDL
MODEL 3
REMARK VINA RESULT:     -11.7      4.116      9.139
REMARK SMILES O=C(NCCCCNC(=O)[C@H]1CC(=O)N(CCc2ccc3c(c2)OCO3)C1)c1ccc(-c2c3nc(c(-c4c(F)cccc4F)c4ccc([nH]4)c(-c4c(F)cccc4F)c4nc(c(-c5c(F)cccc5F)c5ccc2[nH]5)C=C4)C=C3)cc1
REMARK SMILES IDX 6 1 5 2 4 3 3 4 1 5 2 6 28 8 29 9 81 10 30 11 80 12 31 13
REMARK SMILES IDX 32 14 33 15 74 16 34 17 79 18 73 19 75 20 35 21 78 22 72 23
REMARK SMILES IDX 71 24 36 26 62 27 45 28 61 29 46 30 49 31 60 32 76 33 47 34
REMARK SMILES IDX 48 35 59 37 77 38 50 39 37 40 38 41 43 42 39 43 40 44 42 45
REMARK SMILES IDX 44 46 41 47 63 48 64 49 69 50 65 51 66 52 68 53 70 54 67 55
REMARK SMILES IDX 51 56 52 57 57 58 53 59 54 60 56 61 58 62 55 63 7 64 8 65
REMARK SMILES IDX 9 66 10 68 11 69 12 70 27 71 13 72 15 73 14 74 16 75 17 76
REMARK SMILES IDX 18 77 19 78 23 79 20 80 22 81 21 82 24 83 26 84 25 85
REMARK H PARENT 3 7 75 25 49 36 8 67
REMARK Flexibility Score: inf
ROOT
ATOM      1  C   UNL A   1      31.573  30.155  26.417  1.00  0.00     0.023 C 
ENDROOT
BRANCH   1   2
ATOM      2  C   UNL A   1      31.422  31.671  26.543  1.00  0.00     0.023 C 
BRANCH   2   3
ATOM      3  C   UNL A   1      32.701  32.421  26.885  1.00  0.00     0.116 C 
BRANCH   3   4
ATOM      4  N   UNL A   1      32.457  33.772  27.370  1.00  0.00    -0.352 N 
ATOM      5  O   UNL A   1      32.653  35.544  28.755  1.00  0.00    -0.269 OA
ATOM      6  C   UNL A   1      33.083  34.455  28.386  1.00  0.00     0.251 C 
ATOM      7  H   UNL A   1      31.744  34.266  26.904  1.00  0.00     0.163 HD
BRANCH   6   8
ATOM      8  C   UNL A   1      34.259  33.856  29.051  1.00  0.00     0.039 A 
ATOM      9  C   UNL A   1      35.549  34.257  28.699  1.00  0.00     0.014 A 
ATOM     10  C   UNL A   1      34.069  32.873  30.026  1.00  0.00     0.014 A 
ATOM     11  C   UNL A   1      36.644  33.563  29.196  1.00  0.00     0.010 A 
ATOM     12  C   UNL A   1      35.179  32.247  30.604  1.00  0.00     0.010 A 
ATOM     13  C   UNL A   1      36.475  32.566  30.171  1.00  0.00    -0.014 A 
BRANCH  13  14
ATOM     14  C   UNL A   1      37.677  31.928  30.765  1.00  0.00     0.031 A 
ATOM     15  C   UNL A   1      38.171  32.306  32.134  1.00  0.00     0.074 A 
ATOM     16  C   UNL A   1      38.307  30.968  30.059  1.00  0.00     0.049 A 
ATOM     17  N   UNL A   1      39.196  31.831  32.798  1.00  0.00    -0.248 NA
ATOM     18  C   UNL A   1      37.427  33.352  32.850  1.00  0.00     0.031 C 
ATOM     19  C   UNL A   1      37.924  30.523  28.716  1.00  0.00     0.029 A 
ATOM     20  N   UNL A   1      39.385  30.181  30.373  1.00  0.00    -0.354 N 
ATOM     21  C   UNL A   1      39.223  32.522  34.004  1.00  0.00     0.074 A 
ATOM     22  C   UNL A   1      38.136  33.477  33.964  1.00  0.00     0.031 C 
ATOM     23  C   UNL A   1      38.722  29.514  28.342  1.00  0.00     0.029 A 
ATOM     24  C   UNL A   1      39.718  29.290  29.382  1.00  0.00     0.049 A 
ATOM     25  H   UNL A   1      39.873  30.248  31.226  1.00  0.00     0.167 HD
ATOM     26  C   UNL A   1      40.071  32.363  35.050  1.00  0.00     0.037 A 
ATOM     27  C   UNL A   1      40.730  28.408  29.304  1.00  0.00     0.037 A 
ATOM     28  C   UNL A   1      41.155  31.412  35.079  1.00  0.00     0.049 A 
ATOM     29  C   UNL A   1      41.687  28.297  30.454  1.00  0.00     0.074 A 
ATOM     30  C   UNL A   1      42.061  31.168  36.097  1.00  0.00     0.029 A 
ATOM     31  N   UNL A   1      41.484  30.553  34.040  1.00  0.00    -0.354 N 
ATOM     32  N   UNL A   1      41.681  28.935  31.600  1.00  0.00    -0.248 NA
ATOM     33  C   UNL A   1      42.793  27.345  30.300  1.00  0.00     0.031 C 
ATOM     34  C   UNL A   1      42.970  30.201  35.654  1.00  0.00     0.029 A 
ATOM     35  C   UNL A   1      42.593  29.796  34.384  1.00  0.00     0.049 A 
ATOM     36  H   UNL A   1      41.002  30.491  33.185  1.00  0.00     0.167 HD
ATOM     37  C   UNL A   1      42.764  28.443  32.313  1.00  0.00     0.074 A 
ATOM     38  C   UNL A   1      43.391  27.437  31.480  1.00  0.00     0.031 C 
ATOM     39  C   UNL A   1      43.203  28.794  33.546  1.00  0.00     0.037 A 
BRANCH  26  40
ATOM     40  C   UNL A   1      39.870  33.246  36.251  1.00  0.00     0.057 A 
ATOM     41  C   UNL A   1      40.534  34.472  36.388  1.00  0.00     0.134 A 
ATOM     42  C   UNL A   1      38.963  32.890  37.257  1.00  0.00     0.134 A 
ATOM     43  F   UNL A   1      41.424  34.871  35.467  1.00  0.00    -0.206 F 
ATOM     44  C   UNL A   1      40.319  35.301  37.492  1.00  0.00     0.040 A 
ATOM     45  C   UNL A   1      38.718  33.723  38.351  1.00  0.00     0.040 A 
ATOM     46  F   UNL A   1      38.284  31.735  37.187  1.00  0.00    -0.206 F 
ATOM     47  C   UNL A   1      39.403  34.931  38.473  1.00  0.00     0.006 A 
ENDBRANCH  26  40
BRANCH  27  48
ATOM     48  C   UNL A   1      40.900  27.578  28.085  1.00  0.00     0.057 A 
ATOM     49  C   UNL A   1      41.653  28.031  26.995  1.00  0.00     0.134 A 
ATOM     50  C   UNL A   1      40.301  26.316  27.973  1.00  0.00     0.134 A 
ATOM     51  F   UNL A   1      42.240  29.237  27.035  1.00  0.00    -0.206 F 
ATOM     52  C   UNL A   1      41.780  27.275  25.830  1.00  0.00     0.040 A 
ATOM     53  C   UNL A   1      40.448  25.535  26.828  1.00  0.00     0.040 A 
ATOM     54  F   UNL A   1      39.577  25.818  28.986  1.00  0.00    -0.206 F 
ATOM     55  C   UNL A   1      41.179  26.019  25.746  1.00  0.00     0.006 A 
ENDBRANCH  27  48
BRANCH  39  56
ATOM     56  C   UNL A   1      44.394  28.051  34.082  1.00  0.00     0.057 A 
ATOM     57  C   UNL A   1      44.264  26.850  34.791  1.00  0.00     0.134 A 
ATOM     58  C   UNL A   1      45.690  28.539  33.870  1.00  0.00     0.134 A 
ATOM     59  F   UNL A   1      43.050  26.336  35.042  1.00  0.00    -0.206 F 
ATOM     60  C   UNL A   1      45.377  26.178  35.297  1.00  0.00     0.040 A 
ATOM     61  C   UNL A   1      46.813  27.860  34.345  1.00  0.00     0.040 A 
ATOM     62  F   UNL A   1      45.887  29.681  33.193  1.00  0.00    -0.206 F 
ATOM     63  C   UNL A   1      46.657  26.680  35.069  1.00  0.00     0.006 A 
ENDBRANCH  39  56
ENDBRANCH  13  14
ENDBRANCH   6   8
ENDBRANCH   3   4
ENDBRANCH   2   3
ENDBRANCH   1   2
BRANCH   1  64
ATOM     64  C   UNL A   1      31.417  29.609  24.999  1.00  0.00     0.116 C 
BRANCH  64  65
ATOM     65  N   UNL A   1      32.646  29.711  24.236  1.00  0.00    -0.356 N 
ATOM     66  C   UNL A   1      33.351  28.733  23.597  1.00  0.00     0.225 C 
ATOM     67  H   UNL A   1      33.026  30.617  24.169  1.00  0.00     0.163 HD
ATOM     68  O   UNL A   1      34.323  29.072  22.925  1.00  0.00    -0.275 OA
BRANCH  66  69
ATOM     69  C   UNL A   1      32.908  27.288  23.747  1.00  0.00     0.107 C 
ATOM     70  C   UNL A   1      33.258  26.427  22.531  1.00  0.00     0.115 C 
ATOM     71  C   UNL A   1      33.643  26.645  24.914  1.00  0.00     0.133 C 
ATOM     72  C   UNL A   1      33.824  25.158  23.106  1.00  0.00     0.223 C 
ATOM     73  N   UNL A   1      34.066  25.350  24.451  1.00  0.00    -0.342 N 
ATOM     74  O   UNL A   1      34.053  24.140  22.469  1.00  0.00    -0.275 OA
BRANCH  73  75
ATOM     75  C   UNL A   1      34.717  24.362  25.309  1.00  0.00     0.124 C 
BRANCH  75  76
ATOM     76  C   UNL A   1      33.748  23.447  26.088  1.00  0.00     0.057 C 
BRANCH  76  77
ATOM     77  C   UNL A   1      33.970  21.979  25.789  1.00  0.00    -0.042 A 
ATOM     78  C   UNL A   1      35.244  21.515  25.387  1.00  0.00     0.008 A 
ATOM     79  C   UNL A   1      32.881  21.096  25.788  1.00  0.00     0.054 A 
ATOM     80  C   UNL A   1      35.414  20.216  24.897  1.00  0.00     0.051 A 
ATOM     81  C   UNL A   1      33.062  19.851  25.225  1.00  0.00     0.166 A 
ATOM     82  C   UNL A   1      34.291  19.426  24.783  1.00  0.00     0.165 A 
ATOM     83  O   UNL A   1      32.075  18.955  24.956  1.00  0.00    -0.454 OA
ATOM     84  O   UNL A   1      34.233  18.199  24.200  1.00  0.00    -0.454 OA
ATOM     85  C   UNL A   1      32.807  17.979  24.188  1.00  0.00     0.468 C 
ENDBRANCH  76  77
ENDBRANCH  75  76
ENDBRANCH  73  75
ENDBRANCH  66  69
ENDBRANCH  64  65
ENDBRANCH   1  64
TORSDOF 14
ENDMDL
