MODEL 1
REMARK VINA RESULT:     -12.6      0.000      0.000
REMARK SMILES C[C@H]1N=N[C@H](S/C(=C/c2ccc(-c3cccc(Cl)c3)o2)C(=O)NCCCCNC(=O)c2ccc(-c3c4nc(c(-c5c(F)cccc5F)c5ccc([nH]5)c(-c5c(F)cccc5F)c5nc(c(-c6c(F)cccc6F)c6ccc3[nH]6)C=C5)C=C4)cc2)[NH2+]1
REMARK SMILES IDX 25 1 24 2 23 3 21 4 22 5 7 7 8 8 6 9 5 10 1 11 2 12 3 13
REMARK SMILES IDX 85 14 4 15 9 18 10 19 20 20 11 21 12 22 13 23 14 24 19 25
REMARK SMILES IDX 15 26 17 27 16 28 18 29 26 30 27 31 28 32 29 33 30 35 31 36
REMARK SMILES IDX 32 37 84 38 33 39 83 40 34 41 35 42 36 43 77 44 37 45 82 46
REMARK SMILES IDX 76 47 78 48 38 49 81 50 75 51 74 52 39 54 65 55 48 56 64 57
REMARK SMILES IDX 49 58 52 59 63 60 79 61 50 62 51 63 62 65 80 66 53 67 40 68
REMARK SMILES IDX 41 69 46 70 42 71 43 72 45 73 47 74 44 75 66 76 67 77 72 78
REMARK SMILES IDX 68 79 69 80 71 81 73 82 70 83 54 84 55 85 60 86 56 87 57 88
REMARK SMILES IDX 59 89 61 90 58 91
REMARK H PARENT 23 6 85 16 85 17 28 34 78 53 52 64
REMARK Flexibility Score: inf
ROOT
ATOM      1  C   UNL A   1      31.509  30.511  25.962  1.00  0.00     0.023 C 
ENDROOT
BRANCH   1   2
ATOM      2  C   UNL A   1      32.379  29.375  26.481  1.00  0.00     0.116 C 
BRANCH   2   3
ATOM      3  N   UNL A   1      31.707  28.180  26.929  1.00  0.00    -0.352 N 
ATOM      4  C   UNL A   1      31.814  26.903  26.437  1.00  0.00     0.258 C 
ATOM      5  O   UNL A   1      31.341  25.993  27.122  1.00  0.00    -0.269 OA
ATOM      6  H   UNL A   1      31.091  28.294  27.687  1.00  0.00     0.163 HD
BRANCH   4   7
ATOM      7  C   UNL A   1      32.395  26.604  25.066  1.00  0.00     0.084 C 
ATOM      8  C   UNL A   1      31.797  26.804  23.878  1.00  0.00     0.068 C 
BRANCH   7   9
ATOM      9  S   UNL A   1      34.052  25.996  25.198  1.00  0.00    -0.030 SA
BRANCH   9  10
ATOM     10  C   UNL A   1      33.956  24.187  24.964  1.00  0.00     0.393 C 
ATOM     11  C   UNL A   1      33.760  21.798  27.601  1.00  0.00     0.106 C 
ATOM     12  C   UNL A   1      34.194  23.065  26.882  1.00  0.00     0.324 C 
ATOM     13  N   UNL A   1      35.355  22.787  26.024  1.00  0.00    -0.126 NA
ATOM     14  N   UNL A   1      33.131  23.589  26.021  1.00  0.00    -0.293 N 
ATOM     15  N   UNL A   1      35.249  23.461  24.968  1.00  0.00    -0.115 NA
ATOM     16  H   UNL A   1      32.562  24.286  26.501  1.00  0.00     0.350 HD
ATOM     17  H   UNL A   1      32.448  22.901  25.705  1.00  0.00     0.350 HD
ENDBRANCH   9  10
ENDBRANCH   7   9
BRANCH   8  18
ATOM     18  C   UNL A   1      30.491  27.301  23.661  1.00  0.00     0.128 A 
ATOM     19  C   UNL A   1      29.247  26.692  23.723  1.00  0.00     0.051 A 
ATOM     20  O   UNL A   1      30.293  28.623  23.341  1.00  0.00    -0.457 OA
ATOM     21  C   UNL A   1      28.275  27.673  23.385  1.00  0.00     0.051 A 
ATOM     22  C   UNL A   1      28.970  28.830  23.107  1.00  0.00     0.134 A 
BRANCH  22  23
ATOM     23  C   UNL A   1      28.624  30.128  22.539  1.00  0.00     0.019 A 
ATOM     24  C   UNL A   1      28.060  30.222  21.262  1.00  0.00     0.012 A 
ATOM     25  C   UNL A   1      28.961  31.315  23.213  1.00  0.00     0.032 A 
ATOM     26  C   UNL A   1      27.857  31.468  20.661  1.00  0.00     0.002 A 
ATOM     27  C   UNL A   1      28.774  32.555  22.601  1.00  0.00     0.041 A 
ATOM     28  C   UNL A   1      28.226  32.637  21.325  1.00  0.00     0.020 A 
ATOM     29  Cl  UNL A   1      29.268  33.989  23.414  1.00  0.00    -0.084 Cl
ENDBRANCH  22  23
ENDBRANCH   8  18
ENDBRANCH   4   7
ENDBRANCH   2   3
ENDBRANCH   1   2
BRANCH   1  30
ATOM     30  C   UNL A   1      31.364  31.747  26.853  1.00  0.00     0.023 C 
BRANCH  30  31
ATOM     31  C   UNL A   1      32.155  33.003  26.492  1.00  0.00     0.116 C 
BRANCH  31  32
ATOM     32  N   UNL A   1      32.151  34.065  27.489  1.00  0.00    -0.352 N 
ATOM     33  C   UNL A   1      33.099  34.418  28.428  1.00  0.00     0.251 C 
ATOM     34  H   UNL A   1      31.339  34.622  27.495  1.00  0.00     0.163 HD
ATOM     35  O   UNL A   1      32.966  35.416  29.117  1.00  0.00    -0.269 OA
BRANCH  33  36
ATOM     36  C   UNL A   1      34.265  33.546  28.659  1.00  0.00     0.039 A 
ATOM     37  C   UNL A   1      35.529  34.141  28.738  1.00  0.00     0.014 A 
ATOM     38  C   UNL A   1      34.114  32.177  28.859  1.00  0.00     0.014 A 
ATOM     39  C   UNL A   1      36.620  33.385  29.166  1.00  0.00     0.010 A 
ATOM     40  C   UNL A   1      35.180  31.444  29.367  1.00  0.00     0.010 A 
ATOM     41  C   UNL A   1      36.432  32.051  29.560  1.00  0.00    -0.014 A 
BRANCH  41  42
ATOM     42  C   UNL A   1      37.504  31.289  30.246  1.00  0.00     0.031 A 
ATOM     43  C   UNL A   1      37.814  31.556  31.689  1.00  0.00     0.074 A 
ATOM     44  C   UNL A   1      38.275  30.447  29.530  1.00  0.00     0.049 A 
ATOM     45  N   UNL A   1      38.809  31.116  32.416  1.00  0.00    -0.248 NA
ATOM     46  C   UNL A   1      36.904  32.469  32.399  1.00  0.00     0.031 C 
ATOM     47  C   UNL A   1      38.108  30.145  28.104  1.00  0.00     0.029 A 
ATOM     48  N   UNL A   1      39.371  29.704  29.895  1.00  0.00    -0.354 N 
ATOM     49  C   UNL A   1      38.661  31.718  33.658  1.00  0.00     0.074 A 
ATOM     50  C   UNL A   1      37.505  32.587  33.573  1.00  0.00     0.031 C 
ATOM     51  C   UNL A   1      39.053  29.271  27.724  1.00  0.00     0.029 A 
ATOM     52  C   UNL A   1      39.920  28.985  28.861  1.00  0.00     0.049 A 
ATOM     53  H   UNL A   1      39.729  29.689  30.812  1.00  0.00     0.167 HD
ATOM     54  C   UNL A   1      39.410  31.548  34.771  1.00  0.00     0.037 A 
ATOM     55  C   UNL A   1      41.010  28.197  28.829  1.00  0.00     0.037 A 
ATOM     56  C   UNL A   1      40.536  30.657  34.859  1.00  0.00     0.049 A 
ATOM     57  C   UNL A   1      41.821  28.019  30.081  1.00  0.00     0.074 A 
ATOM     58  C   UNL A   1      41.317  30.358  35.961  1.00  0.00     0.029 A 
ATOM     59  N   UNL A   1      41.042  29.919  33.797  1.00  0.00    -0.354 N 
ATOM     60  N   UNL A   1      41.634  28.547  31.266  1.00  0.00    -0.248 NA
ATOM     61  C   UNL A   1      42.995  27.139  29.991  1.00  0.00     0.031 C 
ATOM     62  C   UNL A   1      42.316  29.464  35.560  1.00  0.00     0.029 A 
ATOM     63  C   UNL A   1      42.134  29.179  34.216  1.00  0.00     0.049 A 
ATOM     64  H   UNL A   1      40.677  29.921  32.883  1.00  0.00     0.167 HD
ATOM     65  C   UNL A   1      42.652  28.049  32.068  1.00  0.00     0.074 A 
ATOM     66  C   UNL A   1      43.447  27.167  31.238  1.00  0.00     0.031 C 
ATOM     67  C   UNL A   1      42.907  28.301  33.375  1.00  0.00     0.037 A 
BRANCH  54  68
ATOM     68  C   UNL A   1      39.028  32.341  35.986  1.00  0.00     0.057 A 
ATOM     69  C   UNL A   1      38.217  31.803  36.993  1.00  0.00     0.134 A 
ATOM     70  C   UNL A   1      39.493  33.650  36.160  1.00  0.00     0.134 A 
ATOM     71  F   UNL A   1      37.728  30.558  36.879  1.00  0.00    -0.206 F 
ATOM     72  C   UNL A   1      37.857  32.547  38.116  1.00  0.00     0.040 A 
ATOM     73  C   UNL A   1      39.161  34.397  37.292  1.00  0.00     0.040 A 
ATOM     74  F   UNL A   1      40.278  34.224  35.236  1.00  0.00    -0.206 F 
ATOM     75  C   UNL A   1      38.335  33.847  38.271  1.00  0.00     0.006 A 
ENDBRANCH  54  68
BRANCH  55  76
ATOM     76  C   UNL A   1      41.392  27.505  27.573  1.00  0.00     0.057 A 
ATOM     77  C   UNL A   1      42.188  28.144  26.615  1.00  0.00     0.134 A 
ATOM     78  C   UNL A   1      40.973  26.198  27.296  1.00  0.00     0.134 A 
ATOM     79  F   UNL A   1      42.605  29.403  26.817  1.00  0.00    -0.206 F 
ATOM     80  C   UNL A   1      42.543  27.516  25.421  1.00  0.00     0.040 A 
ATOM     81  C   UNL A   1      41.339  25.549  26.114  1.00  0.00     0.040 A 
ATOM     82  F   UNL A   1      40.214  25.529  28.175  1.00  0.00    -0.206 F 
ATOM     83  C   UNL A   1      42.121  26.212  25.170  1.00  0.00     0.006 A 
ENDBRANCH  55  76
BRANCH  67  84
ATOM     84  C   UNL A   1      44.074  27.594  33.992  1.00  0.00     0.057 A 
ATOM     85  C   UNL A   1      43.943  26.327  34.572  1.00  0.00     0.134 A 
ATOM     86  C   UNL A   1      45.353  28.166  33.959  1.00  0.00     0.134 A 
ATOM     87  F   UNL A   1      42.742  25.735  34.647  1.00  0.00    -0.206 F 
ATOM     88  C   UNL A   1      45.043  25.656  35.110  1.00  0.00     0.040 A 
ATOM     89  C   UNL A   1      46.463  27.496  34.473  1.00  0.00     0.040 A 
ATOM     90  F   UNL A   1      45.544  29.375  33.411  1.00  0.00    -0.206 F 
ATOM     91  C   UNL A   1      46.309  26.238  35.053  1.00  0.00     0.006 A 
ENDBRANCH  67  84
ENDBRANCH  41  42
ENDBRANCH  33  36
ENDBRANCH  31  32
ENDBRANCH  30  31
ENDBRANCH   1  30
TORSDOF 15
ENDMDL
MODEL 2
REMARK VINA RESULT:     -12.5      4.649      8.306
REMARK SMILES C[C@H]1N=N[C@H](S/C(=C/c2ccc(-c3cccc(Cl)c3)o2)C(=O)NCCCCNC(=O)c2ccc(-c3c4nc(c(-c5c(F)cccc5F)c5ccc([nH]5)c(-c5c(F)cccc5F)c5nc(c(-c6c(F)cccc6F)c6ccc3[nH]6)C=C5)C=C4)cc2)[NH2+]1
REMARK SMILES IDX 25 1 24 2 23 3 21 4 22 5 7 7 8 8 6 9 5 10 1 11 2 12 3 13
REMARK SMILES IDX 85 14 4 15 9 18 10 19 20 20 11 21 12 22 13 23 14 24 19 25
REMARK SMILES IDX 15 26 17 27 16 28 18 29 26 30 27 31 28 32 29 33 30 35 31 36
REMARK SMILES IDX 32 37 84 38 33 39 83 40 34 41 35 42 36 43 77 44 37 45 82 46
REMARK SMILES IDX 76 47 78 48 38 49 81 50 75 51 74 52 39 54 65 55 48 56 64 57
REMARK SMILES IDX 49 58 52 59 63 60 79 61 50 62 51 63 62 65 80 66 53 67 40 68
REMARK SMILES IDX 41 69 46 70 42 71 43 72 45 73 47 74 44 75 66 76 67 77 72 78
REMARK SMILES IDX 68 79 69 80 71 81 73 82 70 83 54 84 55 85 60 86 56 87 57 88
REMARK SMILES IDX 59 89 61 90 58 91
REMARK H PARENT 23 6 85 16 85 17 28 34 78 53 52 64
REMARK Flexibility Score: inf
ROOT
ATOM      1  C   UNL A   1      36.815  23.172  24.084  1.00  0.00     0.023 C 
ENDROOT
BRANCH   1   2
ATOM      2  C   UNL A   1      35.366  23.628  24.179  1.00  0.00     0.116 C 
BRANCH   2   3
ATOM      3  N   UNL A   1      34.404  22.952  23.342  1.00  0.00    -0.352 N 
ATOM      4  C   UNL A   1      33.324  22.195  23.721  1.00  0.00     0.258 C 
ATOM      5  O   UNL A   1      32.497  21.915  22.850  1.00  0.00    -0.269 OA
ATOM      6  H   UNL A   1      34.541  23.045  22.373  1.00  0.00     0.163 HD
BRANCH   4   7
ATOM      7  C   UNL A   1      33.177  21.628  25.122  1.00  0.00     0.084 C 
ATOM      8  C   UNL A   1      32.505  22.182  26.148  1.00  0.00     0.068 C 
BRANCH   7   9
ATOM      9  S   UNL A   1      33.967  20.049  25.254  1.00  0.00    -0.030 SA
BRANCH   9  10
ATOM     10  C   UNL A   1      32.654  18.798  25.037  1.00  0.00     0.393 C 
ATOM     11  C   UNL A   1      33.099  15.286  25.443  1.00  0.00     0.106 C 
ATOM     12  C   UNL A   1      33.454  16.712  25.053  1.00  0.00     0.324 C 
ATOM     13  N   UNL A   1      32.940  17.011  23.709  1.00  0.00    -0.126 NA
ATOM     14  N   UNL A   1      32.864  17.686  25.973  1.00  0.00    -0.293 N 
ATOM     15  N   UNL A   1      32.541  18.203  23.684  1.00  0.00    -0.115 NA
ATOM     16  H   UNL A   1      33.505  17.937  26.725  1.00  0.00     0.350 HD
ATOM     17  H   UNL A   1      32.030  17.370  26.466  1.00  0.00     0.350 HD
ENDBRANCH   9  10
ENDBRANCH   7   9
BRANCH   8  18
ATOM     18  C   UNL A   1      31.827  23.422  26.143  1.00  0.00     0.128 A 
ATOM     19  C   UNL A   1      30.478  23.739  26.084  1.00  0.00     0.051 A 
ATOM     20  O   UNL A   1      32.529  24.600  26.225  1.00  0.00    -0.457 OA
ATOM     21  C   UNL A   1      30.373  25.157  26.087  1.00  0.00     0.051 A 
ATOM     22  C   UNL A   1      31.663  25.643  26.121  1.00  0.00     0.134 A 
BRANCH  22  23
ATOM     23  C   UNL A   1      32.272  26.959  25.966  1.00  0.00     0.019 A 
ATOM     24  C   UNL A   1      33.641  27.144  26.187  1.00  0.00     0.012 A 
ATOM     25  C   UNL A   1      31.475  28.088  25.709  1.00  0.00     0.032 A 
ATOM     26  C   UNL A   1      34.199  28.426  26.176  1.00  0.00     0.002 A 
ATOM     27  C   UNL A   1      32.034  29.367  25.717  1.00  0.00     0.041 A 
ATOM     28  C   UNL A   1      33.393  29.541  25.952  1.00  0.00     0.020 A 
ATOM     29  Cl  UNL A   1      31.023  30.740  25.479  1.00  0.00    -0.084 Cl
ENDBRANCH  22  23
ENDBRANCH   8  18
ENDBRANCH   4   7
ENDBRANCH   2   3
ENDBRANCH   1   2
BRANCH   1  30
ATOM     30  C   UNL A   1      37.128  21.736  24.512  1.00  0.00     0.023 C 
BRANCH  30  31
ATOM     31  C   UNL A   1      38.191  21.510  25.586  1.00  0.00     0.116 C 
BRANCH  31  32
ATOM     32  N   UNL A   1      38.999  20.308  25.436  1.00  0.00    -0.352 N 
ATOM     33  C   UNL A   1      40.260  20.010  25.912  1.00  0.00     0.251 C 
ATOM     34  H   UNL A   1      38.578  19.591  24.909  1.00  0.00     0.163 HD
ATOM     35  O   UNL A   1      40.741  18.897  25.775  1.00  0.00    -0.269 OA
BRANCH  33  36
ATOM     36  C   UNL A   1      41.078  21.064  26.540  1.00  0.00     0.039 A 
ATOM     37  C   UNL A   1      41.779  21.940  25.705  1.00  0.00     0.014 A 
ATOM     38  C   UNL A   1      41.103  21.231  27.922  1.00  0.00     0.014 A 
ATOM     39  C   UNL A   1      42.385  23.072  26.249  1.00  0.00     0.010 A 
ATOM     40  C   UNL A   1      41.632  22.401  28.454  1.00  0.00     0.010 A 
ATOM     41  C   UNL A   1      42.244  23.349  27.617  1.00  0.00    -0.014 A 
BRANCH  41  42
ATOM     42  C   UNL A   1      42.659  24.653  28.190  1.00  0.00     0.031 A 
ATOM     43  C   UNL A   1      41.640  25.726  28.437  1.00  0.00     0.074 A 
ATOM     44  C   UNL A   1      43.970  24.907  28.368  1.00  0.00     0.049 A 
ATOM     45  N   UNL A   1      41.822  26.976  28.776  1.00  0.00    -0.248 NA
ATOM     46  C   UNL A   1      40.231  25.352  28.243  1.00  0.00     0.031 C 
ATOM     47  C   UNL A   1      45.062  23.963  28.109  1.00  0.00     0.029 A 
ATOM     48  N   UNL A   1      44.614  26.045  28.787  1.00  0.00    -0.354 N 
ATOM     49  C   UNL A   1      40.556  27.544  28.809  1.00  0.00     0.074 A 
ATOM     50  C   UNL A   1      39.619  26.514  28.414  1.00  0.00     0.031 C 
ATOM     51  C   UNL A   1      46.233  24.554  28.393  1.00  0.00     0.029 A 
ATOM     52  C   UNL A   1      45.983  25.930  28.806  1.00  0.00     0.049 A 
ATOM     53  H   UNL A   1      44.139  26.867  29.049  1.00  0.00     0.167 HD
ATOM     54  C   UNL A   1      40.207  28.805  29.153  1.00  0.00     0.037 A 
ATOM     55  C   UNL A   1      46.932  26.836  29.107  1.00  0.00     0.037 A 
ATOM     56  C   UNL A   1      41.140  29.815  29.578  1.00  0.00     0.049 A 
ATOM     57  C   UNL A   1      46.517  28.227  29.492  1.00  0.00     0.074 A 
ATOM     58  C   UNL A   1      40.880  31.101  30.017  1.00  0.00     0.029 A 
ATOM     59  N   UNL A   1      42.517  29.648  29.616  1.00  0.00    -0.354 N 
ATOM     60  N   UNL A   1      45.311  28.734  29.578  1.00  0.00    -0.248 NA
ATOM     61  C   UNL A   1      47.593  29.173  29.821  1.00  0.00     0.031 C 
ATOM     62  C   UNL A   1      42.102  31.724  30.290  1.00  0.00     0.029 A 
ATOM     63  C   UNL A   1      43.121  30.814  30.055  1.00  0.00     0.049 A 
ATOM     64  H   UNL A   1      42.994  28.823  29.368  1.00  0.00     0.167 HD
ATOM     65  C   UNL A   1      45.481  30.050  29.989  1.00  0.00     0.074 A 
ATOM     66  C   UNL A   1      46.906  30.259  30.148  1.00  0.00     0.031 C 
ATOM     67  C   UNL A   1      44.541  30.999  30.213  1.00  0.00     0.037 A 
BRANCH  54  68
ATOM     68  C   UNL A   1      38.751  29.158  29.088  1.00  0.00     0.057 A 
ATOM     69  C   UNL A   1      38.149  29.595  27.901  1.00  0.00     0.134 A 
ATOM     70  C   UNL A   1      37.936  29.041  30.221  1.00  0.00     0.134 A 
ATOM     71  F   UNL A   1      38.878  29.742  26.784  1.00  0.00    -0.206 F 
ATOM     72  C   UNL A   1      36.796  29.931  27.849  1.00  0.00     0.040 A 
ATOM     73  C   UNL A   1      36.576  29.351  30.175  1.00  0.00     0.040 A 
ATOM     74  F   UNL A   1      38.448  28.624  31.389  1.00  0.00    -0.206 F 
ATOM     75  C   UNL A   1      36.004  29.803  28.988  1.00  0.00     0.006 A 
ENDBRANCH  54  68
BRANCH  55  76
ATOM     76  C   UNL A   1      48.365  26.454  29.069  1.00  0.00     0.057 A 
ATOM     77  C   UNL A   1      48.980  25.865  30.179  1.00  0.00     0.134 A 
ATOM     78  C   UNL A   1      49.154  26.666  27.931  1.00  0.00     0.134 A 
ATOM     79  F   UNL A   1      48.280  25.653  31.304  1.00  0.00    -0.206 F 
ATOM     80  C   UNL A   1      50.331  25.515  30.168  1.00  0.00     0.040 A 
ATOM     81  C   UNL A   1      50.501  26.300  27.898  1.00  0.00     0.040 A 
ATOM     82  F   UNL A   1      48.622  27.220  26.833  1.00  0.00    -0.206 F 
ATOM     83  C   UNL A   1      51.094  25.728  29.022  1.00  0.00     0.006 A 
ENDBRANCH  55  76
BRANCH  67  84
ATOM     84  C   UNL A   1      45.021  32.339  30.679  1.00  0.00     0.057 A 
ATOM     85  C   UNL A   1      45.302  33.373  29.779  1.00  0.00     0.134 A 
ATOM     86  C   UNL A   1      45.152  32.614  32.046  1.00  0.00     0.134 A 
ATOM     87  F   UNL A   1      45.209  33.167  28.456  1.00  0.00    -0.206 F 
ATOM     88  C   UNL A   1      45.710  34.633  30.222  1.00  0.00     0.040 A 
ATOM     89  C   UNL A   1      45.537  33.874  32.502  1.00  0.00     0.040 A 
ATOM     90  F   UNL A   1      44.891  31.666  32.959  1.00  0.00    -0.206 F 
ATOM     91  C   UNL A   1      45.820  34.887  31.588  1.00  0.00     0.006 A 
ENDBRANCH  67  84
ENDBRANCH  41  42
ENDBRANCH  33  36
ENDBRANCH  31  32
ENDBRANCH  30  31
ENDBRANCH   1  30
TORSDOF 15
ENDMDL
MODEL 3
REMARK VINA RESULT:     -12.4      4.076      6.755
REMARK SMILES C[C@H]1N=N[C@H](S/C(=C/c2ccc(-c3cccc(Cl)c3)o2)C(=O)NCCCCNC(=O)c2ccc(-c3c4nc(c(-c5c(F)cccc5F)c5ccc([nH]5)c(-c5c(F)cccc5F)c5nc(c(-c6c(F)cccc6F)c6ccc3[nH]6)C=C5)C=C4)cc2)[NH2+]1
REMARK SMILES IDX 25 1 24 2 23 3 21 4 22 5 7 7 8 8 6 9 5 10 1 11 2 12 3 13
REMARK SMILES IDX 85 14 4 15 9 18 10 19 20 20 11 21 12 22 13 23 14 24 19 25
REMARK SMILES IDX 15 26 17 27 16 28 18 29 26 30 27 31 28 32 29 33 30 35 31 36
REMARK SMILES IDX 32 37 84 38 33 39 83 40 34 41 35 42 36 43 77 44 37 45 82 46
REMARK SMILES IDX 76 47 78 48 38 49 81 50 75 51 74 52 39 54 65 55 48 56 64 57
REMARK SMILES IDX 49 58 52 59 63 60 79 61 50 62 51 63 62 65 80 66 53 67 40 68
REMARK SMILES IDX 41 69 46 70 42 71 43 72 45 73 47 74 44 75 66 76 67 77 72 78
REMARK SMILES IDX 68 79 69 80 71 81 73 82 70 83 54 84 55 85 60 86 56 87 57 88
REMARK SMILES IDX 59 89 61 90 58 91
REMARK H PARENT 23 6 85 16 85 17 28 34 78 53 52 64
REMARK Flexibility Score: inf
ROOT
ATOM      1  C   UNL A   1      31.960  27.822  27.146  1.00  0.00     0.023 C 
ENDROOT
BRANCH   1   2
ATOM      2  C   UNL A   1      31.704  26.484  26.468  1.00  0.00     0.116 C 
BRANCH   2   3
ATOM      3  N   UNL A   1      30.492  26.357  25.696  1.00  0.00    -0.352 N 
ATOM      4  C   UNL A   1      30.264  26.729  24.394  1.00  0.00     0.258 C 
ATOM      5  O   UNL A   1      29.237  26.306  23.858  1.00  0.00    -0.269 OA
ATOM      6  H   UNL A   1      29.728  25.949  26.162  1.00  0.00     0.163 HD
BRANCH   4   7
ATOM      7  C   UNL A   1      31.168  27.699  23.654  1.00  0.00     0.084 C 
ATOM      8  C   UNL A   1      32.235  27.385  22.896  1.00  0.00     0.068 C 
BRANCH   7   9
ATOM      9  S   UNL A   1      30.604  29.365  23.847  1.00  0.00    -0.030 SA
BRANCH   9  10
ATOM     10  C   UNL A   1      29.333  29.630  22.562  1.00  0.00     0.393 C 
ATOM     11  C   UNL A   1      28.068  32.811  21.572  1.00  0.00     0.106 C 
ATOM     12  C   UNL A   1      28.600  31.740  22.511  1.00  0.00     0.324 C 
ATOM     13  N   UNL A   1      27.502  30.869  22.956  1.00  0.00    -0.126 NA
ATOM     14  N   UNL A   1      29.593  30.889  21.854  1.00  0.00    -0.293 N 
ATOM     15  N   UNL A   1      27.930  29.689  23.038  1.00  0.00    -0.115 NA
ATOM     16  H   UNL A   1      30.544  31.225  22.008  1.00  0.00     0.350 HD
ATOM     17  H   UNL A   1      29.521  30.840  20.838  1.00  0.00     0.350 HD
ENDBRANCH   9  10
ENDBRANCH   7   9
BRANCH   8  18
ATOM     18  C   UNL A   1      32.755  26.092  22.662  1.00  0.00     0.128 A 
ATOM     19  C   UNL A   1      32.497  25.156  21.672  1.00  0.00     0.051 A 
ATOM     20  O   UNL A   1      33.713  25.565  23.494  1.00  0.00    -0.457 OA
ATOM     21  C   UNL A   1      33.296  24.013  21.947  1.00  0.00     0.051 A 
ATOM     22  C   UNL A   1      33.987  24.291  23.107  1.00  0.00     0.134 A 
BRANCH  22  23
ATOM     23  C   UNL A   1      34.819  23.516  24.021  1.00  0.00     0.019 A 
ATOM     24  C   UNL A   1      36.080  23.057  23.626  1.00  0.00     0.012 A 
ATOM     25  C   UNL A   1      34.320  23.116  25.273  1.00  0.00     0.032 A 
ATOM     26  C   UNL A   1      36.817  22.199  24.448  1.00  0.00     0.002 A 
ATOM     27  C   UNL A   1      35.052  22.244  26.081  1.00  0.00     0.041 A 
ATOM     28  C   UNL A   1      36.298  21.781  25.672  1.00  0.00     0.020 A 
ATOM     29  Cl  UNL A   1      34.385  21.704  27.573  1.00  0.00    -0.084 Cl
ENDBRANCH  22  23
ENDBRANCH   8  18
ENDBRANCH   4   7
ENDBRANCH   2   3
ENDBRANCH   1   2
BRANCH   1  30
ATOM     30  C   UNL A   1      33.415  28.285  27.257  1.00  0.00     0.023 C 
BRANCH  30  31
ATOM     31  C   UNL A   1      33.770  29.695  26.787  1.00  0.00     0.116 C 
BRANCH  31  32
ATOM     32  N   UNL A   1      33.843  30.712  27.827  1.00  0.00    -0.352 N 
ATOM     33  C   UNL A   1      34.886  31.078  28.653  1.00  0.00     0.251 C 
ATOM     34  H   UNL A   1      33.011  31.222  27.964  1.00  0.00     0.163 HD
ATOM     35  O   UNL A   1      34.794  32.038  29.401  1.00  0.00    -0.269 OA
BRANCH  33  36
ATOM     36  C   UNL A   1      36.115  30.264  28.690  1.00  0.00     0.039 A 
ATOM     37  C   UNL A   1      36.978  30.320  27.591  1.00  0.00     0.014 A 
ATOM     38  C   UNL A   1      36.447  29.510  29.813  1.00  0.00     0.014 A 
ATOM     39  C   UNL A   1      38.242  29.738  27.678  1.00  0.00     0.010 A 
ATOM     40  C   UNL A   1      37.736  29.005  29.933  1.00  0.00     0.010 A 
ATOM     41  C   UNL A   1      38.656  29.148  28.881  1.00  0.00    -0.014 A 
BRANCH  41  42
ATOM     42  C   UNL A   1      40.066  28.737  29.097  1.00  0.00     0.031 A 
ATOM     43  C   UNL A   1      41.063  29.722  29.632  1.00  0.00     0.074 A 
ATOM     44  C   UNL A   1      40.465  27.515  28.694  1.00  0.00     0.049 A 
ATOM     45  N   UNL A   1      42.362  29.607  29.738  1.00  0.00    -0.248 NA
ATOM     46  C   UNL A   1      40.533  31.021  30.074  1.00  0.00     0.031 C 
ATOM     47  C   UNL A   1      39.599  26.489  28.106  1.00  0.00     0.029 A 
ATOM     48  N   UNL A   1      41.709  26.934  28.694  1.00  0.00    -0.354 N 
ATOM     49  C   UNL A   1      42.807  30.826  30.231  1.00  0.00     0.074 A 
ATOM     50  C   UNL A   1      41.646  31.680  30.363  1.00  0.00     0.031 C 
ATOM     51  C   UNL A   1      40.333  25.402  27.821  1.00  0.00     0.029 A 
ATOM     52  C   UNL A   1      41.726  25.668  28.159  1.00  0.00     0.049 A 
ATOM     53  H   UNL A   1      42.513  27.382  29.044  1.00  0.00     0.167 HD
ATOM     54  C   UNL A   1      44.068  31.193  30.559  1.00  0.00     0.037 A 
ATOM     55  C   UNL A   1      42.753  24.823  27.950  1.00  0.00     0.037 A 
ATOM     56  C   UNL A   1      45.213  30.327  30.458  1.00  0.00     0.049 A 
ATOM     57  C   UNL A   1      44.142  25.252  28.329  1.00  0.00     0.074 A 
ATOM     58  C   UNL A   1      46.521  30.579  30.833  1.00  0.00     0.029 A 
ATOM     59  N   UNL A   1      45.184  29.039  29.942  1.00  0.00    -0.354 N 
ATOM     60  N   UNL A   1      44.540  26.386  28.851  1.00  0.00    -0.248 NA
ATOM     61  C   UNL A   1      45.223  24.286  28.088  1.00  0.00     0.031 C 
ATOM     62  C   UNL A   1      47.290  29.455  30.514  1.00  0.00     0.029 A 
ATOM     63  C   UNL A   1      46.454  28.490  29.974  1.00  0.00     0.049 A 
ATOM     64  H   UNL A   1      44.379  28.583  29.605  1.00  0.00     0.167 HD
ATOM     65  C   UNL A   1      45.913  26.264  29.021  1.00  0.00     0.074 A 
ATOM     66  C   UNL A   1      46.277  24.940  28.558  1.00  0.00     0.031 C 
ATOM     67  C   UNL A   1      46.793  27.168  29.515  1.00  0.00     0.037 A 
BRANCH  54  68
ATOM     68  C   UNL A   1      44.269  32.590  31.064  1.00  0.00     0.057 A 
ATOM     69  C   UNL A   1      44.544  33.655  30.197  1.00  0.00     0.134 A 
ATOM     70  C   UNL A   1      44.166  32.878  32.431  1.00  0.00     0.134 A 
ATOM     71  F   UNL A   1      44.669  33.443  28.878  1.00  0.00    -0.206 F 
ATOM     72  C   UNL A   1      44.740  34.952  30.673  1.00  0.00     0.040 A 
ATOM     73  C   UNL A   1      44.335  34.176  32.916  1.00  0.00     0.040 A 
ATOM     74  F   UNL A   1      43.900  31.905  33.315  1.00  0.00    -0.206 F 
ATOM     75  C   UNL A   1      44.629  35.216  32.036  1.00  0.00     0.006 A 
ENDBRANCH  54  68
BRANCH  55  76
ATOM     76  C   UNL A   1      42.505  23.482  27.364  1.00  0.00     0.057 A 
ATOM     77  C   UNL A   1      42.133  22.403  28.174  1.00  0.00     0.134 A 
ATOM     78  C   UNL A   1      42.634  23.244  25.990  1.00  0.00     0.134 A 
ATOM     79  F   UNL A   1      42.011  22.567  29.500  1.00  0.00    -0.206 F 
ATOM     80  C   UNL A   1      41.913  21.131  27.644  1.00  0.00     0.040 A 
ATOM     81  C   UNL A   1      42.395  21.981  25.443  1.00  0.00     0.040 A 
ATOM     82  F   UNL A   1      42.981  24.237  25.160  1.00  0.00    -0.206 F 
ATOM     83  C   UNL A   1      42.039  20.920  26.273  1.00  0.00     0.006 A 
ENDBRANCH  55  76
BRANCH  67  84
ATOM     84  C   UNL A   1      48.228  26.746  29.604  1.00  0.00     0.057 A 
ATOM     85  C   UNL A   1      49.148  27.053  28.595  1.00  0.00     0.134 A 
ATOM     86  C   UNL A   1      48.704  26.071  30.736  1.00  0.00     0.134 A 
ATOM     87  F   UNL A   1      48.751  27.684  27.481  1.00  0.00    -0.206 F 
ATOM     88  C   UNL A   1      50.493  26.692  28.703  1.00  0.00     0.040 A 
ATOM     89  C   UNL A   1      50.049  25.726  30.865  1.00  0.00     0.040 A 
ATOM     90  F   UNL A   1      47.872  25.755  31.739  1.00  0.00    -0.206 F 
ATOM     91  C   UNL A   1      50.947  26.034  29.845  1.00  0.00     0.006 A 
ENDBRANCH  67  84
ENDBRANCH  41  42
ENDBRANCH  33  36
ENDBRANCH  31  32
ENDBRANCH  30  31
ENDBRANCH   1  30
TORSDOF 15
ENDMDL
