MODEL 1
REMARK VINA RESULT:     -11.0      0.000      0.000
REMARK SMILES CCNC(=O)NC(=O)[C@@H](C)[NH2+][C@](C)(CC)C(=O)NCCCCNC(=O)c1ccc(-c2c3nc(c(-c4c(F)cccc4F)c4ccc([nH]4)c(-c4c(F)cccc4F)c4nc(c(-c5c(F)cccc5F)c5ccc2[nH]5)C=C4)C=C3)cc1
REMARK SMILES IDX 19 1 18 2 16 3 17 4 12 6 13 7 11 8 9 11 10 12 7 13 3 14 4 15
REMARK SMILES IDX 5 17 6 18 8 20 2 21 1 22 14 23 15 24 20 25 21 26 22 27 23 28
REMARK SMILES IDX 24 29 25 31 26 32 27 33 79 34 28 35 78 36 29 37 30 38 31 39
REMARK SMILES IDX 72 40 32 41 77 42 71 43 73 44 33 45 76 46 70 47 69 48 34 50
REMARK SMILES IDX 60 51 43 52 59 53 44 54 47 55 58 56 74 57 45 58 46 59 57 61
REMARK SMILES IDX 75 62 48 63 35 64 36 65 41 66 37 67 38 68 40 69 42 70 39 71
REMARK SMILES IDX 61 72 62 73 67 74 63 75 64 76 66 77 68 78 65 79 49 80 50 81
REMARK SMILES IDX 55 82 51 83 52 84 54 85 56 86 53 87
REMARK H PARENT 18 5 11 9 11 10 3 16 6 19 23 30 73 49 47 60
REMARK Flexibility Score: inf
ROOT
ATOM      1  C   UNL A   1      35.425  21.138  25.067  1.00  0.00     0.116 C 
ENDROOT
BRANCH   1   2
ATOM      2  N   UNL A   1      34.704  21.254  26.314  1.00  0.00    -0.351 N 
ATOM      3  C   UNL A   1      33.935  22.257  26.822  1.00  0.00     0.281 C 
ATOM      4  O   UNL A   1      33.572  22.113  27.993  1.00  0.00    -0.268 OA
ATOM      5  H   UNL A   1      34.784  20.468  26.902  1.00  0.00     0.163 HD
BRANCH   3   6
ATOM      6  C   UNL A   1      33.475  23.479  25.938  1.00  0.00     0.173 C 
ATOM      7  C   UNL A   1      32.240  24.083  26.649  1.00  0.00     0.090 C 
BRANCH   6   8
ATOM      8  N   UNL A   1      32.934  22.914  24.666  1.00  0.00    -0.324 N 
ATOM      9  H   UNL A   1      33.740  22.566  24.146  1.00  0.00     0.347 HD
ATOM     10  H   UNL A   1      32.237  22.254  25.010  1.00  0.00     0.347 HD
BRANCH   8  11
ATOM     11  C   UNL A   1      32.149  23.717  23.717  1.00  0.00     0.270 C 
ATOM     12  C   UNL A   1      30.619  23.712  23.749  1.00  0.00     0.086 C 
BRANCH  11  13
ATOM     13  C   UNL A   1      32.613  23.338  22.303  1.00  0.00     0.285 C 
ATOM     14  N   UNL A   1      32.161  26.586  21.276  1.00  0.00    -0.338 N 
ATOM     15  C   UNL A   1      32.581  25.471  20.683  1.00  0.00     0.321 C 
ATOM     16  H   UNL A   1      32.286  27.378  20.705  1.00  0.00     0.165 HD
ATOM     17  O   UNL A   1      32.909  25.578  19.494  1.00  0.00    -0.248 OA
ATOM     18  N   UNL A   1      32.706  24.221  21.227  1.00  0.00    -0.273 N 
ATOM     19  H   UNL A   1      33.019  23.662  20.480  1.00  0.00     0.175 HD
ATOM     20  O   UNL A   1      32.901  22.154  22.067  1.00  0.00    -0.268 OA
BRANCH  14  21
ATOM     21  C   UNL A   1      31.568  26.922  22.542  1.00  0.00     0.114 C 
ATOM     22  C   UNL A   1      31.862  28.344  22.974  1.00  0.00     0.027 C 
ENDBRANCH  14  21
ENDBRANCH  11  13
ENDBRANCH   8  11
ENDBRANCH   6   8
BRANCH   6  23
ATOM     23  C   UNL A   1      34.572  24.565  25.839  1.00  0.00     0.075 C 
ATOM     24  C   UNL A   1      34.043  25.992  25.696  1.00  0.00     0.011 C 
ENDBRANCH   6  23
ENDBRANCH   3   6
ENDBRANCH   1   2
BRANCH   1  25
ATOM     25  C   UNL A   1      36.868  21.618  25.208  1.00  0.00     0.023 C 
BRANCH  25  26
ATOM     26  C   UNL A   1      37.914  20.528  24.994  1.00  0.00     0.023 C 
BRANCH  26  27
ATOM     27  C   UNL A   1      39.157  20.658  25.862  1.00  0.00     0.116 C 
BRANCH  27  28
ATOM     28  N   UNL A   1      39.975  19.453  25.866  1.00  0.00    -0.352 N 
ATOM     29  C   UNL A   1      41.329  19.334  26.067  1.00  0.00     0.251 C 
ATOM     30  H   UNL A   1      39.492  18.611  25.703  1.00  0.00     0.163 HD
ATOM     31  O   UNL A   1      41.896  18.262  25.917  1.00  0.00    -0.269 OA
BRANCH  29  32
ATOM     32  C   UNL A   1      42.092  20.542  26.427  1.00  0.00     0.039 A 
ATOM     33  C   UNL A   1      42.644  21.318  25.405  1.00  0.00     0.014 A 
ATOM     34  C   UNL A   1      42.178  20.947  27.761  1.00  0.00     0.014 A 
ATOM     35  C   UNL A   1      43.208  22.553  25.716  1.00  0.00     0.010 A 
ATOM     36  C   UNL A   1      42.673  22.210  28.059  1.00  0.00     0.010 A 
ATOM     37  C   UNL A   1      43.179  23.028  27.038  1.00  0.00    -0.014 A 
BRANCH  37  38
ATOM     38  C   UNL A   1      43.644  24.395  27.374  1.00  0.00     0.031 A 
ATOM     39  C   UNL A   1      42.656  25.445  27.786  1.00  0.00     0.074 A 
ATOM     40  C   UNL A   1      44.944  24.709  27.213  1.00  0.00     0.049 A 
ATOM     41  N   UNL A   1      42.853  26.716  28.023  1.00  0.00    -0.248 NA
ATOM     42  C   UNL A   1      41.255  25.016  27.916  1.00  0.00     0.031 C 
ATOM     43  C   UNL A   1      45.988  23.790  26.756  1.00  0.00     0.029 A 
ATOM     44  N   UNL A   1      45.605  25.898  27.392  1.00  0.00    -0.354 N 
ATOM     45  C   UNL A   1      41.601  27.240  28.315  1.00  0.00     0.074 A 
ATOM     46  C   UNL A   1      40.645  26.163  28.173  1.00  0.00     0.031 C 
ATOM     47  C   UNL A   1      47.158  24.445  26.700  1.00  0.00     0.029 A 
ATOM     48  C   UNL A   1      46.941  25.838  27.080  1.00  0.00     0.049 A 
ATOM     49  H   UNL A   1      45.163  26.716  27.716  1.00  0.00     0.167 HD
ATOM     50  C   UNL A   1      41.281  28.502  28.688  1.00  0.00     0.037 A 
ATOM     51  C   UNL A   1      47.882  26.800  27.083  1.00  0.00     0.037 A 
ATOM     52  C   UNL A   1      42.239  29.564  28.847  1.00  0.00     0.049 A 
ATOM     53  C   UNL A   1      47.505  28.193  27.502  1.00  0.00     0.074 A 
ATOM     54  C   UNL A   1      42.028  30.854  29.298  1.00  0.00     0.029 A 
ATOM     55  N   UNL A   1      43.590  29.458  28.548  1.00  0.00    -0.354 N 
ATOM     56  N   UNL A   1      46.332  28.656  27.860  1.00  0.00    -0.248 NA
ATOM     57  C   UNL A   1      48.580  29.194  27.521  1.00  0.00     0.031 C 
ATOM     58  C   UNL A   1      43.245  31.543  29.231  1.00  0.00     0.029 A 
ATOM     59  C   UNL A   1      44.221  30.669  28.777  1.00  0.00     0.049 A 
ATOM     60  H   UNL A   1      44.034  28.642  28.221  1.00  0.00     0.167 HD
ATOM     61  C   UNL A   1      46.528  29.998  28.161  1.00  0.00     0.074 A 
ATOM     62  C   UNL A   1      47.938  30.269  27.960  1.00  0.00     0.031 C 
ATOM     63  C   UNL A   1      45.624  30.922  28.564  1.00  0.00     0.037 A 
BRANCH  50  64
ATOM     64  C   UNL A   1      39.832  28.795  28.947  1.00  0.00     0.057 A 
ATOM     65  C   UNL A   1      39.275  28.687  30.228  1.00  0.00     0.134 A 
ATOM     66  C   UNL A   1      38.987  29.200  27.907  1.00  0.00     0.134 A 
ATOM     67  F   UNL A   1      40.028  28.289  31.266  1.00  0.00    -0.206 F 
ATOM     68  C   UNL A   1      37.922  28.938  30.460  1.00  0.00     0.040 A 
ATOM     69  C   UNL A   1      37.639  29.481  28.132  1.00  0.00     0.040 A 
ATOM     70  F   UNL A   1      39.457  29.328  26.657  1.00  0.00    -0.206 F 
ATOM     71  C   UNL A   1      37.101  29.342  29.410  1.00  0.00     0.006 A 
ENDBRANCH  50  64
BRANCH  51  72
ATOM     72  C   UNL A   1      49.272  26.471  26.682  1.00  0.00     0.057 A 
ATOM     73  C   UNL A   1      50.182  25.937  27.601  1.00  0.00     0.134 A 
ATOM     74  C   UNL A   1      49.717  26.666  25.369  1.00  0.00     0.134 A 
ATOM     75  F   UNL A   1      49.818  25.744  28.877  1.00  0.00    -0.206 F 
ATOM     76  C   UNL A   1      51.489  25.616  27.231  1.00  0.00     0.040 A 
ATOM     77  C   UNL A   1      51.015  26.329  24.980  1.00  0.00     0.040 A 
ATOM     78  F   UNL A   1      48.889  27.166  24.440  1.00  0.00    -0.206 F 
ATOM     79  C   UNL A   1      51.906  25.806  25.916  1.00  0.00     0.006 A 
ENDBRANCH  51  72
BRANCH  63  80
ATOM     80  C   UNL A   1      46.130  32.309  28.825  1.00  0.00     0.057 A 
ATOM     81  C   UNL A   1      46.138  33.288  27.825  1.00  0.00     0.134 A 
ATOM     82  C   UNL A   1      46.571  32.681  30.101  1.00  0.00     0.134 A 
ATOM     83  F   UNL A   1      45.742  32.990  26.578  1.00  0.00    -0.206 F 
ATOM     84  C   UNL A   1      46.578  34.588  28.080  1.00  0.00     0.040 A 
ATOM     85  C   UNL A   1      46.990  33.983  30.376  1.00  0.00     0.040 A 
ATOM     86  F   UNL A   1      46.582  31.791  31.105  1.00  0.00    -0.206 F 
ATOM     87  C   UNL A   1      46.999  34.940  29.362  1.00  0.00     0.006 A 
ENDBRANCH  63  80
ENDBRANCH  37  38
ENDBRANCH  29  32
ENDBRANCH  27  28
ENDBRANCH  26  27
ENDBRANCH  25  26
ENDBRANCH   1  25
TORSDOF 16
ENDMDL
MODEL 2
REMARK VINA RESULT:     -11.0      5.006     10.129
REMARK SMILES CCNC(=O)NC(=O)[C@@H](C)[NH2+][C@](C)(CC)C(=O)NCCCCNC(=O)c1ccc(-c2c3nc(c(-c4c(F)cccc4F)c4ccc([nH]4)c(-c4c(F)cccc4F)c4nc(c(-c5c(F)cccc5F)c5ccc2[nH]5)C=C4)C=C3)cc1
REMARK SMILES IDX 19 1 18 2 16 3 17 4 12 6 13 7 11 8 9 11 10 12 7 13 3 14 4 15
REMARK SMILES IDX 5 17 6 18 8 20 2 21 1 22 14 23 15 24 20 25 21 26 22 27 23 28
REMARK SMILES IDX 24 29 25 31 26 32 27 33 79 34 28 35 78 36 29 37 30 38 31 39
REMARK SMILES IDX 72 40 32 41 77 42 71 43 73 44 33 45 76 46 70 47 69 48 34 50
REMARK SMILES IDX 60 51 43 52 59 53 44 54 47 55 58 56 74 57 45 58 46 59 57 61
REMARK SMILES IDX 75 62 48 63 35 64 36 65 41 66 37 67 38 68 40 69 42 70 39 71
REMARK SMILES IDX 61 72 62 73 67 74 63 75 64 76 66 77 68 78 65 79 49 80 50 81
REMARK SMILES IDX 55 82 51 83 52 84 54 85 56 86 53 87
REMARK H PARENT 18 5 11 9 11 10 3 16 6 19 23 30 73 49 47 60
REMARK Flexibility Score: inf
ROOT
ATOM      1  C   UNL A   1      32.721  29.793  25.878  1.00  0.00     0.116 C 
ENDROOT
BRANCH   1   2
ATOM      2  N   UNL A   1      33.267  29.466  24.580  1.00  0.00    -0.351 N 
ATOM      3  C   UNL A   1      33.559  28.269  24.000  1.00  0.00     0.281 C 
ATOM      4  O   UNL A   1      34.161  28.328  22.924  1.00  0.00    -0.268 OA
ATOM      5  H   UNL A   1      33.464  30.248  24.015  1.00  0.00     0.163 HD
BRANCH   3   6
ATOM      6  C   UNL A   1      33.082  26.904  24.629  1.00  0.00     0.173 C 
ATOM      7  C   UNL A   1      33.637  26.879  26.074  1.00  0.00     0.090 C 
BRANCH   6   8
ATOM      8  N   UNL A   1      33.827  25.819  23.925  1.00  0.00    -0.324 N 
ATOM      9  H   UNL A   1      33.272  25.583  23.102  1.00  0.00     0.347 HD
ATOM     10  H   UNL A   1      34.747  26.241  23.804  1.00  0.00     0.347 HD
BRANCH   8  11
ATOM     11  C   UNL A   1      34.163  24.543  24.573  1.00  0.00     0.270 C 
ATOM     12  C   UNL A   1      35.543  24.303  25.188  1.00  0.00     0.086 C 
BRANCH  11  13
ATOM     13  C   UNL A   1      33.875  23.424  23.559  1.00  0.00     0.285 C 
ATOM     14  N   UNL A   1      32.281  21.609  26.003  1.00  0.00    -0.338 N 
ATOM     15  C   UNL A   1      32.527  21.416  24.710  1.00  0.00     0.321 C 
ATOM     16  H   UNL A   1      31.672  20.928  26.369  1.00  0.00     0.165 HD
ATOM     17  O   UNL A   1      32.091  20.363  24.224  1.00  0.00    -0.248 OA
ATOM     18  N   UNL A   1      33.195  22.241  23.845  1.00  0.00    -0.273 N 
ATOM     19  H   UNL A   1      33.194  21.750  22.992  1.00  0.00     0.175 HD
ATOM     20  O   UNL A   1      34.301  23.547  22.400  1.00  0.00    -0.268 OA
BRANCH  14  21
ATOM     21  C   UNL A   1      32.685  22.563  26.999  1.00  0.00     0.114 C 
ATOM     22  C   UNL A   1      33.970  22.177  27.703  1.00  0.00     0.027 C 
ENDBRANCH  14  21
ENDBRANCH  11  13
ENDBRANCH   8  11
ENDBRANCH   6   8
BRANCH   6  23
ATOM     23  C   UNL A   1      31.539  26.803  24.687  1.00  0.00     0.075 C 
ATOM     24  C   UNL A   1      30.977  26.451  26.065  1.00  0.00     0.011 C 
ENDBRANCH   6  23
ENDBRANCH   3   6
ENDBRANCH   1   2
BRANCH   1  25
ATOM     25  C   UNL A   1      31.354  30.462  25.756  1.00  0.00     0.023 C 
BRANCH  25  26
ATOM     26  C   UNL A   1      31.219  31.759  26.549  1.00  0.00     0.023 C 
BRANCH  26  27
ATOM     27  C   UNL A   1      32.458  32.642  26.542  1.00  0.00     0.116 C 
BRANCH  27  28
ATOM     28  N   UNL A   1      32.280  33.875  27.296  1.00  0.00    -0.352 N 
ATOM     29  C   UNL A   1      33.040  34.367  28.331  1.00  0.00     0.251 C 
ATOM     30  H   UNL A   1      31.513  34.430  27.029  1.00  0.00     0.163 HD
ATOM     31  O   UNL A   1      32.692  35.361  28.950  1.00  0.00    -0.269 OA
BRANCH  29  32
ATOM     32  C   UNL A   1      34.267  33.642  28.705  1.00  0.00     0.039 A 
ATOM     33  C   UNL A   1      35.490  34.312  28.642  1.00  0.00     0.014 A 
ATOM     34  C   UNL A   1      34.188  32.338  29.201  1.00  0.00     0.014 A 
ATOM     35  C   UNL A   1      36.629  33.702  29.163  1.00  0.00     0.010 A 
ATOM     36  C   UNL A   1      35.308  31.764  29.787  1.00  0.00     0.010 A 
ATOM     37  C   UNL A   1      36.535  32.446  29.784  1.00  0.00    -0.014 A 
BRANCH  37  38
ATOM     38  C   UNL A   1      37.699  31.838  30.469  1.00  0.00     0.031 A 
ATOM     39  C   UNL A   1      38.506  30.777  29.781  1.00  0.00     0.074 A 
ATOM     40  C   UNL A   1      37.965  32.174  31.746  1.00  0.00     0.049 A 
ATOM     41  N   UNL A   1      39.494  30.059  30.248  1.00  0.00    -0.248 NA
ATOM     42  C   UNL A   1      38.131  30.459  28.395  1.00  0.00     0.031 C 
ATOM     43  C   UNL A   1      37.211  33.146  32.541  1.00  0.00     0.029 A 
ATOM     44  N   UNL A   1      38.930  31.719  32.608  1.00  0.00    -0.354 N 
ATOM     45  C   UNL A   1      39.848  29.195  29.220  1.00  0.00     0.074 A 
ATOM     46  C   UNL A   1      38.935  29.442  28.125  1.00  0.00     0.031 C 
ATOM     47  C   UNL A   1      37.746  33.219  33.769  1.00  0.00     0.029 A 
ATOM     48  C   UNL A   1      38.856  32.275  33.861  1.00  0.00     0.049 A 
ATOM     49  H   UNL A   1      39.612  31.056  32.352  1.00  0.00     0.167 HD
ATOM     50  C   UNL A   1      40.857  28.293  29.186  1.00  0.00     0.037 A 
ATOM     51  C   UNL A   1      39.589  32.040  34.966  1.00  0.00     0.037 A 
ATOM     52  C   UNL A   1      41.774  28.066  30.272  1.00  0.00     0.049 A 
ATOM     53  C   UNL A   1      40.704  31.034  34.904  1.00  0.00     0.074 A 
ATOM     54  C   UNL A   1      42.878  27.234  30.308  1.00  0.00     0.029 A 
ATOM     55  N   UNL A   1      41.685  28.670  31.518  1.00  0.00    -0.354 N 
ATOM     56  N   UNL A   1      41.084  30.286  33.898  1.00  0.00    -0.248 NA
ATOM     57  C   UNL A   1      41.493  30.844  36.128  1.00  0.00     0.031 C 
ATOM     58  C   UNL A   1      43.432  27.301  31.591  1.00  0.00     0.029 A 
ATOM     59  C   UNL A   1      42.697  28.207  32.340  1.00  0.00     0.049 A 
ATOM     60  H   UNL A   1      41.002  29.330  31.778  1.00  0.00     0.167 HD
ATOM     61  C   UNL A   1      42.164  29.546  34.360  1.00  0.00     0.074 A 
ATOM     62  C   UNL A   1      42.390  29.950  35.733  1.00  0.00     0.031 C 
ATOM     63  C   UNL A   1      42.902  28.615  33.708  1.00  0.00     0.037 A 
BRANCH  50  64
ATOM     64  C   UNL A   1      41.013  27.486  27.931  1.00  0.00     0.057 A 
ATOM     65  C   UNL A   1      40.376  26.249  27.764  1.00  0.00     0.134 A 
ATOM     66  C   UNL A   1      41.800  27.955  26.872  1.00  0.00     0.134 A 
ATOM     67  F   UNL A   1      39.619  25.736  28.747  1.00  0.00    -0.206 F 
ATOM     68  C   UNL A   1      40.543  25.492  26.604  1.00  0.00     0.040 A 
ATOM     69  C   UNL A   1      41.952  27.220  25.696  1.00  0.00     0.040 A 
ATOM     70  F   UNL A   1      42.434  29.134  26.964  1.00  0.00    -0.206 F 
ATOM     71  C   UNL A   1      41.329  25.980  25.563  1.00  0.00     0.006 A 
ENDBRANCH  50  64
BRANCH  51  72
ATOM     72  C   UNL A   1      39.291  32.777  36.217  1.00  0.00     0.057 A 
ATOM     73  C   UNL A   1      38.454  32.232  37.197  1.00  0.00     0.134 A 
ATOM     74  C   UNL A   1      39.849  34.036  36.472  1.00  0.00     0.134 A 
ATOM     75  F   UNL A   1      37.876  31.037  37.001  1.00  0.00    -0.206 F 
ATOM     76  C   UNL A   1      38.174  32.914  38.382  1.00  0.00     0.040 A 
ATOM     77  C   UNL A   1      39.596  34.720  37.663  1.00  0.00     0.040 A 
ATOM     78  F   UNL A   1      40.668  34.608  35.577  1.00  0.00    -0.206 F 
ATOM     79  C   UNL A   1      38.751  34.160  38.619  1.00  0.00     0.006 A 
ENDBRANCH  51  72
BRANCH  63  80
ATOM     80  C   UNL A   1      44.026  27.976  34.466  1.00  0.00     0.057 A 
ATOM     81  C   UNL A   1      43.859  26.765  35.146  1.00  0.00     0.134 A 
ATOM     82  C   UNL A   1      45.301  28.556  34.477  1.00  0.00     0.134 A 
ATOM     83  F   UNL A   1      42.658  26.167  35.186  1.00  0.00    -0.206 F 
ATOM     84  C   UNL A   1      44.917  26.156  35.823  1.00  0.00     0.040 A 
ATOM     85  C   UNL A   1      46.373  27.945  35.129  1.00  0.00     0.040 A 
ATOM     86  F   UNL A   1      45.529  29.713  33.839  1.00  0.00    -0.206 F 
ATOM     87  C   UNL A   1      46.181  26.744  35.808  1.00  0.00     0.006 A 
ENDBRANCH  63  80
ENDBRANCH  37  38
ENDBRANCH  29  32
ENDBRANCH  27  28
ENDBRANCH  26  27
ENDBRANCH  25  26
ENDBRANCH   1  25
TORSDOF 16
ENDMDL
MODEL 3
REMARK VINA RESULT:     -10.9      5.565     10.627
REMARK SMILES CCNC(=O)NC(=O)[C@@H](C)[NH2+][C@](C)(CC)C(=O)NCCCCNC(=O)c1ccc(-c2c3nc(c(-c4c(F)cccc4F)c4ccc([nH]4)c(-c4c(F)cccc4F)c4nc(c(-c5c(F)cccc5F)c5ccc2[nH]5)C=C4)C=C3)cc1
REMARK SMILES IDX 19 1 18 2 16 3 17 4 12 6 13 7 11 8 9 11 10 12 7 13 3 14 4 15
REMARK SMILES IDX 5 17 6 18 8 20 2 21 1 22 14 23 15 24 20 25 21 26 22 27 23 28
REMARK SMILES IDX 24 29 25 31 26 32 27 33 79 34 28 35 78 36 29 37 30 38 31 39
REMARK SMILES IDX 72 40 32 41 77 42 71 43 73 44 33 45 76 46 70 47 69 48 34 50
REMARK SMILES IDX 60 51 43 52 59 53 44 54 47 55 58 56 74 57 45 58 46 59 57 61
REMARK SMILES IDX 75 62 48 63 35 64 36 65 41 66 37 67 38 68 40 69 42 70 39 71
REMARK SMILES IDX 61 72 62 73 67 74 63 75 64 76 66 77 68 78 65 79 49 80 50 81
REMARK SMILES IDX 55 82 51 83 52 84 54 85 56 86 53 87
REMARK H PARENT 18 5 11 9 11 10 3 16 6 19 23 30 73 49 47 60
REMARK Flexibility Score: inf
ROOT
ATOM      1  C   UNL A   1      32.623  29.701  25.490  1.00  0.00     0.116 C 
ENDROOT
BRANCH   1   2
ATOM      2  N   UNL A   1      31.574  29.800  24.501  1.00  0.00    -0.351 N 
ATOM      3  C   UNL A   1      31.196  28.956  23.501  1.00  0.00     0.281 C 
ATOM      4  O   UNL A   1      30.346  29.396  22.721  1.00  0.00    -0.268 OA
ATOM      5  H   UNL A   1      31.037  30.623  24.560  1.00  0.00     0.163 HD
BRANCH   3   6
ATOM      6  C   UNL A   1      31.752  27.484  23.401  1.00  0.00     0.173 C 
ATOM      7  C   UNL A   1      31.295  26.943  22.024  1.00  0.00     0.090 C 
BRANCH   6   8
ATOM      8  N   UNL A   1      30.993  26.666  24.393  1.00  0.00    -0.324 N 
ATOM      9  H   UNL A   1      31.127  27.121  25.296  1.00  0.00     0.347 HD
ATOM     10  H   UNL A   1      30.063  26.642  23.977  1.00  0.00     0.347 HD
BRANCH   8  11
ATOM     11  C   UNL A   1      31.265  25.237  24.611  1.00  0.00     0.270 C 
ATOM     12  C   UNL A   1      30.671  24.168  23.692  1.00  0.00     0.086 C 
BRANCH  11  13
ATOM     13  C   UNL A   1      30.873  24.912  26.061  1.00  0.00     0.285 C 
ATOM     14  N   UNL A   1      33.499  22.706  26.281  1.00  0.00    -0.338 N 
ATOM     15  C   UNL A   1      32.550  23.113  27.122  1.00  0.00     0.321 C 
ATOM     16  H   UNL A   1      34.178  22.153  26.731  1.00  0.00     0.165 HD
ATOM     17  O   UNL A   1      32.585  22.625  28.259  1.00  0.00    -0.248 OA
ATOM     18  N   UNL A   1      31.544  24.012  26.888  1.00  0.00    -0.273 N 
ATOM     19  H   UNL A   1      31.036  24.032  27.731  1.00  0.00     0.175 HD
ATOM     20  O   UNL A   1      29.868  25.456  26.543  1.00  0.00    -0.268 OA
BRANCH  14  21
ATOM     21  C   UNL A   1      33.778  22.871  24.881  1.00  0.00     0.114 C 
ATOM     22  C   UNL A   1      34.921  23.830  24.615  1.00  0.00     0.027 C 
ENDBRANCH  14  21
ENDBRANCH  11  13
ENDBRANCH   8  11
ENDBRANCH   6   8
BRANCH   6  23
ATOM     23  C   UNL A   1      33.298  27.446  23.462  1.00  0.00     0.075 C 
ATOM     24  C   UNL A   1      33.997  28.187  22.321  1.00  0.00     0.011 C 
ENDBRANCH   6  23
ENDBRANCH   3   6
ENDBRANCH   1   2
BRANCH   1  25
ATOM     25  C   UNL A   1      32.155  30.204  26.853  1.00  0.00     0.023 C 
BRANCH  25  26
ATOM     26  C   UNL A   1      31.819  31.693  26.890  1.00  0.00     0.023 C 
BRANCH  26  27
ATOM     27  C   UNL A   1      32.918  32.580  27.457  1.00  0.00     0.116 C 
BRANCH  27  28
ATOM     28  N   UNL A   1      32.486  33.956  27.663  1.00  0.00    -0.352 N 
ATOM     29  C   UNL A   1      32.996  34.897  28.525  1.00  0.00     0.251 C 
ATOM     30  H   UNL A   1      31.727  34.251  27.110  1.00  0.00     0.163 HD
ATOM     31  O   UNL A   1      32.446  35.977  28.675  1.00  0.00    -0.269 OA
BRANCH  29  32
ATOM     32  C   UNL A   1      34.202  34.556  29.300  1.00  0.00     0.039 A 
ATOM     33  C   UNL A   1      34.052  34.115  30.617  1.00  0.00     0.014 A 
ATOM     34  C   UNL A   1      35.459  34.587  28.692  1.00  0.00     0.014 A 
ATOM     35  C   UNL A   1      35.160  33.618  31.298  1.00  0.00     0.010 A 
ATOM     36  C   UNL A   1      36.546  34.022  29.346  1.00  0.00     0.010 A 
ATOM     37  C   UNL A   1      36.402  33.521  30.650  1.00  0.00    -0.014 A 
BRANCH  37  38
ATOM     38  C   UNL A   1      37.562  32.868  31.302  1.00  0.00     0.031 A 
ATOM     39  C   UNL A   1      38.213  31.678  30.661  1.00  0.00     0.074 A 
ATOM     40  C   UNL A   1      37.962  33.291  32.517  1.00  0.00     0.049 A 
ATOM     41  N   UNL A   1      39.169  30.914  31.121  1.00  0.00    -0.248 NA
ATOM     42  C   UNL A   1      37.697  31.275  29.344  1.00  0.00     0.031 C 
ATOM     43  C   UNL A   1      37.365  34.397  33.268  1.00  0.00     0.029 A 
ATOM     44  N   UNL A   1      38.951  32.824  33.344  1.00  0.00    -0.354 N 
ATOM     45  C   UNL A   1      39.359  29.932  30.158  1.00  0.00     0.074 A 
ATOM     46  C   UNL A   1      38.383  30.165  29.115  1.00  0.00     0.031 C 
ATOM     47  C   UNL A   1      38.004  34.528  34.440  1.00  0.00     0.029 A 
ATOM     48  C   UNL A   1      39.031  33.495  34.540  1.00  0.00     0.049 A 
ATOM     49  H   UNL A   1      39.548  32.079  33.104  1.00  0.00     0.167 HD
ATOM     50  C   UNL A   1      40.278  28.937  30.136  1.00  0.00     0.037 A 
ATOM     51  C   UNL A   1      39.830  33.291  35.604  1.00  0.00     0.037 A 
ATOM     52  C   UNL A   1      41.259  28.723  31.167  1.00  0.00     0.049 A 
ATOM     53  C   UNL A   1      40.843  32.182  35.557  1.00  0.00     0.074 A 
ATOM     54  C   UNL A   1      42.285  27.796  31.201  1.00  0.00     0.029 A 
ATOM     55  N   UNL A   1      41.327  29.442  32.352  1.00  0.00    -0.354 N 
ATOM     56  N   UNL A   1      41.071  31.314  34.602  1.00  0.00    -0.248 NA
ATOM     57  C   UNL A   1      41.712  32.029  36.732  1.00  0.00     0.031 C 
ATOM     58  C   UNL A   1      42.948  27.924  32.426  1.00  0.00     0.029 A 
ATOM     59  C   UNL A   1      42.360  28.960  33.138  1.00  0.00     0.049 A 
ATOM     60  H   UNL A   1      40.729  30.185  32.597  1.00  0.00     0.167 HD
ATOM     61  C   UNL A   1      42.117  30.519  35.052  1.00  0.00     0.074 A 
ATOM     62  C   UNL A   1      42.491  31.021  36.359  1.00  0.00     0.031 C 
ATOM     63  C   UNL A   1      42.712  29.467  34.440  1.00  0.00     0.037 A 
BRANCH  50  64
ATOM     64  C   UNL A   1      40.258  28.010  28.957  1.00  0.00     0.057 A 
ATOM     65  C   UNL A   1      39.524  26.817  28.968  1.00  0.00     0.134 A 
ATOM     66  C   UNL A   1      40.972  28.318  27.792  1.00  0.00     0.134 A 
ATOM     67  F   UNL A   1      38.830  26.456  30.059  1.00  0.00    -0.206 F 
ATOM     68  C   UNL A   1      39.526  25.947  27.877  1.00  0.00     0.040 A 
ATOM     69  C   UNL A   1      40.959  27.470  26.684  1.00  0.00     0.040 A 
ATOM     70  F   UNL A   1      41.691  29.448  27.712  1.00  0.00    -0.206 F 
ATOM     71  C   UNL A   1      40.242  26.275  26.728  1.00  0.00     0.006 A 
ENDBRANCH  50  64
BRANCH  51  72
ATOM     72  C   UNL A   1      39.703  34.162  36.797  1.00  0.00     0.057 A 
ATOM     73  C   UNL A   1      40.359  35.397  36.864  1.00  0.00     0.134 A 
ATOM     74  C   UNL A   1      38.910  33.792  37.890  1.00  0.00     0.134 A 
ATOM     75  F   UNL A   1      41.146  35.797  35.856  1.00  0.00    -0.206 F 
ATOM     76  C   UNL A   1      40.239  36.228  37.979  1.00  0.00     0.040 A 
ATOM     77  C   UNL A   1      38.762  34.624  39.001  1.00  0.00     0.040 A 
ATOM     78  F   UNL A   1      38.247  32.626  37.882  1.00  0.00    -0.206 F 
ATOM     79  C   UNL A   1      39.433  35.844  39.049  1.00  0.00     0.006 A 
ENDBRANCH  51  72
BRANCH  63  80
ATOM     80  C   UNL A   1      43.836  28.795  35.171  1.00  0.00     0.057 A 
ATOM     81  C   UNL A   1      45.165  29.198  35.006  1.00  0.00     0.134 A 
ATOM     82  C   UNL A   1      43.579  27.764  36.084  1.00  0.00     0.134 A 
ATOM     83  F   UNL A   1      45.478  30.170  34.135  1.00  0.00    -0.206 F 
ATOM     84  C   UNL A   1      46.204  28.592  35.714  1.00  0.00     0.040 A 
ATOM     85  C   UNL A   1      44.606  27.167  36.816  1.00  0.00     0.040 A 
ATOM     86  F   UNL A   1      42.325  27.335  36.293  1.00  0.00    -0.206 F 
ATOM     87  C   UNL A   1      45.924  27.578  36.628  1.00  0.00     0.006 A 
ENDBRANCH  63  80
ENDBRANCH  37  38
ENDBRANCH  29  32
ENDBRANCH  27  28
ENDBRANCH  26  27
ENDBRANCH  25  26
ENDBRANCH   1  25
TORSDOF 16
ENDMDL
