MODEL 1
REMARK VINA RESULT:     -13.8      0.000      0.000
REMARK SMILES CN1C(=O)C[C@@H](C(=O)NCCCCNC(=O)c2ccc(-c3c4nc(c(-c5c(F)cccc5F)c5ccc([nH]5)c(-c5c(F)cccc5F)c5nc(c(-c6c(F)cccc6F)c6ccc3[nH]6)C=C5)C=C4)cc2)C12CCN(C(=O)c1ccccc1-n1cccn1)CC2
REMARK SMILES IDX 11 1 10 2 9 3 7 4 8 5 6 7 1 8 2 9 3 10 71 11 4 12 5 13 72 14
REMARK SMILES IDX 89 15 73 16 88 17 74 18 75 19 76 20 77 21 78 22 82 23 79 24
REMARK SMILES IDX 81 25 80 26 83 27 84 28 87 29 85 30 86 31 12 32 13 33 14 34
REMARK SMILES IDX 15 35 16 37 17 38 18 39 70 40 19 41 69 42 20 43 21 44 22 45
REMARK SMILES IDX 63 46 23 47 68 48 62 49 64 50 24 51 67 52 61 53 60 54 25 56
REMARK SMILES IDX 51 57 34 58 50 59 35 60 38 61 49 62 65 63 36 64 37 65 48 67
REMARK SMILES IDX 66 68 39 69 26 70 27 71 32 72 28 73 29 74 31 75 33 76 30 77
REMARK SMILES IDX 52 78 53 79 58 80 54 81 55 82 57 83 59 84 56 85 40 86 41 87
REMARK SMILES IDX 46 88 42 89 43 90 45 91 47 92 44 93
REMARK H PARENT 9 6 14 36 64 55 38 66
REMARK Flexibility Score: inf
ROOT
ATOM      1  C   UNL A   1      31.915  30.458  26.829  1.00  0.00     0.023 C 
ENDROOT
BRANCH   1   2
ATOM      2  C   UNL A   1      31.655  29.815  25.462  1.00  0.00     0.116 C 
BRANCH   2   3
ATOM      3  N   UNL A   1      32.832  29.707  24.614  1.00  0.00    -0.356 N 
ATOM      4  C   UNL A   1      33.075  29.143  23.403  1.00  0.00     0.226 C 
ATOM      5  O   UNL A   1      34.220  29.291  22.960  1.00  0.00    -0.275 OA
ATOM      6  H   UNL A   1      33.627  30.137  25.003  1.00  0.00     0.163 HD
BRANCH   4   7
ATOM      7  C   UNL A   1      32.078  28.313  22.583  1.00  0.00     0.113 C 
ATOM      8  C   UNL A   1      29.585  26.475  24.672  1.00  0.00     0.147 C 
ATOM      9  N   UNL A   1      30.328  27.306  23.745  1.00  0.00    -0.339 N 
ATOM     10  C   UNL A   1      29.763  28.431  23.156  1.00  0.00     0.223 C 
ATOM     11  C   UNL A   1      31.636  26.952  23.169  1.00  0.00     0.058 C 
ATOM     12  O   UNL A   1      28.637  28.865  23.342  1.00  0.00    -0.275 OA
ATOM     13  C   UNL A   1      30.792  29.076  22.272  1.00  0.00     0.116 C 
ATOM     14  C   UNL A   1      32.659  26.384  24.176  1.00  0.00     0.051 C 
ATOM     15  C   UNL A   1      31.382  25.885  22.052  1.00  0.00     0.051 C 
ATOM     16  C   UNL A   1      33.905  25.827  23.503  1.00  0.00     0.122 C 
ATOM     17  C   UNL A   1      32.643  25.202  21.516  1.00  0.00     0.122 C 
ATOM     18  N   UNL A   1      33.501  24.760  22.608  1.00  0.00    -0.338 N 
ATOM     19  C   UNL A   1      33.828  23.413  22.756  1.00  0.00     0.256 C 
ATOM     20  O   UNL A   1      33.450  22.528  21.994  1.00  0.00    -0.269 OA
BRANCH  19  21
ATOM     21  C   UNL A   1      34.723  23.016  23.870  1.00  0.00     0.065 A 
ATOM     22  C   UNL A   1      36.080  22.889  23.529  1.00  0.00     0.016 A 
ATOM     23  C   UNL A   1      34.326  22.900  25.212  1.00  0.00     0.077 A 
ATOM     24  C   UNL A   1      37.043  22.690  24.519  1.00  0.00     0.001 A 
ATOM     25  C   UNL A   1      35.314  22.753  26.205  1.00  0.00     0.029 A 
ATOM     26  C   UNL A   1      36.662  22.641  25.857  1.00  0.00     0.002 A 
BRANCH  23  27
ATOM     27  N   UNL A   1      32.970  22.926  25.630  1.00  0.00    -0.240 N 
ATOM     28  C   UNL A   1      31.936  22.083  25.280  1.00  0.00     0.115 A 
ATOM     29  N   UNL A   1      32.545  23.876  26.508  1.00  0.00    -0.177 NA
ATOM     30  C   UNL A   1      30.808  22.533  25.924  1.00  0.00     0.042 A 
ATOM     31  C   UNL A   1      31.240  23.648  26.654  1.00  0.00     0.135 A 
ENDBRANCH  23  27
ENDBRANCH  19  21
ENDBRANCH   4   7
ENDBRANCH   2   3
ENDBRANCH   1   2
BRANCH   1  32
ATOM     32  C   UNL A   1      31.637  31.958  26.893  1.00  0.00     0.023 C 
BRANCH  32  33
ATOM     33  C   UNL A   1      32.826  32.787  27.357  1.00  0.00     0.116 C 
BRANCH  33  34
ATOM     34  N   UNL A   1      32.471  34.170  27.653  1.00  0.00    -0.352 N 
ATOM     35  C   UNL A   1      33.012  35.016  28.586  1.00  0.00     0.251 C 
ATOM     36  H   UNL A   1      31.743  34.547  27.108  1.00  0.00     0.163 HD
ATOM     37  O   UNL A   1      32.508  36.112  28.806  1.00  0.00    -0.269 OA
BRANCH  35  38
ATOM     38  C   UNL A   1      34.196  34.573  29.342  1.00  0.00     0.039 A 
ATOM     39  C   UNL A   1      34.020  34.016  30.610  1.00  0.00     0.014 A 
ATOM     40  C   UNL A   1      35.466  34.658  28.767  1.00  0.00     0.014 A 
ATOM     41  C   UNL A   1      35.119  33.474  31.275  1.00  0.00     0.010 A 
ATOM     42  C   UNL A   1      36.541  34.044  29.392  1.00  0.00     0.010 A 
ATOM     43  C   UNL A   1      36.377  33.450  30.653  1.00  0.00    -0.014 A 
BRANCH  43  44
ATOM     44  C   UNL A   1      37.548  32.815  31.303  1.00  0.00     0.031 A 
ATOM     45  C   UNL A   1      38.204  31.629  30.655  1.00  0.00     0.074 A 
ATOM     46  C   UNL A   1      37.956  33.248  32.510  1.00  0.00     0.049 A 
ATOM     47  N   UNL A   1      39.167  30.869  31.108  1.00  0.00    -0.248 NA
ATOM     48  C   UNL A   1      37.683  31.220  29.340  1.00  0.00     0.031 C 
ATOM     49  C   UNL A   1      37.353  34.349  33.266  1.00  0.00     0.029 A 
ATOM     50  N   UNL A   1      38.965  32.800  33.323  1.00  0.00    -0.354 N 
ATOM     51  C   UNL A   1      39.345  29.880  30.150  1.00  0.00     0.074 A 
ATOM     52  C   UNL A   1      38.359  30.104  29.116  1.00  0.00     0.031 C 
ATOM     53  C   UNL A   1      38.017  34.502  34.423  1.00  0.00     0.029 A 
ATOM     54  C   UNL A   1      39.068  33.493  34.506  1.00  0.00     0.049 A 
ATOM     55  H   UNL A   1      39.561  32.054  33.083  1.00  0.00     0.167 HD
ATOM     56  C   UNL A   1      40.264  28.886  30.124  1.00  0.00     0.037 A 
ATOM     57  C   UNL A   1      39.911  33.324  35.541  1.00  0.00     0.037 A 
ATOM     58  C   UNL A   1      41.272  28.699  31.131  1.00  0.00     0.049 A 
ATOM     59  C   UNL A   1      40.948  32.238  35.470  1.00  0.00     0.074 A 
ATOM     60  C   UNL A   1      42.304  27.778  31.157  1.00  0.00     0.029 A 
ATOM     61  N   UNL A   1      41.376  29.451  32.291  1.00  0.00    -0.354 N 
ATOM     62  N   UNL A   1      41.156  31.357  34.522  1.00  0.00    -0.248 NA
ATOM     63  C   UNL A   1      41.869  32.126  36.609  1.00  0.00     0.031 C 
ATOM     64  C   UNL A   1      43.013  27.951  32.350  1.00  0.00     0.029 A 
ATOM     65  C   UNL A   1      42.445  29.004  33.048  1.00  0.00     0.049 A 
ATOM     66  H   UNL A   1      40.778  30.192  32.540  1.00  0.00     0.167 HD
ATOM     67  C   UNL A   1      42.247  30.604  34.936  1.00  0.00     0.074 A 
ATOM     68  C   UNL A   1      42.664  31.140  36.215  1.00  0.00     0.031 C 
ATOM     69  C   UNL A   1      42.848  29.561  34.314  1.00  0.00     0.037 A 
BRANCH  56  70
ATOM     70  C   UNL A   1      40.226  27.939  28.962  1.00  0.00     0.057 A 
ATOM     71  C   UNL A   1      40.930  28.193  27.778  1.00  0.00     0.134 A 
ATOM     72  C   UNL A   1      39.498  26.745  29.038  1.00  0.00     0.134 A 
ATOM     73  F   UNL A   1      41.633  29.326  27.636  1.00  0.00    -0.206 F 
ATOM     74  C   UNL A   1      40.890  27.306  26.700  1.00  0.00     0.040 A 
ATOM     75  C   UNL A   1      39.472  25.838  27.978  1.00  0.00     0.040 A 
ATOM     76  F   UNL A   1      38.805  26.439  30.145  1.00  0.00    -0.206 F 
ATOM     77  C   UNL A   1      40.165  26.121  26.802  1.00  0.00     0.006 A 
ENDBRANCH  56  70
BRANCH  57  78
ATOM     78  C   UNL A   1      39.830  34.222  36.720  1.00  0.00     0.057 A 
ATOM     79  C   UNL A   1      39.066  33.873  37.839  1.00  0.00     0.134 A 
ATOM     80  C   UNL A   1      40.506  35.447  36.756  1.00  0.00     0.134 A 
ATOM     81  F   UNL A   1      38.382  32.720  37.855  1.00  0.00    -0.206 F 
ATOM     82  C   UNL A   1      38.959  34.719  38.944  1.00  0.00     0.040 A 
ATOM     83  C   UNL A   1      40.427  36.293  37.864  1.00  0.00     0.040 A 
ATOM     84  F   UNL A   1      41.263  35.834  35.718  1.00  0.00    -0.206 F 
ATOM     85  C   UNL A   1      39.644  35.932  38.959  1.00  0.00     0.006 A 
ENDBRANCH  57  78
BRANCH  69  86
ATOM     86  C   UNL A   1      44.039  28.954  34.994  1.00  0.00     0.057 A 
ATOM     87  C   UNL A   1      43.912  27.882  35.884  1.00  0.00     0.134 A 
ATOM     88  C   UNL A   1      45.330  29.419  34.716  1.00  0.00     0.134 A 
ATOM     89  F   UNL A   1      42.700  27.400  36.200  1.00  0.00    -0.206 F 
ATOM     90  C   UNL A   1      45.028  27.304  36.491  1.00  0.00     0.040 A 
ATOM     91  C   UNL A   1      46.455  28.834  35.297  1.00  0.00     0.040 A 
ATOM     92  F   UNL A   1      45.519  30.439  33.864  1.00  0.00    -0.206 F 
ATOM     93  C   UNL A   1      46.305  27.776  36.191  1.00  0.00     0.006 A 
ENDBRANCH  69  86
ENDBRANCH  43  44
ENDBRANCH  35  38
ENDBRANCH  33  34
ENDBRANCH  32  33
ENDBRANCH   1  32
TORSDOF 13
ENDMDL
MODEL 2
REMARK VINA RESULT:     -13.7      0.509      5.902
REMARK SMILES CN1C(=O)C[C@@H](C(=O)NCCCCNC(=O)c2ccc(-c3c4nc(c(-c5c(F)cccc5F)c5ccc([nH]5)c(-c5c(F)cccc5F)c5nc(c(-c6c(F)cccc6F)c6ccc3[nH]6)C=C5)C=C4)cc2)C12CCN(C(=O)c1ccccc1-n1cccn1)CC2
REMARK SMILES IDX 11 1 10 2 9 3 7 4 8 5 6 7 1 8 2 9 3 10 71 11 4 12 5 13 72 14
REMARK SMILES IDX 89 15 73 16 88 17 74 18 75 19 76 20 77 21 78 22 82 23 79 24
REMARK SMILES IDX 81 25 80 26 83 27 84 28 87 29 85 30 86 31 12 32 13 33 14 34
REMARK SMILES IDX 15 35 16 37 17 38 18 39 70 40 19 41 69 42 20 43 21 44 22 45
REMARK SMILES IDX 63 46 23 47 68 48 62 49 64 50 24 51 67 52 61 53 60 54 25 56
REMARK SMILES IDX 51 57 34 58 50 59 35 60 38 61 49 62 65 63 36 64 37 65 48 67
REMARK SMILES IDX 66 68 39 69 26 70 27 71 32 72 28 73 29 74 31 75 33 76 30 77
REMARK SMILES IDX 52 78 53 79 58 80 54 81 55 82 57 83 59 84 56 85 40 86 41 87
REMARK SMILES IDX 46 88 42 89 43 90 45 91 47 92 44 93
REMARK H PARENT 9 6 14 36 64 55 38 66
REMARK Flexibility Score: inf
ROOT
ATOM      1  C   UNL A   1      31.766  30.500  26.871  1.00  0.00     0.023 C 
ENDROOT
BRANCH   1   2
ATOM      2  C   UNL A   1      31.534  29.812  25.521  1.00  0.00     0.116 C 
BRANCH   2   3
ATOM      3  N   UNL A   1      32.722  29.707  24.687  1.00  0.00    -0.356 N 
ATOM      4  C   UNL A   1      32.979  29.150  23.476  1.00  0.00     0.226 C 
ATOM      5  O   UNL A   1      34.130  29.298  23.048  1.00  0.00    -0.275 OA
ATOM      6  H   UNL A   1      33.513  30.131  25.090  1.00  0.00     0.163 HD
BRANCH   4   7
ATOM      7  C   UNL A   1      31.990  28.329  22.637  1.00  0.00     0.113 C 
ATOM      8  C   UNL A   1      29.526  26.407  24.685  1.00  0.00     0.147 C 
ATOM      9  N   UNL A   1      30.256  27.271  23.778  1.00  0.00    -0.339 N 
ATOM     10  C   UNL A   1      29.675  28.403  23.218  1.00  0.00     0.223 C 
ATOM     11  C   UNL A   1      31.567  26.948  23.189  1.00  0.00     0.058 C 
ATOM     12  O   UNL A   1      28.545  28.819  23.418  1.00  0.00    -0.275 OA
ATOM     13  C   UNL A   1      30.694  29.083  22.348  1.00  0.00     0.116 C 
ATOM     14  C   UNL A   1      32.599  26.367  24.180  1.00  0.00     0.051 C 
ATOM     15  C   UNL A   1      31.323  25.907  22.047  1.00  0.00     0.051 C 
ATOM     16  C   UNL A   1      33.851  25.843  23.490  1.00  0.00     0.122 C 
ATOM     17  C   UNL A   1      32.590  25.252  21.490  1.00  0.00     0.122 C 
ATOM     18  N   UNL A   1      33.457  24.794  22.570  1.00  0.00    -0.338 N 
ATOM     19  C   UNL A   1      33.801  23.448  22.682  1.00  0.00     0.256 C 
ATOM     20  O   UNL A   1      33.433  22.578  21.899  1.00  0.00    -0.269 OA
BRANCH  19  21
ATOM     21  C   UNL A   1      34.704  23.034  23.784  1.00  0.00     0.065 A 
ATOM     22  C   UNL A   1      36.058  22.909  23.431  1.00  0.00     0.016 A 
ATOM     23  C   UNL A   1      34.317  22.900  25.128  1.00  0.00     0.077 A 
ATOM     24  C   UNL A   1      37.028  22.695  24.411  1.00  0.00     0.001 A 
ATOM     25  C   UNL A   1      35.312  22.738  26.110  1.00  0.00     0.029 A 
ATOM     26  C   UNL A   1      36.657  22.628  25.751  1.00  0.00     0.002 A 
BRANCH  23  27
ATOM     27  N   UNL A   1      32.965  22.922  25.556  1.00  0.00    -0.240 N 
ATOM     28  C   UNL A   1      31.897  22.175  25.105  1.00  0.00     0.115 A 
ATOM     29  N   UNL A   1      32.579  23.763  26.556  1.00  0.00    -0.177 NA
ATOM     30  C   UNL A   1      30.790  22.578  25.813  1.00  0.00     0.042 A 
ATOM     31  C   UNL A   1      31.267  23.567  26.682  1.00  0.00     0.135 A 
ENDBRANCH  23  27
ENDBRANCH  19  21
ENDBRANCH   4   7
ENDBRANCH   2   3
ENDBRANCH   1   2
BRANCH   1  32
ATOM     32  C   UNL A   1      31.536  32.010  26.867  1.00  0.00     0.023 C 
BRANCH  32  33
ATOM     33  C   UNL A   1      32.778  32.825  27.198  1.00  0.00     0.116 C 
BRANCH  33  34
ATOM     34  N   UNL A   1      32.466  34.183  27.626  1.00  0.00    -0.352 N 
ATOM     35  C   UNL A   1      33.031  34.917  28.637  1.00  0.00     0.251 C 
ATOM     36  H   UNL A   1      31.752  34.634  27.121  1.00  0.00     0.163 HD
ATOM     37  O   UNL A   1      32.560  36.002  28.963  1.00  0.00    -0.269 OA
BRANCH  35  38
ATOM     38  C   UNL A   1      34.197  34.365  29.347  1.00  0.00     0.039 A 
ATOM     39  C   UNL A   1      33.992  33.629  30.516  1.00  0.00     0.014 A 
ATOM     40  C   UNL A   1      35.479  34.530  28.820  1.00  0.00     0.014 A 
ATOM     41  C   UNL A   1      35.076  32.993  31.120  1.00  0.00     0.010 A 
ATOM     42  C   UNL A   1      36.541  33.829  29.373  1.00  0.00     0.010 A 
ATOM     43  C   UNL A   1      36.349  33.057  30.530  1.00  0.00    -0.014 A 
BRANCH  43  44
ATOM     44  C   UNL A   1      37.504  32.331  31.105  1.00  0.00     0.031 A 
ATOM     45  C   UNL A   1      38.145  32.834  32.368  1.00  0.00     0.074 A 
ATOM     46  C   UNL A   1      38.027  31.281  30.445  1.00  0.00     0.049 A 
ATOM     47  N   UNL A   1      39.223  32.409  32.973  1.00  0.00    -0.248 NA
ATOM     48  C   UNL A   1      37.510  33.995  33.014  1.00  0.00     0.031 C 
ATOM     49  C   UNL A   1      37.531  30.742  29.176  1.00  0.00     0.029 A 
ATOM     50  N   UNL A   1      39.106  30.489  30.741  1.00  0.00    -0.354 N 
ATOM     51  C   UNL A   1      39.410  33.265  34.050  1.00  0.00     0.074 A 
ATOM     52  C   UNL A   1      38.366  34.264  33.988  1.00  0.00     0.031 C 
ATOM     53  C   UNL A   1      38.292  29.697  28.814  1.00  0.00     0.029 A 
ATOM     54  C   UNL A   1      39.347  29.513  29.805  1.00  0.00     0.049 A 
ATOM     55  H   UNL A   1      39.657  30.607  31.549  1.00  0.00     0.167 HD
ATOM     56  C   UNL A   1      40.355  33.208  35.018  1.00  0.00     0.037 A 
ATOM     57  C   UNL A   1      40.316  28.580  29.751  1.00  0.00     0.037 A 
ATOM     58  C   UNL A   1      41.360  32.184  35.100  1.00  0.00     0.049 A 
ATOM     59  C   UNL A   1      41.330  28.515  30.858  1.00  0.00     0.074 A 
ATOM     60  C   UNL A   1      42.309  31.986  36.086  1.00  0.00     0.029 A 
ATOM     61  N   UNL A   1      41.542  31.182  34.159  1.00  0.00    -0.354 N 
ATOM     62  N   UNL A   1      41.450  29.283  31.914  1.00  0.00    -0.248 NA
ATOM     63  C   UNL A   1      42.340  27.451  30.771  1.00  0.00     0.031 C 
ATOM     64  C   UNL A   1      43.089  30.882  35.725  1.00  0.00     0.029 A 
ATOM     65  C   UNL A   1      42.600  30.372  34.533  1.00  0.00     0.049 A 
ATOM     66  H   UNL A   1      41.000  31.065  33.345  1.00  0.00     0.167 HD
ATOM     67  C   UNL A   1      42.529  28.781  32.629  1.00  0.00     0.074 A 
ATOM     68  C   UNL A   1      43.021  27.635  31.894  1.00  0.00     0.031 C 
ATOM     69  C   UNL A   1      43.066  29.229  33.790  1.00  0.00     0.037 A 
BRANCH  56  70
ATOM     70  C   UNL A   1      40.333  34.278  36.069  1.00  0.00     0.057 A 
ATOM     71  C   UNL A   1      41.070  35.461  35.934  1.00  0.00     0.134 A 
ATOM     72  C   UNL A   1      39.544  34.134  37.218  1.00  0.00     0.134 A 
ATOM     73  F   UNL A   1      41.857  35.654  34.865  1.00  0.00    -0.206 F 
ATOM     74  C   UNL A   1      41.045  36.453  36.917  1.00  0.00     0.040 A 
ATOM     75  C   UNL A   1      39.490  35.130  38.194  1.00  0.00     0.040 A 
ATOM     76  F   UNL A   1      38.812  33.027  37.407  1.00  0.00    -0.206 F 
ATOM     77  C   UNL A   1      40.247  36.291  38.047  1.00  0.00     0.006 A 
ENDBRANCH  56  70
BRANCH  57  78
ATOM     78  C   UNL A   1      40.357  27.615  28.624  1.00  0.00     0.057 A 
ATOM     79  C   UNL A   1      39.640  26.415  28.678  1.00  0.00     0.134 A 
ATOM     80  C   UNL A   1      41.114  27.864  27.473  1.00  0.00     0.134 A 
ATOM     81  F   UNL A   1      38.910  26.114  29.762  1.00  0.00    -0.206 F 
ATOM     82  C   UNL A   1      39.689  25.486  27.638  1.00  0.00     0.040 A 
ATOM     83  C   UNL A   1      41.155  26.954  26.415  1.00  0.00     0.040 A 
ATOM     84  F   UNL A   1      41.816  29.001  27.357  1.00  0.00    -0.206 F 
ATOM     85  C   UNL A   1      40.447  25.757  26.500  1.00  0.00     0.006 A 
ENDBRANCH  57  78
BRANCH  69  86
ATOM     86  C   UNL A   1      44.223  28.460  34.350  1.00  0.00     0.057 A 
ATOM     87  C   UNL A   1      45.548  28.812  34.066  1.00  0.00     0.134 A 
ATOM     88  C   UNL A   1      44.009  27.384  35.220  1.00  0.00     0.134 A 
ATOM     89  F   UNL A   1      45.819  29.825  33.229  1.00  0.00    -0.206 F 
ATOM     90  C   UNL A   1      46.621  28.108  34.615  1.00  0.00     0.040 A 
ATOM     91  C   UNL A   1      45.073  26.689  35.794  1.00  0.00     0.040 A 
ATOM     92  F   UNL A   1      42.762  27.003  35.539  1.00  0.00    -0.206 F 
ATOM     93  C   UNL A   1      46.384  27.047  35.487  1.00  0.00     0.006 A 
ENDBRANCH  69  86
ENDBRANCH  43  44
ENDBRANCH  35  38
ENDBRANCH  33  34
ENDBRANCH  32  33
ENDBRANCH   1  32
TORSDOF 13
ENDMDL
MODEL 3
REMARK VINA RESULT:     -13.6      3.913      7.590
REMARK SMILES CN1C(=O)C[C@@H](C(=O)NCCCCNC(=O)c2ccc(-c3c4nc(c(-c5c(F)cccc5F)c5ccc([nH]5)c(-c5c(F)cccc5F)c5nc(c(-c6c(F)cccc6F)c6ccc3[nH]6)C=C5)C=C4)cc2)C12CCN(C(=O)c1ccccc1-n1cccn1)CC2
REMARK SMILES IDX 11 1 10 2 9 3 7 4 8 5 6 7 1 8 2 9 3 10 71 11 4 12 5 13 72 14
REMARK SMILES IDX 89 15 73 16 88 17 74 18 75 19 76 20 77 21 78 22 82 23 79 24
REMARK SMILES IDX 81 25 80 26 83 27 84 28 87 29 85 30 86 31 12 32 13 33 14 34
REMARK SMILES IDX 15 35 16 37 17 38 18 39 70 40 19 41 69 42 20 43 21 44 22 45
REMARK SMILES IDX 63 46 23 47 68 48 62 49 64 50 24 51 67 52 61 53 60 54 25 56
REMARK SMILES IDX 51 57 34 58 50 59 35 60 38 61 49 62 65 63 36 64 37 65 48 67
REMARK SMILES IDX 66 68 39 69 26 70 27 71 32 72 28 73 29 74 31 75 33 76 30 77
REMARK SMILES IDX 52 78 53 79 58 80 54 81 55 82 57 83 59 84 56 85 40 86 41 87
REMARK SMILES IDX 46 88 42 89 43 90 45 91 47 92 44 93
REMARK H PARENT 9 6 14 36 64 55 38 66
REMARK Flexibility Score: inf
ROOT
ATOM      1  C   UNL A   1      31.663  29.416  26.867  1.00  0.00     0.023 C 
ENDROOT
BRANCH   1   2
ATOM      2  C   UNL A   1      31.437  29.807  25.402  1.00  0.00     0.116 C 
BRANCH   2   3
ATOM      3  N   UNL A   1      32.621  29.707  24.563  1.00  0.00    -0.356 N 
ATOM      4  C   UNL A   1      32.879  29.136  23.358  1.00  0.00     0.226 C 
ATOM      5  O   UNL A   1      34.026  29.295  22.922  1.00  0.00    -0.275 OA
ATOM      6  H   UNL A   1      33.408  30.149  24.955  1.00  0.00     0.163 HD
BRANCH   4   7
ATOM      7  C   UNL A   1      31.898  28.289  22.537  1.00  0.00     0.113 C 
ATOM      8  C   UNL A   1      29.456  26.383  24.626  1.00  0.00     0.147 C 
ATOM      9  N   UNL A   1      30.176  27.236  23.701  1.00  0.00    -0.339 N 
ATOM     10  C   UNL A   1      29.583  28.352  23.120  1.00  0.00     0.223 C 
ATOM     11  C   UNL A   1      31.490  26.915  23.116  1.00  0.00     0.058 C 
ATOM     12  O   UNL A   1      28.449  28.759  23.313  1.00  0.00    -0.275 OA
ATOM     13  C   UNL A   1      30.594  29.025  22.235  1.00  0.00     0.116 C 
ATOM     14  C   UNL A   1      32.529  26.364  24.116  1.00  0.00     0.051 C 
ATOM     15  C   UNL A   1      31.255  25.850  21.995  1.00  0.00     0.051 C 
ATOM     16  C   UNL A   1      33.785  25.840  23.435  1.00  0.00     0.122 C 
ATOM     17  C   UNL A   1      32.528  25.198  21.449  1.00  0.00     0.122 C 
ATOM     18  N   UNL A   1      33.401  24.769  22.536  1.00  0.00    -0.338 N 
ATOM     19  C   UNL A   1      33.759  23.429  22.674  1.00  0.00     0.256 C 
ATOM     20  O   UNL A   1      33.398  22.540  21.909  1.00  0.00    -0.269 OA
BRANCH  19  21
ATOM     21  C   UNL A   1      34.667  23.046  23.782  1.00  0.00     0.065 A 
ATOM     22  C   UNL A   1      36.022  22.924  23.429  1.00  0.00     0.016 A 
ATOM     23  C   UNL A   1      34.284  22.938  25.129  1.00  0.00     0.077 A 
ATOM     24  C   UNL A   1      36.995  22.738  24.411  1.00  0.00     0.001 A 
ATOM     25  C   UNL A   1      35.283  22.805  26.113  1.00  0.00     0.029 A 
ATOM     26  C   UNL A   1      36.628  22.697  25.753  1.00  0.00     0.002 A 
BRANCH  23  27
ATOM     27  N   UNL A   1      32.933  22.959  25.560  1.00  0.00    -0.240 N 
ATOM     28  C   UNL A   1      31.886  22.146  25.180  1.00  0.00     0.115 A 
ATOM     29  N   UNL A   1      32.526  23.872  26.486  1.00  0.00    -0.177 NA
ATOM     30  C   UNL A   1      30.769  22.578  25.856  1.00  0.00     0.042 A 
ATOM     31  C   UNL A   1      31.220  23.651  26.634  1.00  0.00     0.135 A 
ENDBRANCH  23  27
ENDBRANCH  19  21
ENDBRANCH   4   7
ENDBRANCH   2   3
ENDBRANCH   1   2
BRANCH   1  32
ATOM     32  C   UNL A   1      32.686  28.304  27.082  1.00  0.00     0.023 C 
BRANCH  32  33
ATOM     33  C   UNL A   1      34.083  28.805  27.415  1.00  0.00     0.116 C 
BRANCH  33  34
ATOM     34  N   UNL A   1      34.081  30.140  28.001  1.00  0.00    -0.352 N 
ATOM     35  C   UNL A   1      35.092  30.793  28.659  1.00  0.00     0.251 C 
ATOM     36  H   UNL A   1      33.238  30.640  27.914  1.00  0.00     0.163 HD
ATOM     37  O   UNL A   1      34.888  31.865  29.217  1.00  0.00    -0.269 OA
BRANCH  35  38
ATOM     38  C   UNL A   1      36.425  30.167  28.707  1.00  0.00     0.039 A 
ATOM     39  C   UNL A   1      37.221  30.181  27.560  1.00  0.00     0.014 A 
ATOM     40  C   UNL A   1      36.900  29.623  29.901  1.00  0.00     0.014 A 
ATOM     41  C   UNL A   1      38.531  29.710  27.633  1.00  0.00     0.010 A 
ATOM     42  C   UNL A   1      38.228  29.234  29.994  1.00  0.00     0.010 A 
ATOM     43  C   UNL A   1      39.054  29.271  28.860  1.00  0.00    -0.014 A 
BRANCH  43  44
ATOM     44  C   UNL A   1      40.464  28.836  28.987  1.00  0.00     0.031 A 
ATOM     45  C   UNL A   1      41.503  29.809  29.468  1.00  0.00     0.074 A 
ATOM     46  C   UNL A   1      40.818  27.601  28.585  1.00  0.00     0.049 A 
ATOM     47  N   UNL A   1      42.799  29.660  29.549  1.00  0.00    -0.248 NA
ATOM     48  C   UNL A   1      41.023  31.140  29.875  1.00  0.00     0.031 C 
ATOM     49  C   UNL A   1      39.908  26.590  28.040  1.00  0.00     0.029 A 
ATOM     50  N   UNL A   1      42.046  26.990  28.557  1.00  0.00    -0.354 N 
ATOM     51  C   UNL A   1      43.289  30.883  29.986  1.00  0.00     0.074 A 
ATOM     52  C   UNL A   1      42.160  31.778  30.105  1.00  0.00     0.031 C 
ATOM     53  C   UNL A   1      40.606  25.481  27.749  1.00  0.00     0.029 A 
ATOM     54  C   UNL A   1      42.014  25.711  28.056  1.00  0.00     0.049 A 
ATOM     55  H   UNL A   1      42.873  27.426  28.867  1.00  0.00     0.167 HD
ATOM     56  C   UNL A   1      44.566  31.222  30.285  1.00  0.00     0.037 A 
ATOM     57  C   UNL A   1      43.011  24.829  27.860  1.00  0.00     0.037 A 
ATOM     58  C   UNL A   1      45.676  30.312  30.211  1.00  0.00     0.049 A 
ATOM     59  C   UNL A   1      44.414  25.217  28.236  1.00  0.00     0.074 A 
ATOM     60  C   UNL A   1      46.994  30.529  30.573  1.00  0.00     0.029 A 
ATOM     61  N   UNL A   1      45.597  29.009  29.745  1.00  0.00    -0.354 N 
ATOM     62  N   UNL A   1      44.854  26.352  28.723  1.00  0.00    -0.248 NA
ATOM     63  C   UNL A   1      45.458  24.201  28.040  1.00  0.00     0.031 C 
ATOM     64  C   UNL A   1      47.720  29.366  30.293  1.00  0.00     0.029 A 
ATOM     65  C   UNL A   1      46.846  28.414  29.794  1.00  0.00     0.049 A 
ATOM     66  H   UNL A   1      44.774  28.572  29.425  1.00  0.00     0.167 HD
ATOM     67  C   UNL A   1      46.218  26.179  28.917  1.00  0.00     0.074 A 
ATOM     68  C   UNL A   1      46.530  24.825  28.507  1.00  0.00     0.031 C 
ATOM     69  C   UNL A   1      47.131  27.061  29.390  1.00  0.00     0.037 A 
BRANCH  56  70
ATOM     70  C   UNL A   1      44.821  32.631  30.731  1.00  0.00     0.057 A 
ATOM     71  C   UNL A   1      45.107  33.654  29.819  1.00  0.00     0.134 A 
ATOM     72  C   UNL A   1      44.756  32.973  32.088  1.00  0.00     0.134 A 
ATOM     73  F   UNL A   1      45.200  33.389  28.507  1.00  0.00    -0.206 F 
ATOM     74  C   UNL A   1      45.343  34.964  30.241  1.00  0.00     0.040 A 
ATOM     75  C   UNL A   1      44.964  34.283  32.519  1.00  0.00     0.040 A 
ATOM     76  F   UNL A   1      44.483  32.041  33.013  1.00  0.00    -0.206 F 
ATOM     77  C   UNL A   1      45.265  35.282  31.595  1.00  0.00     0.006 A 
ENDBRANCH  56  70
BRANCH  57  78
ATOM     78  C   UNL A   1      42.716  23.484  27.307  1.00  0.00     0.057 A 
ATOM     79  C   UNL A   1      42.749  23.249  25.928  1.00  0.00     0.134 A 
ATOM     80  C   UNL A   1      42.391  22.405  28.138  1.00  0.00     0.134 A 
ATOM     81  F   UNL A   1      43.038  24.248  25.081  1.00  0.00    -0.206 F 
ATOM     82  C   UNL A   1      42.449  21.996  25.392  1.00  0.00     0.040 A 
ATOM     83  C   UNL A   1      42.110  21.141  27.617  1.00  0.00     0.040 A 
ATOM     84  F   UNL A   1      42.352  22.563  29.469  1.00  0.00    -0.206 F 
ATOM     85  C   UNL A   1      42.131  20.936  26.239  1.00  0.00     0.006 A 
ENDBRANCH  57  78
BRANCH  69  86
ATOM     86  C   UNL A   1      48.544  26.579  29.520  1.00  0.00     0.057 A 
ATOM     87  C   UNL A   1      48.989  25.901  30.661  1.00  0.00     0.134 A 
ATOM     88  C   UNL A   1      49.455  26.755  28.471  1.00  0.00     0.134 A 
ATOM     89  F   UNL A   1      48.167  25.712  31.704  1.00  0.00    -0.206 F 
ATOM     90  C   UNL A   1      50.299  25.430  30.762  1.00  0.00     0.040 A 
ATOM     91  C   UNL A   1      50.759  26.267  28.551  1.00  0.00     0.040 A 
ATOM     92  F   UNL A   1      49.087  27.389  27.347  1.00  0.00    -0.206 F 
ATOM     93  C   UNL A   1      51.186  25.607  29.701  1.00  0.00     0.006 A 
ENDBRANCH  69  86
ENDBRANCH  43  44
ENDBRANCH  35  38
ENDBRANCH  33  34
ENDBRANCH  32  33
ENDBRANCH   1  32
TORSDOF 13
ENDMDL
