MODEL 1
REMARK VINA RESULT:     -10.1      0.000      0.000
REMARK SMILES O=C(CCC(=O)Nc1cccc2c1C(=O)c1ccccc1C2=O)NCCCCNC(=O)c1ccc(-c2c3nc(c(-c4c(F)cccc4F)c4ccc([nH]4)c(-c4c(F)cccc4F)c4nc(c(-c5c(F)cccc5F)c5ccc2[nH]5)C=C4)C=C3)cc1
REMARK SMILES IDX 26 1 25 2 24 3 1 4 2 5 3 7 4 8 5 9 6 10 7 11 8 13 9 14 13 15
REMARK SMILES IDX 10 16 12 17 14 18 11 19 22 20 15 21 16 22 21 23 23 24 17 25
REMARK SMILES IDX 20 26 18 27 19 28 27 29 28 30 29 31 30 32 31 34 32 35 33 36
REMARK SMILES IDX 85 37 34 38 84 39 35 40 36 41 37 42 78 43 38 44 83 45 77 46
REMARK SMILES IDX 79 47 39 48 82 49 76 50 75 51 40 53 66 54 49 55 65 56 50 57
REMARK SMILES IDX 53 58 64 59 80 60 51 61 52 62 63 64 81 65 54 66 41 67 42 68
REMARK SMILES IDX 47 69 43 70 44 71 46 72 48 73 45 74 67 75 68 76 73 77 69 78
REMARK SMILES IDX 70 79 72 80 74 81 71 82 55 83 56 84 61 85 57 86 58 87 60 88
REMARK SMILES IDX 62 89 59 90
REMARK H PARENT 24 6 7 12 29 33 79 52 53 63
REMARK Flexibility Score: inf
ROOT
ATOM      1  C   UNL A   1      46.144  19.916  25.323  1.00  0.00     0.023 C 
ENDROOT
BRANCH   1   2
ATOM      2  C   UNL A   1      46.061  21.248  24.598  1.00  0.00     0.116 C 
BRANCH   2   3
ATOM      3  N   UNL A   1      46.042  22.455  25.395  1.00  0.00    -0.356 N 
ATOM      4  O   UNL A   1      46.799  24.074  23.936  1.00  0.00    -0.275 OA
ATOM      5  C   UNL A   1      45.970  23.669  24.739  1.00  0.00     0.220 C 
ATOM      6  H   UNL A   1      46.080  22.413  26.378  1.00  0.00     0.163 HD
BRANCH   5   7
ATOM      7  C   UNL A   1      44.643  24.376  24.895  1.00  0.00     0.110 C 
BRANCH   7   8
ATOM      8  C   UNL A   1      44.926  25.815  25.363  1.00  0.00     0.110 C 
BRANCH   8   9
ATOM      9  C   UNL A   1      43.653  26.613  25.317  1.00  0.00     0.224 C 
ATOM     10  O   UNL A   1      42.625  26.079  24.871  1.00  0.00    -0.275 OA
ATOM     11  N   UNL A   1      43.495  27.878  25.769  1.00  0.00    -0.325 N 
ATOM     12  H   UNL A   1      42.558  28.157  25.650  1.00  0.00     0.169 HD
BRANCH  11  13
ATOM     13  C   UNL A   1      44.234  28.933  26.360  1.00  0.00     0.053 A 
ATOM     14  C   UNL A   1      43.366  29.959  26.799  1.00  0.00     0.027 A 
ATOM     15  C   UNL A   1      45.615  29.123  26.589  1.00  0.00     0.057 A 
ATOM     16  C   UNL A   1      43.811  31.062  27.524  1.00  0.00     0.003 A 
ATOM     17  C   UNL A   1      46.041  30.172  27.434  1.00  0.00     0.036 A 
ATOM     18  C   UNL A   1      46.709  28.756  25.652  1.00  0.00     0.196 C 
ATOM     19  C   UNL A   1      45.143  31.143  27.886  1.00  0.00     0.013 A 
ATOM     20  C   UNL A   1      47.471  30.305  27.817  1.00  0.00     0.194 C 
ATOM     21  O   UNL A   1      46.580  28.952  24.451  1.00  0.00    -0.288 OA
ATOM     22  C   UNL A   1      48.076  28.584  26.165  1.00  0.00     0.034 A 
ATOM     23  C   UNL A   1      48.450  29.354  27.259  1.00  0.00     0.034 A 
ATOM     24  O   UNL A   1      47.832  31.177  28.598  1.00  0.00    -0.289 OA
ATOM     25  C   UNL A   1      49.029  27.814  25.496  1.00  0.00     0.013 A 
ATOM     26  C   UNL A   1      49.760  29.298  27.743  1.00  0.00     0.013 A 
ATOM     27  C   UNL A   1      50.334  27.737  25.987  1.00  0.00     0.001 A 
ATOM     28  C   UNL A   1      50.696  28.471  27.117  1.00  0.00     0.001 A 
ENDBRANCH  11  13
ENDBRANCH   8   9
ENDBRANCH   7   8
ENDBRANCH   5   7
ENDBRANCH   2   3
ENDBRANCH   1   2
BRANCH   1  29
ATOM     29  C   UNL A   1      44.863  19.101  25.231  1.00  0.00     0.023 C 
BRANCH  29  30
ATOM     30  C   UNL A   1      43.610  19.826  25.705  1.00  0.00     0.116 C 
BRANCH  30  31
ATOM     31  N   UNL A   1      42.356  19.117  25.491  1.00  0.00    -0.352 N 
ATOM     32  C   UNL A   1      41.101  19.585  25.845  1.00  0.00     0.251 C 
ATOM     33  H   UNL A   1      42.404  18.234  25.059  1.00  0.00     0.163 HD
ATOM     34  O   UNL A   1      40.083  18.939  25.674  1.00  0.00    -0.269 OA
BRANCH  32  35
ATOM     35  C   UNL A   1      41.058  20.914  26.496  1.00  0.00     0.039 A 
ATOM     36  C   UNL A   1      41.090  20.977  27.890  1.00  0.00     0.014 A 
ATOM     37  C   UNL A   1      41.257  22.055  25.715  1.00  0.00     0.014 A 
ATOM     38  C   UNL A   1      41.413  22.187  28.507  1.00  0.00     0.010 A 
ATOM     39  C   UNL A   1      41.658  23.235  26.333  1.00  0.00     0.010 A 
ATOM     40  C   UNL A   1      41.752  23.310  27.733  1.00  0.00    -0.014 A 
BRANCH  40  41
ATOM     41  C   UNL A   1      42.219  24.571  28.366  1.00  0.00     0.031 A 
ATOM     42  C   UNL A   1      41.254  25.704  28.566  1.00  0.00     0.074 A 
ATOM     43  C   UNL A   1      43.518  24.728  28.693  1.00  0.00     0.049 A 
ATOM     44  N   UNL A   1      41.473  26.907  29.032  1.00  0.00    -0.248 NA
ATOM     45  C   UNL A   1      39.861  25.464  28.154  1.00  0.00     0.031 C 
ATOM     46  C   UNL A   1      44.573  23.732  28.491  1.00  0.00     0.029 A 
ATOM     47  N   UNL A   1      44.174  25.792  29.260  1.00  0.00    -0.354 N 
ATOM     48  C   UNL A   1      40.256  27.569  28.950  1.00  0.00     0.074 A 
ATOM     49  C   UNL A   1      39.318  26.657  28.333  1.00  0.00     0.031 C 
ATOM     50  C   UNL A   1      45.736  24.224  28.951  1.00  0.00     0.029 A 
ATOM     51  C   UNL A   1      45.517  25.577  29.454  1.00  0.00     0.049 A 
ATOM     52  H   UNL A   1      43.724  26.633  29.506  1.00  0.00     0.167 HD
ATOM     53  C   UNL A   1      39.936  28.812  29.380  1.00  0.00     0.037 A 
ATOM     54  C   UNL A   1      46.464  26.378  29.979  1.00  0.00     0.037 A 
ATOM     55  C   UNL A   1      40.857  29.705  30.028  1.00  0.00     0.049 A 
ATOM     56  C   UNL A   1      46.080  27.746  30.473  1.00  0.00     0.074 A 
ATOM     57  C   UNL A   1      40.613  30.961  30.556  1.00  0.00     0.029 A 
ATOM     58  N   UNL A   1      42.199  29.434  30.241  1.00  0.00    -0.354 N 
ATOM     59  N   UNL A   1      44.908  28.332  30.454  1.00  0.00    -0.248 NA
ATOM     60  C   UNL A   1      47.149  28.562  31.069  1.00  0.00     0.031 C 
ATOM     61  C   UNL A   1      41.816  31.462  31.062  1.00  0.00     0.029 A 
ATOM     62  C   UNL A   1      42.801  30.503  30.883  1.00  0.00     0.049 A 
ATOM     63  H   UNL A   1      42.657  28.604  29.975  1.00  0.00     0.167 HD
ATOM     64  C   UNL A   1      45.091  29.571  31.055  1.00  0.00     0.074 A 
ATOM     65  C   UNL A   1      46.485  29.647  31.441  1.00  0.00     0.031 C 
ATOM     66  C   UNL A   1      44.187  30.557  31.269  1.00  0.00     0.037 A 
BRANCH  53  67
ATOM     67  C   UNL A   1      38.521  29.264  29.171  1.00  0.00     0.057 A 
ATOM     68  C   UNL A   1      37.590  29.273  30.220  1.00  0.00     0.134 A 
ATOM     69  C   UNL A   1      38.084  29.700  27.916  1.00  0.00     0.134 A 
ATOM     70  F   UNL A   1      37.942  28.850  31.444  1.00  0.00    -0.206 F 
ATOM     71  C   UNL A   1      36.268  29.670  30.018  1.00  0.00     0.040 A 
ATOM     72  C   UNL A   1      36.771  30.125  27.708  1.00  0.00     0.040 A 
ATOM     73  F   UNL A   1      38.925  29.719  26.870  1.00  0.00    -0.206 F 
ATOM     74  C   UNL A   1      35.857  30.103  28.759  1.00  0.00     0.006 A 
ENDBRANCH  53  67
BRANCH  54  75
ATOM     75  C   UNL A   1      47.865  25.900  30.099  1.00  0.00     0.057 A 
ATOM     76  C   UNL A   1      48.417  25.591  31.348  1.00  0.00     0.134 A 
ATOM     77  C   UNL A   1      48.688  25.751  28.977  1.00  0.00     0.134 A 
ATOM     78  F   UNL A   1      47.684  25.732  32.463  1.00  0.00    -0.206 F 
ATOM     79  C   UNL A   1      49.742  25.170  31.480  1.00  0.00     0.040 A 
ATOM     80  C   UNL A   1      50.007  25.311  29.092  1.00  0.00     0.040 A 
ATOM     81  F   UNL A   1      48.217  26.027  27.751  1.00  0.00    -0.206 F 
ATOM     82  C   UNL A   1      50.540  25.024  30.348  1.00  0.00     0.006 A 
ENDBRANCH  54  75
BRANCH  66  83
ATOM     83  C   UNL A   1      44.666  31.788  31.977  1.00  0.00     0.057 A 
ATOM     84  C   UNL A   1      45.129  32.909  31.275  1.00  0.00     0.134 A 
ATOM     85  C   UNL A   1      44.617  31.871  33.373  1.00  0.00     0.134 A 
ATOM     86  F   UNL A   1      45.211  32.887  29.937  1.00  0.00    -0.206 F 
ATOM     87  C   UNL A   1      45.545  34.063  31.942  1.00  0.00     0.040 A 
ATOM     88  C   UNL A   1      45.008  33.027  34.049  1.00  0.00     0.040 A 
ATOM     89  F   UNL A   1      44.175  30.835  34.103  1.00  0.00    -0.206 F 
ATOM     90  C   UNL A   1      45.477  34.126  33.333  1.00  0.00     0.006 A 
ENDBRANCH  66  83
ENDBRANCH  40  41
ENDBRANCH  32  35
ENDBRANCH  30  31
ENDBRANCH  29  30
ENDBRANCH   1  29
TORSDOF 14
ENDMDL
MODEL 2
REMARK VINA RESULT:     -10.1      4.429     10.515
REMARK SMILES O=C(CCC(=O)Nc1cccc2c1C(=O)c1ccccc1C2=O)NCCCCNC(=O)c1ccc(-c2c3nc(c(-c4c(F)cccc4F)c4ccc([nH]4)c(-c4c(F)cccc4F)c4nc(c(-c5c(F)cccc5F)c5ccc2[nH]5)C=C4)C=C3)cc1
REMARK SMILES IDX 26 1 25 2 24 3 1 4 2 5 3 7 4 8 5 9 6 10 7 11 8 13 9 14 13 15
REMARK SMILES IDX 10 16 12 17 14 18 11 19 22 20 15 21 16 22 21 23 23 24 17 25
REMARK SMILES IDX 20 26 18 27 19 28 27 29 28 30 29 31 30 32 31 34 32 35 33 36
REMARK SMILES IDX 85 37 34 38 84 39 35 40 36 41 37 42 78 43 38 44 83 45 77 46
REMARK SMILES IDX 79 47 39 48 82 49 76 50 75 51 40 53 66 54 49 55 65 56 50 57
REMARK SMILES IDX 53 58 64 59 80 60 51 61 52 62 63 64 81 65 54 66 41 67 42 68
REMARK SMILES IDX 47 69 43 70 44 71 46 72 48 73 45 74 67 75 68 76 73 77 69 78
REMARK SMILES IDX 70 79 72 80 74 81 71 82 55 83 56 84 61 85 57 86 58 87 60 88
REMARK SMILES IDX 62 89 59 90
REMARK H PARENT 24 6 7 12 29 33 79 52 53 63
REMARK Flexibility Score: inf
ROOT
ATOM      1  C   UNL A   1      32.268  29.080  25.177  1.00  0.00     0.023 C 
ENDROOT
BRANCH   1   2
ATOM      2  C   UNL A   1      32.302  28.963  23.663  1.00  0.00     0.116 C 
BRANCH   2   3
ATOM      3  N   UNL A   1      32.157  27.647  23.080  1.00  0.00    -0.356 N 
ATOM      4  O   UNL A   1      33.986  27.473  21.685  1.00  0.00    -0.275 OA
ATOM      5  C   UNL A   1      33.286  27.024  22.583  1.00  0.00     0.220 C 
ATOM      6  H   UNL A   1      31.277  27.207  23.038  1.00  0.00     0.163 HD
BRANCH   5   7
ATOM      7  C   UNL A   1      33.753  25.846  23.407  1.00  0.00     0.110 C 
BRANCH   7   8
ATOM      8  C   UNL A   1      32.529  25.265  24.137  1.00  0.00     0.110 C 
BRANCH   8   9
ATOM      9  C   UNL A   1      32.841  25.128  25.600  1.00  0.00     0.224 C 
ATOM     10  O   UNL A   1      32.139  25.734  26.424  1.00  0.00    -0.275 OA
ATOM     11  N   UNL A   1      33.811  24.349  26.134  1.00  0.00    -0.325 N 
ATOM     12  H   UNL A   1      33.785  24.414  27.116  1.00  0.00     0.169 HD
BRANCH  11  13
ATOM     13  C   UNL A   1      34.849  23.467  25.743  1.00  0.00     0.053 A 
ATOM     14  C   UNL A   1      36.106  24.108  25.847  1.00  0.00     0.027 A 
ATOM     15  C   UNL A   1      34.851  22.125  25.304  1.00  0.00     0.057 A 
ATOM     16  C   UNL A   1      37.310  23.440  25.641  1.00  0.00     0.003 A 
ATOM     17  C   UNL A   1      36.074  21.422  25.225  1.00  0.00     0.036 A 
ATOM     18  C   UNL A   1      33.857  21.509  24.387  1.00  0.00     0.196 C 
ATOM     19  C   UNL A   1      37.296  22.082  25.380  1.00  0.00     0.013 A 
ATOM     20  C   UNL A   1      36.095  19.967  24.917  1.00  0.00     0.194 C 
ATOM     21  O   UNL A   1      33.447  22.135  23.418  1.00  0.00    -0.288 OA
ATOM     22  C   UNL A   1      33.699  20.048  24.363  1.00  0.00     0.034 A 
ATOM     23  C   UNL A   1      34.821  19.279  24.642  1.00  0.00     0.034 A 
ATOM     24  O   UNL A   1      37.149  19.344  24.908  1.00  0.00    -0.289 OA
ATOM     25  C   UNL A   1      32.526  19.435  23.917  1.00  0.00     0.013 A 
ATOM     26  C   UNL A   1      34.757  17.885  24.555  1.00  0.00     0.013 A 
ATOM     27  C   UNL A   1      32.449  18.043  23.848  1.00  0.00     0.001 A 
ATOM     28  C   UNL A   1      33.561  17.268  24.178  1.00  0.00     0.001 A 
ENDBRANCH  11  13
ENDBRANCH   8   9
ENDBRANCH   7   8
ENDBRANCH   5   7
ENDBRANCH   2   3
ENDBRANCH   1   2
BRANCH   1  29
ATOM     29  C   UNL A   1      33.641  28.957  25.820  1.00  0.00     0.023 C 
BRANCH  29  30
ATOM     30  C   UNL A   1      33.636  28.978  27.343  1.00  0.00     0.116 C 
BRANCH  30  31
ATOM     31  N   UNL A   1      33.694  30.300  27.952  1.00  0.00    -0.352 N 
ATOM     32  C   UNL A   1      34.818  30.865  28.532  1.00  0.00     0.251 C 
ATOM     33  H   UNL A   1      32.868  30.835  27.951  1.00  0.00     0.163 HD
ATOM     34  O   UNL A   1      34.808  31.964  29.058  1.00  0.00    -0.269 OA
BRANCH  32  35
ATOM     35  C   UNL A   1      36.045  30.037  28.523  1.00  0.00     0.039 A 
ATOM     36  C   UNL A   1      36.897  30.114  27.420  1.00  0.00     0.014 A 
ATOM     37  C   UNL A   1      36.450  29.418  29.708  1.00  0.00     0.014 A 
ATOM     38  C   UNL A   1      38.205  29.640  27.539  1.00  0.00     0.010 A 
ATOM     39  C   UNL A   1      37.777  29.025  29.846  1.00  0.00     0.010 A 
ATOM     40  C   UNL A   1      38.671  29.143  28.768  1.00  0.00    -0.014 A 
BRANCH  40  41
ATOM     41  C   UNL A   1      40.092  28.749  28.953  1.00  0.00     0.031 A 
ATOM     42  C   UNL A   1      41.068  29.735  29.527  1.00  0.00     0.074 A 
ATOM     43  C   UNL A   1      40.522  27.539  28.539  1.00  0.00     0.049 A 
ATOM     44  N   UNL A   1      42.359  29.616  29.703  1.00  0.00    -0.248 NA
ATOM     45  C   UNL A   1      40.526  31.045  29.924  1.00  0.00     0.031 C 
ATOM     46  C   UNL A   1      39.693  26.512  27.904  1.00  0.00     0.029 A 
ATOM     47  N   UNL A   1      41.771  26.972  28.586  1.00  0.00    -0.354 N 
ATOM     48  C   UNL A   1      42.783  30.837  30.211  1.00  0.00     0.074 A 
ATOM     49  C   UNL A   1      41.625  31.702  30.255  1.00  0.00     0.031 C 
ATOM     50  C   UNL A   1      40.451  25.433  27.646  1.00  0.00     0.029 A 
ATOM     51  C   UNL A   1      41.822  25.699  28.069  1.00  0.00     0.049 A 
ATOM     52  H   UNL A   1      42.558  27.433  28.956  1.00  0.00     0.167 HD
ATOM     53  C   UNL A   1      44.017  31.197  30.634  1.00  0.00     0.037 A 
ATOM     54  C   UNL A   1      42.856  24.845  27.951  1.00  0.00     0.037 A 
ATOM     55  C   UNL A   1      45.161  30.326  30.626  1.00  0.00     0.049 A 
ATOM     56  C   UNL A   1      44.214  25.257  28.452  1.00  0.00     0.074 A 
ATOM     57  C   UNL A   1      46.439  30.578  31.091  1.00  0.00     0.029 A 
ATOM     58  N   UNL A   1      45.161  29.032  30.130  1.00  0.00    -0.354 N 
ATOM     59  N   UNL A   1      44.584  26.391  28.996  1.00  0.00    -0.248 NA
ATOM     60  C   UNL A   1      45.296  24.269  28.329  1.00  0.00     0.031 C 
ATOM     61  C   UNL A   1      47.221  29.444  30.850  1.00  0.00     0.029 A 
ATOM     62  C   UNL A   1      46.421  28.474  30.269  1.00  0.00     0.049 A 
ATOM     63  H   UNL A   1      44.381  28.577  29.739  1.00  0.00     0.167 HD
ATOM     64  C   UNL A   1      45.931  26.245  29.302  1.00  0.00     0.074 A 
ATOM     65  C   UNL A   1      46.310  24.907  28.897  1.00  0.00     0.031 C 
ATOM     66  C   UNL A   1      46.778  27.138  29.869  1.00  0.00     0.037 A 
BRANCH  53  67
ATOM     67  C   UNL A   1      44.180  32.595  31.155  1.00  0.00     0.057 A 
ATOM     68  C   UNL A   1      44.502  33.663  30.306  1.00  0.00     0.134 A 
ATOM     69  C   UNL A   1      44.007  32.878  32.514  1.00  0.00     0.134 A 
ATOM     70  F   UNL A   1      44.697  33.453  28.995  1.00  0.00    -0.206 F 
ATOM     71  C   UNL A   1      44.677  34.957  30.796  1.00  0.00     0.040 A 
ATOM     72  C   UNL A   1      44.153  34.174  33.012  1.00  0.00     0.040 A 
ATOM     73  F   UNL A   1      43.695  31.902  33.380  1.00  0.00    -0.206 F 
ATOM     74  C   UNL A   1      44.497  35.216  32.153  1.00  0.00     0.006 A 
ENDBRANCH  53  67
BRANCH  54  75
ATOM     75  C   UNL A   1      42.648  23.496  27.365  1.00  0.00     0.057 A 
ATOM     76  C   UNL A   1      42.867  23.261  26.002  1.00  0.00     0.134 A 
ATOM     77  C   UNL A   1      42.214  22.417  28.143  1.00  0.00     0.134 A 
ATOM     78  F   UNL A   1      43.264  24.260  25.200  1.00  0.00    -0.206 F 
ATOM     79  C   UNL A   1      42.646  22.006  25.430  1.00  0.00     0.040 A 
ATOM     80  C   UNL A   1      42.009  21.153  27.589  1.00  0.00     0.040 A 
ATOM     81  F   UNL A   1      41.990  22.577  29.456  1.00  0.00    -0.206 F 
ATOM     82  C   UNL A   1      42.219  20.946  26.227  1.00  0.00     0.006 A 
ENDBRANCH  54  75
BRANCH  66  83
ATOM     83  C   UNL A   1      48.187  26.690  30.113  1.00  0.00     0.057 A 
ATOM     84  C   UNL A   1      48.552  26.009  31.281  1.00  0.00     0.134 A 
ATOM     85  C   UNL A   1      49.178  26.899  29.146  1.00  0.00     0.134 A 
ATOM     86  F   UNL A   1      47.651  25.789  32.249  1.00  0.00    -0.206 F 
ATOM     87  C   UNL A   1      49.861  25.568  31.486  1.00  0.00     0.040 A 
ATOM     88  C   UNL A   1      50.484  26.443  29.330  1.00  0.00     0.040 A 
ATOM     89  F   UNL A   1      48.890  27.537  28.002  1.00  0.00    -0.206 F 
ATOM     90  C   UNL A   1      50.828  25.778  30.505  1.00  0.00     0.006 A 
ENDBRANCH  66  83
ENDBRANCH  40  41
ENDBRANCH  32  35
ENDBRANCH  30  31
ENDBRANCH  29  30
ENDBRANCH   1  29
TORSDOF 14
ENDMDL
MODEL 3
REMARK VINA RESULT:     -10.1      2.550      7.290
REMARK SMILES O=C(CCC(=O)Nc1cccc2c1C(=O)c1ccccc1C2=O)NCCCCNC(=O)c1ccc(-c2c3nc(c(-c4c(F)cccc4F)c4ccc([nH]4)c(-c4c(F)cccc4F)c4nc(c(-c5c(F)cccc5F)c5ccc2[nH]5)C=C4)C=C3)cc1
REMARK SMILES IDX 26 1 25 2 24 3 1 4 2 5 3 7 4 8 5 9 6 10 7 11 8 13 9 14 13 15
REMARK SMILES IDX 10 16 12 17 14 18 11 19 22 20 15 21 16 22 21 23 23 24 17 25
REMARK SMILES IDX 20 26 18 27 19 28 27 29 28 30 29 31 30 32 31 34 32 35 33 36
REMARK SMILES IDX 85 37 34 38 84 39 35 40 36 41 37 42 78 43 38 44 83 45 77 46
REMARK SMILES IDX 79 47 39 48 82 49 76 50 75 51 40 53 66 54 49 55 65 56 50 57
REMARK SMILES IDX 53 58 64 59 80 60 51 61 52 62 63 64 81 65 54 66 41 67 42 68
REMARK SMILES IDX 47 69 43 70 44 71 46 72 48 73 45 74 67 75 68 76 73 77 69 78
REMARK SMILES IDX 70 79 72 80 74 81 71 82 55 83 56 84 61 85 57 86 58 87 60 88
REMARK SMILES IDX 62 89 59 90
REMARK H PARENT 24 6 7 12 29 33 79 52 53 63
REMARK Flexibility Score: inf
ROOT
ATOM      1  C   UNL A   1      42.333  19.191  26.514  1.00  0.00     0.023 C 
ENDROOT
BRANCH   1   2
ATOM      2  C   UNL A   1      43.286  18.444  25.598  1.00  0.00     0.116 C 
BRANCH   2   3
ATOM      3  N   UNL A   1      44.704  18.535  25.874  1.00  0.00    -0.356 N 
ATOM      4  O   UNL A   1      45.638  18.837  23.786  1.00  0.00    -0.275 OA
ATOM      5  C   UNL A   1      45.508  19.180  24.953  1.00  0.00     0.220 C 
ATOM      6  H   UNL A   1      45.085  18.147  26.694  1.00  0.00     0.163 HD
BRANCH   5   7
ATOM      7  C   UNL A   1      46.039  20.513  25.427  1.00  0.00     0.110 C 
BRANCH   7   8
ATOM      8  C   UNL A   1      46.168  21.433  24.199  1.00  0.00     0.110 C 
BRANCH   8   9
ATOM      9  C   UNL A   1      44.971  22.339  24.128  1.00  0.00     0.224 C 
ATOM     10  O   UNL A   1      44.175  22.210  23.185  1.00  0.00    -0.275 OA
ATOM     11  N   UNL A   1      44.635  23.281  25.040  1.00  0.00    -0.325 N 
ATOM     12  H   UNL A   1      43.791  23.713  24.774  1.00  0.00     0.169 HD
BRANCH  11  13
ATOM     13  C   UNL A   1      45.098  23.848  26.253  1.00  0.00     0.053 A 
ATOM     14  C   UNL A   1      44.102  23.756  27.253  1.00  0.00     0.027 A 
ATOM     15  C   UNL A   1      46.323  24.445  26.625  1.00  0.00     0.057 A 
ATOM     16  C   UNL A   1      44.329  24.126  28.577  1.00  0.00     0.003 A 
ATOM     17  C   UNL A   1      46.588  24.695  27.990  1.00  0.00     0.036 A 
ATOM     18  C   UNL A   1      47.136  25.358  25.779  1.00  0.00     0.196 C 
ATOM     19  C   UNL A   1      45.590  24.548  28.956  1.00  0.00     0.013 A 
ATOM     20  C   UNL A   1      47.925  25.179  28.427  1.00  0.00     0.194 C 
ATOM     21  O   UNL A   1      46.587  26.213  25.096  1.00  0.00    -0.288 OA
ATOM     22  C   UNL A   1      48.563  25.548  26.079  1.00  0.00     0.034 A 
ATOM     23  C   UNL A   1      48.955  25.444  27.408  1.00  0.00     0.034 A 
ATOM     24  O   UNL A   1      48.175  25.337  29.615  1.00  0.00    -0.289 OA
ATOM     25  C   UNL A   1      49.474  25.981  25.114  1.00  0.00     0.013 A 
ATOM     26  C   UNL A   1      50.282  25.695  27.769  1.00  0.00     0.013 A 
ATOM     27  C   UNL A   1      50.805  26.213  25.466  1.00  0.00     0.001 A 
ATOM     28  C   UNL A   1      51.211  26.059  26.791  1.00  0.00     0.001 A 
ENDBRANCH  11  13
ENDBRANCH   8   9
ENDBRANCH   7   8
ENDBRANCH   5   7
ENDBRANCH   2   3
ENDBRANCH   1   2
BRANCH   1  29
ATOM     29  C   UNL A   1      42.163  20.655  26.141  1.00  0.00     0.023 C 
BRANCH  29  30
ATOM     30  C   UNL A   1      41.261  21.452  27.076  1.00  0.00     0.116 C 
BRANCH  30  31
ATOM     31  N   UNL A   1      39.904  21.675  26.598  1.00  0.00    -0.352 N 
ATOM     32  C   UNL A   1      39.294  22.913  26.471  1.00  0.00     0.251 C 
ATOM     33  H   UNL A   1      39.378  20.883  26.343  1.00  0.00     0.163 HD
ATOM     34  O   UNL A   1      38.142  23.045  26.097  1.00  0.00    -0.269 OA
BRANCH  32  35
ATOM     35  C   UNL A   1      40.106  24.086  26.864  1.00  0.00     0.039 A 
ATOM     36  C   UNL A   1      40.358  25.075  25.913  1.00  0.00     0.014 A 
ATOM     37  C   UNL A   1      40.366  24.303  28.220  1.00  0.00     0.014 A 
ATOM     38  C   UNL A   1      40.795  26.331  26.339  1.00  0.00     0.010 A 
ATOM     39  C   UNL A   1      40.722  25.579  28.644  1.00  0.00     0.010 A 
ATOM     40  C   UNL A   1      40.928  26.608  27.710  1.00  0.00    -0.014 A 
BRANCH  40  41
ATOM     41  C   UNL A   1      41.271  27.972  28.191  1.00  0.00     0.031 A 
ATOM     42  C   UNL A   1      42.706  28.413  28.214  1.00  0.00     0.074 A 
ATOM     43  C   UNL A   1      40.309  28.784  28.675  1.00  0.00     0.049 A 
ATOM     44  N   UNL A   1      43.222  29.530  28.660  1.00  0.00    -0.248 NA
ATOM     45  C   UNL A   1      43.698  27.456  27.698  1.00  0.00     0.031 C 
ATOM     46  C   UNL A   1      38.885  28.455  28.773  1.00  0.00     0.029 A 
ATOM     47  N   UNL A   1      40.388  30.057  29.185  1.00  0.00    -0.354 N 
ATOM     48  C   UNL A   1      44.595  29.400  28.496  1.00  0.00     0.074 A 
ATOM     49  C   UNL A   1      44.836  28.075  27.969  1.00  0.00     0.031 C 
ATOM     50  C   UNL A   1      38.224  29.507  29.284  1.00  0.00     0.029 A 
ATOM     51  C   UNL A   1      39.177  30.573  29.577  1.00  0.00     0.049 A 
ATOM     52  H   UNL A   1      41.234  30.554  29.262  1.00  0.00     0.167 HD
ATOM     53  C   UNL A   1      45.567  30.312  28.730  1.00  0.00     0.037 A 
ATOM     54  C   UNL A   1      38.869  31.772  30.111  1.00  0.00     0.037 A 
ATOM     55  C   UNL A   1      45.326  31.643  29.217  1.00  0.00     0.049 A 
ATOM     56  C   UNL A   1      39.962  32.780  30.338  1.00  0.00     0.074 A 
ATOM     57  C   UNL A   1      46.239  32.662  29.428  1.00  0.00     0.029 A 
ATOM     58  N   UNL A   1      44.081  32.140  29.565  1.00  0.00    -0.354 N 
ATOM     59  N   UNL A   1      41.249  32.668  30.112  1.00  0.00    -0.248 NA
ATOM     60  C   UNL A   1      39.561  34.082  30.889  1.00  0.00     0.031 C 
ATOM     61  C   UNL A   1      45.547  33.768  29.932  1.00  0.00     0.029 A 
ATOM     62  C   UNL A   1      44.200  33.450  30.000  1.00  0.00     0.049 A 
ATOM     63  H   UNL A   1      43.236  31.638  29.511  1.00  0.00     0.167 HD
ATOM     64  C   UNL A   1      41.806  33.889  30.467  1.00  0.00     0.074 A 
ATOM     65  C   UNL A   1      40.716  34.733  30.912  1.00  0.00     0.031 C 
ATOM     66  C   UNL A   1      43.103  34.278  30.429  1.00  0.00     0.037 A 
BRANCH  53  67
ATOM     67  C   UNL A   1      46.979  29.895  28.443  1.00  0.00     0.057 A 
ATOM     68  C   UNL A   1      47.557  30.076  27.179  1.00  0.00     0.134 A 
ATOM     69  C   UNL A   1      47.772  29.313  29.439  1.00  0.00     0.134 A 
ATOM     70  F   UNL A   1      46.843  30.613  26.177  1.00  0.00    -0.206 F 
ATOM     71  C   UNL A   1      48.862  29.665  26.908  1.00  0.00     0.040 A 
ATOM     72  C   UNL A   1      49.088  28.922  29.187  1.00  0.00     0.040 A 
ATOM     73  F   UNL A   1      47.281  29.114  30.671  1.00  0.00    -0.206 F 
ATOM     74  C   UNL A   1      49.633  29.091  27.916  1.00  0.00     0.006 A 
ENDBRANCH  53  67
BRANCH  54  75
ATOM     75  C   UNL A   1      37.458  32.104  30.436  1.00  0.00     0.057 A 
ATOM     76  C   UNL A   1      36.647  32.782  29.519  1.00  0.00     0.134 A 
ATOM     77  C   UNL A   1      36.892  31.766  31.670  1.00  0.00     0.134 A 
ATOM     78  F   UNL A   1      37.139  33.150  28.327  1.00  0.00    -0.206 F 
ATOM     79  C   UNL A   1      35.329  33.129  29.822  1.00  0.00     0.040 A 
ATOM     80  C   UNL A   1      35.569  32.088  31.980  1.00  0.00     0.040 A 
ATOM     81  F   UNL A   1      37.616  31.113  32.591  1.00  0.00    -0.206 F 
ATOM     82  C   UNL A   1      34.785  32.777  31.056  1.00  0.00     0.006 A 
ENDBRANCH  54  75
BRANCH  66  83
ATOM     83  C   UNL A   1      43.413  35.683  30.849  1.00  0.00     0.057 A 
ATOM     84  C   UNL A   1      43.693  36.010  32.181  1.00  0.00     0.134 A 
ATOM     85  C   UNL A   1      43.480  36.711  29.900  1.00  0.00     0.134 A 
ATOM     86  F   UNL A   1      43.634  35.071  33.138  1.00  0.00    -0.206 F 
ATOM     87  C   UNL A   1      44.011  37.316  32.559  1.00  0.00     0.040 A 
ATOM     88  C   UNL A   1      43.819  38.015  30.262  1.00  0.00     0.040 A 
ATOM     89  F   UNL A   1      43.232  36.462  28.606  1.00  0.00    -0.206 F 
ATOM     90  C   UNL A   1      44.082  38.321  31.596  1.00  0.00     0.006 A 
ENDBRANCH  66  83
ENDBRANCH  40  41
ENDBRANCH  32  35
ENDBRANCH  30  31
ENDBRANCH  29  30
ENDBRANCH   1  29
TORSDOF 14
ENDMDL
