MODEL 1
REMARK VINA RESULT:     -10.9      0.000      0.000
REMARK SMILES O=C(CCSC1=NC=NC2=[NH+]C=N[C@@H]12)NCCCCNC(=O)c1ccc(-c2c3nc(c(-c4c(F)cccc4F)c4ccc([nH]4)c(-c4c(F)cccc4F)c4nc(c(-c5c(F)cccc5F)c5ccc2[nH]5)C=C4)C=C3)cc1
REMARK SMILES IDX 17 1 16 2 15 3 1 4 2 5 3 7 4 8 5 9 6 10 7 11 14 12 8 13
REMARK SMILES IDX 10 14 13 15 9 16 11 17 12 18 18 20 19 21 20 22 21 23 22 25
REMARK SMILES IDX 23 26 24 27 76 28 25 29 75 30 26 31 27 32 28 33 69 34 29 35
REMARK SMILES IDX 74 36 68 37 70 38 30 39 73 40 67 41 66 42 31 44 57 45 40 46
REMARK SMILES IDX 56 47 41 48 44 49 55 50 71 51 42 52 43 53 54 55 72 56 45 57
REMARK SMILES IDX 32 58 33 59 38 60 34 61 35 62 37 63 39 64 36 65 58 66 59 67
REMARK SMILES IDX 64 68 60 69 61 70 63 71 65 72 62 73 46 74 47 75 52 76 48 77
REMARK SMILES IDX 49 78 51 79 53 80 50 81
REMARK H PARENT 15 6 11 19 20 24 70 43 44 54
REMARK Flexibility Score: inf
ROOT
ATOM      1  C   UNL A   1      41.364  20.756  27.175  1.00  0.00     0.023 C 
ENDROOT
BRANCH   1   2
ATOM      2  C   UNL A   1      40.319  20.971  26.072  1.00  0.00     0.116 C 
BRANCH   2   3
ATOM      3  N   UNL A   1      39.518  22.195  26.126  1.00  0.00    -0.356 N 
ATOM      4  O   UNL A   1      37.644  21.248  25.179  1.00  0.00    -0.275 OA
ATOM      5  C   UNL A   1      38.181  22.196  25.746  1.00  0.00     0.220 C 
ATOM      6  H   UNL A   1      39.933  23.032  26.437  1.00  0.00     0.163 HD
BRANCH   5   7
ATOM      7  C   UNL A   1      37.405  23.474  26.041  1.00  0.00     0.111 C 
BRANCH   7   8
ATOM      8  C   UNL A   1      35.878  23.324  25.977  1.00  0.00     0.086 C 
BRANCH   8   9
ATOM      9  S   UNL A   1      34.950  24.580  25.042  1.00  0.00    -0.106 SA
BRANCH   9  10
ATOM     10  C   UNL A   1      33.438  23.751  24.771  1.00  0.00     0.128 C 
ATOM     11  N   UNL A   1      32.527  23.713  25.693  1.00  0.00    -0.214 NA
ATOM     12  C   UNL A   1      33.189  23.193  23.399  1.00  0.00     0.340 C 
ATOM     13  C   UNL A   1      31.266  23.281  25.338  1.00  0.00     0.320 C 
ATOM     14  C   UNL A   1      31.789  23.614  23.235  1.00  0.00     0.285 C 
ATOM     15  N   UNL A   1      33.850  23.941  22.301  1.00  0.00    -0.130 NA
ATOM     16  N   UNL A   1      30.843  23.217  24.111  1.00  0.00    -0.092 NA
ATOM     17  N   UNL A   1      31.664  24.568  22.378  1.00  0.00    -0.248 N 
ATOM     18  C   UNL A   1      32.907  24.691  21.827  1.00  0.00     0.362 C 
ATOM     19  H   UNL A   1      30.855  25.089  22.167  1.00  0.00     0.266 HD
ENDBRANCH   9  10
ENDBRANCH   8   9
ENDBRANCH   7   8
ENDBRANCH   5   7
ENDBRANCH   2   3
ENDBRANCH   1   2
BRANCH   1  20
ATOM     20  C   UNL A   1      42.338  19.567  27.095  1.00  0.00     0.023 C 
BRANCH  20  21
ATOM     21  C   UNL A   1      42.656  18.908  25.739  1.00  0.00     0.116 C 
BRANCH  21  22
ATOM     22  N   UNL A   1      44.067  18.835  25.335  1.00  0.00    -0.352 N 
ATOM     23  C   UNL A   1      44.871  19.850  24.791  1.00  0.00     0.251 C 
ATOM     24  H   UNL A   1      44.505  17.963  25.463  1.00  0.00     0.163 HD
ATOM     25  O   UNL A   1      45.832  19.569  24.090  1.00  0.00    -0.269 OA
BRANCH  23  26
ATOM     26  C   UNL A   1      44.595  21.278  25.118  1.00  0.00     0.039 A 
ATOM     27  C   UNL A   1      43.724  22.139  24.423  1.00  0.00     0.014 A 
ATOM     28  C   UNL A   1      45.276  21.777  26.199  1.00  0.00     0.014 A 
ATOM     29  C   UNL A   1      43.503  23.463  24.891  1.00  0.00     0.010 A 
ATOM     30  C   UNL A   1      44.870  22.965  26.754  1.00  0.00     0.010 A 
ATOM     31  C   UNL A   1      44.085  23.876  26.093  1.00  0.00    -0.014 A 
BRANCH  31  32
ATOM     32  C   UNL A   1      43.816  25.095  26.879  1.00  0.00     0.031 A 
ATOM     33  C   UNL A   1      44.708  26.238  26.568  1.00  0.00     0.074 A 
ATOM     34  C   UNL A   1      42.651  25.399  27.518  1.00  0.00     0.049 A 
ATOM     35  N   UNL A   1      45.676  26.691  27.288  1.00  0.00    -0.248 NA
ATOM     36  C   UNL A   1      44.569  26.903  25.265  1.00  0.00     0.031 C 
ATOM     37  C   UNL A   1      41.400  24.625  27.621  1.00  0.00     0.029 A 
ATOM     38  N   UNL A   1      42.322  26.555  28.176  1.00  0.00    -0.354 N 
ATOM     39  C   UNL A   1      46.150  27.821  26.630  1.00  0.00     0.074 A 
ATOM     40  C   UNL A   1      45.571  27.785  25.312  1.00  0.00     0.031 C 
ATOM     41  C   UNL A   1      40.422  25.388  28.172  1.00  0.00     0.029 A 
ATOM     42  C   UNL A   1      40.999  26.647  28.605  1.00  0.00     0.049 A 
ATOM     43  H   UNL A   1      42.976  27.273  28.336  1.00  0.00     0.167 HD
ATOM     44  C   UNL A   1      46.803  28.809  27.306  1.00  0.00     0.037 A 
ATOM     45  C   UNL A   1      40.430  27.667  29.302  1.00  0.00     0.037 A 
ATOM     46  C   UNL A   1      47.111  28.394  28.656  1.00  0.00     0.049 A 
ATOM     47  C   UNL A   1      41.532  28.399  29.969  1.00  0.00     0.074 A 
ATOM     48  C   UNL A   1      47.820  27.352  29.224  1.00  0.00     0.029 A 
ATOM     49  N   UNL A   1      46.317  28.883  29.666  1.00  0.00    -0.354 N 
ATOM     50  N   UNL A   1      42.263  27.899  30.924  1.00  0.00    -0.248 NA
ATOM     51  C   UNL A   1      42.093  29.553  29.287  1.00  0.00     0.031 C 
ATOM     52  C   UNL A   1      47.041  26.951  30.352  1.00  0.00     0.029 A 
ATOM     53  C   UNL A   1      45.947  27.813  30.439  1.00  0.00     0.049 A 
ATOM     54  H   UNL A   1      46.063  29.824  29.808  1.00  0.00     0.167 HD
ATOM     55  C   UNL A   1      43.539  28.379  30.674  1.00  0.00     0.074 A 
ATOM     56  C   UNL A   1      43.352  29.472  29.722  1.00  0.00     0.031 C 
ATOM     57  C   UNL A   1      44.642  27.667  31.046  1.00  0.00     0.037 A 
BRANCH  44  58
ATOM     58  C   UNL A   1      46.873  30.262  26.900  1.00  0.00     0.057 A 
ATOM     59  C   UNL A   1      48.122  30.913  26.921  1.00  0.00     0.134 A 
ATOM     60  C   UNL A   1      45.762  31.114  26.748  1.00  0.00     0.134 A 
ATOM     61  F   UNL A   1      49.260  30.216  27.064  1.00  0.00    -0.206 F 
ATOM     62  C   UNL A   1      48.249  32.306  26.877  1.00  0.00     0.040 A 
ATOM     63  C   UNL A   1      45.882  32.504  26.645  1.00  0.00     0.040 A 
ATOM     64  F   UNL A   1      44.502  30.667  26.789  1.00  0.00    -0.206 F 
ATOM     65  C   UNL A   1      47.124  33.108  26.745  1.00  0.00     0.006 A 
ENDBRANCH  44  58
BRANCH  45  66
ATOM     66  C   UNL A   1      39.044  28.197  29.320  1.00  0.00     0.057 A 
ATOM     67  C   UNL A   1      38.269  28.202  30.492  1.00  0.00     0.134 A 
ATOM     68  C   UNL A   1      38.570  28.999  28.270  1.00  0.00     0.134 A 
ATOM     69  F   UNL A   1      38.652  27.497  31.567  1.00  0.00    -0.206 F 
ATOM     70  C   UNL A   1      37.111  28.984  30.623  1.00  0.00     0.040 A 
ATOM     71  C   UNL A   1      37.419  29.789  28.389  1.00  0.00     0.040 A 
ATOM     72  F   UNL A   1      39.265  29.110  27.128  1.00  0.00    -0.206 F 
ATOM     73  C   UNL A   1      36.692  29.796  29.575  1.00  0.00     0.006 A 
ENDBRANCH  45  66
BRANCH  57  74
ATOM     74  C   UNL A   1      44.443  26.480  31.951  1.00  0.00     0.057 A 
ATOM     75  C   UNL A   1      44.364  25.153  31.502  1.00  0.00     0.134 A 
ATOM     76  C   UNL A   1      44.486  26.670  33.335  1.00  0.00     0.134 A 
ATOM     77  F   UNL A   1      44.403  24.856  30.201  1.00  0.00    -0.206 F 
ATOM     78  C   UNL A   1      44.303  24.070  32.387  1.00  0.00     0.040 A 
ATOM     79  C   UNL A   1      44.454  25.597  34.230  1.00  0.00     0.040 A 
ATOM     80  F   UNL A   1      44.608  27.907  33.842  1.00  0.00    -0.206 F 
ATOM     81  C   UNL A   1      44.356  24.292  33.757  1.00  0.00     0.006 A 
ENDBRANCH  57  74
ENDBRANCH  31  32
ENDBRANCH  23  26
ENDBRANCH  21  22
ENDBRANCH  20  21
ENDBRANCH   1  20
TORSDOF 14
ENDMDL
MODEL 2
REMARK VINA RESULT:     -10.3      5.155     10.244
REMARK SMILES O=C(CCSC1=NC=NC2=[NH+]C=N[C@@H]12)NCCCCNC(=O)c1ccc(-c2c3nc(c(-c4c(F)cccc4F)c4ccc([nH]4)c(-c4c(F)cccc4F)c4nc(c(-c5c(F)cccc5F)c5ccc2[nH]5)C=C4)C=C3)cc1
REMARK SMILES IDX 17 1 16 2 15 3 1 4 2 5 3 7 4 8 5 9 6 10 7 11 14 12 8 13
REMARK SMILES IDX 10 14 13 15 9 16 11 17 12 18 18 20 19 21 20 22 21 23 22 25
REMARK SMILES IDX 23 26 24 27 76 28 25 29 75 30 26 31 27 32 28 33 69 34 29 35
REMARK SMILES IDX 74 36 68 37 70 38 30 39 73 40 67 41 66 42 31 44 57 45 40 46
REMARK SMILES IDX 56 47 41 48 44 49 55 50 71 51 42 52 43 53 54 55 72 56 45 57
REMARK SMILES IDX 32 58 33 59 38 60 34 61 35 62 37 63 39 64 36 65 58 66 59 67
REMARK SMILES IDX 64 68 60 69 61 70 63 71 65 72 62 73 46 74 47 75 52 76 48 77
REMARK SMILES IDX 49 78 51 79 53 80 50 81
REMARK H PARENT 15 6 11 19 20 24 70 43 44 54
REMARK Flexibility Score: inf
ROOT
ATOM      1  C   UNL A   1      34.143  33.726  27.922  1.00  0.00     0.023 C 
ENDROOT
BRANCH   1   2
ATOM      2  C   UNL A   1      34.621  32.313  28.284  1.00  0.00     0.116 C 
BRANCH   2   3
ATOM      3  N   UNL A   1      33.724  31.196  27.985  1.00  0.00    -0.356 N 
ATOM      4  O   UNL A   1      35.384  29.819  27.175  1.00  0.00    -0.275 OA
ATOM      5  C   UNL A   1      34.219  29.980  27.528  1.00  0.00     0.220 C 
ATOM      6  H   UNL A   1      32.754  31.308  28.109  1.00  0.00     0.163 HD
BRANCH   5   7
ATOM      7  C   UNL A   1      33.212  28.838  27.451  1.00  0.00     0.111 C 
BRANCH   7   8
ATOM      8  C   UNL A   1      32.962  28.302  26.034  1.00  0.00     0.086 C 
BRANCH   8   9
ATOM      9  S   UNL A   1      31.660  27.047  25.830  1.00  0.00    -0.106 SA
BRANCH   9  10
ATOM     10  C   UNL A   1      30.783  27.688  24.464  1.00  0.00     0.128 C 
ATOM     11  N   UNL A   1      30.675  28.969  24.285  1.00  0.00    -0.214 NA
ATOM     12  C   UNL A   1      30.264  26.710  23.450  1.00  0.00     0.340 C 
ATOM     13  C   UNL A   1      30.206  29.414  23.067  1.00  0.00     0.320 C 
ATOM     14  C   UNL A   1      30.635  27.436  22.225  1.00  0.00     0.285 C 
ATOM     15  N   UNL A   1      31.078  25.475  23.314  1.00  0.00    -0.130 NA
ATOM     16  N   UNL A   1      30.170  28.681  21.995  1.00  0.00    -0.092 NA
ATOM     17  N   UNL A   1      31.614  26.875  21.602  1.00  0.00    -0.248 N 
ATOM     18  C   UNL A   1      31.806  25.698  22.268  1.00  0.00     0.362 C 
ATOM     19  H   UNL A   1      32.109  27.216  20.823  1.00  0.00     0.266 HD
ENDBRANCH   9  10
ENDBRANCH   8   9
ENDBRANCH   7   8
ENDBRANCH   5   7
ENDBRANCH   2   3
ENDBRANCH   1   2
BRANCH   1  20
ATOM     20  C   UNL A   1      33.130  34.453  28.824  1.00  0.00     0.023 C 
BRANCH  20  21
ATOM     21  C   UNL A   1      33.449  35.852  29.388  1.00  0.00     0.116 C 
BRANCH  21  22
ATOM     22  N   UNL A   1      33.006  36.149  30.756  1.00  0.00    -0.352 N 
ATOM     23  C   UNL A   1      33.165  35.368  31.913  1.00  0.00     0.251 C 
ATOM     24  H   UNL A   1      32.538  37.006  30.879  1.00  0.00     0.163 HD
ATOM     25  O   UNL A   1      32.387  35.482  32.848  1.00  0.00    -0.269 OA
BRANCH  23  26
ATOM     26  C   UNL A   1      34.324  34.438  32.033  1.00  0.00     0.039 A 
ATOM     27  C   UNL A   1      34.268  33.032  32.026  1.00  0.00     0.014 A 
ATOM     28  C   UNL A   1      35.550  35.039  32.171  1.00  0.00     0.014 A 
ATOM     29  C   UNL A   1      35.466  32.267  32.078  1.00  0.00     0.010 A 
ATOM     30  C   UNL A   1      36.685  34.291  31.986  1.00  0.00     0.010 A 
ATOM     31  C   UNL A   1      36.703  32.919  32.046  1.00  0.00    -0.014 A 
BRANCH  31  32
ATOM     32  C   UNL A   1      38.047  32.343  31.858  1.00  0.00     0.031 A 
ATOM     33  C   UNL A   1      38.810  32.137  33.111  1.00  0.00     0.074 A 
ATOM     34  C   UNL A   1      38.474  31.639  30.771  1.00  0.00     0.049 A 
ATOM     35  N   UNL A   1      39.807  32.831  33.542  1.00  0.00    -0.248 NA
ATOM     36  C   UNL A   1      38.362  31.092  34.043  1.00  0.00     0.031 C 
ATOM     37  C   UNL A   1      37.759  31.292  29.529  1.00  0.00     0.029 A 
ATOM     38  N   UNL A   1      39.676  31.005  30.592  1.00  0.00    -0.354 N 
ATOM     39  C   UNL A   1      40.244  32.201  34.702  1.00  0.00     0.074 A 
ATOM     40  C   UNL A   1      39.207  31.269  35.061  1.00  0.00     0.031 C 
ATOM     41  C   UNL A   1      38.486  30.405  28.803  1.00  0.00     0.029 A 
ATOM     42  C   UNL A   1      39.780  30.231  29.437  1.00  0.00     0.049 A 
ATOM     43  H   UNL A   1      40.416  31.090  31.235  1.00  0.00     0.167 HD
ATOM     44  C   UNL A   1      41.527  32.343  35.141  1.00  0.00     0.037 A 
ATOM     45  C   UNL A   1      40.866  29.530  29.012  1.00  0.00     0.037 A 
ATOM     46  C   UNL A   1      42.216  33.373  34.397  1.00  0.00     0.049 A 
ATOM     47  C   UNL A   1      42.049  30.127  29.676  1.00  0.00     0.074 A 
ATOM     48  C   UNL A   1      42.005  34.719  34.160  1.00  0.00     0.029 A 
ATOM     49  N   UNL A   1      43.099  32.969  33.423  1.00  0.00    -0.354 N 
ATOM     50  N   UNL A   1      42.489  31.329  29.433  1.00  0.00    -0.248 NA
ATOM     51  C   UNL A   1      42.503  29.532  30.921  1.00  0.00     0.031 C 
ATOM     52  C   UNL A   1      42.345  34.906  32.786  1.00  0.00     0.029 A 
ATOM     53  C   UNL A   1      42.802  33.684  32.291  1.00  0.00     0.049 A 
ATOM     54  H   UNL A   1      43.810  32.296  33.521  1.00  0.00     0.167 HD
ATOM     55  C   UNL A   1      42.901  31.806  30.667  1.00  0.00     0.074 A 
ATOM     56  C   UNL A   1      42.984  30.623  31.521  1.00  0.00     0.031 C 
ATOM     57  C   UNL A   1      42.864  33.140  30.953  1.00  0.00     0.037 A 
BRANCH  44  58
ATOM     58  C   UNL A   1      42.287  31.352  35.990  1.00  0.00     0.057 A 
ATOM     59  C   UNL A   1      42.967  31.817  37.132  1.00  0.00     0.134 A 
ATOM     60  C   UNL A   1      42.603  30.034  35.607  1.00  0.00     0.134 A 
ATOM     61  F   UNL A   1      42.759  33.058  37.600  1.00  0.00    -0.206 F 
ATOM     62  C   UNL A   1      43.942  31.061  37.792  1.00  0.00     0.040 A 
ATOM     63  C   UNL A   1      43.535  29.249  36.294  1.00  0.00     0.040 A 
ATOM     64  F   UNL A   1      42.108  29.468  34.501  1.00  0.00    -0.206 F 
ATOM     65  C   UNL A   1      44.235  29.772  37.368  1.00  0.00     0.006 A 
ENDBRANCH  44  58
BRANCH  45  66
ATOM     66  C   UNL A   1      40.987  28.278  28.226  1.00  0.00     0.057 A 
ATOM     67  C   UNL A   1      40.331  27.096  28.611  1.00  0.00     0.134 A 
ATOM     68  C   UNL A   1      41.486  28.302  26.914  1.00  0.00     0.134 A 
ATOM     69  F   UNL A   1      39.787  26.984  29.832  1.00  0.00    -0.206 F 
ATOM     70  C   UNL A   1      40.152  26.016  27.733  1.00  0.00     0.040 A 
ATOM     71  C   UNL A   1      41.310  27.233  26.025  1.00  0.00     0.040 A 
ATOM     72  F   UNL A   1      42.079  29.402  26.428  1.00  0.00    -0.206 F 
ATOM     73  C   UNL A   1      40.627  26.090  26.427  1.00  0.00     0.006 A 
ENDBRANCH  45  66
BRANCH  57  74
ATOM     74  C   UNL A   1      42.607  34.096  29.818  1.00  0.00     0.057 A 
ATOM     75  C   UNL A   1      41.348  34.629  29.508  1.00  0.00     0.134 A 
ATOM     76  C   UNL A   1      43.697  34.615  29.112  1.00  0.00     0.134 A 
ATOM     77  F   UNL A   1      40.254  34.264  30.182  1.00  0.00    -0.206 F 
ATOM     78  C   UNL A   1      41.175  35.609  28.524  1.00  0.00     0.040 A 
ATOM     79  C   UNL A   1      43.544  35.614  28.147  1.00  0.00     0.040 A 
ATOM     80  F   UNL A   1      44.941  34.191  29.385  1.00  0.00    -0.206 F 
ATOM     81  C   UNL A   1      42.279  36.111  27.846  1.00  0.00     0.006 A 
ENDBRANCH  57  74
ENDBRANCH  31  32
ENDBRANCH  23  26
ENDBRANCH  21  22
ENDBRANCH  20  21
ENDBRANCH   1  20
TORSDOF 14
ENDMDL
MODEL 3
REMARK VINA RESULT:     -10.3      5.049     10.347
REMARK SMILES O=C(CCSC1=NC=NC2=[NH+]C=N[C@@H]12)NCCCCNC(=O)c1ccc(-c2c3nc(c(-c4c(F)cccc4F)c4ccc([nH]4)c(-c4c(F)cccc4F)c4nc(c(-c5c(F)cccc5F)c5ccc2[nH]5)C=C4)C=C3)cc1
REMARK SMILES IDX 17 1 16 2 15 3 1 4 2 5 3 7 4 8 5 9 6 10 7 11 14 12 8 13
REMARK SMILES IDX 10 14 13 15 9 16 11 17 12 18 18 20 19 21 20 22 21 23 22 25
REMARK SMILES IDX 23 26 24 27 76 28 25 29 75 30 26 31 27 32 28 33 69 34 29 35
REMARK SMILES IDX 74 36 68 37 70 38 30 39 73 40 67 41 66 42 31 44 57 45 40 46
REMARK SMILES IDX 56 47 41 48 44 49 55 50 71 51 42 52 43 53 54 55 72 56 45 57
REMARK SMILES IDX 32 58 33 59 38 60 34 61 35 62 37 63 39 64 36 65 58 66 59 67
REMARK SMILES IDX 64 68 60 69 61 70 63 71 65 72 62 73 46 74 47 75 52 76 48 77
REMARK SMILES IDX 49 78 51 79 53 80 50 81
REMARK H PARENT 15 6 11 19 20 24 70 43 44 54
REMARK Flexibility Score: inf
ROOT
ATOM      1  C   UNL A   1      40.184  34.177  30.946  1.00  0.00     0.023 C 
ENDROOT
BRANCH   1   2
ATOM      2  C   UNL A   1      39.930  33.610  32.349  1.00  0.00     0.116 C 
BRANCH   2   3
ATOM      3  N   UNL A   1      38.541  33.514  32.800  1.00  0.00    -0.356 N 
ATOM      4  O   UNL A   1      38.664  31.281  33.350  1.00  0.00    -0.275 OA
ATOM      5  C   UNL A   1      38.047  32.343  33.362  1.00  0.00     0.220 C 
ATOM      6  H   UNL A   1      37.946  34.293  32.703  1.00  0.00     0.163 HD
BRANCH   5   7
ATOM      7  C   UNL A   1      36.655  32.433  33.977  1.00  0.00     0.111 C 
BRANCH   7   8
ATOM      8  C   UNL A   1      35.916  33.749  33.695  1.00  0.00     0.086 C 
BRANCH   8   9
ATOM      9  S   UNL A   1      34.991  33.873  32.133  1.00  0.00    -0.106 SA
BRANCH   9  10
ATOM     10  C   UNL A   1      34.128  35.371  32.369  1.00  0.00     0.128 C 
ATOM     11  N   UNL A   1      34.588  36.285  33.166  1.00  0.00    -0.214 NA
ATOM     12  C   UNL A   1      32.905  35.608  31.530  1.00  0.00     0.340 C 
ATOM     13  C   UNL A   1      34.014  37.538  33.114  1.00  0.00     0.320 C 
ATOM     14  C   UNL A   1      33.147  37.014  31.170  1.00  0.00     0.285 C 
ATOM     15  N   UNL A   1      32.938  34.956  30.197  1.00  0.00    -0.130 NA
ATOM     16  N   UNL A   1      33.281  37.956  32.125  1.00  0.00    -0.092 NA
ATOM     17  N   UNL A   1      33.473  37.151  29.931  1.00  0.00    -0.248 N 
ATOM     18  C   UNL A   1      33.292  35.908  29.395  1.00  0.00     0.362 C 
ATOM     19  H   UNL A   1      33.781  37.966  29.474  1.00  0.00     0.266 HD
ENDBRANCH   9  10
ENDBRANCH   8   9
ENDBRANCH   7   8
ENDBRANCH   5   7
ENDBRANCH   2   3
ENDBRANCH   1   2
BRANCH   1  20
ATOM     20  C   UNL A   1      39.098  35.009  30.240  1.00  0.00     0.023 C 
BRANCH  20  21
ATOM     21  C   UNL A   1      38.443  34.498  28.942  1.00  0.00     0.116 C 
BRANCH  21  22
ATOM     22  N   UNL A   1      37.015  34.159  28.991  1.00  0.00    -0.352 N 
ATOM     23  C   UNL A   1      36.393  32.951  28.638  1.00  0.00     0.251 C 
ATOM     24  H   UNL A   1      36.416  34.871  29.314  1.00  0.00     0.163 HD
ATOM     25  O   UNL A   1      35.223  32.937  28.285  1.00  0.00    -0.269 OA
BRANCH  23  26
ATOM     26  C   UNL A   1      37.139  31.665  28.752  1.00  0.00     0.039 A 
ATOM     27  C   UNL A   1      37.062  30.575  27.865  1.00  0.00     0.014 A 
ATOM     28  C   UNL A   1      37.966  31.559  29.842  1.00  0.00     0.014 A 
ATOM     29  C   UNL A   1      37.888  29.434  28.059  1.00  0.00     0.010 A 
ATOM     30  C   UNL A   1      38.906  30.560  29.872  1.00  0.00     0.010 A 
ATOM     31  C   UNL A   1      38.840  29.438  29.084  1.00  0.00    -0.014 A 
BRANCH  31  32
ATOM     32  C   UNL A   1      39.941  28.487  29.326  1.00  0.00     0.031 A 
ATOM     33  C   UNL A   1      40.239  28.241  30.757  1.00  0.00     0.074 A 
ATOM     34  C   UNL A   1      40.405  27.555  28.446  1.00  0.00     0.049 A 
ATOM     35  N   UNL A   1      41.248  28.677  31.430  1.00  0.00    -0.248 NA
ATOM     36  C   UNL A   1      39.260  27.496  31.561  1.00  0.00     0.031 C 
ATOM     37  C   UNL A   1      39.978  27.263  27.065  1.00  0.00     0.029 A 
ATOM     38  N   UNL A   1      41.356  26.591  28.657  1.00  0.00    -0.354 N 
ATOM     39  C   UNL A   1      41.144  28.108  32.695  1.00  0.00     0.074 A 
ATOM     40  C   UNL A   1      39.814  27.560  32.774  1.00  0.00     0.031 C 
ATOM     41  C   UNL A   1      40.563  26.120  26.627  1.00  0.00     0.029 A 
ATOM     42  C   UNL A   1      41.522  25.673  27.620  1.00  0.00     0.049 A 
ATOM     43  H   UNL A   1      41.886  26.548  29.485  1.00  0.00     0.167 HD
ATOM     44  C   UNL A   1      42.242  27.940  33.485  1.00  0.00     0.037 A 
ATOM     45  C   UNL A   1      42.412  24.647  27.566  1.00  0.00     0.037 A 
ATOM     46  C   UNL A   1      43.387  28.627  32.931  1.00  0.00     0.049 A 
ATOM     47  C   UNL A   1      43.498  24.969  28.520  1.00  0.00     0.074 A 
ATOM     48  C   UNL A   1      43.670  29.934  32.583  1.00  0.00     0.029 A 
ATOM     49  N   UNL A   1      44.329  27.867  32.280  1.00  0.00    -0.354 N 
ATOM     50  N   UNL A   1      44.334  25.955  28.365  1.00  0.00    -0.248 NA
ATOM     51  C   UNL A   1      43.398  24.438  29.870  1.00  0.00     0.031 C 
ATOM     52  C   UNL A   1      44.406  29.836  31.362  1.00  0.00     0.029 A 
ATOM     53  C   UNL A   1      44.580  28.481  31.080  1.00  0.00     0.049 A 
ATOM     54  H   UNL A   1      44.745  27.040  32.613  1.00  0.00     0.167 HD
ATOM     55  C   UNL A   1      44.527  26.455  29.643  1.00  0.00     0.074 A 
ATOM     56  C   UNL A   1      44.011  25.419  30.535  1.00  0.00     0.031 C 
ATOM     57  C   UNL A   1      44.827  27.771  29.845  1.00  0.00     0.037 A 
BRANCH  44  58
ATOM     58  C   UNL A   1      42.404  26.895  34.563  1.00  0.00     0.057 A 
ATOM     59  C   UNL A   1      42.079  27.235  35.891  1.00  0.00     0.134 A 
ATOM     60  C   UNL A   1      43.102  25.681  34.415  1.00  0.00     0.134 A 
ATOM     61  F   UNL A   1      41.419  28.369  36.170  1.00  0.00    -0.206 F 
ATOM     62  C   UNL A   1      42.487  26.468  36.989  1.00  0.00     0.040 A 
ATOM     63  C   UNL A   1      43.464  24.878  35.502  1.00  0.00     0.040 A 
ATOM     64  F   UNL A   1      43.556  25.251  33.233  1.00  0.00    -0.206 F 
ATOM     65  C   UNL A   1      43.189  25.287  36.796  1.00  0.00     0.006 A 
ENDBRANCH  44  58
BRANCH  45  66
ATOM     66  C   UNL A   1      42.348  23.319  26.907  1.00  0.00     0.057 A 
ATOM     67  C   UNL A   1      43.335  22.893  26.002  1.00  0.00     0.134 A 
ATOM     68  C   UNL A   1      41.492  22.318  27.394  1.00  0.00     0.134 A 
ATOM     69  F   UNL A   1      44.226  23.764  25.504  1.00  0.00    -0.206 F 
ATOM     70  C   UNL A   1      43.483  21.548  25.630  1.00  0.00     0.040 A 
ATOM     71  C   UNL A   1      41.632  20.971  27.035  1.00  0.00     0.040 A 
ATOM     72  F   UNL A   1      40.551  22.608  28.305  1.00  0.00    -0.206 F 
ATOM     73  C   UNL A   1      42.640  20.578  26.162  1.00  0.00     0.006 A 
ENDBRANCH  45  66
BRANCH  57  74
ATOM     74  C   UNL A   1      45.190  28.603  28.643  1.00  0.00     0.057 A 
ATOM     75  C   UNL A   1      44.279  29.399  27.933  1.00  0.00     0.134 A 
ATOM     76  C   UNL A   1      46.536  28.724  28.286  1.00  0.00     0.134 A 
ATOM     77  F   UNL A   1      42.982  29.423  28.252  1.00  0.00    -0.206 F 
ATOM     78  C   UNL A   1      44.682  30.252  26.900  1.00  0.00     0.040 A 
ATOM     79  C   UNL A   1      46.958  29.592  27.275  1.00  0.00     0.040 A 
ATOM     80  F   UNL A   1      47.475  28.030  28.950  1.00  0.00    -0.206 F 
ATOM     81  C   UNL A   1      46.029  30.356  26.574  1.00  0.00     0.006 A 
ENDBRANCH  57  74
ENDBRANCH  31  32
ENDBRANCH  23  26
ENDBRANCH  21  22
ENDBRANCH  20  21
ENDBRANCH   1  20
TORSDOF 14
ENDMDL
