MODEL 1
REMARK VINA RESULT:     -12.3      0.000      0.000
REMARK SMILES C[C@@H](c1cccc(O)c1)[N@H+]1[C@@H]2CC[C@H]1C[C@H](CC(=O)NCCCCNC(=O)c1ccc(-c3c4nc(c(-c5c(F)cccc5F)c5ccc([nH]5)c(-c5c(F)cccc5F)c5nc(c(-c6c(F)cccc6F)c6ccc3[nH]6)C=C5)C=C4)cc1)C2
REMARK SMILES IDX 21 1 20 2 18 3 19 4 17 6 16 7 10 8 11 9 14 10 12 12 82 13
REMARK SMILES IDX 13 14 15 15 2 16 1 17 3 18 4 19 9 20 5 21 7 22 6 23 8 24
REMARK SMILES IDX 22 26 23 27 24 28 25 29 26 30 27 32 28 33 29 34 81 35 30 36
REMARK SMILES IDX 80 37 31 38 32 39 33 40 74 41 34 42 79 43 73 44 75 45 35 46
REMARK SMILES IDX 78 47 72 48 71 49 36 51 62 52 45 53 61 54 46 55 49 56 60 57
REMARK SMILES IDX 76 58 47 59 48 60 59 62 77 63 50 64 37 65 38 66 43 67 39 68
REMARK SMILES IDX 40 69 42 70 44 71 41 72 63 73 64 74 69 75 65 76 66 77 68 78
REMARK SMILES IDX 70 79 67 80 51 81 52 82 57 83 53 84 54 85 56 86 58 87 55 88
REMARK H PARENT 20 5 10 11 8 25 25 31 75 50 49 61
REMARK Flexibility Score: inf
ROOT
ATOM      1  C   UNL A   1      33.303  30.358  26.626  1.00  0.00     0.116 C 
ENDROOT
BRANCH   1   2
ATOM      2  N   UNL A   1      33.532  29.694  25.355  1.00  0.00    -0.356 N 
ATOM      3  C   UNL A   1      33.923  28.415  25.088  1.00  0.00     0.220 C 
ATOM      4  O   UNL A   1      34.198  28.124  23.923  1.00  0.00    -0.275 OA
ATOM      5  H   UNL A   1      33.382  30.256  24.560  1.00  0.00     0.163 HD
BRANCH   3   6
ATOM      6  C   UNL A   1      33.990  27.368  26.186  1.00  0.00     0.104 C 
BRANCH   6   7
ATOM      7  C   UNL A   1      32.866  26.307  26.140  1.00  0.00     0.010 C 
ATOM      8  N   UNL A   1      30.595  25.961  24.201  1.00  0.00    -0.324 N 
ATOM      9  C   UNL A   1      31.637  24.924  24.323  1.00  0.00     0.185 C 
ATOM     10  C   UNL A   1      30.302  26.252  25.612  1.00  0.00     0.185 C 
ATOM     11  H   UNL A   1      29.780  25.641  23.677  1.00  0.00     0.349 HD
ATOM     12  C   UNL A   1      31.012  23.971  25.352  1.00  0.00     0.071 C 
ATOM     13  C   UNL A   1      32.976  25.494  24.834  1.00  0.00     0.069 C 
ATOM     14  C   UNL A   1      30.096  24.853  26.190  1.00  0.00     0.071 C 
ATOM     15  C   UNL A   1      31.478  26.944  26.313  1.00  0.00     0.069 C 
BRANCH   8  16
ATOM     16  C   UNL A   1      30.891  27.125  23.329  1.00  0.00     0.212 C 
ATOM     17  C   UNL A   1      31.175  26.685  21.873  1.00  0.00     0.081 C 
BRANCH  16  18
ATOM     18  C   UNL A   1      29.791  28.205  23.360  1.00  0.00     0.013 A 
ATOM     19  C   UNL A   1      30.129  29.568  23.470  1.00  0.00     0.010 A 
ATOM     20  C   UNL A   1      28.427  27.897  23.209  1.00  0.00     0.056 A 
ATOM     21  C   UNL A   1      29.154  30.572  23.426  1.00  0.00     0.004 A 
ATOM     22  C   UNL A   1      27.465  28.903  23.123  1.00  0.00     0.116 A 
ATOM     23  C   UNL A   1      27.815  30.240  23.239  1.00  0.00     0.046 A 
BRANCH  22  24
ATOM     24  O   UNL A   1      26.173  28.525  22.899  1.00  0.00    -0.508 OA
ATOM     25  H   UNL A   1      25.964  27.619  22.782  1.00  0.00     0.293 HD
ENDBRANCH  22  24
ENDBRANCH  16  18
ENDBRANCH   8  16
ENDBRANCH   6   7
ENDBRANCH   3   6
ENDBRANCH   1   2
BRANCH   1  26
ATOM     26  C   UNL A   1      31.808  30.588  26.850  1.00  0.00     0.023 C 
BRANCH  26  27
ATOM     27  C   UNL A   1      31.348  32.031  26.781  1.00  0.00     0.023 C 
BRANCH  27  28
ATOM     28  C   UNL A   1      32.481  33.035  26.783  1.00  0.00     0.116 C 
BRANCH  28  29
ATOM     29  N   UNL A   1      32.247  34.191  27.642  1.00  0.00    -0.352 N 
ATOM     30  C   UNL A   1      33.017  34.629  28.703  1.00  0.00     0.251 C 
ATOM     31  H   UNL A   1      31.444  34.724  27.441  1.00  0.00     0.163 HD
ATOM     32  O   UNL A   1      32.679  35.573  29.387  1.00  0.00    -0.269 OA
BRANCH  30  33
ATOM     33  C   UNL A   1      34.245  33.863  29.009  1.00  0.00     0.039 A 
ATOM     34  C   UNL A   1      35.483  34.395  28.647  1.00  0.00     0.014 A 
ATOM     35  C   UNL A   1      34.158  32.718  29.803  1.00  0.00     0.014 A 
ATOM     36  C   UNL A   1      36.646  33.831  29.176  1.00  0.00     0.010 A 
ATOM     37  C   UNL A   1      35.305  32.230  30.410  1.00  0.00     0.010 A 
ATOM     38  C   UNL A   1      36.560  32.784  30.107  1.00  0.00    -0.014 A 
BRANCH  38  39
ATOM     39  C   UNL A   1      37.756  32.220  30.780  1.00  0.00     0.031 A 
ATOM     40  C   UNL A   1      38.527  31.125  30.096  1.00  0.00     0.074 A 
ATOM     41  C   UNL A   1      38.075  32.592  32.035  1.00  0.00     0.049 A 
ATOM     42  N   UNL A   1      39.461  30.344  30.573  1.00  0.00    -0.248 NA
ATOM     43  C   UNL A   1      38.155  30.834  28.700  1.00  0.00     0.031 C 
ATOM     44  C   UNL A   1      37.374  33.603  32.831  1.00  0.00     0.029 A 
ATOM     45  N   UNL A   1      39.065  32.141  32.872  1.00  0.00    -0.354 N 
ATOM     46  C   UNL A   1      39.746  29.441  29.558  1.00  0.00     0.074 A 
ATOM     47  C   UNL A   1      38.858  29.740  28.457  1.00  0.00     0.031 C 
ATOM     48  C   UNL A   1      37.971  33.710  34.030  1.00  0.00     0.029 A 
ATOM     49  C   UNL A   1      39.066  32.748  34.105  1.00  0.00     0.049 A 
ATOM     50  H   UNL A   1      39.714  31.447  32.613  1.00  0.00     0.167 HD
ATOM     51  C   UNL A   1      40.682  28.465  29.535  1.00  0.00     0.037 A 
ATOM     52  C   UNL A   1      39.856  32.543  35.175  1.00  0.00     0.037 A 
ATOM     53  C   UNL A   1      41.614  28.220  30.601  1.00  0.00     0.049 A 
ATOM     54  C   UNL A   1      40.933  31.496  35.103  1.00  0.00     0.074 A 
ATOM     55  C   UNL A   1      42.652  27.308  30.646  1.00  0.00     0.029 A 
ATOM     56  N   UNL A   1      41.629  28.910  31.803  1.00  0.00    -0.354 N 
ATOM     57  N   UNL A   1      41.220  30.674  34.122  1.00  0.00    -0.248 NA
ATOM     58  C   UNL A   1      41.795  31.344  36.285  1.00  0.00     0.031 C 
ATOM     59  C   UNL A   1      43.289  27.436  31.886  1.00  0.00     0.029 A 
ATOM     60  C   UNL A   1      42.662  28.447  32.598  1.00  0.00     0.049 A 
ATOM     61  H   UNL A   1      40.999  29.624  32.054  1.00  0.00     0.167 HD
ATOM     62  C   UNL A   1      42.311  29.933  34.554  1.00  0.00     0.074 A 
ATOM     63  C   UNL A   1      42.638  30.402  35.885  1.00  0.00     0.031 C 
ATOM     64  C   UNL A   1      42.982  28.949  33.908  1.00  0.00     0.037 A 
BRANCH  51  65
ATOM     65  C   UNL A   1      40.746  27.605  28.309  1.00  0.00     0.057 A 
ATOM     66  C   UNL A   1      40.043  26.396  28.217  1.00  0.00     0.134 A 
ATOM     67  C   UNL A   1      41.518  27.990  27.206  1.00  0.00     0.134 A 
ATOM     68  F   UNL A   1      39.301  25.962  29.248  1.00  0.00    -0.206 F 
ATOM     69  C   UNL A   1      40.129  25.587  27.085  1.00  0.00     0.040 A 
ATOM     70  C   UNL A   1      41.590  27.202  26.057  1.00  0.00     0.040 A 
ATOM     71  F   UNL A   1      42.215  29.137  27.229  1.00  0.00    -0.206 F 
ATOM     72  C   UNL A   1      40.901  25.992  25.997  1.00  0.00     0.006 A 
ENDBRANCH  51  65
BRANCH  52  73
ATOM     73  C   UNL A   1      39.685  33.367  36.398  1.00  0.00     0.057 A 
ATOM     74  C   UNL A   1      38.827  32.954  37.424  1.00  0.00     0.134 A 
ATOM     75  C   UNL A   1      40.364  34.578  36.571  1.00  0.00     0.134 A 
ATOM     76  F   UNL A   1      38.137  31.811  37.305  1.00  0.00    -0.206 F 
ATOM     77  C   UNL A   1      38.636  33.724  38.572  1.00  0.00     0.040 A 
ATOM     78  C   UNL A   1      40.198  35.350  37.723  1.00  0.00     0.040 A 
ATOM     79  F   UNL A   1      41.206  35.024  35.627  1.00  0.00    -0.206 F 
ATOM     80  C   UNL A   1      39.326  34.925  38.725  1.00  0.00     0.006 A 
ENDBRANCH  52  73
BRANCH  64  81
ATOM     81  C   UNL A   1      44.164  28.351  34.606  1.00  0.00     0.057 A 
ATOM     82  C   UNL A   1      44.048  27.206  35.401  1.00  0.00     0.134 A 
ATOM     83  C   UNL A   1      45.443  28.892  34.423  1.00  0.00     0.134 A 
ATOM     84  F   UNL A   1      42.847  26.651  35.620  1.00  0.00    -0.206 F 
ATOM     85  C   UNL A   1      45.164  26.623  36.000  1.00  0.00     0.040 A 
ATOM     86  C   UNL A   1      46.570  28.307  35.002  1.00  0.00     0.040 A 
ATOM     87  F   UNL A   1      45.619  29.985  33.664  1.00  0.00    -0.206 F 
ATOM     88  C   UNL A   1      46.430  27.169  35.794  1.00  0.00     0.006 A 
ENDBRANCH  64  81
ENDBRANCH  38  39
ENDBRANCH  30  33
ENDBRANCH  28  29
ENDBRANCH  27  28
ENDBRANCH  26  27
ENDBRANCH   1  26
TORSDOF 15
ENDMDL
MODEL 2
REMARK VINA RESULT:     -12.2      0.746      6.279
REMARK SMILES C[C@@H](c1cccc(O)c1)[N@H+]1[C@@H]2CC[C@H]1C[C@H](CC(=O)NCCCCNC(=O)c1ccc(-c3c4nc(c(-c5c(F)cccc5F)c5ccc([nH]5)c(-c5c(F)cccc5F)c5nc(c(-c6c(F)cccc6F)c6ccc3[nH]6)C=C5)C=C4)cc1)C2
REMARK SMILES IDX 21 1 20 2 18 3 19 4 17 6 16 7 10 8 11 9 14 10 12 12 82 13
REMARK SMILES IDX 13 14 15 15 2 16 1 17 3 18 4 19 9 20 5 21 7 22 6 23 8 24
REMARK SMILES IDX 22 26 23 27 24 28 25 29 26 30 27 32 28 33 29 34 81 35 30 36
REMARK SMILES IDX 80 37 31 38 32 39 33 40 74 41 34 42 79 43 73 44 75 45 35 46
REMARK SMILES IDX 78 47 72 48 71 49 36 51 62 52 45 53 61 54 46 55 49 56 60 57
REMARK SMILES IDX 76 58 47 59 48 60 59 62 77 63 50 64 37 65 38 66 43 67 39 68
REMARK SMILES IDX 40 69 42 70 44 71 41 72 63 73 64 74 69 75 65 76 66 77 68 78
REMARK SMILES IDX 70 79 67 80 51 81 52 82 57 83 53 84 54 85 56 86 58 87 55 88
REMARK H PARENT 20 5 10 11 8 25 25 31 75 50 49 61
REMARK Flexibility Score: inf
ROOT
ATOM      1  C   UNL A   1      33.241  30.322  26.677  1.00  0.00     0.116 C 
ENDROOT
BRANCH   1   2
ATOM      2  N   UNL A   1      33.485  29.711  25.382  1.00  0.00    -0.356 N 
ATOM      3  C   UNL A   1      33.908  28.453  25.068  1.00  0.00     0.220 C 
ATOM      4  O   UNL A   1      34.188  28.212  23.893  1.00  0.00    -0.275 OA
ATOM      5  H   UNL A   1      33.320  30.298  24.609  1.00  0.00     0.163 HD
BRANCH   3   6
ATOM      6  C   UNL A   1      34.002  27.369  26.126  1.00  0.00     0.104 C 
BRANCH   6   7
ATOM      7  C   UNL A   1      32.878  26.308  26.071  1.00  0.00     0.010 C 
ATOM      8  N   UNL A   1      30.588  25.999  24.149  1.00  0.00    -0.324 N 
ATOM      9  C   UNL A   1      31.631  24.960  24.241  1.00  0.00     0.185 C 
ATOM     10  C   UNL A   1      30.309  26.263  25.568  1.00  0.00     0.185 C 
ATOM     11  H   UNL A   1      29.768  25.689  23.628  1.00  0.00     0.349 HD
ATOM     12  C   UNL A   1      31.016  23.987  25.258  1.00  0.00     0.071 C 
ATOM     13  C   UNL A   1      32.975  25.520  24.750  1.00  0.00     0.069 C 
ATOM     14  C   UNL A   1      30.108  24.853  26.121  1.00  0.00     0.071 C 
ATOM     15  C   UNL A   1      31.492  26.942  26.270  1.00  0.00     0.069 C 
BRANCH   8  16
ATOM     16  C   UNL A   1      30.875  27.179  23.296  1.00  0.00     0.212 C 
ATOM     17  C   UNL A   1      31.154  26.766  21.831  1.00  0.00     0.081 C 
BRANCH  16  18
ATOM     18  C   UNL A   1      29.771  28.254  23.352  1.00  0.00     0.013 A 
ATOM     19  C   UNL A   1      30.104  29.615  23.500  1.00  0.00     0.010 A 
ATOM     20  C   UNL A   1      28.409  27.946  23.186  1.00  0.00     0.056 A 
ATOM     21  C   UNL A   1      29.126  30.617  23.480  1.00  0.00     0.004 A 
ATOM     22  C   UNL A   1      27.444  28.951  23.123  1.00  0.00     0.116 A 
ATOM     23  C   UNL A   1      27.789  30.286  23.277  1.00  0.00     0.046 A 
BRANCH  22  24
ATOM     24  O   UNL A   1      26.154  28.575  22.882  1.00  0.00    -0.508 OA
ATOM     25  H   UNL A   1      25.959  28.002  22.166  1.00  0.00     0.293 HD
ENDBRANCH  22  24
ENDBRANCH  16  18
ENDBRANCH   8  16
ENDBRANCH   6   7
ENDBRANCH   3   6
ENDBRANCH   1   2
BRANCH   1  26
ATOM     26  C   UNL A   1      31.748  30.590  26.872  1.00  0.00     0.023 C 
BRANCH  26  27
ATOM     27  C   UNL A   1      31.337  32.050  26.869  1.00  0.00     0.023 C 
BRANCH  27  28
ATOM     28  C   UNL A   1      32.497  33.011  26.725  1.00  0.00     0.116 C 
BRANCH  28  29
ATOM     29  N   UNL A   1      32.424  34.165  27.616  1.00  0.00    -0.352 N 
ATOM     30  C   UNL A   1      33.286  34.499  28.643  1.00  0.00     0.251 C 
ATOM     31  H   UNL A   1      31.669  34.779  27.466  1.00  0.00     0.163 HD
ATOM     32  O   UNL A   1      33.080  35.456  29.360  1.00  0.00    -0.269 OA
BRANCH  30  33
ATOM     33  C   UNL A   1      34.445  33.607  28.871  1.00  0.00     0.039 A 
ATOM     34  C   UNL A   1      35.731  34.148  28.848  1.00  0.00     0.014 A 
ATOM     35  C   UNL A   1      34.225  32.290  29.276  1.00  0.00     0.014 A 
ATOM     36  C   UNL A   1      36.796  33.390  29.338  1.00  0.00     0.010 A 
ATOM     37  C   UNL A   1      35.264  31.583  29.859  1.00  0.00     0.010 A 
ATOM     38  C   UNL A   1      36.559  32.126  29.901  1.00  0.00    -0.014 A 
BRANCH  38  39
ATOM     39  C   UNL A   1      37.637  31.324  30.531  1.00  0.00     0.031 A 
ATOM     40  C   UNL A   1      37.965  31.557  31.980  1.00  0.00     0.074 A 
ATOM     41  C   UNL A   1      38.392  30.489  29.790  1.00  0.00     0.049 A 
ATOM     42  N   UNL A   1      38.988  31.138  32.677  1.00  0.00    -0.248 NA
ATOM     43  C   UNL A   1      37.043  32.429  32.729  1.00  0.00     0.031 C 
ATOM     44  C   UNL A   1      38.214  30.215  28.362  1.00  0.00     0.029 A 
ATOM     45  N   UNL A   1      39.483  29.731  30.138  1.00  0.00    -0.354 N 
ATOM     46  C   UNL A   1      38.859  31.736  33.924  1.00  0.00     0.074 A 
ATOM     47  C   UNL A   1      37.688  32.581  33.874  1.00  0.00     0.031 C 
ATOM     48  C   UNL A   1      39.147  29.335  27.963  1.00  0.00     0.029 A 
ATOM     49  C   UNL A   1      40.014  29.015  29.093  1.00  0.00     0.049 A 
ATOM     50  H   UNL A   1      39.850  29.704  31.051  1.00  0.00     0.167 HD
ATOM     51  C   UNL A   1      39.635  31.577  35.021  1.00  0.00     0.037 A 
ATOM     52  C   UNL A   1      41.085  28.201  29.051  1.00  0.00     0.037 A 
ATOM     53  C   UNL A   1      40.754  30.677  35.089  1.00  0.00     0.049 A 
ATOM     54  C   UNL A   1      41.895  27.989  30.301  1.00  0.00     0.074 A 
ATOM     55  C   UNL A   1      41.557  30.382  36.176  1.00  0.00     0.029 A 
ATOM     56  N   UNL A   1      41.212  29.913  34.028  1.00  0.00    -0.354 N 
ATOM     57  N   UNL A   1      41.740  28.529  31.485  1.00  0.00    -0.248 NA
ATOM     58  C   UNL A   1      43.027  27.056  30.210  1.00  0.00     0.031 C 
ATOM     59  C   UNL A   1      42.514  29.447  35.767  1.00  0.00     0.029 A 
ATOM     60  C   UNL A   1      42.286  29.141  34.434  1.00  0.00     0.049 A 
ATOM     61  H   UNL A   1      40.829  29.917  33.121  1.00  0.00     0.167 HD
ATOM     62  C   UNL A   1      42.732  27.980  32.286  1.00  0.00     0.074 A 
ATOM     63  C   UNL A   1      43.483  27.062  31.455  1.00  0.00     0.031 C 
ATOM     64  C   UNL A   1      42.999  28.215  33.593  1.00  0.00     0.037 A 
BRANCH  51  65
ATOM     65  C   UNL A   1      39.282  32.383  36.233  1.00  0.00     0.057 A 
ATOM     66  C   UNL A   1      39.853  33.640  36.475  1.00  0.00     0.134 A 
ATOM     67  C   UNL A   1      38.359  31.900  37.169  1.00  0.00     0.134 A 
ATOM     68  F   UNL A   1      40.759  34.149  35.627  1.00  0.00    -0.206 F 
ATOM     69  C   UNL A   1      39.541  34.374  37.620  1.00  0.00     0.040 A 
ATOM     70  C   UNL A   1      38.020  32.637  38.304  1.00  0.00     0.040 A 
ATOM     71  F   UNL A   1      37.776  30.704  36.996  1.00  0.00    -0.206 F 
ATOM     72  C   UNL A   1      38.617  33.874  38.536  1.00  0.00     0.006 A 
ENDBRANCH  51  65
BRANCH  52  73
ATOM     73  C   UNL A   1      41.440  27.498  27.794  1.00  0.00     0.057 A 
ATOM     74  C   UNL A   1      42.259  28.110  26.839  1.00  0.00     0.134 A 
ATOM     75  C   UNL A   1      40.971  26.209  27.513  1.00  0.00     0.134 A 
ATOM     76  F   UNL A   1      42.723  29.351  27.045  1.00  0.00    -0.206 F 
ATOM     77  C   UNL A   1      42.587  27.474  25.640  1.00  0.00     0.040 A 
ATOM     78  C   UNL A   1      41.307  25.553  26.327  1.00  0.00     0.040 A 
ATOM     79  F   UNL A   1      40.188  25.567  28.392  1.00  0.00    -0.206 F 
ATOM     80  C   UNL A   1      42.113  26.189  25.383  1.00  0.00     0.006 A 
ENDBRANCH  52  73
BRANCH  64  81
ATOM     81  C   UNL A   1      44.114  27.436  34.218  1.00  0.00     0.057 A 
ATOM     82  C   UNL A   1      45.411  27.951  34.311  1.00  0.00     0.134 A 
ATOM     83  C   UNL A   1      43.867  26.182  34.791  1.00  0.00     0.134 A 
ATOM     84  F   UNL A   1      45.709  29.142  33.771  1.00  0.00    -0.206 F 
ATOM     85  C   UNL A   1      46.430  27.241  34.946  1.00  0.00     0.040 A 
ATOM     86  C   UNL A   1      44.873  25.471  35.446  1.00  0.00     0.040 A 
ATOM     87  F   UNL A   1      42.640  25.639  34.741  1.00  0.00    -0.206 F 
ATOM     88  C   UNL A   1      46.160  26.001  35.523  1.00  0.00     0.006 A 
ENDBRANCH  64  81
ENDBRANCH  38  39
ENDBRANCH  30  33
ENDBRANCH  28  29
ENDBRANCH  27  28
ENDBRANCH  26  27
ENDBRANCH   1  26
TORSDOF 15
ENDMDL
MODEL 3
REMARK VINA RESULT:     -12.1      0.767      6.088
REMARK SMILES C[C@@H](c1cccc(O)c1)[N@H+]1[C@@H]2CC[C@H]1C[C@H](CC(=O)NCCCCNC(=O)c1ccc(-c3c4nc(c(-c5c(F)cccc5F)c5ccc([nH]5)c(-c5c(F)cccc5F)c5nc(c(-c6c(F)cccc6F)c6ccc3[nH]6)C=C5)C=C4)cc1)C2
REMARK SMILES IDX 21 1 20 2 18 3 19 4 17 6 16 7 10 8 11 9 14 10 12 12 82 13
REMARK SMILES IDX 13 14 15 15 2 16 1 17 3 18 4 19 9 20 5 21 7 22 6 23 8 24
REMARK SMILES IDX 22 26 23 27 24 28 25 29 26 30 27 32 28 33 29 34 81 35 30 36
REMARK SMILES IDX 80 37 31 38 32 39 33 40 74 41 34 42 79 43 73 44 75 45 35 46
REMARK SMILES IDX 78 47 72 48 71 49 36 51 62 52 45 53 61 54 46 55 49 56 60 57
REMARK SMILES IDX 76 58 47 59 48 60 59 62 77 63 50 64 37 65 38 66 43 67 39 68
REMARK SMILES IDX 40 69 42 70 44 71 41 72 63 73 64 74 69 75 65 76 66 77 68 78
REMARK SMILES IDX 70 79 67 80 51 81 52 82 57 83 53 84 54 85 56 86 58 87 55 88
REMARK H PARENT 20 5 10 11 8 25 25 31 75 50 49 61
REMARK Flexibility Score: inf
ROOT
ATOM      1  C   UNL A   1      32.836  30.281  26.658  1.00  0.00     0.116 C 
ENDROOT
BRANCH   1   2
ATOM      2  N   UNL A   1      33.268  29.741  25.381  1.00  0.00    -0.356 N 
ATOM      3  C   UNL A   1      33.864  28.551  25.085  1.00  0.00     0.220 C 
ATOM      4  O   UNL A   1      34.278  28.378  23.938  1.00  0.00    -0.275 OA
ATOM      5  H   UNL A   1      33.107  30.328  24.607  1.00  0.00     0.163 HD
BRANCH   3   6
ATOM      6  C   UNL A   1      33.988  27.454  26.128  1.00  0.00     0.104 C 
BRANCH   6   7
ATOM      7  C   UNL A   1      32.874  26.382  26.077  1.00  0.00     0.010 C 
ATOM      8  N   UNL A   1      30.602  26.027  24.142  1.00  0.00    -0.324 N 
ATOM      9  C   UNL A   1      31.654  24.999  24.255  1.00  0.00     0.185 C 
ATOM     10  C   UNL A   1      30.310  26.306  25.555  1.00  0.00     0.185 C 
ATOM     11  H   UNL A   1      29.789  25.702  23.618  1.00  0.00     0.349 HD
ATOM     12  C   UNL A   1      31.040  24.033  25.280  1.00  0.00     0.071 C 
ATOM     13  C   UNL A   1      32.989  25.578  24.767  1.00  0.00     0.069 C 
ATOM     14  C   UNL A   1      30.118  24.901  26.125  1.00  0.00     0.071 C 
ATOM     15  C   UNL A   1      31.481  27.005  26.258  1.00  0.00     0.069 C 
BRANCH   8  16
ATOM     16  C   UNL A   1      30.885  27.198  23.276  1.00  0.00     0.212 C 
ATOM     17  C   UNL A   1      31.158  26.771  21.815  1.00  0.00     0.081 C 
BRANCH  16  18
ATOM     18  C   UNL A   1      29.780  28.273  23.326  1.00  0.00     0.013 A 
ATOM     19  C   UNL A   1      30.113  29.637  23.434  1.00  0.00     0.010 A 
ATOM     20  C   UNL A   1      28.415  27.958  23.193  1.00  0.00     0.056 A 
ATOM     21  C   UNL A   1      29.132  30.637  23.407  1.00  0.00     0.004 A 
ATOM     22  C   UNL A   1      27.447  28.959  23.124  1.00  0.00     0.116 A 
ATOM     23  C   UNL A   1      27.793  30.298  23.237  1.00  0.00     0.046 A 
BRANCH  22  24
ATOM     24  O   UNL A   1      26.154  28.576  22.917  1.00  0.00    -0.508 OA
ATOM     25  H   UNL A   1      25.693  28.876  22.158  1.00  0.00     0.293 HD
ENDBRANCH  22  24
ENDBRANCH  16  18
ENDBRANCH   8  16
ENDBRANCH   6   7
ENDBRANCH   3   6
ENDBRANCH   1   2
BRANCH   1  26
ATOM     26  C   UNL A   1      31.394  30.783  26.569  1.00  0.00     0.023 C 
BRANCH  26  27
ATOM     27  C   UNL A   1      31.222  32.289  26.568  1.00  0.00     0.023 C 
BRANCH  27  28
ATOM     28  C   UNL A   1      32.518  33.053  26.725  1.00  0.00     0.116 C 
BRANCH  28  29
ATOM     29  N   UNL A   1      32.426  34.197  27.626  1.00  0.00    -0.352 N 
ATOM     30  C   UNL A   1      33.284  34.537  28.656  1.00  0.00     0.251 C 
ATOM     31  H   UNL A   1      31.662  34.800  27.483  1.00  0.00     0.163 HD
ATOM     32  O   UNL A   1      33.062  35.483  29.382  1.00  0.00    -0.269 OA
BRANCH  30  33
ATOM     33  C   UNL A   1      34.458  33.663  28.874  1.00  0.00     0.039 A 
ATOM     34  C   UNL A   1      35.726  34.239  28.958  1.00  0.00     0.014 A 
ATOM     35  C   UNL A   1      34.261  32.312  29.166  1.00  0.00     0.014 A 
ATOM     36  C   UNL A   1      36.789  33.476  29.443  1.00  0.00     0.010 A 
ATOM     37  C   UNL A   1      35.292  31.592  29.747  1.00  0.00     0.010 A 
ATOM     38  C   UNL A   1      36.566  32.166  29.896  1.00  0.00    -0.014 A 
BRANCH  38  39
ATOM     39  C   UNL A   1      37.636  31.348  30.518  1.00  0.00     0.031 A 
ATOM     40  C   UNL A   1      37.982  31.580  31.963  1.00  0.00     0.074 A 
ATOM     41  C   UNL A   1      38.371  30.499  29.772  1.00  0.00     0.049 A 
ATOM     42  N   UNL A   1      39.005  31.145  32.651  1.00  0.00    -0.248 NA
ATOM     43  C   UNL A   1      37.082  32.468  32.718  1.00  0.00     0.031 C 
ATOM     44  C   UNL A   1      38.174  30.225  28.346  1.00  0.00     0.029 A 
ATOM     45  N   UNL A   1      39.452  29.725  30.111  1.00  0.00    -0.354 N 
ATOM     46  C   UNL A   1      38.898  31.748  33.897  1.00  0.00     0.074 A 
ATOM     47  C   UNL A   1      37.740  32.612  33.856  1.00  0.00     0.031 C 
ATOM     48  C   UNL A   1      39.089  29.329  27.940  1.00  0.00     0.029 A 
ATOM     49  C   UNL A   1      39.962  28.998  29.062  1.00  0.00     0.049 A 
ATOM     50  H   UNL A   1      39.828  29.693  31.020  1.00  0.00     0.167 HD
ATOM     51  C   UNL A   1      39.682  31.579  34.987  1.00  0.00     0.037 A 
ATOM     52  C   UNL A   1      41.019  28.166  29.012  1.00  0.00     0.037 A 
ATOM     53  C   UNL A   1      40.786  30.661  35.047  1.00  0.00     0.049 A 
ATOM     54  C   UNL A   1      41.837  27.944  30.255  1.00  0.00     0.074 A 
ATOM     55  C   UNL A   1      41.595  30.356  36.126  1.00  0.00     0.029 A 
ATOM     56  N   UNL A   1      41.222  29.887  33.983  1.00  0.00    -0.354 N 
ATOM     57  N   UNL A   1      41.703  28.489  31.439  1.00  0.00    -0.248 NA
ATOM     58  C   UNL A   1      42.953  26.992  30.155  1.00  0.00     0.031 C 
ATOM     59  C   UNL A   1      42.533  29.405  35.711  1.00  0.00     0.029 A 
ATOM     60  C   UNL A   1      42.288  29.100  34.380  1.00  0.00     0.049 A 
ATOM     61  H   UNL A   1      40.830  29.896  33.080  1.00  0.00     0.167 HD
ATOM     62  C   UNL A   1      42.693  27.926  32.232  1.00  0.00     0.074 A 
ATOM     63  C   UNL A   1      43.421  26.994  31.396  1.00  0.00     0.031 C 
ATOM     64  C   UNL A   1      42.977  28.160  33.536  1.00  0.00     0.037 A 
BRANCH  51  65
ATOM     65  C   UNL A   1      39.354  32.394  36.201  1.00  0.00     0.057 A 
ATOM     66  C   UNL A   1      38.424  31.958  37.154  1.00  0.00     0.134 A 
ATOM     67  C   UNL A   1      39.978  33.628  36.423  1.00  0.00     0.134 A 
ATOM     68  F   UNL A   1      37.778  30.793  36.989  1.00  0.00    -0.206 F 
ATOM     69  C   UNL A   1      38.104  32.733  38.268  1.00  0.00     0.040 A 
ATOM     70  C   UNL A   1      39.685  34.400  37.547  1.00  0.00     0.040 A 
ATOM     71  F   UNL A   1      40.879  34.103  35.549  1.00  0.00    -0.206 F 
ATOM     72  C   UNL A   1      38.740  33.957  38.470  1.00  0.00     0.006 A 
ENDBRANCH  51  65
BRANCH  52  73
ATOM     73  C   UNL A   1      41.350  27.454  27.753  1.00  0.00     0.057 A 
ATOM     74  C   UNL A   1      40.838  26.177  27.498  1.00  0.00     0.134 A 
ATOM     75  C   UNL A   1      42.182  28.023  26.782  1.00  0.00     0.134 A 
ATOM     76  F   UNL A   1      40.050  25.575  28.401  1.00  0.00    -0.206 F 
ATOM     77  C   UNL A   1      41.154  25.481  26.330  1.00  0.00     0.040 A 
ATOM     78  C   UNL A   1      42.492  27.347  25.600  1.00  0.00     0.040 A 
ATOM     79  F   UNL A   1      42.698  29.247  26.965  1.00  0.00    -0.206 F 
ATOM     80  C   UNL A   1      41.982  26.069  25.375  1.00  0.00     0.006 A 
ENDBRANCH  52  73
BRANCH  64  81
ATOM     81  C   UNL A   1      44.085  27.364  34.152  1.00  0.00     0.057 A 
ATOM     82  C   UNL A   1      43.864  26.096  34.701  1.00  0.00     0.134 A 
ATOM     83  C   UNL A   1      45.399  27.848  34.134  1.00  0.00     0.134 A 
ATOM     84  F   UNL A   1      42.625  25.586  34.754  1.00  0.00    -0.206 F 
ATOM     85  C   UNL A   1      44.913  25.338  35.220  1.00  0.00     0.040 A 
ATOM     86  C   UNL A   1      46.460  27.091  34.634  1.00  0.00     0.040 A 
ATOM     87  F   UNL A   1      45.675  29.054  33.614  1.00  0.00    -0.206 F 
ATOM     88  C   UNL A   1      46.216  25.832  35.181  1.00  0.00     0.006 A 
ENDBRANCH  64  81
ENDBRANCH  38  39
ENDBRANCH  30  33
ENDBRANCH  28  29
ENDBRANCH  27  28
ENDBRANCH  26  27
ENDBRANCH   1  26
TORSDOF 15
ENDMDL
