MODEL 1
REMARK VINA RESULT:     -11.1      0.000      0.000
REMARK SMILES Cc1ccc(OCC(=O)N[C@H](C)C(=O)NCCCCNC(=O)c2ccc(-c3c4nc(c(-c5c(F)cccc5F)c5ccc([nH]5)c(-c5c(F)cccc5F)c5nc(c(-c6c(F)cccc6F)c6ccc3[nH]6)C=C5)C=C4)cc2)c(Br)c1
REMARK SMILES IDX 16 1 15 2 13 3 14 4 11 6 12 7 10 8 8 9 9 10 7 12 6 13 5 14
REMARK SMILES IDX 1 15 2 16 3 17 79 18 4 19 77 20 78 21 17 22 18 23 19 24
REMARK SMILES IDX 20 25 21 26 22 28 23 29 24 30 76 31 25 32 75 33 26 34 27 35
REMARK SMILES IDX 28 36 69 37 29 38 74 39 68 40 70 41 30 42 73 43 67 44 66 45
REMARK SMILES IDX 31 47 57 48 40 49 56 50 41 51 44 52 55 53 71 54 42 55 43 56
REMARK SMILES IDX 54 58 72 59 45 60 32 61 33 62 38 63 34 64 35 65 37 66 39 67
REMARK SMILES IDX 36 68 58 69 59 70 64 71 60 72 61 73 63 74 65 75 62 76 46 77
REMARK SMILES IDX 47 78 52 79 48 80 49 81 51 82 53 83 50 84
REMARK H PARENT 15 5 10 11 20 27 70 46 44 57
REMARK Flexibility Score: inf
ROOT
ATOM      1  C   UNL A   1      35.527  22.920  24.787  1.00  0.00     0.116 C 
ENDROOT
BRANCH   1   2
ATOM      2  N   UNL A   1      35.276  22.337  26.089  1.00  0.00    -0.354 N 
ATOM      3  C   UNL A   1      34.115  21.939  26.681  1.00  0.00     0.242 C 
ATOM      4  O   UNL A   1      34.205  21.411  27.795  1.00  0.00    -0.273 OA
ATOM      5  H   UNL A   1      36.081  22.206  26.641  1.00  0.00     0.163 HD
BRANCH   3   6
ATOM      6  C   UNL A   1      32.722  22.274  26.112  1.00  0.00     0.168 C 
ATOM      7  C   UNL A   1      32.298  21.200  25.109  1.00  0.00     0.041 C 
BRANCH   6   8
ATOM      8  N   UNL A   1      31.651  22.513  27.073  1.00  0.00    -0.342 N 
ATOM      9  C   UNL A   1      30.579  23.345  26.913  1.00  0.00     0.258 C 
ATOM     10  O   UNL A   1      29.540  23.044  27.508  1.00  0.00    -0.271 OA
ATOM     11  H   UNL A   1      31.708  22.026  27.926  1.00  0.00     0.164 HD
BRANCH   9  12
ATOM     12  C   UNL A   1      30.674  24.625  26.039  1.00  0.00     0.329 C 
BRANCH  12  13
ATOM     13  O   UNL A   1      31.219  25.857  26.514  1.00  0.00    -0.483 OA
BRANCH  13  14
ATOM     14  C   UNL A   1      32.089  26.458  25.652  1.00  0.00     0.134 A 
ATOM     15  C   UNL A   1      34.309  28.540  22.612  1.00  0.00     0.044 C 
ATOM     16  C   UNL A   1      33.612  27.775  23.698  1.00  0.00    -0.050 A 
ATOM     17  C   UNL A   1      33.407  26.399  23.617  1.00  0.00     0.007 A 
ATOM     18  C   UNL A   1      33.141  28.452  24.825  1.00  0.00     0.023 A 
ATOM     19  C   UNL A   1      32.662  25.742  24.600  1.00  0.00     0.048 A 
ATOM     20  C   UNL A   1      32.414  27.798  25.822  1.00  0.00     0.060 A 
ATOM     21  Br  UNL A   1      31.858  28.765  27.356  1.00  0.00    -0.047 Br
ENDBRANCH  13  14
ENDBRANCH  12  13
ENDBRANCH   9  12
ENDBRANCH   6   8
ENDBRANCH   3   6
ENDBRANCH   1   2
BRANCH   1  22
ATOM     22  C   UNL A   1      36.731  22.307  24.062  1.00  0.00     0.023 C 
BRANCH  22  23
ATOM     23  C   UNL A   1      37.338  21.000  24.605  1.00  0.00     0.023 C 
BRANCH  23  24
ATOM     24  C   UNL A   1      38.521  21.072  25.576  1.00  0.00     0.116 C 
BRANCH  24  25
ATOM     25  N   UNL A   1      39.440  19.947  25.527  1.00  0.00    -0.352 N 
ATOM     26  C   UNL A   1      40.750  19.892  25.950  1.00  0.00     0.251 C 
ATOM     27  H   UNL A   1      39.079  19.117  25.139  1.00  0.00     0.163 HD
ATOM     28  O   UNL A   1      41.406  18.867  25.783  1.00  0.00    -0.269 OA
BRANCH  26  29
ATOM     29  C   UNL A   1      41.395  21.080  26.557  1.00  0.00     0.039 A 
ATOM     30  C   UNL A   1      42.060  21.979  25.719  1.00  0.00     0.014 A 
ATOM     31  C   UNL A   1      41.353  21.321  27.931  1.00  0.00     0.014 A 
ATOM     32  C   UNL A   1      42.583  23.164  26.245  1.00  0.00     0.010 A 
ATOM     33  C   UNL A   1      41.844  22.514  28.455  1.00  0.00     0.010 A 
ATOM     34  C   UNL A   1      42.429  23.461  27.609  1.00  0.00    -0.014 A 
BRANCH  34  35
ATOM     35  C   UNL A   1      42.743  24.807  28.143  1.00  0.00     0.031 A 
ATOM     36  C   UNL A   1      44.126  25.167  28.593  1.00  0.00     0.074 A 
ATOM     37  C   UNL A   1      41.726  25.677  28.300  1.00  0.00     0.049 A 
ATOM     38  N   UNL A   1      44.556  26.293  29.104  1.00  0.00    -0.248 NA
ATOM     39  C   UNL A   1      45.158  24.126  28.472  1.00  0.00     0.031 C 
ATOM     40  C   UNL A   1      40.325  25.405  27.964  1.00  0.00     0.029 A 
ATOM     41  N   UNL A   1      41.707  26.958  28.786  1.00  0.00    -0.354 N 
ATOM     42  C   UNL A   1      45.909  26.106  29.349  1.00  0.00     0.074 A 
ATOM     43  C   UNL A   1      46.218  24.740  28.981  1.00  0.00     0.031 C 
ATOM     44  C   UNL A   1      39.590  26.496  28.228  1.00  0.00     0.029 A 
ATOM     45  C   UNL A   1      40.458  27.531  28.776  1.00  0.00     0.049 A 
ATOM     46  H   UNL A   1      42.511  27.424  29.112  1.00  0.00     0.167 HD
ATOM     47  C   UNL A   1      46.813  27.000  29.817  1.00  0.00     0.037 A 
ATOM     48  C   UNL A   1      40.060  28.756  29.162  1.00  0.00     0.037 A 
ATOM     49  C   UNL A   1      46.495  28.353  30.196  1.00  0.00     0.049 A 
ATOM     50  C   UNL A   1      41.083  29.724  29.685  1.00  0.00     0.074 A 
ATOM     51  C   UNL A   1      47.340  29.339  30.676  1.00  0.00     0.029 A 
ATOM     52  N   UNL A   1      45.225  28.908  30.139  1.00  0.00    -0.354 N 
ATOM     53  N   UNL A   1      42.373  29.556  29.843  1.00  0.00    -0.248 NA
ATOM     54  C   UNL A   1      40.597  31.055  30.073  1.00  0.00     0.031 C 
ATOM     55  C   UNL A   1      46.577  30.484  30.930  1.00  0.00     0.029 A 
ATOM     56  C   UNL A   1      45.263  30.222  30.577  1.00  0.00     0.049 A 
ATOM     57  H   UNL A   1      44.416  28.439  29.832  1.00  0.00     0.167 HD
ATOM     58  C   UNL A   1      42.858  30.766  30.313  1.00  0.00     0.074 A 
ATOM     59  C   UNL A   1      41.726  31.664  30.408  1.00  0.00     0.031 C 
ATOM     60  C   UNL A   1      44.129  31.106  30.636  1.00  0.00     0.037 A 
BRANCH  47  61
ATOM     61  C   UNL A   1      48.239  26.550  29.924  1.00  0.00     0.057 A 
ATOM     62  C   UNL A   1      49.161  26.810  28.901  1.00  0.00     0.134 A 
ATOM     63  C   UNL A   1      48.711  25.898  31.069  1.00  0.00     0.134 A 
ATOM     64  F   UNL A   1      48.769  27.425  27.774  1.00  0.00    -0.206 F 
ATOM     65  C   UNL A   1      50.497  26.423  29.005  1.00  0.00     0.040 A 
ATOM     66  C   UNL A   1      50.051  25.524  31.194  1.00  0.00     0.040 A 
ATOM     67  F   UNL A   1      47.884  25.627  32.090  1.00  0.00    -0.206 F 
ATOM     68  C   UNL A   1      50.947  25.783  30.157  1.00  0.00     0.006 A 
ENDBRANCH  47  61
BRANCH  48  69
ATOM     69  C   UNL A   1      38.638  29.157  29.025  1.00  0.00     0.057 A 
ATOM     70  C   UNL A   1      37.770  29.106  30.121  1.00  0.00     0.134 A 
ATOM     71  C   UNL A   1      38.111  29.584  27.801  1.00  0.00     0.134 A 
ATOM     72  F   UNL A   1      38.216  28.693  31.316  1.00  0.00    -0.206 F 
ATOM     73  C   UNL A   1      36.420  29.441  30.000  1.00  0.00     0.040 A 
ATOM     74  C   UNL A   1      36.769  29.944  27.671  1.00  0.00     0.040 A 
ATOM     75  F   UNL A   1      38.897  29.666  26.717  1.00  0.00    -0.206 F 
ATOM     76  C   UNL A   1      35.918  29.863  28.772  1.00  0.00     0.006 A 
ENDBRANCH  48  69
BRANCH  60  77
ATOM     77  C   UNL A   1      44.368  32.520  31.071  1.00  0.00     0.057 A 
ATOM     78  C   UNL A   1      44.325  32.896  32.419  1.00  0.00     0.134 A 
ATOM     79  C   UNL A   1      44.685  33.506  30.129  1.00  0.00     0.134 A 
ATOM     80  F   UNL A   1      44.011  31.998  33.365  1.00  0.00    -0.206 F 
ATOM     81  C   UNL A   1      44.572  34.210  32.814  1.00  0.00     0.040 A 
ATOM     82  C   UNL A   1      44.955  34.820  30.515  1.00  0.00     0.040 A 
ATOM     83  F   UNL A   1      44.745  33.207  28.823  1.00  0.00    -0.206 F 
ATOM     84  C   UNL A   1      44.896  35.175  31.860  1.00  0.00     0.006 A 
ENDBRANCH  60  77
ENDBRANCH  34  35
ENDBRANCH  26  29
ENDBRANCH  24  25
ENDBRANCH  23  24
ENDBRANCH  22  23
ENDBRANCH   1  22
TORSDOF 15
ENDMDL
MODEL 2
REMARK VINA RESULT:     -11.1      4.524      9.370
REMARK SMILES Cc1ccc(OCC(=O)N[C@H](C)C(=O)NCCCCNC(=O)c2ccc(-c3c4nc(c(-c5c(F)cccc5F)c5ccc([nH]5)c(-c5c(F)cccc5F)c5nc(c(-c6c(F)cccc6F)c6ccc3[nH]6)C=C5)C=C4)cc2)c(Br)c1
REMARK SMILES IDX 16 1 15 2 13 3 14 4 11 6 12 7 10 8 8 9 9 10 7 12 6 13 5 14
REMARK SMILES IDX 1 15 2 16 3 17 79 18 4 19 77 20 78 21 17 22 18 23 19 24
REMARK SMILES IDX 20 25 21 26 22 28 23 29 24 30 76 31 25 32 75 33 26 34 27 35
REMARK SMILES IDX 28 36 69 37 29 38 74 39 68 40 70 41 30 42 73 43 67 44 66 45
REMARK SMILES IDX 31 47 57 48 40 49 56 50 41 51 44 52 55 53 71 54 42 55 43 56
REMARK SMILES IDX 54 58 72 59 45 60 32 61 33 62 38 63 34 64 35 65 37 66 39 67
REMARK SMILES IDX 36 68 58 69 59 70 64 71 60 72 61 73 63 74 65 75 62 76 46 77
REMARK SMILES IDX 47 78 52 79 48 80 49 81 51 82 53 83 50 84
REMARK H PARENT 15 5 10 11 20 27 70 46 44 57
REMARK Flexibility Score: inf
ROOT
ATOM      1  C   UNL A   1      31.351  29.847  24.981  1.00  0.00     0.116 C 
ENDROOT
BRANCH   1   2
ATOM      2  N   UNL A   1      30.697  29.827  23.689  1.00  0.00    -0.354 N 
ATOM      3  C   UNL A   1      30.559  28.828  22.773  1.00  0.00     0.242 C 
ATOM      4  O   UNL A   1      29.888  29.078  21.765  1.00  0.00    -0.273 OA
ATOM      5  H   UNL A   1      30.280  30.680  23.427  1.00  0.00     0.163 HD
BRANCH   3   6
ATOM      6  C   UNL A   1      31.333  27.496  22.856  1.00  0.00     0.168 C 
ATOM      7  C   UNL A   1      30.396  26.378  23.315  1.00  0.00     0.041 C 
BRANCH   6   8
ATOM      8  N   UNL A   1      32.067  27.079  21.667  1.00  0.00    -0.342 N 
ATOM      9  C   UNL A   1      32.854  25.970  21.539  1.00  0.00     0.258 C 
ATOM     10  O   UNL A   1      32.943  25.470  20.414  1.00  0.00    -0.271 OA
ATOM     11  H   UNL A   1      31.987  27.657  20.874  1.00  0.00     0.164 HD
BRANCH   9  12
ATOM     12  C   UNL A   1      33.622  25.380  22.754  1.00  0.00     0.329 C 
BRANCH  12  13
ATOM     13  O   UNL A   1      34.501  24.259  22.652  1.00  0.00    -0.483 OA
BRANCH  13  14
ATOM     14  C   UNL A   1      34.050  23.131  23.276  1.00  0.00     0.134 A 
ATOM     15  C   UNL A   1      32.956  19.257  24.792  1.00  0.00     0.044 C 
ATOM     16  C   UNL A   1      33.273  20.644  24.315  1.00  0.00    -0.050 A 
ATOM     17  C   UNL A   1      32.422  21.344  23.463  1.00  0.00     0.007 A 
ATOM     18  C   UNL A   1      34.459  21.260  24.722  1.00  0.00     0.023 A 
ATOM     19  C   UNL A   1      32.803  22.591  22.958  1.00  0.00     0.048 A 
ATOM     20  C   UNL A   1      34.836  22.514  24.240  1.00  0.00     0.060 A 
ATOM     21  Br  UNL A   1      36.429  23.319  24.882  1.00  0.00    -0.047 Br
ENDBRANCH  13  14
ENDBRANCH  12  13
ENDBRANCH   9  12
ENDBRANCH   6   8
ENDBRANCH   3   6
ENDBRANCH   1   2
BRANCH   1  22
ATOM     22  C   UNL A   1      31.138  31.153  25.756  1.00  0.00     0.023 C 
BRANCH  22  23
ATOM     23  C   UNL A   1      31.860  31.343  27.103  1.00  0.00     0.023 C 
BRANCH  23  24
ATOM     24  C   UNL A   1      32.963  32.399  27.218  1.00  0.00     0.116 C 
BRANCH  24  25
ATOM     25  N   UNL A   1      32.517  33.732  27.588  1.00  0.00    -0.352 N 
ATOM     26  C   UNL A   1      33.069  34.595  28.510  1.00  0.00     0.251 C 
ATOM     27  H   UNL A   1      31.715  34.059  27.120  1.00  0.00     0.163 HD
ATOM     28  O   UNL A   1      32.528  35.674  28.740  1.00  0.00    -0.269 OA
BRANCH  26  29
ATOM     29  C   UNL A   1      34.283  34.211  29.267  1.00  0.00     0.039 A 
ATOM     30  C   UNL A   1      34.125  33.641  30.534  1.00  0.00     0.014 A 
ATOM     31  C   UNL A   1      35.566  34.400  28.752  1.00  0.00     0.014 A 
ATOM     32  C   UNL A   1      35.243  33.168  31.228  1.00  0.00     0.010 A 
ATOM     33  C   UNL A   1      36.679  33.902  29.424  1.00  0.00     0.010 A 
ATOM     34  C   UNL A   1      36.521  33.248  30.649  1.00  0.00    -0.014 A 
BRANCH  34  35
ATOM     35  C   UNL A   1      37.677  32.535  31.240  1.00  0.00     0.031 A 
ATOM     36  C   UNL A   1      38.329  33.010  32.503  1.00  0.00     0.074 A 
ATOM     37  C   UNL A   1      38.191  31.491  30.558  1.00  0.00     0.049 A 
ATOM     38  N   UNL A   1      39.361  32.509  33.133  1.00  0.00    -0.248 NA
ATOM     39  C   UNL A   1      37.761  34.211  33.133  1.00  0.00     0.031 C 
ATOM     40  C   UNL A   1      37.682  30.989  29.279  1.00  0.00     0.029 A 
ATOM     41  N   UNL A   1      39.254  30.673  30.836  1.00  0.00    -0.354 N 
ATOM     42  C   UNL A   1      39.559  33.321  34.241  1.00  0.00     0.074 A 
ATOM     43  C   UNL A   1      38.572  34.378  34.170  1.00  0.00     0.031 C 
ATOM     44  C   UNL A   1      38.415  29.931  28.898  1.00  0.00     0.029 A 
ATOM     45  C   UNL A   1      39.460  29.700  29.888  1.00  0.00     0.049 A 
ATOM     46  H   UNL A   1      39.817  30.773  31.637  1.00  0.00     0.167 HD
ATOM     47  C   UNL A   1      40.466  33.181  35.238  1.00  0.00     0.037 A 
ATOM     48  C   UNL A   1      40.387  28.727  29.828  1.00  0.00     0.037 A 
ATOM     49  C   UNL A   1      41.455  32.135  35.294  1.00  0.00     0.049 A 
ATOM     50  C   UNL A   1      41.385  28.601  30.943  1.00  0.00     0.074 A 
ATOM     51  C   UNL A   1      42.415  31.904  36.264  1.00  0.00     0.029 A 
ATOM     52  N   UNL A   1      41.611  31.147  34.333  1.00  0.00    -0.354 N 
ATOM     53  N   UNL A   1      41.513  29.333  32.022  1.00  0.00    -0.248 NA
ATOM     54  C   UNL A   1      42.361  27.508  30.836  1.00  0.00     0.031 C 
ATOM     55  C   UNL A   1      43.166  30.787  35.878  1.00  0.00     0.029 A 
ATOM     56  C   UNL A   1      42.652  30.304  34.686  1.00  0.00     0.049 A 
ATOM     57  H   UNL A   1      41.062  31.056  33.521  1.00  0.00     0.167 HD
ATOM     58  C   UNL A   1      42.557  28.769  32.741  1.00  0.00     0.074 A 
ATOM     59  C   UNL A   1      43.024  27.630  31.978  1.00  0.00     0.031 C 
ATOM     60  C   UNL A   1      43.082  29.160  33.926  1.00  0.00     0.037 A 
BRANCH  47  61
ATOM     61  C   UNL A   1      40.415  34.171  36.362  1.00  0.00     0.057 A 
ATOM     62  C   UNL A   1      41.156  35.360  36.316  1.00  0.00     0.134 A 
ATOM     63  C   UNL A   1      39.589  33.967  37.474  1.00  0.00     0.134 A 
ATOM     64  F   UNL A   1      41.973  35.611  35.281  1.00  0.00    -0.206 F 
ATOM     65  C   UNL A   1      41.091  36.302  37.343  1.00  0.00     0.040 A 
ATOM     66  C   UNL A   1      39.500  34.913  38.498  1.00  0.00     0.040 A 
ATOM     67  F   UNL A   1      38.846  32.855  37.577  1.00  0.00    -0.206 F 
ATOM     68  C   UNL A   1      40.256  36.082  38.436  1.00  0.00     0.006 A 
ENDBRANCH  47  61
BRANCH  48  69
ATOM     69  C   UNL A   1      40.386  27.765  28.698  1.00  0.00     0.057 A 
ATOM     70  C   UNL A   1      39.636  26.585  28.761  1.00  0.00     0.134 A 
ATOM     71  C   UNL A   1      41.140  27.991  27.541  1.00  0.00     0.134 A 
ATOM     72  F   UNL A   1      38.903  26.308  29.849  1.00  0.00    -0.206 F 
ATOM     73  C   UNL A   1      39.656  25.650  27.724  1.00  0.00     0.040 A 
ATOM     74  C   UNL A   1      41.151  27.077  26.487  1.00  0.00     0.040 A 
ATOM     75  F   UNL A   1      41.869  29.111  27.416  1.00  0.00    -0.206 F 
ATOM     76  C   UNL A   1      40.414  25.897  26.582  1.00  0.00     0.006 A 
ENDBRANCH  48  69
BRANCH  60  77
ATOM     77  C   UNL A   1      44.182  28.317  34.496  1.00  0.00     0.057 A 
ATOM     78  C   UNL A   1      43.919  27.221  35.327  1.00  0.00     0.134 A 
ATOM     79  C   UNL A   1      45.518  28.586  34.175  1.00  0.00     0.134 A 
ATOM     80  F   UNL A   1      42.660  26.925  35.682  1.00  0.00    -0.206 F 
ATOM     81  C   UNL A   1      44.950  26.430  35.833  1.00  0.00     0.040 A 
ATOM     82  C   UNL A   1      46.556  27.788  34.658  1.00  0.00     0.040 A 
ATOM     83  F   UNL A   1      45.834  29.620  33.381  1.00  0.00    -0.206 F 
ATOM     84  C   UNL A   1      46.273  26.709  35.492  1.00  0.00     0.006 A 
ENDBRANCH  60  77
ENDBRANCH  34  35
ENDBRANCH  26  29
ENDBRANCH  24  25
ENDBRANCH  23  24
ENDBRANCH  22  23
ENDBRANCH   1  22
TORSDOF 15
ENDMDL
MODEL 3
REMARK VINA RESULT:     -10.9      1.649      1.981
REMARK SMILES Cc1ccc(OCC(=O)N[C@H](C)C(=O)NCCCCNC(=O)c2ccc(-c3c4nc(c(-c5c(F)cccc5F)c5ccc([nH]5)c(-c5c(F)cccc5F)c5nc(c(-c6c(F)cccc6F)c6ccc3[nH]6)C=C5)C=C4)cc2)c(Br)c1
REMARK SMILES IDX 16 1 15 2 13 3 14 4 11 6 12 7 10 8 8 9 9 10 7 12 6 13 5 14
REMARK SMILES IDX 1 15 2 16 3 17 79 18 4 19 77 20 78 21 17 22 18 23 19 24
REMARK SMILES IDX 20 25 21 26 22 28 23 29 24 30 76 31 25 32 75 33 26 34 27 35
REMARK SMILES IDX 28 36 69 37 29 38 74 39 68 40 70 41 30 42 73 43 67 44 66 45
REMARK SMILES IDX 31 47 57 48 40 49 56 50 41 51 44 52 55 53 71 54 42 55 43 56
REMARK SMILES IDX 54 58 72 59 45 60 32 61 33 62 38 63 34 64 35 65 37 66 39 67
REMARK SMILES IDX 36 68 58 69 59 70 64 71 60 72 61 73 63 74 65 75 62 76 46 77
REMARK SMILES IDX 47 78 52 79 48 80 49 81 51 82 53 83 50 84
REMARK H PARENT 15 5 10 11 20 27 70 46 44 57
REMARK Flexibility Score: inf
ROOT
ATOM      1  C   UNL A   1      35.740  21.915  24.287  1.00  0.00     0.116 C 
ENDROOT
BRANCH   1   2
ATOM      2  N   UNL A   1      35.014  20.798  24.854  1.00  0.00    -0.354 N 
ATOM      3  C   UNL A   1      33.702  20.668  25.201  1.00  0.00     0.242 C 
ATOM      4  O   UNL A   1      33.338  19.562  25.615  1.00  0.00    -0.273 OA
ATOM      5  H   UNL A   1      35.560  19.995  25.018  1.00  0.00     0.163 HD
BRANCH   3   6
ATOM      6  C   UNL A   1      32.726  21.860  25.265  1.00  0.00     0.168 C 
ATOM      7  C   UNL A   1      32.085  22.082  23.895  1.00  0.00     0.041 C 
BRANCH   6   8
ATOM      8  N   UNL A   1      31.699  21.822  26.301  1.00  0.00    -0.342 N 
ATOM      9  C   UNL A   1      30.992  22.884  26.790  1.00  0.00     0.258 C 
ATOM     10  O   UNL A   1      29.854  22.656  27.210  1.00  0.00    -0.271 OA
ATOM     11  H   UNL A   1      31.494  20.940  26.685  1.00  0.00     0.164 HD
BRANCH   9  12
ATOM     12  C   UNL A   1      31.607  24.309  26.840  1.00  0.00     0.329 C 
BRANCH  12  13
ATOM     13  O   UNL A   1      31.336  25.311  25.858  1.00  0.00    -0.483 OA
BRANCH  13  14
ATOM     14  C   UNL A   1      31.917  26.520  26.110  1.00  0.00     0.134 A 
ATOM     15  C   UNL A   1      34.035  30.035  27.399  1.00  0.00     0.044 C 
ATOM     16  C   UNL A   1      33.246  28.862  26.898  1.00  0.00    -0.050 A 
ATOM     17  C   UNL A   1      31.926  28.641  27.286  1.00  0.00     0.007 A 
ATOM     18  C   UNL A   1      33.842  27.951  26.023  1.00  0.00     0.023 A 
ATOM     19  C   UNL A   1      31.260  27.481  26.879  1.00  0.00     0.048 A 
ATOM     20  C   UNL A   1      33.175  26.801  25.595  1.00  0.00     0.060 A 
ATOM     21  Br  UNL A   1      34.022  25.639  24.358  1.00  0.00    -0.047 Br
ENDBRANCH  13  14
ENDBRANCH  12  13
ENDBRANCH   9  12
ENDBRANCH   6   8
ENDBRANCH   3   6
ENDBRANCH   1   2
BRANCH   1  22
ATOM     22  C   UNL A   1      37.242  21.889  24.590  1.00  0.00     0.023 C 
BRANCH  22  23
ATOM     23  C   UNL A   1      37.903  20.545  24.951  1.00  0.00     0.023 C 
BRANCH  23  24
ATOM     24  C   UNL A   1      39.041  20.523  25.977  1.00  0.00     0.116 C 
BRANCH  24  25
ATOM     25  N   UNL A   1      39.966  19.407  25.861  1.00  0.00    -0.352 N 
ATOM     26  C   UNL A   1      41.328  19.398  26.069  1.00  0.00     0.251 C 
ATOM     27  H   UNL A   1      39.565  18.547  25.598  1.00  0.00     0.163 HD
ATOM     28  O   UNL A   1      41.971  18.370  25.873  1.00  0.00    -0.269 OA
BRANCH  26  29
ATOM     29  C   UNL A   1      42.035  20.635  26.476  1.00  0.00     0.039 A 
ATOM     30  C   UNL A   1      42.640  21.414  25.485  1.00  0.00     0.014 A 
ATOM     31  C   UNL A   1      42.109  21.038  27.810  1.00  0.00     0.014 A 
ATOM     32  C   UNL A   1      43.219  22.640  25.822  1.00  0.00     0.010 A 
ATOM     33  C   UNL A   1      42.656  22.273  28.146  1.00  0.00     0.010 A 
ATOM     34  C   UNL A   1      43.181  23.100  27.149  1.00  0.00    -0.014 A 
BRANCH  34  35
ATOM     35  C   UNL A   1      43.555  24.493  27.490  1.00  0.00     0.031 A 
ATOM     36  C   UNL A   1      44.986  24.934  27.520  1.00  0.00     0.074 A 
ATOM     37  C   UNL A   1      42.572  25.336  27.866  1.00  0.00     0.049 A 
ATOM     38  N   UNL A   1      45.477  26.110  27.821  1.00  0.00    -0.248 NA
ATOM     39  C   UNL A   1      46.002  23.924  27.185  1.00  0.00     0.031 C 
ATOM     40  C   UNL A   1      41.151  24.991  27.945  1.00  0.00     0.029 A 
ATOM     41  N   UNL A   1      42.617  26.649  28.257  1.00  0.00    -0.354 N 
ATOM     42  C   UNL A   1      46.854  25.989  27.697  1.00  0.00     0.074 A 
ATOM     43  C   UNL A   1      47.126  24.611  27.345  1.00  0.00     0.031 C 
ATOM     44  C   UNL A   1      40.456  26.072  28.332  1.00  0.00     0.029 A 
ATOM     45  C   UNL A   1      41.383  27.174  28.555  1.00  0.00     0.049 A 
ATOM     46  H   UNL A   1      43.453  27.165  28.321  1.00  0.00     0.167 HD
ATOM     47  C   UNL A   1      47.801  26.947  27.841  1.00  0.00     0.037 A 
ATOM     48  C   UNL A   1      41.039  28.411  28.958  1.00  0.00     0.037 A 
ATOM     49  C   UNL A   1      47.524  28.313  28.208  1.00  0.00     0.049 A 
ATOM     50  C   UNL A   1      42.111  29.450  29.118  1.00  0.00     0.074 A 
ATOM     51  C   UNL A   1      48.413  29.361  28.374  1.00  0.00     0.029 A 
ATOM     52  N   UNL A   1      46.259  28.817  28.468  1.00  0.00    -0.354 N 
ATOM     53  N   UNL A   1      43.402  29.340  28.926  1.00  0.00    -0.248 NA
ATOM     54  C   UNL A   1      41.677  30.789  29.541  1.00  0.00     0.031 C 
ATOM     55  C   UNL A   1      47.687  30.494  28.757  1.00  0.00     0.029 A 
ATOM     56  C   UNL A   1      46.343  30.160  28.795  1.00  0.00     0.049 A 
ATOM     57  H   UNL A   1      45.423  28.298  28.425  1.00  0.00     0.167 HD
ATOM     58  C   UNL A   1      43.931  30.599  29.168  1.00  0.00     0.074 A 
ATOM     59  C   UNL A   1      42.820  31.461  29.514  1.00  0.00     0.031 C 
ATOM     60  C   UNL A   1      45.221  31.006  29.108  1.00  0.00     0.037 A 
BRANCH  47  61
ATOM     61  C   UNL A   1      49.224  26.557  27.581  1.00  0.00     0.057 A 
ATOM     62  C   UNL A   1      49.804  26.728  26.316  1.00  0.00     0.134 A 
ATOM     63  C   UNL A   1      50.039  26.054  28.602  1.00  0.00     0.134 A 
ATOM     64  F   UNL A   1      49.074  27.198  25.293  1.00  0.00    -0.206 F 
ATOM     65  C   UNL A   1      51.137  26.397  26.072  1.00  0.00     0.040 A 
ATOM     66  C   UNL A   1      51.381  25.739  28.375  1.00  0.00     0.040 A 
ATOM     67  F   UNL A   1      49.550  25.875  29.838  1.00  0.00    -0.206 F 
ATOM     68  C   UNL A   1      51.932  25.906  27.105  1.00  0.00     0.006 A 
ENDBRANCH  47  61
BRANCH  48  69
ATOM     69  C   UNL A   1      39.613  28.749  29.192  1.00  0.00     0.057 A 
ATOM     70  C   UNL A   1      39.034  28.580  30.454  1.00  0.00     0.134 A 
ATOM     71  C   UNL A   1      38.796  29.234  28.164  1.00  0.00     0.134 A 
ATOM     72  F   UNL A   1      39.765  28.108  31.474  1.00  0.00    -0.206 F 
ATOM     73  C   UNL A   1      37.684  28.856  30.682  1.00  0.00     0.040 A 
ATOM     74  C   UNL A   1      37.451  29.536  28.383  1.00  0.00     0.040 A 
ATOM     75  F   UNL A   1      39.298  29.430  26.936  1.00  0.00    -0.206 F 
ATOM     76  C   UNL A   1      36.890  29.337  29.644  1.00  0.00     0.006 A 
ENDBRANCH  48  69
BRANCH  60  77
ATOM     77  C   UNL A   1      45.492  32.456  29.370  1.00  0.00     0.057 A 
ATOM     78  C   UNL A   1      45.778  32.933  30.656  1.00  0.00     0.134 A 
ATOM     79  C   UNL A   1      45.506  33.377  28.316  1.00  0.00     0.134 A 
ATOM     80  F   UNL A   1      45.763  32.101  31.708  1.00  0.00    -0.206 F 
ATOM     81  C   UNL A   1      46.051  34.282  30.885  1.00  0.00     0.040 A 
ATOM     82  C   UNL A   1      45.799  34.724  28.530  1.00  0.00     0.040 A 
ATOM     83  F   UNL A   1      45.244  32.980  27.062  1.00  0.00    -0.206 F 
ATOM     84  C   UNL A   1      46.070  35.179  29.818  1.00  0.00     0.006 A 
ENDBRANCH  60  77
ENDBRANCH  34  35
ENDBRANCH  26  29
ENDBRANCH  24  25
ENDBRANCH  23  24
ENDBRANCH  22  23
ENDBRANCH   1  22
TORSDOF 15
ENDMDL
