MODEL 1
REMARK VINA RESULT:     -12.0      0.000      0.000
REMARK SMILES Cc1cc([C@H](C)NC(=O)N2CC[C@H](C(=O)NCCCCNC(=O)c3ccc(-c4c5nc(c(-c6c(F)cccc6F)c6ccc([nH]6)c(-c6c(F)cccc6F)c6nc(c(-c7c(F)cccc7F)c7ccc4[nH]7)C=C6)C=C5)cc3)[C@@H]2C)c(C)s1
REMARK SMILES IDX 18 1 17 2 16 3 14 4 15 5 13 7 10 8 11 9 78 10 12 11 79 12
REMARK SMILES IDX 8 13 7 14 9 16 5 17 6 18 4 19 1 20 2 21 3 22 82 23 80 24
REMARK SMILES IDX 81 25 19 26 20 27 21 28 22 29 23 31 24 32 25 33 77 34 26 35
REMARK SMILES IDX 76 36 27 37 28 38 29 39 70 40 30 41 75 42 69 43 71 44 31 45
REMARK SMILES IDX 74 46 68 47 67 48 32 50 58 51 41 52 57 53 42 54 45 55 56 56
REMARK SMILES IDX 72 57 43 58 44 59 55 61 73 62 46 63 33 64 34 65 39 66 35 67
REMARK SMILES IDX 36 68 38 69 40 70 37 71 59 72 60 73 65 74 61 75 62 76 64 77
REMARK SMILES IDX 66 78 63 79 47 80 48 81 53 82 49 83 50 84 52 85 54 86 51 87
REMARK H PARENT 16 6 7 15 21 30 71 49 45 60
REMARK Flexibility Score: inf
ROOT
ATOM      1  C   UNL A   1      33.272  29.300  24.832  1.00  0.00     0.023 C 
ENDROOT
BRANCH   1   2
ATOM      2  C   UNL A   1      32.988  28.704  23.454  1.00  0.00     0.116 C 
BRANCH   2   3
ATOM      3  N   UNL A   1      33.620  27.415  23.220  1.00  0.00    -0.356 N 
ATOM      4  C   UNL A   1      33.062  26.173  23.132  1.00  0.00     0.225 C 
ATOM      5  O   UNL A   1      33.676  25.317  22.495  1.00  0.00    -0.275 OA
ATOM      6  H   UNL A   1      34.598  27.444  23.108  1.00  0.00     0.163 HD
BRANCH   4   7
ATOM      7  C   UNL A   1      31.771  25.855  23.866  1.00  0.00     0.102 C 
ATOM      8  N   UNL A   1      31.195  23.954  25.207  1.00  0.00    -0.321 N 
ATOM      9  C   UNL A   1      31.015  23.553  23.828  1.00  0.00     0.122 C 
ATOM     10  C   UNL A   1      31.985  25.185  25.246  1.00  0.00     0.096 C 
ATOM     11  C   UNL A   1      30.887  24.871  23.085  1.00  0.00     0.037 C 
ATOM     12  C   UNL A   1      33.436  24.881  25.630  1.00  0.00     0.032 C 
BRANCH   8  13
ATOM     13  C   UNL A   1      31.012  23.054  26.220  1.00  0.00     0.318 C 
ATOM     14  N   UNL A   1      31.473  21.781  26.086  1.00  0.00    -0.331 N 
ATOM     15  H   UNL A   1      30.847  21.057  26.319  1.00  0.00     0.165 HD
ATOM     16  O   UNL A   1      30.425  23.349  27.262  1.00  0.00    -0.249 OA
BRANCH  14  17
ATOM     17  C   UNL A   1      32.798  21.381  25.632  1.00  0.00     0.112 C 
ATOM     18  C   UNL A   1      33.790  21.451  26.800  1.00  0.00     0.036 C 
BRANCH  17  19
ATOM     19  C   UNL A   1      32.698  20.001  24.986  1.00  0.00    -0.012 A 
ATOM     20  C   UNL A   1      33.066  16.210  25.181  1.00  0.00     0.056 C 
ATOM     21  C   UNL A   1      32.835  17.644  24.855  1.00  0.00     0.002 A 
ATOM     22  C   UNL A   1      32.905  18.748  25.677  1.00  0.00     0.021 A 
ATOM     23  S   UNL A   1      32.430  18.078  23.265  1.00  0.00    -0.146 S 
ATOM     24  C   UNL A   1      32.433  19.748  23.641  1.00  0.00     0.007 A 
ATOM     25  C   UNL A   1      32.160  20.679  22.510  1.00  0.00     0.057 C 
ENDBRANCH  17  19
ENDBRANCH  14  17
ENDBRANCH   8  13
ENDBRANCH   4   7
ENDBRANCH   2   3
ENDBRANCH   1   2
BRANCH   1  26
ATOM     26  C   UNL A   1      32.835  28.462  26.037  1.00  0.00     0.023 C 
BRANCH  26  27
ATOM     27  C   UNL A   1      33.643  28.643  27.319  1.00  0.00     0.116 C 
BRANCH  27  28
ATOM     28  N   UNL A   1      33.678  30.015  27.796  1.00  0.00    -0.352 N 
ATOM     29  C   UNL A   1      34.707  30.720  28.376  1.00  0.00     0.251 C 
ATOM     30  H   UNL A   1      32.838  30.517  27.687  1.00  0.00     0.163 HD
ATOM     31  O   UNL A   1      34.498  31.851  28.812  1.00  0.00    -0.269 OA
BRANCH  29  32
ATOM     32  C   UNL A   1      36.057  30.122  28.519  1.00  0.00     0.039 A 
ATOM     33  C   UNL A   1      36.938  30.190  27.434  1.00  0.00     0.014 A 
ATOM     34  C   UNL A   1      36.459  29.489  29.697  1.00  0.00     0.014 A 
ATOM     35  C   UNL A   1      38.243  29.702  27.562  1.00  0.00     0.010 A 
ATOM     36  C   UNL A   1      37.782  29.070  29.848  1.00  0.00     0.010 A 
ATOM     37  C   UNL A   1      38.692  29.180  28.785  1.00  0.00    -0.014 A 
BRANCH  37  38
ATOM     38  C   UNL A   1      40.109  28.769  28.977  1.00  0.00     0.031 A 
ATOM     39  C   UNL A   1      41.121  29.738  29.526  1.00  0.00     0.074 A 
ATOM     40  C   UNL A   1      40.506  27.539  28.591  1.00  0.00     0.049 A 
ATOM     41  N   UNL A   1      42.411  29.585  29.691  1.00  0.00    -0.248 NA
ATOM     42  C   UNL A   1      40.620  31.063  29.923  1.00  0.00     0.031 C 
ATOM     43  C   UNL A   1      39.639  26.516  28.006  1.00  0.00     0.029 A 
ATOM     44  N   UNL A   1      41.744  26.945  28.621  1.00  0.00    -0.354 N 
ATOM     45  C   UNL A   1      42.877  30.792  30.195  1.00  0.00     0.074 A 
ATOM     46  C   UNL A   1      41.739  31.685  30.263  1.00  0.00     0.031 C 
ATOM     47  C   UNL A   1      40.365  25.416  27.751  1.00  0.00     0.029 A 
ATOM     48  C   UNL A   1      41.757  25.669  28.111  1.00  0.00     0.049 A 
ATOM     49  H   UNL A   1      42.547  27.392  28.974  1.00  0.00     0.167 HD
ATOM     50  C   UNL A   1      44.132  31.122  30.587  1.00  0.00     0.037 A 
ATOM     51  C   UNL A   1      42.774  24.803  27.937  1.00  0.00     0.037 A 
ATOM     52  C   UNL A   1      45.260  30.229  30.533  1.00  0.00     0.049 A 
ATOM     53  C   UNL A   1      44.163  25.203  28.355  1.00  0.00     0.074 A 
ATOM     54  C   UNL A   1      46.558  30.455  30.960  1.00  0.00     0.029 A 
ATOM     55  N   UNL A   1      45.230  28.942  30.016  1.00  0.00    -0.354 N 
ATOM     56  N   UNL A   1      44.574  26.324  28.894  1.00  0.00    -0.248 NA
ATOM     57  C   UNL A   1      45.230  24.214  28.142  1.00  0.00     0.031 C 
ATOM     58  C   UNL A   1      47.324  29.326  30.652  1.00  0.00     0.029 A 
ATOM     59  C   UNL A   1      46.492  28.374  30.088  1.00  0.00     0.049 A 
ATOM     60  H   UNL A   1      44.430  28.500  29.652  1.00  0.00     0.167 HD
ATOM     61  C   UNL A   1      45.937  26.165  29.113  1.00  0.00     0.074 A 
ATOM     62  C   UNL A   1      46.280  24.834  28.660  1.00  0.00     0.031 C 
ATOM     63  C   UNL A   1      46.823  27.044  29.641  1.00  0.00     0.037 A 
BRANCH  50  64
ATOM     64  C   UNL A   1      44.354  32.514  31.106  1.00  0.00     0.057 A 
ATOM     65  C   UNL A   1      44.234  32.823  32.468  1.00  0.00     0.134 A 
ATOM     66  C   UNL A   1      44.732  33.549  30.242  1.00  0.00     0.134 A 
ATOM     67  F   UNL A   1      43.866  31.880  33.349  1.00  0.00    -0.206 F 
ATOM     68  C   UNL A   1      44.456  34.116  32.947  1.00  0.00     0.040 A 
ATOM     69  C   UNL A   1      44.985  34.839  30.713  1.00  0.00     0.040 A 
ATOM     70  F   UNL A   1      44.875  33.322  28.928  1.00  0.00    -0.206 F 
ATOM     71  C   UNL A   1      44.840  35.126  32.069  1.00  0.00     0.006 A 
ENDBRANCH  50  64
BRANCH  51  72
ATOM     72  C   UNL A   1      42.519  23.463  27.350  1.00  0.00     0.057 A 
ATOM     73  C   UNL A   1      42.202  22.367  28.162  1.00  0.00     0.134 A 
ATOM     74  C   UNL A   1      42.602  23.239  25.971  1.00  0.00     0.134 A 
ATOM     75  F   UNL A   1      42.128  22.513  29.493  1.00  0.00    -0.206 F 
ATOM     76  C   UNL A   1      41.995  21.095  27.626  1.00  0.00     0.040 A 
ATOM     77  C   UNL A   1      42.370  21.979  25.419  1.00  0.00     0.040 A 
ATOM     78  F   UNL A   1      42.895  24.249  25.137  1.00  0.00    -0.206 F 
ATOM     79  C   UNL A   1      42.074  20.899  26.248  1.00  0.00     0.006 A 
ENDBRANCH  51  72
BRANCH  63  80
ATOM     80  C   UNL A   1      48.244  26.583  29.798  1.00  0.00     0.057 A 
ATOM     81  C   UNL A   1      49.218  26.839  28.825  1.00  0.00     0.134 A 
ATOM     82  C   UNL A   1      48.649  25.908  30.956  1.00  0.00     0.134 A 
ATOM     83  F   UNL A   1      48.895  27.468  27.686  1.00  0.00    -0.206 F 
ATOM     84  C   UNL A   1      50.541  26.420  28.989  1.00  0.00     0.040 A 
ATOM     85  C   UNL A   1      49.974  25.511  31.145  1.00  0.00     0.040 A 
ATOM     86  F   UNL A   1      47.769  25.638  31.932  1.00  0.00    -0.206 F 
ATOM     87  C   UNL A   1      50.923  25.762  30.157  1.00  0.00     0.006 A 
ENDBRANCH  63  80
ENDBRANCH  37  38
ENDBRANCH  29  32
ENDBRANCH  27  28
ENDBRANCH  26  27
ENDBRANCH   1  26
TORSDOF 14
ENDMDL
MODEL 2
REMARK VINA RESULT:     -12.0      3.018      7.866
REMARK SMILES Cc1cc([C@H](C)NC(=O)N2CC[C@H](C(=O)NCCCCNC(=O)c3ccc(-c4c5nc(c(-c6c(F)cccc6F)c6ccc([nH]6)c(-c6c(F)cccc6F)c6nc(c(-c7c(F)cccc7F)c7ccc4[nH]7)C=C6)C=C5)cc3)[C@@H]2C)c(C)s1
REMARK SMILES IDX 18 1 17 2 16 3 14 4 15 5 13 7 10 8 11 9 78 10 12 11 79 12
REMARK SMILES IDX 8 13 7 14 9 16 5 17 6 18 4 19 1 20 2 21 3 22 82 23 80 24
REMARK SMILES IDX 81 25 19 26 20 27 21 28 22 29 23 31 24 32 25 33 77 34 26 35
REMARK SMILES IDX 76 36 27 37 28 38 29 39 70 40 30 41 75 42 69 43 71 44 31 45
REMARK SMILES IDX 74 46 68 47 67 48 32 50 58 51 41 52 57 53 42 54 45 55 56 56
REMARK SMILES IDX 72 57 43 58 44 59 55 61 73 62 46 63 33 64 34 65 39 66 35 67
REMARK SMILES IDX 36 68 38 69 40 70 37 71 59 72 60 73 65 74 61 75 62 76 64 77
REMARK SMILES IDX 66 78 63 79 47 80 48 81 53 82 49 83 50 84 52 85 54 86 51 87
REMARK H PARENT 16 6 7 15 21 30 71 49 45 60
REMARK Flexibility Score: inf
ROOT
ATOM      1  C   UNL A   1      36.699  21.101  24.626  1.00  0.00     0.023 C 
ENDROOT
BRANCH   1   2
ATOM      2  C   UNL A   1      35.216  20.890  24.929  1.00  0.00     0.116 C 
BRANCH   2   3
ATOM      3  N   UNL A   1      34.564  22.038  25.539  1.00  0.00    -0.356 N 
ATOM      4  C   UNL A   1      33.412  22.678  25.184  1.00  0.00     0.225 C 
ATOM      5  O   UNL A   1      32.812  23.299  26.062  1.00  0.00    -0.275 OA
ATOM      6  H   UNL A   1      35.022  22.409  26.328  1.00  0.00     0.163 HD
BRANCH   4   7
ATOM      7  C   UNL A   1      32.945  22.677  23.740  1.00  0.00     0.102 C 
ATOM      8  N   UNL A   1      32.440  24.517  22.289  1.00  0.00    -0.321 N 
ATOM      9  C   UNL A   1      31.270  24.315  23.118  1.00  0.00     0.122 C 
ATOM     10  C   UNL A   1      33.572  23.802  22.880  1.00  0.00     0.096 C 
ATOM     11  C   UNL A   1      31.428  22.891  23.620  1.00  0.00     0.037 C 
ATOM     12  C   UNL A   1      34.497  24.777  23.615  1.00  0.00     0.032 C 
BRANCH   8  13
ATOM     13  C   UNL A   1      32.486  25.552  21.397  1.00  0.00     0.318 C 
ATOM     14  N   UNL A   1      31.685  26.637  21.577  1.00  0.00    -0.331 N 
ATOM     15  H   UNL A   1      31.182  26.951  20.791  1.00  0.00     0.165 HD
ATOM     16  O   UNL A   1      33.227  25.539  20.413  1.00  0.00    -0.249 OA
BRANCH  14  17
ATOM     17  C   UNL A   1      31.497  27.381  22.815  1.00  0.00     0.112 C 
ATOM     18  C   UNL A   1      32.766  28.179  23.141  1.00  0.00     0.036 C 
BRANCH  17  19
ATOM     19  C   UNL A   1      30.241  28.240  22.684  1.00  0.00    -0.012 A 
ATOM     20  C   UNL A   1      28.545  31.507  21.682  1.00  0.00     0.056 C 
ATOM     21  C   UNL A   1      28.959  30.150  22.136  1.00  0.00     0.002 A 
ATOM     22  C   UNL A   1      30.195  29.544  22.060  1.00  0.00     0.021 A 
ATOM     23  S   UNL A   1      27.814  29.137  22.870  1.00  0.00    -0.146 S 
ATOM     24  C   UNL A   1      28.977  27.917  23.173  1.00  0.00     0.007 A 
ATOM     25  C   UNL A   1      28.493  26.709  23.899  1.00  0.00     0.057 C 
ENDBRANCH  17  19
ENDBRANCH  14  17
ENDBRANCH   8  13
ENDBRANCH   4   7
ENDBRANCH   2   3
ENDBRANCH   1   2
BRANCH   1  26
ATOM     26  C   UNL A   1      37.638  19.948  24.990  1.00  0.00     0.023 C 
BRANCH  26  27
ATOM     27  C   UNL A   1      38.881  20.312  25.797  1.00  0.00     0.116 C 
BRANCH  27  28
ATOM     28  N   UNL A   1      39.888  19.264  25.817  1.00  0.00    -0.352 N 
ATOM     29  C   UNL A   1      41.234  19.341  26.092  1.00  0.00     0.251 C 
ATOM     30  H   UNL A   1      39.557  18.362  25.601  1.00  0.00     0.163 HD
ATOM     31  O   UNL A   1      41.940  18.345  25.947  1.00  0.00    -0.269 OA
BRANCH  29  32
ATOM     32  C   UNL A   1      41.853  20.618  26.521  1.00  0.00     0.039 A 
ATOM     33  C   UNL A   1      42.300  21.510  25.539  1.00  0.00     0.014 A 
ATOM     34  C   UNL A   1      42.008  20.943  27.871  1.00  0.00     0.014 A 
ATOM     35  C   UNL A   1      42.819  22.755  25.909  1.00  0.00     0.010 A 
ATOM     36  C   UNL A   1      42.456  22.213  28.236  1.00  0.00     0.010 A 
ATOM     37  C   UNL A   1      42.859  23.138  27.259  1.00  0.00    -0.014 A 
BRANCH  37  38
ATOM     38  C   UNL A   1      43.293  24.502  27.665  1.00  0.00     0.031 A 
ATOM     39  C   UNL A   1      42.280  25.548  28.043  1.00  0.00     0.074 A 
ATOM     40  C   UNL A   1      44.602  24.825  27.626  1.00  0.00     0.049 A 
ATOM     41  N   UNL A   1      42.464  26.809  28.347  1.00  0.00    -0.248 NA
ATOM     42  C   UNL A   1      40.870  25.129  28.060  1.00  0.00     0.031 C 
ATOM     43  C   UNL A   1      45.685  23.921  27.238  1.00  0.00     0.029 A 
ATOM     44  N   UNL A   1      45.242  26.008  27.903  1.00  0.00    -0.354 N 
ATOM     45  C   UNL A   1      41.200  27.333  28.579  1.00  0.00     0.074 A 
ATOM     46  C   UNL A   1      40.252  26.268  28.330  1.00  0.00     0.031 C 
ATOM     47  C   UNL A   1      46.855  24.574  27.321  1.00  0.00     0.029 A 
ATOM     48  C   UNL A   1      46.604  25.954  27.723  1.00  0.00     0.049 A 
ATOM     49  H   UNL A   1      44.771  26.819  28.202  1.00  0.00     0.167 HD
ATOM     50  C   UNL A   1      40.858  28.582  28.981  1.00  0.00     0.037 A 
ATOM     51  C   UNL A   1      47.545  26.909  27.853  1.00  0.00     0.037 A 
ATOM     52  C   UNL A   1      41.802  29.637  29.243  1.00  0.00     0.049 A 
ATOM     53  C   UNL A   1      47.138  28.294  28.275  1.00  0.00     0.074 A 
ATOM     54  C   UNL A   1      41.555  30.917  29.708  1.00  0.00     0.029 A 
ATOM     55  N   UNL A   1      43.173  29.540  29.055  1.00  0.00    -0.354 N 
ATOM     56  N   UNL A   1      45.944  28.756  28.556  1.00  0.00    -0.248 NA
ATOM     57  C   UNL A   1      48.211  29.292  28.400  1.00  0.00     0.031 C 
ATOM     58  C   UNL A   1      42.769  31.611  29.751  1.00  0.00     0.029 A 
ATOM     59  C   UNL A   1      43.780  30.746  29.369  1.00  0.00     0.049 A 
ATOM     60  H   UNL A   1      43.644  28.734  28.744  1.00  0.00     0.167 HD
ATOM     61  C   UNL A   1      46.125  30.084  28.921  1.00  0.00     0.074 A 
ATOM     62  C   UNL A   1      47.545  30.351  28.838  1.00  0.00     0.031 C 
ATOM     63  C   UNL A   1      45.197  30.999  29.290  1.00  0.00     0.037 A 
BRANCH  50  64
ATOM     64  C   UNL A   1      39.396  28.878  29.162  1.00  0.00     0.057 A 
ATOM     65  C   UNL A   1      38.761  28.737  30.402  1.00  0.00     0.134 A 
ATOM     66  C   UNL A   1      38.624  29.349  28.092  1.00  0.00     0.134 A 
ATOM     67  F   UNL A   1      39.440  28.281  31.467  1.00  0.00    -0.206 F 
ATOM     68  C   UNL A   1      37.405  29.027  30.567  1.00  0.00     0.040 A 
ATOM     69  C   UNL A   1      37.274  29.671  28.252  1.00  0.00     0.040 A 
ATOM     70  F   UNL A   1      39.170  29.518  26.879  1.00  0.00    -0.206 F 
ATOM     71  C   UNL A   1      36.660  29.503  29.491  1.00  0.00     0.006 A 
ENDBRANCH  50  64
BRANCH  51  72
ATOM     72  C   UNL A   1      48.972  26.589  27.592  1.00  0.00     0.057 A 
ATOM     73  C   UNL A   1      49.539  26.794  26.328  1.00  0.00     0.134 A 
ATOM     74  C   UNL A   1      49.797  26.057  28.589  1.00  0.00     0.134 A 
ATOM     75  F   UNL A   1      48.794  27.281  25.326  1.00  0.00    -0.206 F 
ATOM     76  C   UNL A   1      50.869  26.464  26.061  1.00  0.00     0.040 A 
ATOM     77  C   UNL A   1      51.136  25.748  28.344  1.00  0.00     0.040 A 
ATOM     78  F   UNL A   1      49.317  25.842  29.824  1.00  0.00    -0.206 F 
ATOM     79  C   UNL A   1      51.674  25.943  27.073  1.00  0.00     0.006 A 
ENDBRANCH  51  72
BRANCH  63  80
ATOM     80  C   UNL A   1      45.688  32.366  29.674  1.00  0.00     0.057 A 
ATOM     81  C   UNL A   1      46.081  32.674  30.983  1.00  0.00     0.134 A 
ATOM     82  C   UNL A   1      45.807  33.375  28.710  1.00  0.00     0.134 A 
ATOM     83  F   UNL A   1      45.979  31.758  31.957  1.00  0.00    -0.206 F 
ATOM     84  C   UNL A   1      46.553  33.943  31.324  1.00  0.00     0.040 A 
ATOM     85  C   UNL A   1      46.305  34.639  29.032  1.00  0.00     0.040 A 
ATOM     86  F   UNL A   1      45.457  33.146  27.435  1.00  0.00    -0.206 F 
ATOM     87  C   UNL A   1      46.674  34.927  30.344  1.00  0.00     0.006 A 
ENDBRANCH  63  80
ENDBRANCH  37  38
ENDBRANCH  29  32
ENDBRANCH  27  28
ENDBRANCH  26  27
ENDBRANCH   1  26
TORSDOF 14
ENDMDL
MODEL 3
REMARK VINA RESULT:     -12.0      2.810      7.936
REMARK SMILES Cc1cc([C@H](C)NC(=O)N2CC[C@H](C(=O)NCCCCNC(=O)c3ccc(-c4c5nc(c(-c6c(F)cccc6F)c6ccc([nH]6)c(-c6c(F)cccc6F)c6nc(c(-c7c(F)cccc7F)c7ccc4[nH]7)C=C6)C=C5)cc3)[C@@H]2C)c(C)s1
REMARK SMILES IDX 18 1 17 2 16 3 14 4 15 5 13 7 10 8 11 9 78 10 12 11 79 12
REMARK SMILES IDX 8 13 7 14 9 16 5 17 6 18 4 19 1 20 2 21 3 22 82 23 80 24
REMARK SMILES IDX 81 25 19 26 20 27 21 28 22 29 23 31 24 32 25 33 77 34 26 35
REMARK SMILES IDX 76 36 27 37 28 38 29 39 70 40 30 41 75 42 69 43 71 44 31 45
REMARK SMILES IDX 74 46 68 47 67 48 32 50 58 51 41 52 57 53 42 54 45 55 56 56
REMARK SMILES IDX 72 57 43 58 44 59 55 61 73 62 46 63 33 64 34 65 39 66 35 67
REMARK SMILES IDX 36 68 38 69 40 70 37 71 59 72 60 73 65 74 61 75 62 76 64 77
REMARK SMILES IDX 66 78 63 79 47 80 48 81 53 82 49 83 50 84 52 85 54 86 51 87
REMARK H PARENT 16 6 7 15 21 30 71 49 45 60
REMARK Flexibility Score: inf
ROOT
ATOM      1  C   UNL A   1      36.684  21.210  24.556  1.00  0.00     0.023 C 
ENDROOT
BRANCH   1   2
ATOM      2  C   UNL A   1      35.228  20.941  24.936  1.00  0.00     0.116 C 
BRANCH   2   3
ATOM      3  N   UNL A   1      34.552  22.074  25.546  1.00  0.00    -0.356 N 
ATOM      4  C   UNL A   1      33.389  22.692  25.189  1.00  0.00     0.225 C 
ATOM      5  O   UNL A   1      32.774  23.300  26.066  1.00  0.00    -0.275 OA
ATOM      6  H   UNL A   1      35.001  22.452  26.337  1.00  0.00     0.163 HD
BRANCH   4   7
ATOM      7  C   UNL A   1      32.927  22.686  23.742  1.00  0.00     0.102 C 
ATOM      8  N   UNL A   1      32.421  24.519  22.284  1.00  0.00    -0.321 N 
ATOM      9  C   UNL A   1      31.249  24.317  23.110  1.00  0.00     0.122 C 
ATOM     10  C   UNL A   1      33.553  23.810  22.881  1.00  0.00     0.096 C 
ATOM     11  C   UNL A   1      31.409  22.895  23.617  1.00  0.00     0.037 C 
ATOM     12  C   UNL A   1      34.473  24.790  23.616  1.00  0.00     0.032 C 
BRANCH   8  13
ATOM     13  C   UNL A   1      32.467  25.553  21.390  1.00  0.00     0.318 C 
ATOM     14  N   UNL A   1      31.666  26.638  21.567  1.00  0.00    -0.331 N 
ATOM     15  H   UNL A   1      31.164  26.950  20.779  1.00  0.00     0.165 HD
ATOM     16  O   UNL A   1      33.208  25.536  20.406  1.00  0.00    -0.249 OA
BRANCH  14  17
ATOM     17  C   UNL A   1      31.478  27.385  22.802  1.00  0.00     0.112 C 
ATOM     18  C   UNL A   1      32.748  28.183  23.126  1.00  0.00     0.036 C 
BRANCH  17  19
ATOM     19  C   UNL A   1      30.223  28.245  22.668  1.00  0.00    -0.012 A 
ATOM     20  C   UNL A   1      28.528  31.506  21.649  1.00  0.00     0.056 C 
ATOM     21  C   UNL A   1      28.941  30.152  22.110  1.00  0.00     0.002 A 
ATOM     22  C   UNL A   1      30.176  29.545  22.035  1.00  0.00     0.021 A 
ATOM     23  S   UNL A   1      27.796  29.145  22.854  1.00  0.00    -0.146 S 
ATOM     24  C   UNL A   1      28.959  27.926  23.162  1.00  0.00     0.007 A 
ATOM     25  C   UNL A   1      28.476  26.723  23.897  1.00  0.00     0.057 C 
ENDBRANCH  17  19
ENDBRANCH  14  17
ENDBRANCH   8  13
ENDBRANCH   4   7
ENDBRANCH   2   3
ENDBRANCH   1   2
BRANCH   1  26
ATOM     26  C   UNL A   1      37.673  20.068  24.805  1.00  0.00     0.023 C 
BRANCH  26  27
ATOM     27  C   UNL A   1      38.736  20.310  25.872  1.00  0.00     0.116 C 
BRANCH  27  28
ATOM     28  N   UNL A   1      39.848  19.375  25.807  1.00  0.00    -0.352 N 
ATOM     29  C   UNL A   1      41.180  19.569  26.096  1.00  0.00     0.251 C 
ATOM     30  H   UNL A   1      39.613  18.467  25.511  1.00  0.00     0.163 HD
ATOM     31  O   UNL A   1      41.986  18.669  25.869  1.00  0.00    -0.269 OA
BRANCH  29  32
ATOM     32  C   UNL A   1      41.662  20.862  26.639  1.00  0.00     0.039 A 
ATOM     33  C   UNL A   1      42.199  21.803  25.753  1.00  0.00     0.014 A 
ATOM     34  C   UNL A   1      41.602  21.154  28.004  1.00  0.00     0.014 A 
ATOM     35  C   UNL A   1      42.593  23.060  26.223  1.00  0.00     0.010 A 
ATOM     36  C   UNL A   1      41.926  22.432  28.459  1.00  0.00     0.010 A 
ATOM     37  C   UNL A   1      42.417  23.404  27.572  1.00  0.00    -0.014 A 
BRANCH  37  38
ATOM     38  C   UNL A   1      42.716  24.775  28.067  1.00  0.00     0.031 A 
ATOM     39  C   UNL A   1      44.110  25.153  28.485  1.00  0.00     0.074 A 
ATOM     40  C   UNL A   1      41.714  25.667  28.206  1.00  0.00     0.049 A 
ATOM     41  N   UNL A   1      44.544  26.272  29.012  1.00  0.00    -0.248 NA
ATOM     42  C   UNL A   1      45.154  24.131  28.310  1.00  0.00     0.031 C 
ATOM     43  C   UNL A   1      40.309  25.419  27.878  1.00  0.00     0.029 A 
ATOM     44  N   UNL A   1      41.720  26.958  28.674  1.00  0.00    -0.354 N 
ATOM     45  C   UNL A   1      45.900  26.084  29.241  1.00  0.00     0.074 A 
ATOM     46  C   UNL A   1      46.209  24.727  28.844  1.00  0.00     0.031 C 
ATOM     47  C   UNL A   1      39.594  26.527  28.134  1.00  0.00     0.029 A 
ATOM     48  C   UNL A   1      40.479  27.547  28.688  1.00  0.00     0.049 A 
ATOM     49  H   UNL A   1      42.538  27.419  28.973  1.00  0.00     0.167 HD
ATOM     50  C   UNL A   1      46.811  26.966  29.720  1.00  0.00     0.037 A 
ATOM     51  C   UNL A   1      40.090  28.766  29.111  1.00  0.00     0.037 A 
ATOM     52  C   UNL A   1      46.507  28.321  30.101  1.00  0.00     0.049 A 
ATOM     53  C   UNL A   1      41.115  29.717  29.663  1.00  0.00     0.074 A 
ATOM     54  C   UNL A   1      47.373  29.306  30.543  1.00  0.00     0.029 A 
ATOM     55  N   UNL A   1      45.238  28.882  30.094  1.00  0.00    -0.354 N 
ATOM     56  N   UNL A   1      42.406  29.548  29.810  1.00  0.00    -0.248 NA
ATOM     57  C   UNL A   1      40.629  31.033  30.106  1.00  0.00     0.031 C 
ATOM     58  C   UNL A   1      46.622  30.445  30.853  1.00  0.00     0.029 A 
ATOM     59  C   UNL A   1      45.295  30.189  30.549  1.00  0.00     0.049 A 
ATOM     60  H   UNL A   1      44.418  28.418  29.807  1.00  0.00     0.167 HD
ATOM     61  C   UNL A   1      42.891  30.742  30.331  1.00  0.00     0.074 A 
ATOM     62  C   UNL A   1      41.756  31.632  30.463  1.00  0.00     0.031 C 
ATOM     63  C   UNL A   1      44.161  31.070  30.670  1.00  0.00     0.037 A 
BRANCH  50  64
ATOM     64  C   UNL A   1      48.230  26.492  29.861  1.00  0.00     0.057 A 
ATOM     65  C   UNL A   1      48.689  25.872  31.031  1.00  0.00     0.134 A 
ATOM     66  C   UNL A   1      49.136  26.617  28.801  1.00  0.00     0.134 A 
ATOM     67  F   UNL A   1      47.875  25.728  32.089  1.00  0.00    -0.206 F 
ATOM     68  C   UNL A   1      50.004  25.420  31.151  1.00  0.00     0.040 A 
ATOM     69  C   UNL A   1      50.446  26.143  28.899  1.00  0.00     0.040 A 
ATOM     70  F   UNL A   1      48.762  27.192  27.648  1.00  0.00    -0.206 F 
ATOM     71  C   UNL A   1      50.884  25.548  30.080  1.00  0.00     0.006 A 
ENDBRANCH  50  64
BRANCH  51  72
ATOM     72  C   UNL A   1      38.662  29.165  29.019  1.00  0.00     0.057 A 
ATOM     73  C   UNL A   1      37.812  29.071  30.129  1.00  0.00     0.134 A 
ATOM     74  C   UNL A   1      38.108  29.634  27.823  1.00  0.00     0.134 A 
ATOM     75  F   UNL A   1      38.279  28.610  31.298  1.00  0.00    -0.206 F 
ATOM     76  C   UNL A   1      36.461  29.409  30.046  1.00  0.00     0.040 A 
ATOM     77  C   UNL A   1      36.765  30.001  27.733  1.00  0.00     0.040 A 
ATOM     78  F   UNL A   1      38.869  29.754  26.724  1.00  0.00    -0.206 F 
ATOM     79  C   UNL A   1      35.934  29.881  28.846  1.00  0.00     0.006 A 
ENDBRANCH  51  72
BRANCH  63  80
ATOM     80  C   UNL A   1      44.403  32.462  31.179  1.00  0.00     0.057 A 
ATOM     81  C   UNL A   1      44.670  33.532  30.315  1.00  0.00     0.134 A 
ATOM     82  C   UNL A   1      44.329  32.741  32.549  1.00  0.00     0.134 A 
ATOM     83  F   UNL A   1      44.768  33.331  28.993  1.00  0.00    -0.206 F 
ATOM     84  C   UNL A   1      44.876  34.826  30.799  1.00  0.00     0.040 A 
ATOM     85  C   UNL A   1      44.504  34.036  33.042  1.00  0.00     0.040 A 
ATOM     86  F   UNL A   1      44.068  31.765  33.432  1.00  0.00    -0.206 F 
ATOM     87  C   UNL A   1      44.784  35.081  32.166  1.00  0.00     0.006 A 
ENDBRANCH  63  80
ENDBRANCH  37  38
ENDBRANCH  29  32
ENDBRANCH  27  28
ENDBRANCH  26  27
ENDBRANCH   1  26
TORSDOF 14
ENDMDL
