MODEL 1
REMARK VINA RESULT:     -11.4      0.000      0.000
REMARK SMILES CC(C)CCn1cc(C(=O)NCCCCNC(=O)c2ccc(-c3c4nc(c(-c5c(F)cccc5F)c5ccc([nH]5)c(-c5c(F)cccc5F)c5nc(c(-c6c(F)cccc6F)c6ccc3[nH]6)C=C5)C=C4)cc2)c(-c2ccoc2)n1
REMARK SMILES IDX 13 1 12 2 11 3 9 4 10 5 8 7 6 8 7 9 79 10 73 11 5 12 4 13
REMARK SMILES IDX 2 14 1 15 3 16 74 17 75 18 78 19 76 20 77 21 14 22 15 23
REMARK SMILES IDX 16 24 17 25 18 27 19 28 20 29 72 30 21 31 71 32 22 33 23 34
REMARK SMILES IDX 24 35 65 36 25 37 70 38 64 39 66 40 26 41 69 42 63 43 62 44
REMARK SMILES IDX 27 46 53 47 36 48 52 49 37 50 40 51 51 52 67 53 38 54 39 55
REMARK SMILES IDX 50 57 68 58 41 59 28 60 29 61 34 62 30 63 31 64 33 65 35 66
REMARK SMILES IDX 32 67 54 68 55 69 60 70 56 71 57 72 59 73 61 74 58 75 42 76
REMARK SMILES IDX 43 77 48 78 44 79 45 80 47 81 49 82 46 83
REMARK H PARENT 11 6 16 26 66 45 40 56
REMARK Flexibility Score: inf
ROOT
ATOM      1  C   UNL A   1      34.296  29.942  26.896  1.00  0.00     0.023 C 
ENDROOT
BRANCH   1   2
ATOM      2  C   UNL A   1      33.363  29.218  25.924  1.00  0.00     0.116 C 
BRANCH   2   3
ATOM      3  N   UNL A   1      33.973  29.056  24.622  1.00  0.00    -0.352 N 
ATOM      4  C   UNL A   1      33.488  28.759  23.374  1.00  0.00     0.255 C 
ATOM      5  O   UNL A   1      34.341  28.721  22.486  1.00  0.00    -0.269 OA
ATOM      6  H   UNL A   1      34.948  29.189  24.634  1.00  0.00     0.163 HD
BRANCH   4   7
ATOM      7  C   UNL A   1      32.072  28.550  23.094  1.00  0.00     0.085 A 
ATOM      8  N   UNL A   1      29.886  28.755  22.797  1.00  0.00    -0.271 N 
ATOM      9  C   UNL A   1      30.976  29.353  23.363  1.00  0.00     0.123 A 
ATOM     10  N   UNL A   1      30.165  27.581  22.222  1.00  0.00    -0.172 NA
ATOM     11  C   UNL A   1      31.469  27.406  22.479  1.00  0.00     0.108 A 
BRANCH   8  12
ATOM     12  C   UNL A   1      28.526  29.262  22.815  1.00  0.00     0.144 C 
BRANCH  12  13
ATOM     13  C   UNL A   1      28.165  30.133  21.609  1.00  0.00     0.027 C 
BRANCH  13  14
ATOM     14  C   UNL A   1      28.602  31.607  21.712  1.00  0.00    -0.016 C 
ATOM     15  C   UNL A   1      27.909  32.496  20.681  1.00  0.00     0.007 C 
ATOM     16  C   UNL A   1      28.328  32.126  23.125  1.00  0.00     0.007 C 
ENDBRANCH  13  14
ENDBRANCH  12  13
ENDBRANCH   8  12
BRANCH  11  17
ATOM     17  C   UNL A   1      32.118  26.135  22.177  1.00  0.00     0.041 A 
ATOM     18  C   UNL A   1      32.341  25.077  23.091  1.00  0.00     0.052 A 
ATOM     19  C   UNL A   1      32.698  25.750  20.990  1.00  0.00     0.205 A 
ATOM     20  C   UNL A   1      33.016  24.106  22.387  1.00  0.00     0.195 A 
ATOM     21  O   UNL A   1      33.244  24.511  21.109  1.00  0.00    -0.472 OA
ENDBRANCH  11  17
ENDBRANCH   4   7
ENDBRANCH   2   3
ENDBRANCH   1   2
BRANCH   1  22
ATOM     22  C   UNL A   1      33.616  31.011  27.768  1.00  0.00     0.023 C 
BRANCH  22  23
ATOM     23  C   UNL A   1      34.452  32.262  28.024  1.00  0.00     0.116 C 
BRANCH  23  24
ATOM     24  N   UNL A   1      34.453  32.678  29.425  1.00  0.00    -0.352 N 
ATOM     25  C   UNL A   1      35.198  32.138  30.460  1.00  0.00     0.251 C 
ATOM     26  H   UNL A   1      33.857  33.426  29.659  1.00  0.00     0.163 HD
ATOM     27  O   UNL A   1      34.856  32.257  31.623  1.00  0.00    -0.269 OA
BRANCH  25  28
ATOM     28  C   UNL A   1      36.442  31.429  30.115  1.00  0.00     0.039 A 
ATOM     29  C   UNL A   1      37.633  32.113  29.872  1.00  0.00     0.014 A 
ATOM     30  C   UNL A   1      36.394  30.036  30.097  1.00  0.00     0.014 A 
ATOM     31  C   UNL A   1      38.803  31.374  29.704  1.00  0.00     0.010 A 
ATOM     32  C   UNL A   1      37.563  29.316  30.066  1.00  0.00     0.010 A 
ATOM     33  C   UNL A   1      38.766  29.973  29.832  1.00  0.00    -0.014 A 
BRANCH  33  34
ATOM     34  C   UNL A   1      40.001  29.195  29.870  1.00  0.00     0.031 A 
ATOM     35  C   UNL A   1      40.570  29.003  31.234  1.00  0.00     0.074 A 
ATOM     36  C   UNL A   1      40.494  28.525  28.804  1.00  0.00     0.049 A 
ATOM     37  N   UNL A   1      41.671  29.496  31.695  1.00  0.00    -0.248 NA
ATOM     38  C   UNL A   1      39.766  28.301  32.249  1.00  0.00     0.031 C 
ATOM     39  C   UNL A   1      39.915  28.373  27.464  1.00  0.00     0.029 A 
ATOM     40  N   UNL A   1      41.612  27.752  28.728  1.00  0.00    -0.354 N 
ATOM     41  C   UNL A   1      41.807  29.007  32.992  1.00  0.00     0.074 A 
ATOM     42  C   UNL A   1      40.539  28.418  33.332  1.00  0.00     0.031 C 
ATOM     43  C   UNL A   1      40.560  27.388  26.797  1.00  0.00     0.029 A 
ATOM     44  C   UNL A   1      41.702  26.965  27.585  1.00  0.00     0.049 A 
ATOM     45  H   UNL A   1      42.305  27.752  29.428  1.00  0.00     0.167 HD
ATOM     46  C   UNL A   1      43.031  28.935  33.586  1.00  0.00     0.037 A 
ATOM     47  C   UNL A   1      42.650  26.034  27.309  1.00  0.00     0.037 A 
ATOM     48  C   UNL A   1      43.997  29.734  32.874  1.00  0.00     0.049 A 
ATOM     49  C   UNL A   1      43.822  26.337  28.166  1.00  0.00     0.074 A 
ATOM     50  C   UNL A   1      44.109  31.076  32.561  1.00  0.00     0.029 A 
ATOM     51  N   UNL A   1      44.854  29.082  32.020  1.00  0.00    -0.354 N 
ATOM     52  N   UNL A   1      44.572  27.390  28.006  1.00  0.00    -0.248 NA
ATOM     53  C   UNL A   1      43.869  25.727  29.485  1.00  0.00     0.031 C 
ATOM     54  C   UNL A   1      44.621  31.099  31.230  1.00  0.00     0.029 A 
ATOM     55  C   UNL A   1      44.869  29.782  30.842  1.00  0.00     0.049 A 
ATOM     56  H   UNL A   1      45.364  28.264  32.219  1.00  0.00     0.167 HD
ATOM     57  C   UNL A   1      44.819  27.839  29.294  1.00  0.00     0.074 A 
ATOM     58  C   UNL A   1      44.436  26.727  30.164  1.00  0.00     0.031 C 
ATOM     59  C   UNL A   1      45.030  29.163  29.548  1.00  0.00     0.037 A 
BRANCH  46  60
ATOM     60  C   UNL A   1      43.458  27.867  34.563  1.00  0.00     0.057 A 
ATOM     61  C   UNL A   1      43.850  28.244  35.862  1.00  0.00     0.134 A 
ATOM     62  C   UNL A   1      43.796  26.550  34.197  1.00  0.00     0.134 A 
ATOM     63  F   UNL A   1      43.589  29.475  36.330  1.00  0.00    -0.206 F 
ATOM     64  C   UNL A   1      44.603  27.406  36.694  1.00  0.00     0.040 A 
ATOM     65  C   UNL A   1      44.505  25.688  35.039  1.00  0.00     0.040 A 
ATOM     66  F   UNL A   1      43.555  26.060  32.975  1.00  0.00    -0.206 F 
ATOM     67  C   UNL A   1      44.944  26.127  36.277  1.00  0.00     0.006 A 
ENDBRANCH  46  60
BRANCH  47  68
ATOM     68  C   UNL A   1      42.549  24.767  26.550  1.00  0.00     0.057 A 
ATOM     69  C   UNL A   1      43.299  24.555  25.383  1.00  0.00     0.134 A 
ATOM     70  C   UNL A   1      41.952  23.626  27.114  1.00  0.00     0.134 A 
ATOM     71  F   UNL A   1      43.936  25.574  24.789  1.00  0.00    -0.206 F 
ATOM     72  C   UNL A   1      43.479  23.279  24.831  1.00  0.00     0.040 A 
ATOM     73  C   UNL A   1      42.122  22.347  26.572  1.00  0.00     0.040 A 
ATOM     74  F   UNL A   1      41.264  23.704  28.263  1.00  0.00    -0.206 F 
ATOM     75  C   UNL A   1      42.901  22.167  25.435  1.00  0.00     0.006 A 
ENDBRANCH  47  68
BRANCH  59  76
ATOM     76  C   UNL A   1      45.221  30.083  28.370  1.00  0.00     0.057 A 
ATOM     77  C   UNL A   1      44.182  30.772  27.724  1.00  0.00     0.134 A 
ATOM     78  C   UNL A   1      46.523  30.385  27.961  1.00  0.00     0.134 A 
ATOM     79  F   UNL A   1      42.908  30.629  28.108  1.00  0.00    -0.206 F 
ATOM     80  C   UNL A   1      44.426  31.680  26.690  1.00  0.00     0.040 A 
ATOM     81  C   UNL A   1      46.783  31.316  26.953  1.00  0.00     0.040 A 
ATOM     82  F   UNL A   1      47.573  29.810  28.570  1.00  0.00    -0.206 F 
ATOM     83  C   UNL A   1      45.733  31.958  26.305  1.00  0.00     0.006 A 
ENDBRANCH  59  76
ENDBRANCH  33  34
ENDBRANCH  25  28
ENDBRANCH  23  24
ENDBRANCH  22  23
ENDBRANCH   1  22
TORSDOF 15
ENDMDL
MODEL 2
REMARK VINA RESULT:     -11.3      2.171      6.384
REMARK SMILES CC(C)CCn1cc(C(=O)NCCCCNC(=O)c2ccc(-c3c4nc(c(-c5c(F)cccc5F)c5ccc([nH]5)c(-c5c(F)cccc5F)c5nc(c(-c6c(F)cccc6F)c6ccc3[nH]6)C=C5)C=C4)cc2)c(-c2ccoc2)n1
REMARK SMILES IDX 13 1 12 2 11 3 9 4 10 5 8 7 6 8 7 9 79 10 73 11 5 12 4 13
REMARK SMILES IDX 2 14 1 15 3 16 74 17 75 18 78 19 76 20 77 21 14 22 15 23
REMARK SMILES IDX 16 24 17 25 18 27 19 28 20 29 72 30 21 31 71 32 22 33 23 34
REMARK SMILES IDX 24 35 65 36 25 37 70 38 64 39 66 40 26 41 69 42 63 43 62 44
REMARK SMILES IDX 27 46 53 47 36 48 52 49 37 50 40 51 51 52 67 53 38 54 39 55
REMARK SMILES IDX 50 57 68 58 41 59 28 60 29 61 34 62 30 63 31 64 33 65 35 66
REMARK SMILES IDX 32 67 54 68 55 69 60 70 56 71 57 72 59 73 61 74 58 75 42 76
REMARK SMILES IDX 43 77 48 78 44 79 45 80 47 81 49 82 46 83
REMARK H PARENT 11 6 16 26 66 45 40 56
REMARK Flexibility Score: inf
ROOT
ATOM      1  C   UNL A   1      33.771  28.272  25.697  1.00  0.00     0.023 C 
ENDROOT
BRANCH   1   2
ATOM      2  C   UNL A   1      33.745  26.744  25.626  1.00  0.00     0.116 C 
BRANCH   2   3
ATOM      3  N   UNL A   1      33.820  26.275  24.258  1.00  0.00    -0.352 N 
ATOM      4  C   UNL A   1      32.908  26.158  23.241  1.00  0.00     0.255 C 
ATOM      5  O   UNL A   1      33.367  25.715  22.187  1.00  0.00    -0.269 OA
ATOM      6  H   UNL A   1      34.722  25.975  24.003  1.00  0.00     0.163 HD
BRANCH   4   7
ATOM      7  C   UNL A   1      31.513  26.567  23.365  1.00  0.00     0.085 A 
ATOM      8  N   UNL A   1      29.523  27.515  23.146  1.00  0.00    -0.271 N 
ATOM      9  C   UNL A   1      30.842  27.647  22.818  1.00  0.00     0.123 A 
ATOM     10  N   UNL A   1      29.275  26.456  23.925  1.00  0.00    -0.172 NA
ATOM     11  C   UNL A   1      30.489  25.931  24.139  1.00  0.00     0.108 A 
BRANCH   8  12
ATOM     12  C   UNL A   1      28.452  28.415  22.763  1.00  0.00     0.144 C 
BRANCH  12  13
ATOM     13  C   UNL A   1      28.929  29.768  22.228  1.00  0.00     0.027 C 
BRANCH  13  14
ATOM     14  C   UNL A   1      27.847  30.863  22.162  1.00  0.00    -0.016 C 
ATOM     15  C   UNL A   1      27.654  31.576  23.500  1.00  0.00     0.007 C 
ATOM     16  C   UNL A   1      28.208  31.875  21.073  1.00  0.00     0.007 C 
ENDBRANCH  13  14
ENDBRANCH  12  13
ENDBRANCH   8  12
BRANCH  11  17
ATOM     17  C   UNL A   1      30.670  24.857  25.110  1.00  0.00     0.041 A 
ATOM     18  C   UNL A   1      31.027  23.520  24.813  1.00  0.00     0.052 A 
ATOM     19  C   UNL A   1      30.459  24.909  26.468  1.00  0.00     0.205 A 
ATOM     20  C   UNL A   1      31.039  22.856  26.019  1.00  0.00     0.195 A 
ATOM     21  O   UNL A   1      30.688  23.693  27.031  1.00  0.00    -0.472 OA
ENDBRANCH  11  17
ENDBRANCH   4   7
ENDBRANCH   2   3
ENDBRANCH   1   2
BRANCH   1  22
ATOM     22  C   UNL A   1      33.947  28.848  27.113  1.00  0.00     0.023 C 
BRANCH  22  23
ATOM     23  C   UNL A   1      35.301  29.500  27.380  1.00  0.00     0.116 C 
BRANCH  23  24
ATOM     24  N   UNL A   1      35.427  30.032  28.735  1.00  0.00    -0.352 N 
ATOM     25  C   UNL A   1      36.378  29.696  29.684  1.00  0.00     0.251 C 
ATOM     26  H   UNL A   1      34.760  30.705  29.003  1.00  0.00     0.163 HD
ATOM     27  O   UNL A   1      36.181  29.867  30.874  1.00  0.00    -0.269 OA
BRANCH  25  28
ATOM     28  C   UNL A   1      37.658  29.144  29.209  1.00  0.00     0.039 A 
ATOM     29  C   UNL A   1      38.332  29.689  28.116  1.00  0.00     0.014 A 
ATOM     30  C   UNL A   1      38.201  28.087  29.936  1.00  0.00     0.014 A 
ATOM     31  C   UNL A   1      39.609  29.218  27.818  1.00  0.00     0.010 A 
ATOM     32  C   UNL A   1      39.506  27.717  29.726  1.00  0.00     0.010 A 
ATOM     33  C   UNL A   1      40.205  28.249  28.647  1.00  0.00    -0.014 A 
BRANCH  33  34
ATOM     34  C   UNL A   1      41.610  27.891  28.485  1.00  0.00     0.031 A 
ATOM     35  C   UNL A   1      41.844  26.633  27.721  1.00  0.00     0.074 A 
ATOM     36  C   UNL A   1      42.633  28.714  28.810  1.00  0.00     0.049 A 
ATOM     37  N   UNL A   1      42.320  25.523  28.176  1.00  0.00    -0.248 NA
ATOM     38  C   UNL A   1      41.371  26.547  26.329  1.00  0.00     0.031 C 
ATOM     39  C   UNL A   1      42.582  30.093  29.308  1.00  0.00     0.029 A 
ATOM     40  N   UNL A   1      43.971  28.500  28.680  1.00  0.00    -0.354 N 
ATOM     41  C   UNL A   1      42.399  24.654  27.089  1.00  0.00     0.074 A 
ATOM     42  C   UNL A   1      41.656  25.277  26.026  1.00  0.00     0.031 C 
ATOM     43  C   UNL A   1      43.808  30.657  29.218  1.00  0.00     0.029 A 
ATOM     44  C   UNL A   1      44.761  29.635  28.829  1.00  0.00     0.049 A 
ATOM     45  H   UNL A   1      44.350  27.610  28.495  1.00  0.00     0.167 HD
ATOM     46  C   UNL A   1      43.261  23.601  27.099  1.00  0.00     0.037 A 
ATOM     47  C   UNL A   1      46.103  29.723  28.647  1.00  0.00     0.037 A 
ATOM     48  C   UNL A   1      43.735  23.334  28.435  1.00  0.00     0.049 A 
ATOM     49  C   UNL A   1      46.649  28.349  28.751  1.00  0.00     0.074 A 
ATOM     50  C   UNL A   1      43.133  22.989  29.630  1.00  0.00     0.029 A 
ATOM     51  N   UNL A   1      44.984  23.801  28.769  1.00  0.00    -0.354 N 
ATOM     52  N   UNL A   1      46.677  27.673  29.864  1.00  0.00    -0.248 NA
ATOM     53  C   UNL A   1      46.721  27.557  27.533  1.00  0.00     0.031 C 
ATOM     54  C   UNL A   1      43.838  23.733  30.622  1.00  0.00     0.029 A 
ATOM     55  C   UNL A   1      44.876  24.418  29.989  1.00  0.00     0.049 A 
ATOM     56  H   UNL A   1      45.804  23.708  28.233  1.00  0.00     0.167 HD
ATOM     57  C   UNL A   1      46.311  26.387  29.499  1.00  0.00     0.074 A 
ATOM     58  C   UNL A   1      46.436  26.355  28.041  1.00  0.00     0.031 C 
ATOM     59  C   UNL A   1      45.662  25.565  30.375  1.00  0.00     0.037 A 
BRANCH  46  60
ATOM     60  C   UNL A   1      43.975  23.054  25.885  1.00  0.00     0.057 A 
ATOM     61  C   UNL A   1      43.947  21.667  25.642  1.00  0.00     0.134 A 
ATOM     62  C   UNL A   1      44.929  23.772  25.139  1.00  0.00     0.134 A 
ATOM     63  F   UNL A   1      43.085  20.871  26.292  1.00  0.00    -0.206 F 
ATOM     64  C   UNL A   1      44.863  21.034  24.792  1.00  0.00     0.040 A 
ATOM     65  C   UNL A   1      45.815  23.156  24.251  1.00  0.00     0.040 A 
ATOM     66  F   UNL A   1      45.128  25.085  25.303  1.00  0.00    -0.206 F 
ATOM     67  C   UNL A   1      45.810  21.779  24.103  1.00  0.00     0.006 A 
ENDBRANCH  46  60
BRANCH  47  68
ATOM     68  C   UNL A   1      46.926  30.852  28.153  1.00  0.00     0.057 A 
ATOM     69  C   UNL A   1      46.726  31.394  26.874  1.00  0.00     0.134 A 
ATOM     70  C   UNL A   1      47.712  31.617  29.031  1.00  0.00     0.134 A 
ATOM     71  F   UNL A   1      45.961  30.755  25.976  1.00  0.00    -0.206 F 
ATOM     72  C   UNL A   1      47.243  32.641  26.501  1.00  0.00     0.040 A 
ATOM     73  C   UNL A   1      48.237  32.864  28.671  1.00  0.00     0.040 A 
ATOM     74  F   UNL A   1      47.916  31.224  30.296  1.00  0.00    -0.206 F 
ATOM     75  C   UNL A   1      47.990  33.389  27.407  1.00  0.00     0.006 A 
ENDBRANCH  47  68
BRANCH  59  76
ATOM     76  C   UNL A   1      45.567  26.006  31.812  1.00  0.00     0.057 A 
ATOM     77  C   UNL A   1      44.463  26.672  32.368  1.00  0.00     0.134 A 
ATOM     78  C   UNL A   1      46.578  25.621  32.698  1.00  0.00     0.134 A 
ATOM     79  F   UNL A   1      43.399  26.994  31.624  1.00  0.00    -0.206 F 
ATOM     80  C   UNL A   1      44.392  26.981  33.729  1.00  0.00     0.040 A 
ATOM     81  C   UNL A   1      46.504  25.892  34.066  1.00  0.00     0.040 A 
ATOM     82  F   UNL A   1      47.640  24.930  32.252  1.00  0.00    -0.206 F 
ATOM     83  C   UNL A   1      45.415  26.585  34.584  1.00  0.00     0.006 A 
ENDBRANCH  59  76
ENDBRANCH  33  34
ENDBRANCH  25  28
ENDBRANCH  23  24
ENDBRANCH  22  23
ENDBRANCH   1  22
TORSDOF 15
ENDMDL
MODEL 3
REMARK VINA RESULT:     -11.2      1.076      1.817
REMARK SMILES CC(C)CCn1cc(C(=O)NCCCCNC(=O)c2ccc(-c3c4nc(c(-c5c(F)cccc5F)c5ccc([nH]5)c(-c5c(F)cccc5F)c5nc(c(-c6c(F)cccc6F)c6ccc3[nH]6)C=C5)C=C4)cc2)c(-c2ccoc2)n1
REMARK SMILES IDX 13 1 12 2 11 3 9 4 10 5 8 7 6 8 7 9 79 10 73 11 5 12 4 13
REMARK SMILES IDX 2 14 1 15 3 16 74 17 75 18 78 19 76 20 77 21 14 22 15 23
REMARK SMILES IDX 16 24 17 25 18 27 19 28 20 29 72 30 21 31 71 32 22 33 23 34
REMARK SMILES IDX 24 35 65 36 25 37 70 38 64 39 66 40 26 41 69 42 63 43 62 44
REMARK SMILES IDX 27 46 53 47 36 48 52 49 37 50 40 51 51 52 67 53 38 54 39 55
REMARK SMILES IDX 50 57 68 58 41 59 28 60 29 61 34 62 30 63 31 64 33 65 35 66
REMARK SMILES IDX 32 67 54 68 55 69 60 70 56 71 57 72 59 73 61 74 58 75 42 76
REMARK SMILES IDX 43 77 48 78 44 79 45 80 47 81 49 82 46 83
REMARK H PARENT 11 6 16 26 66 45 40 56
REMARK Flexibility Score: inf
ROOT
ATOM      1  C   UNL A   1      34.147  30.381  26.993  1.00  0.00     0.023 C 
ENDROOT
BRANCH   1   2
ATOM      2  C   UNL A   1      33.150  29.574  26.158  1.00  0.00     0.116 C 
BRANCH   2   3
ATOM      3  N   UNL A   1      33.664  29.305  24.832  1.00  0.00    -0.352 N 
ATOM      4  C   UNL A   1      33.089  28.906  23.652  1.00  0.00     0.255 C 
ATOM      5  O   UNL A   1      33.875  28.793  22.710  1.00  0.00    -0.269 OA
ATOM      6  H   UNL A   1      34.637  29.436  24.762  1.00  0.00     0.163 HD
BRANCH   4   7
ATOM      7  C   UNL A   1      31.658  28.676  23.496  1.00  0.00     0.085 A 
ATOM      8  N   UNL A   1      29.527  28.716  22.890  1.00  0.00    -0.271 N 
ATOM      9  C   UNL A   1      30.695  29.422  22.837  1.00  0.00     0.123 A 
ATOM     10  N   UNL A   1      29.626  27.581  23.590  1.00  0.00    -0.172 NA
ATOM     11  C   UNL A   1      30.888  27.596  24.039  1.00  0.00     0.108 A 
BRANCH   8  12
ATOM     12  C   UNL A   1      28.260  29.115  22.307  1.00  0.00     0.144 C 
BRANCH  12  13
ATOM     13  C   UNL A   1      28.302  30.455  21.568  1.00  0.00     0.027 C 
BRANCH  13  14
ATOM     14  C   UNL A   1      27.762  31.659  22.364  1.00  0.00    -0.016 C 
ATOM     15  C   UNL A   1      27.356  31.283  23.789  1.00  0.00     0.007 C 
ATOM     16  C   UNL A   1      28.814  32.769  22.392  1.00  0.00     0.007 C 
ENDBRANCH  13  14
ENDBRANCH  12  13
ENDBRANCH   8  12
BRANCH  11  17
ATOM     17  C   UNL A   1      31.339  26.608  25.013  1.00  0.00     0.041 A 
ATOM     18  C   UNL A   1      32.530  25.847  24.935  1.00  0.00     0.052 A 
ATOM     19  C   UNL A   1      30.674  26.174  26.137  1.00  0.00     0.205 A 
ATOM     20  C   UNL A   1      32.522  25.022  26.037  1.00  0.00     0.195 A 
ATOM     21  O   UNL A   1      31.393  25.210  26.770  1.00  0.00    -0.472 OA
ENDBRANCH  11  17
ENDBRANCH   4   7
ENDBRANCH   2   3
ENDBRANCH   1   2
BRANCH   1  22
ATOM     22  C   UNL A   1      33.557  31.630  27.671  1.00  0.00     0.023 C 
BRANCH  22  23
ATOM     23  C   UNL A   1      34.586  32.645  28.159  1.00  0.00     0.116 C 
BRANCH  23  24
ATOM     24  N   UNL A   1      34.520  32.887  29.599  1.00  0.00    -0.352 N 
ATOM     25  C   UNL A   1      35.210  32.217  30.595  1.00  0.00     0.251 C 
ATOM     26  H   UNL A   1      33.916  33.607  29.893  1.00  0.00     0.163 HD
ATOM     27  O   UNL A   1      34.811  32.197  31.746  1.00  0.00    -0.269 OA
BRANCH  25  28
ATOM     28  C   UNL A   1      36.466  31.542  30.227  1.00  0.00     0.039 A 
ATOM     29  C   UNL A   1      37.659  32.248  30.068  1.00  0.00     0.014 A 
ATOM     30  C   UNL A   1      36.427  30.155  30.100  1.00  0.00     0.014 A 
ATOM     31  C   UNL A   1      38.837  31.529  29.873  1.00  0.00     0.010 A 
ATOM     32  C   UNL A   1      37.600  29.445  30.043  1.00  0.00     0.010 A 
ATOM     33  C   UNL A   1      38.805  30.122  29.891  1.00  0.00    -0.014 A 
BRANCH  33  34
ATOM     34  C   UNL A   1      40.043  29.349  29.898  1.00  0.00     0.031 A 
ATOM     35  C   UNL A   1      40.597  29.083  31.256  1.00  0.00     0.074 A 
ATOM     36  C   UNL A   1      40.552  28.742  28.802  1.00  0.00     0.049 A 
ATOM     37  N   UNL A   1      41.690  29.553  31.757  1.00  0.00    -0.248 NA
ATOM     38  C   UNL A   1      39.785  28.320  32.220  1.00  0.00     0.031 C 
ATOM     39  C   UNL A   1      39.990  28.664  27.449  1.00  0.00     0.029 A 
ATOM     40  N   UNL A   1      41.674  27.980  28.696  1.00  0.00    -0.354 N 
ATOM     41  C   UNL A   1      41.814  28.991  33.026  1.00  0.00     0.074 A 
ATOM     42  C   UNL A   1      40.545  28.379  33.318  1.00  0.00     0.031 C 
ATOM     43  C   UNL A   1      40.647  27.721  26.735  1.00  0.00     0.029 A 
ATOM     44  C   UNL A   1      41.781  27.259  27.511  1.00  0.00     0.049 A 
ATOM     45  H   UNL A   1      42.359  27.943  29.403  1.00  0.00     0.167 HD
ATOM     46  C   UNL A   1      43.031  28.892  33.629  1.00  0.00     0.037 A 
ATOM     47  C   UNL A   1      42.737  26.350  27.194  1.00  0.00     0.037 A 
ATOM     48  C   UNL A   1      44.002  29.734  32.975  1.00  0.00     0.049 A 
ATOM     49  C   UNL A   1      43.898  26.609  28.080  1.00  0.00     0.074 A 
ATOM     50  C   UNL A   1      44.111  31.092  32.740  1.00  0.00     0.029 A 
ATOM     51  N   UNL A   1      44.872  29.135  32.096  1.00  0.00    -0.354 N 
ATOM     52  N   UNL A   1      44.644  27.672  27.989  1.00  0.00    -0.248 NA
ATOM     53  C   UNL A   1      43.933  25.925  29.363  1.00  0.00     0.031 C 
ATOM     54  C   UNL A   1      44.637  31.193  31.418  1.00  0.00     0.029 A 
ATOM     55  C   UNL A   1      44.897  29.901  30.960  1.00  0.00     0.049 A 
ATOM     56  H   UNL A   1      45.384  28.309  32.254  1.00  0.00     0.167 HD
ATOM     57  C   UNL A   1      44.875  28.048  29.303  1.00  0.00     0.074 A 
ATOM     58  C   UNL A   1      44.487  26.887  30.105  1.00  0.00     0.031 C 
ATOM     59  C   UNL A   1      45.076  29.357  29.634  1.00  0.00     0.037 A 
BRANCH  46  60
ATOM     60  C   UNL A   1      43.453  27.771  34.550  1.00  0.00     0.057 A 
ATOM     61  C   UNL A   1      43.489  26.454  34.052  1.00  0.00     0.134 A 
ATOM     62  C   UNL A   1      43.516  27.881  35.952  1.00  0.00     0.134 A 
ATOM     63  F   UNL A   1      43.433  26.214  32.733  1.00  0.00    -0.206 F 
ATOM     64  C   UNL A   1      43.493  25.333  34.891  1.00  0.00     0.040 A 
ATOM     65  C   UNL A   1      43.569  26.769  36.797  1.00  0.00     0.040 A 
ATOM     66  F   UNL A   1      43.424  29.057  36.585  1.00  0.00    -0.206 F 
ATOM     67  C   UNL A   1      43.521  25.489  36.270  1.00  0.00     0.006 A 
ENDBRANCH  46  60
BRANCH  47  68
ATOM     68  C   UNL A   1      42.651  25.127  26.363  1.00  0.00     0.057 A 
ATOM     69  C   UNL A   1      43.530  24.912  25.290  1.00  0.00     0.134 A 
ATOM     70  C   UNL A   1      41.912  24.009  26.788  1.00  0.00     0.134 A 
ATOM     71  F   UNL A   1      44.305  25.908  24.835  1.00  0.00    -0.206 F 
ATOM     72  C   UNL A   1      43.694  23.652  24.699  1.00  0.00     0.040 A 
ATOM     73  C   UNL A   1      42.066  22.746  26.205  1.00  0.00     0.040 A 
ATOM     74  F   UNL A   1      41.089  24.087  27.843  1.00  0.00    -0.206 F 
ATOM     75  C   UNL A   1      42.972  22.559  25.167  1.00  0.00     0.006 A 
ENDBRANCH  47  68
BRANCH  59  76
ATOM     76  C   UNL A   1      45.275  30.343  28.513  1.00  0.00     0.057 A 
ATOM     77  C   UNL A   1      46.498  30.565  27.858  1.00  0.00     0.134 A 
ATOM     78  C   UNL A   1      44.155  30.993  27.987  1.00  0.00     0.134 A 
ATOM     79  F   UNL A   1      47.609  29.914  28.221  1.00  0.00    -0.206 F 
ATOM     80  C   UNL A   1      46.606  31.430  26.766  1.00  0.00     0.040 A 
ATOM     81  C   UNL A   1      44.243  31.833  26.875  1.00  0.00     0.040 A 
ATOM     82  F   UNL A   1      42.941  30.786  28.522  1.00  0.00    -0.206 F 
ATOM     83  C   UNL A   1      45.474  32.064  26.267  1.00  0.00     0.006 A 
ENDBRANCH  59  76
ENDBRANCH  33  34
ENDBRANCH  25  28
ENDBRANCH  23  24
ENDBRANCH  22  23
ENDBRANCH   1  22
TORSDOF 15
ENDMDL
