MODEL 1
REMARK VINA RESULT:     -11.8      0.000      0.000
REMARK SMILES COc1cc(C(=O)NCCCCNC(=O)c2ccc(-c3c4nc(c(-c5c(F)cccc5F)c5ccc([nH]5)c(-c5c(F)cccc5F)c5nc(c(-c6c(F)cccc6F)c6ccc3[nH]6)C=C5)C=C4)cc2)ccc1OCC(=O)N[C@H]1CCCC[C@H]1C
REMARK SMILES IDX 9 1 8 2 6 3 7 4 5 6 3 7 4 8 72 9 71 10 70 11 2 12 1 13 73 14
REMARK SMILES IDX 74 15 75 16 76 17 77 18 78 20 79 21 83 22 80 23 82 24 84 25
REMARK SMILES IDX 81 26 10 27 11 28 12 29 13 30 14 31 15 33 16 34 17 35 69 36
REMARK SMILES IDX 18 37 68 38 19 39 20 40 21 41 62 42 22 43 67 44 61 45 63 46
REMARK SMILES IDX 23 47 66 48 60 49 59 50 24 52 50 53 33 54 49 55 34 56 37 57
REMARK SMILES IDX 48 58 64 59 35 60 36 61 47 63 65 64 38 65 25 66 26 67 31 68
REMARK SMILES IDX 27 69 28 70 30 71 32 72 29 73 51 74 52 75 57 76 53 77 54 78
REMARK SMILES IDX 56 79 58 80 55 81 39 82 40 83 45 84 41 85 42 86 44 87 46 88
REMARK SMILES IDX 43 89
REMARK H PARENT 8 5 77 19 13 32 63 51 37 62
REMARK Flexibility Score: inf
ROOT
ATOM      1  C   UNL A   1      35.327  23.019  24.445  1.00  0.00     0.116 C 
ENDROOT
BRANCH   1   2
ATOM      2  N   UNL A   1      34.222  22.106  24.206  1.00  0.00    -0.352 N 
ATOM      3  C   UNL A   1      32.964  22.335  23.693  1.00  0.00     0.251 C 
ATOM      4  O   UNL A   1      32.166  21.404  23.622  1.00  0.00    -0.269 OA
ATOM      5  H   UNL A   1      34.402  21.169  24.451  1.00  0.00     0.163 HD
BRANCH   3   6
ATOM      6  C   UNL A   1      32.538  23.691  23.267  1.00  0.00     0.043 A 
ATOM      7  C   UNL A   1      32.635  25.459  21.601  1.00  0.00     0.161 A 
ATOM      8  C   UNL A   1      33.085  24.225  22.094  1.00  0.00     0.064 A 
ATOM      9  C   UNL A   1      31.593  26.131  22.248  1.00  0.00     0.161 A 
ATOM     10  C   UNL A   1      31.097  25.614  23.450  1.00  0.00     0.051 A 
ATOM     11  C   UNL A   1      31.611  24.438  23.992  1.00  0.00     0.018 A 
BRANCH   7  12
ATOM     12  O   UNL A   1      33.147  25.939  20.426  1.00  0.00    -0.493 OA
ATOM     13  C   UNL A   1      32.449  25.415  19.291  1.00  0.00     0.278 C 
ENDBRANCH   7  12
BRANCH   9  14
ATOM     14  O   UNL A   1      30.928  27.246  21.823  1.00  0.00    -0.480 OA
BRANCH  14  15
ATOM     15  C   UNL A   1      29.951  27.816  22.681  1.00  0.00     0.329 C 
BRANCH  15  16
ATOM     16  C   UNL A   1      30.140  29.287  23.073  1.00  0.00     0.258 C 
ATOM     17  O   UNL A   1      29.430  30.183  22.614  1.00  0.00    -0.271 OA
ATOM     18  N   UNL A   1      31.102  29.626  23.983  1.00  0.00    -0.350 N 
ATOM     19  H   UNL A   1      31.397  30.564  23.974  1.00  0.00     0.163 HD
BRANCH  18  20
ATOM     20  C   UNL A   1      31.742  28.762  24.965  1.00  0.00     0.085 C 
ATOM     21  C   UNL A   1      33.205  28.484  24.603  1.00  0.00     0.025 C 
ATOM     22  C   UNL A   1      31.601  29.360  26.383  1.00  0.00     0.008 C 
ATOM     23  C   UNL A   1      33.847  27.551  25.629  1.00  0.00     0.002 C 
ATOM     24  C   UNL A   1      32.268  28.427  27.408  1.00  0.00     0.005 C 
ATOM     25  C   UNL A   1      32.157  30.788  26.497  1.00  0.00     0.010 C 
ATOM     26  C   UNL A   1      33.715  28.089  27.051  1.00  0.00     0.000 C 
ENDBRANCH  18  20
ENDBRANCH  15  16
ENDBRANCH  14  15
ENDBRANCH   9  14
ENDBRANCH   3   6
ENDBRANCH   1   2
BRANCH   1  27
ATOM     27  C   UNL A   1      36.685  22.486  24.001  1.00  0.00     0.023 C 
BRANCH  27  28
ATOM     28  C   UNL A   1      37.127  21.161  24.614  1.00  0.00     0.023 C 
BRANCH  28  29
ATOM     29  C   UNL A   1      38.285  21.232  25.603  1.00  0.00     0.116 C 
BRANCH  29  30
ATOM     30  N   UNL A   1      39.176  20.080  25.552  1.00  0.00    -0.352 N 
ATOM     31  C   UNL A   1      40.486  19.952  25.949  1.00  0.00     0.251 C 
ATOM     32  H   UNL A   1      38.776  19.265  25.174  1.00  0.00     0.163 HD
ATOM     33  O   UNL A   1      41.087  18.899  25.746  1.00  0.00    -0.269 OA
BRANCH  31  34
ATOM     34  C   UNL A   1      41.194  21.090  26.573  1.00  0.00     0.039 A 
ATOM     35  C   UNL A   1      41.861  22.000  25.745  1.00  0.00     0.014 A 
ATOM     36  C   UNL A   1      41.176  21.286  27.954  1.00  0.00     0.014 A 
ATOM     37  C   UNL A   1      42.407  23.163  26.291  1.00  0.00     0.010 A 
ATOM     38  C   UNL A   1      41.653  22.481  28.488  1.00  0.00     0.010 A 
ATOM     39  C   UNL A   1      42.250  23.442  27.658  1.00  0.00    -0.014 A 
BRANCH  39  40
ATOM     40  C   UNL A   1      42.641  24.756  28.230  1.00  0.00     0.031 A 
ATOM     41  C   UNL A   1      41.616  25.832  28.449  1.00  0.00     0.074 A 
ATOM     42  C   UNL A   1      43.944  25.014  28.459  1.00  0.00     0.049 A 
ATOM     43  N   UNL A   1      41.788  27.067  28.845  1.00  0.00    -0.248 NA
ATOM     44  C   UNL A   1      40.220  25.480  28.157  1.00  0.00     0.031 C 
ATOM     45  C   UNL A   1      45.045  24.071  28.245  1.00  0.00     0.029 A 
ATOM     46  N   UNL A   1      44.567  26.151  28.911  1.00  0.00    -0.354 N 
ATOM     47  C   UNL A   1      40.527  27.647  28.830  1.00  0.00     0.074 A 
ATOM     48  C   UNL A   1      39.606  26.640  28.346  1.00  0.00     0.031 C 
ATOM     49  C   UNL A   1      46.201  24.658  28.592  1.00  0.00     0.029 A 
ATOM     50  C   UNL A   1      45.931  26.030  29.009  1.00  0.00     0.049 A 
ATOM     51  H   UNL A   1      44.080  26.975  29.143  1.00  0.00     0.167 HD
ATOM     52  C   UNL A   1      40.166  28.899  29.202  1.00  0.00     0.037 A 
ATOM     53  C   UNL A   1      46.864  26.926  29.383  1.00  0.00     0.037 A 
ATOM     54  C   UNL A   1      41.078  29.891  29.708  1.00  0.00     0.049 A 
ATOM     55  C   UNL A   1      46.442  28.315  29.764  1.00  0.00     0.074 A 
ATOM     56  C   UNL A   1      40.794  31.153  30.200  1.00  0.00     0.029 A 
ATOM     57  N   UNL A   1      42.455  29.736  29.777  1.00  0.00    -0.354 N 
ATOM     58  N   UNL A   1      45.237  28.826  29.820  1.00  0.00    -0.248 NA
ATOM     59  C   UNL A   1      47.512  29.256  30.124  1.00  0.00     0.031 C 
ATOM     60  C   UNL A   1      42.004  31.779  30.522  1.00  0.00     0.029 A 
ATOM     61  C   UNL A   1      43.038  30.892  30.268  1.00  0.00     0.049 A 
ATOM     62  H   UNL A   1      42.946  28.923  29.514  1.00  0.00     0.167 HD
ATOM     63  C   UNL A   1      45.399  30.139  30.242  1.00  0.00     0.074 A 
ATOM     64  C   UNL A   1      46.820  30.343  30.435  1.00  0.00     0.031 C 
ATOM     65  C   UNL A   1      44.454  31.087  30.450  1.00  0.00     0.037 A 
BRANCH  52  66
ATOM     66  C   UNL A   1      38.717  29.266  29.063  1.00  0.00     0.057 A 
ATOM     67  C   UNL A   1      37.842  29.253  30.157  1.00  0.00     0.134 A 
ATOM     68  C   UNL A   1      38.194  29.649  27.822  1.00  0.00     0.134 A 
ATOM     69  F   UNL A   1      38.278  28.884  31.372  1.00  0.00    -0.206 F 
ATOM     70  C   UNL A   1      36.491  29.574  30.016  1.00  0.00     0.040 A 
ATOM     71  C   UNL A   1      36.850  29.997  27.672  1.00  0.00     0.040 A 
ATOM     72  F   UNL A   1      38.977  29.689  26.735  1.00  0.00    -0.206 F 
ATOM     73  C   UNL A   1      35.993  29.951  28.771  1.00  0.00     0.006 A 
ENDBRANCH  52  66
BRANCH  53  74
ATOM     74  C   UNL A   1      48.290  26.523  29.442  1.00  0.00     0.057 A 
ATOM     75  C   UNL A   1      49.143  26.759  28.358  1.00  0.00     0.134 A 
ATOM     76  C   UNL A   1      48.839  25.913  30.576  1.00  0.00     0.134 A 
ATOM     77  F   UNL A   1      48.668  27.322  27.238  1.00  0.00    -0.206 F 
ATOM     78  C   UNL A   1      50.489  26.398  28.395  1.00  0.00     0.040 A 
ATOM     79  C   UNL A   1      50.189  25.564  30.636  1.00  0.00     0.040 A 
ATOM     80  F   UNL A   1      48.073  25.665  31.649  1.00  0.00    -0.206 F 
ATOM     81  C   UNL A   1      51.018  25.803  29.540  1.00  0.00     0.006 A 
ENDBRANCH  53  74
BRANCH  65  82
ATOM     82  C   UNL A   1      44.925  32.429  30.925  1.00  0.00     0.057 A 
ATOM     83  C   UNL A   1      45.085  32.712  32.287  1.00  0.00     0.134 A 
ATOM     84  C   UNL A   1      45.256  33.436  30.010  1.00  0.00     0.134 A 
ATOM     85  F   UNL A   1      44.769  31.795  33.214  1.00  0.00    -0.206 F 
ATOM     86  C   UNL A   1      45.545  33.956  32.722  1.00  0.00     0.040 A 
ATOM     87  C   UNL A   1      45.738  34.676  30.432  1.00  0.00     0.040 A 
ATOM     88  F   UNL A   1      45.128  33.227  28.691  1.00  0.00    -0.206 F 
ATOM     89  C   UNL A   1      45.880  34.940  31.794  1.00  0.00     0.006 A 
ENDBRANCH  65  82
ENDBRANCH  39  40
ENDBRANCH  31  34
ENDBRANCH  29  30
ENDBRANCH  28  29
ENDBRANCH  27  28
ENDBRANCH   1  27
TORSDOF 16
ENDMDL
MODEL 2
REMARK VINA RESULT:     -11.7      1.920      7.555
REMARK SMILES COc1cc(C(=O)NCCCCNC(=O)c2ccc(-c3c4nc(c(-c5c(F)cccc5F)c5ccc([nH]5)c(-c5c(F)cccc5F)c5nc(c(-c6c(F)cccc6F)c6ccc3[nH]6)C=C5)C=C4)cc2)ccc1OCC(=O)N[C@H]1CCCC[C@H]1C
REMARK SMILES IDX 9 1 8 2 6 3 7 4 5 6 3 7 4 8 72 9 71 10 70 11 2 12 1 13 73 14
REMARK SMILES IDX 74 15 75 16 76 17 77 18 78 20 79 21 83 22 80 23 82 24 84 25
REMARK SMILES IDX 81 26 10 27 11 28 12 29 13 30 14 31 15 33 16 34 17 35 69 36
REMARK SMILES IDX 18 37 68 38 19 39 20 40 21 41 62 42 22 43 67 44 61 45 63 46
REMARK SMILES IDX 23 47 66 48 60 49 59 50 24 52 50 53 33 54 49 55 34 56 37 57
REMARK SMILES IDX 48 58 64 59 35 60 36 61 47 63 65 64 38 65 25 66 26 67 31 68
REMARK SMILES IDX 27 69 28 70 30 71 32 72 29 73 51 74 52 75 57 76 53 77 54 78
REMARK SMILES IDX 56 79 58 80 55 81 39 82 40 83 45 84 41 85 42 86 44 87 46 88
REMARK SMILES IDX 43 89
REMARK H PARENT 8 5 77 19 13 32 63 51 37 62
REMARK Flexibility Score: inf
ROOT
ATOM      1  C   UNL A   1      33.580  26.747  25.377  1.00  0.00     0.116 C 
ENDROOT
BRANCH   1   2
ATOM      2  N   UNL A   1      32.949  26.991  24.091  1.00  0.00    -0.352 N 
ATOM      3  C   UNL A   1      32.448  26.113  23.156  1.00  0.00     0.251 C 
ATOM      4  O   UNL A   1      31.993  26.551  22.103  1.00  0.00    -0.269 OA
ATOM      5  H   UNL A   1      32.864  27.942  23.849  1.00  0.00     0.163 HD
BRANCH   3   6
ATOM      6  C   UNL A   1      32.491  24.645  23.374  1.00  0.00     0.043 A 
ATOM      7  C   UNL A   1      31.705  22.720  24.633  1.00  0.00     0.161 A 
ATOM      8  C   UNL A   1      31.775  24.109  24.450  1.00  0.00     0.064 A 
ATOM      9  C   UNL A   1      32.300  21.863  23.701  1.00  0.00     0.161 A 
ATOM     10  C   UNL A   1      33.060  22.413  22.664  1.00  0.00     0.051 A 
ATOM     11  C   UNL A   1      33.212  23.793  22.539  1.00  0.00     0.018 A 
BRANCH   7  12
ATOM     12  O   UNL A   1      30.957  22.216  25.663  1.00  0.00    -0.493 OA
ATOM     13  C   UNL A   1      30.607  23.231  26.610  1.00  0.00     0.278 C 
ENDBRANCH   7  12
BRANCH   9  14
ATOM     14  O   UNL A   1      32.195  20.503  23.633  1.00  0.00    -0.480 OA
BRANCH  14  15
ATOM     15  C   UNL A   1      32.616  19.737  24.752  1.00  0.00     0.329 C 
BRANCH  15  16
ATOM     16  C   UNL A   1      34.018  19.118  24.687  1.00  0.00     0.258 C 
ATOM     17  O   UNL A   1      34.203  17.954  24.331  1.00  0.00    -0.271 OA
ATOM     18  N   UNL A   1      35.108  19.880  25.001  1.00  0.00    -0.350 N 
ATOM     19  H   UNL A   1      35.925  19.389  25.247  1.00  0.00     0.163 HD
BRANCH  18  20
ATOM     20  C   UNL A   1      35.205  21.333  25.016  1.00  0.00     0.085 C 
ATOM     21  C   UNL A   1      35.049  21.894  26.433  1.00  0.00     0.025 C 
ATOM     22  C   UNL A   1      36.524  21.792  24.354  1.00  0.00     0.008 C 
ATOM     23  C   UNL A   1      35.122  23.421  26.420  1.00  0.00     0.002 C 
ATOM     24  C   UNL A   1      36.602  23.328  24.364  1.00  0.00     0.005 C 
ATOM     25  C   UNL A   1      37.774  21.175  25.001  1.00  0.00     0.010 C 
ATOM     26  C   UNL A   1      36.401  23.925  25.756  1.00  0.00     0.000 C 
ENDBRANCH  18  20
ENDBRANCH  15  16
ENDBRANCH  14  15
ENDBRANCH   9  14
ENDBRANCH   3   6
ENDBRANCH   1   2
BRANCH   1  27
ATOM     27  C   UNL A   1      32.644  26.900  26.572  1.00  0.00     0.023 C 
BRANCH  27  28
ATOM     28  C   UNL A   1      32.620  28.268  27.244  1.00  0.00     0.023 C 
BRANCH  28  29
ATOM     29  C   UNL A   1      33.769  29.208  26.895  1.00  0.00     0.116 C 
BRANCH  29  30
ATOM     30  N   UNL A   1      33.836  30.397  27.734  1.00  0.00    -0.352 N 
ATOM     31  C   UNL A   1      34.854  30.868  28.529  1.00  0.00     0.251 C 
ATOM     32  H   UNL A   1      33.023  30.951  27.732  1.00  0.00     0.163 HD
ATOM     33  O   UNL A   1      34.677  31.864  29.226  1.00  0.00    -0.269 OA
BRANCH  31  34
ATOM     34  C   UNL A   1      36.147  30.152  28.591  1.00  0.00     0.039 A 
ATOM     35  C   UNL A   1      37.005  30.223  27.488  1.00  0.00     0.014 A 
ATOM     36  C   UNL A   1      36.532  29.447  29.732  1.00  0.00     0.014 A 
ATOM     37  C   UNL A   1      38.292  29.687  27.575  1.00  0.00     0.010 A 
ATOM     38  C   UNL A   1      37.840  28.980  29.846  1.00  0.00     0.010 A 
ATOM     39  C   UNL A   1      38.739  29.118  28.779  1.00  0.00    -0.014 A 
BRANCH  39  40
ATOM     40  C   UNL A   1      40.159  28.722  28.966  1.00  0.00     0.031 A 
ATOM     41  C   UNL A   1      41.161  29.699  29.511  1.00  0.00     0.074 A 
ATOM     42  C   UNL A   1      40.564  27.506  28.549  1.00  0.00     0.049 A 
ATOM     43  N   UNL A   1      42.455  29.562  29.652  1.00  0.00    -0.248 NA
ATOM     44  C   UNL A   1      40.644  31.010  29.926  1.00  0.00     0.031 C 
ATOM     45  C   UNL A   1      39.701  26.481  27.959  1.00  0.00     0.029 A 
ATOM     46  N   UNL A   1      41.811  26.931  28.544  1.00  0.00    -0.354 N 
ATOM     47  C   UNL A   1      42.910  30.775  30.151  1.00  0.00     0.074 A 
ATOM     48  C   UNL A   1      41.760  31.649  30.249  1.00  0.00     0.031 C 
ATOM     49  C   UNL A   1      40.436  25.394  27.677  1.00  0.00     0.029 A 
ATOM     50  C   UNL A   1      41.829  25.661  28.023  1.00  0.00     0.049 A 
ATOM     51  H   UNL A   1      42.616  27.386  28.883  1.00  0.00     0.167 HD
ATOM     52  C   UNL A   1      44.169  31.123  30.511  1.00  0.00     0.037 A 
ATOM     53  C   UNL A   1      42.853  24.806  27.834  1.00  0.00     0.037 A 
ATOM     54  C   UNL A   1      45.307  30.245  30.438  1.00  0.00     0.049 A 
ATOM     55  C   UNL A   1      44.243  25.227  28.215  1.00  0.00     0.074 A 
ATOM     56  C   UNL A   1      46.603  30.474  30.867  1.00  0.00     0.029 A 
ATOM     57  N   UNL A   1      45.288  28.971  29.889  1.00  0.00    -0.354 N 
ATOM     58  N   UNL A   1      44.647  26.348  28.758  1.00  0.00    -0.248 NA
ATOM     59  C   UNL A   1      45.321  24.264  27.946  1.00  0.00     0.031 C 
ATOM     60  C   UNL A   1      47.378  29.357  30.535  1.00  0.00     0.029 A 
ATOM     61  C   UNL A   1      46.556  28.416  29.935  1.00  0.00     0.049 A 
ATOM     62  H   UNL A   1      44.490  28.527  29.520  1.00  0.00     0.167 HD
ATOM     63  C   UNL A   1      46.021  26.220  28.918  1.00  0.00     0.074 A 
ATOM     64  C   UNL A   1      46.379  24.908  28.421  1.00  0.00     0.031 C 
ATOM     65  C   UNL A   1      46.903  27.111  29.431  1.00  0.00     0.037 A 
BRANCH  52  66
ATOM     66  C   UNL A   1      44.378  32.524  31.008  1.00  0.00     0.057 A 
ATOM     67  C   UNL A   1      44.685  33.580  30.140  1.00  0.00     0.134 A 
ATOM     68  C   UNL A   1      44.258  32.822  32.371  1.00  0.00     0.134 A 
ATOM     69  F   UNL A   1      44.825  33.359  28.824  1.00  0.00    -0.206 F 
ATOM     70  C   UNL A   1      44.899  34.875  30.613  1.00  0.00     0.040 A 
ATOM     71  C   UNL A   1      44.444  34.118  32.853  1.00  0.00     0.040 A 
ATOM     72  F   UNL A   1      43.960  31.860  33.256  1.00  0.00    -0.206 F 
ATOM     73  C   UNL A   1      44.775  35.148  31.973  1.00  0.00     0.006 A 
ENDBRANCH  52  66
BRANCH  53  74
ATOM     74  C   UNL A   1      42.593  23.456  27.281  1.00  0.00     0.057 A 
ATOM     75  C   UNL A   1      42.257  22.392  28.126  1.00  0.00     0.134 A 
ATOM     76  C   UNL A   1      42.656  23.196  25.907  1.00  0.00     0.134 A 
ATOM     77  F   UNL A   1      42.200  22.578  29.452  1.00  0.00    -0.206 F 
ATOM     78  C   UNL A   1      41.997  21.116  27.626  1.00  0.00     0.040 A 
ATOM     79  C   UNL A   1      42.380  21.929  25.391  1.00  0.00     0.040 A 
ATOM     80  F   UNL A   1      42.968  24.176  25.046  1.00  0.00    -0.206 F 
ATOM     81  C   UNL A   1      42.053  20.883  26.253  1.00  0.00     0.006 A 
ENDBRANCH  53  74
BRANCH  65  82
ATOM     82  C   UNL A   1      48.341  26.691  29.494  1.00  0.00     0.057 A 
ATOM     83  C   UNL A   1      48.844  25.953  30.572  1.00  0.00     0.134 A 
ATOM     84  C   UNL A   1      49.222  26.997  28.449  1.00  0.00     0.134 A 
ATOM     85  F   UNL A   1      48.056  25.643  31.611  1.00  0.00    -0.206 F 
ATOM     86  C   UNL A   1      50.179  25.545  30.615  1.00  0.00     0.040 A 
ATOM     87  C   UNL A   1      50.552  26.575  28.470  1.00  0.00     0.040 A 
ATOM     88  F   UNL A   1      48.800  27.698  27.386  1.00  0.00    -0.206 F 
ATOM     89  C   UNL A   1      51.035  25.850  29.558  1.00  0.00     0.006 A 
ENDBRANCH  65  82
ENDBRANCH  39  40
ENDBRANCH  31  34
ENDBRANCH  29  30
ENDBRANCH  28  29
ENDBRANCH  27  28
ENDBRANCH   1  27
TORSDOF 16
ENDMDL
MODEL 3
REMARK VINA RESULT:     -11.6      2.114      7.180
REMARK SMILES COc1cc(C(=O)NCCCCNC(=O)c2ccc(-c3c4nc(c(-c5c(F)cccc5F)c5ccc([nH]5)c(-c5c(F)cccc5F)c5nc(c(-c6c(F)cccc6F)c6ccc3[nH]6)C=C5)C=C4)cc2)ccc1OCC(=O)N[C@H]1CCCC[C@H]1C
REMARK SMILES IDX 9 1 8 2 6 3 7 4 5 6 3 7 4 8 72 9 71 10 70 11 2 12 1 13 73 14
REMARK SMILES IDX 74 15 75 16 76 17 77 18 78 20 79 21 83 22 80 23 82 24 84 25
REMARK SMILES IDX 81 26 10 27 11 28 12 29 13 30 14 31 15 33 16 34 17 35 69 36
REMARK SMILES IDX 18 37 68 38 19 39 20 40 21 41 62 42 22 43 67 44 61 45 63 46
REMARK SMILES IDX 23 47 66 48 60 49 59 50 24 52 50 53 33 54 49 55 34 56 37 57
REMARK SMILES IDX 48 58 64 59 35 60 36 61 47 63 65 64 38 65 25 66 26 67 31 68
REMARK SMILES IDX 27 69 28 70 30 71 32 72 29 73 51 74 52 75 57 76 53 77 54 78
REMARK SMILES IDX 56 79 58 80 55 81 39 82 40 83 45 84 41 85 42 86 44 87 46 88
REMARK SMILES IDX 43 89
REMARK H PARENT 8 5 77 19 13 32 63 51 37 62
REMARK Flexibility Score: inf
ROOT
ATOM      1  C   UNL A   1      31.288  29.782  25.054  1.00  0.00     0.116 C 
ENDROOT
BRANCH   1   2
ATOM      2  N   UNL A   1      30.642  30.051  23.780  1.00  0.00    -0.352 N 
ATOM      3  C   UNL A   1      30.180  29.190  22.809  1.00  0.00     0.251 C 
ATOM      4  O   UNL A   1      29.702  29.651  21.776  1.00  0.00    -0.269 OA
ATOM      5  H   UNL A   1      30.512  31.006  23.578  1.00  0.00     0.163 HD
BRANCH   3   6
ATOM      6  C   UNL A   1      30.292  27.718  22.964  1.00  0.00     0.043 A 
ATOM      7  C   UNL A   1      31.582  25.693  22.579  1.00  0.00     0.161 A 
ATOM      8  C   UNL A   1      31.381  27.066  22.373  1.00  0.00     0.064 A 
ATOM      9  C   UNL A   1      30.727  24.984  23.430  1.00  0.00     0.161 A 
ATOM     10  C   UNL A   1      29.611  25.635  23.966  1.00  0.00     0.051 A 
ATOM     11  C   UNL A   1      29.357  26.975  23.682  1.00  0.00     0.018 A 
BRANCH   7  12
ATOM     12  O   UNL A   1      32.680  25.086  22.034  1.00  0.00    -0.493 OA
ATOM     13  C   UNL A   1      33.892  25.520  22.662  1.00  0.00     0.278 C 
ENDBRANCH   7  12
BRANCH   9  14
ATOM     14  O   UNL A   1      30.865  23.697  23.868  1.00  0.00    -0.480 OA
BRANCH  14  15
ATOM     15  C   UNL A   1      30.768  23.445  25.261  1.00  0.00     0.329 C 
BRANCH  15  16
ATOM     16  C   UNL A   1      31.773  24.162  26.172  1.00  0.00     0.258 C 
ATOM     17  O   UNL A   1      31.413  24.880  27.106  1.00  0.00    -0.271 OA
ATOM     18  N   UNL A   1      33.113  23.982  25.973  1.00  0.00    -0.350 N 
ATOM     19  H   UNL A   1      33.705  24.671  26.350  1.00  0.00     0.163 HD
BRANCH  18  20
ATOM     20  C   UNL A   1      33.769  22.891  25.266  1.00  0.00     0.085 C 
ATOM     21  C   UNL A   1      35.248  23.194  25.008  1.00  0.00     0.025 C 
ATOM     22  C   UNL A   1      33.577  21.561  26.031  1.00  0.00     0.008 C 
ATOM     23  C   UNL A   1      35.908  22.051  24.239  1.00  0.00     0.002 C 
ATOM     24  C   UNL A   1      34.262  20.418  25.263  1.00  0.00     0.005 C 
ATOM     25  C   UNL A   1      34.073  21.620  27.485  1.00  0.00     0.010 C 
ATOM     26  C   UNL A   1      35.728  20.709  24.945  1.00  0.00     0.000 C 
ENDBRANCH  18  20
ENDBRANCH  15  16
ENDBRANCH  14  15
ENDBRANCH   9  14
ENDBRANCH   3   6
ENDBRANCH   1   2
BRANCH   1  27
ATOM     27  C   UNL A   1      32.809  29.696  24.977  1.00  0.00     0.023 C 
BRANCH  27  28
ATOM     28  C   UNL A   1      33.468  28.595  25.801  1.00  0.00     0.023 C 
BRANCH  28  29
ATOM     29  C   UNL A   1      33.472  28.798  27.312  1.00  0.00     0.116 C 
BRANCH  29  30
ATOM     30  N   UNL A   1      33.633  30.187  27.721  1.00  0.00    -0.352 N 
ATOM     31  C   UNL A   1      34.729  30.843  28.230  1.00  0.00     0.251 C 
ATOM     32  H   UNL A   1      32.829  30.744  27.617  1.00  0.00     0.163 HD
ATOM     33  O   UNL A   1      34.631  32.015  28.587  1.00  0.00    -0.269 OA
BRANCH  31  34
ATOM     34  C   UNL A   1      36.016  30.133  28.397  1.00  0.00     0.039 A 
ATOM     35  C   UNL A   1      36.924  30.132  27.334  1.00  0.00     0.014 A 
ATOM     36  C   UNL A   1      36.345  29.502  29.598  1.00  0.00     0.014 A 
ATOM     37  C   UNL A   1      38.203  29.602  27.514  1.00  0.00     0.010 A 
ATOM     38  C   UNL A   1      37.644  29.043  29.803  1.00  0.00     0.010 A 
ATOM     39  C   UNL A   1      38.592  29.112  28.771  1.00  0.00    -0.014 A 
BRANCH  39  40
ATOM     40  C   UNL A   1      40.000  28.727  29.050  1.00  0.00     0.031 A 
ATOM     41  C   UNL A   1      40.947  29.702  29.689  1.00  0.00     0.074 A 
ATOM     42  C   UNL A   1      40.451  27.528  28.632  1.00  0.00     0.049 A 
ATOM     43  N   UNL A   1      42.230  29.576  29.918  1.00  0.00    -0.248 NA
ATOM     44  C   UNL A   1      40.385  30.996  30.098  1.00  0.00     0.031 C 
ATOM     45  C   UNL A   1      39.646  26.508  27.957  1.00  0.00     0.029 A 
ATOM     46  N   UNL A   1      41.702  26.967  28.703  1.00  0.00    -0.354 N 
ATOM     47  C   UNL A   1      42.632  30.781  30.478  1.00  0.00     0.074 A 
ATOM     48  C   UNL A   1      41.466  31.639  30.516  1.00  0.00     0.031 C 
ATOM     49  C   UNL A   1      40.414  25.438  27.702  1.00  0.00     0.029 A 
ATOM     50  C   UNL A   1      41.775  25.712  28.153  1.00  0.00     0.049 A 
ATOM     51  H   UNL A   1      42.475  27.423  29.109  1.00  0.00     0.167 HD
ATOM     52  C   UNL A   1      43.858  31.135  30.936  1.00  0.00     0.037 A 
ATOM     53  C   UNL A   1      42.821  24.874  28.016  1.00  0.00     0.037 A 
ATOM     54  C   UNL A   1      45.010  30.272  30.922  1.00  0.00     0.049 A 
ATOM     55  C   UNL A   1      44.174  25.301  28.505  1.00  0.00     0.074 A 
ATOM     56  C   UNL A   1      46.268  30.506  31.449  1.00  0.00     0.029 A 
ATOM     57  N   UNL A   1      45.047  29.013  30.342  1.00  0.00    -0.354 N 
ATOM     58  N   UNL A   1      44.524  26.412  29.104  1.00  0.00    -0.248 NA
ATOM     59  C   UNL A   1      45.282  24.358  28.291  1.00  0.00     0.031 C 
ATOM     60  C   UNL A   1      47.080  29.406  31.145  1.00  0.00     0.029 A 
ATOM     61  C   UNL A   1      46.316  28.473  30.465  1.00  0.00     0.049 A 
ATOM     62  H   UNL A   1      44.283  28.569  29.906  1.00  0.00     0.167 HD
ATOM     63  C   UNL A   1      45.884  26.297  29.358  1.00  0.00     0.074 A 
ATOM     64  C   UNL A   1      46.295  25.002  28.856  1.00  0.00     0.031 C 
ATOM     65  C   UNL A   1      46.715  27.185  29.954  1.00  0.00     0.037 A 
BRANCH  52  66
ATOM     66  C   UNL A   1      44.012  32.525  31.481  1.00  0.00     0.057 A 
ATOM     67  C   UNL A   1      44.410  33.598  30.673  1.00  0.00     0.134 A 
ATOM     68  C   UNL A   1      43.745  32.795  32.829  1.00  0.00     0.134 A 
ATOM     69  F   UNL A   1      44.692  33.404  29.376  1.00  0.00    -0.206 F 
ATOM     70  C   UNL A   1      44.572  34.883  31.193  1.00  0.00     0.040 A 
ATOM     71  C   UNL A   1      43.878  34.082  33.355  1.00  0.00     0.040 A 
ATOM     72  F   UNL A   1      43.354  31.816  33.657  1.00  0.00    -0.206 F 
ATOM     73  C   UNL A   1      44.302  35.128  32.537  1.00  0.00     0.006 A 
ENDBRANCH  52  66
BRANCH  53  74
ATOM     74  C   UNL A   1      42.619  23.535  27.412  1.00  0.00     0.057 A 
ATOM     75  C   UNL A   1      42.767  23.346  26.033  1.00  0.00     0.134 A 
ATOM     76  C   UNL A   1      42.292  22.417  28.188  1.00  0.00     0.134 A 
ATOM     77  F   UNL A   1      43.061  24.385  25.238  1.00  0.00    -0.206 F 
ATOM     78  C   UNL A   1      42.593  22.093  25.445  1.00  0.00     0.040 A 
ATOM     79  C   UNL A   1      42.134  21.154  27.616  1.00  0.00     0.040 A 
ATOM     80  F   UNL A   1      42.142  22.534  29.515  1.00  0.00    -0.206 F 
ATOM     81  C   UNL A   1      42.281  20.991  26.239  1.00  0.00     0.006 A 
ENDBRANCH  53  74
BRANCH  65  82
ATOM     82  C   UNL A   1      48.151  26.780  30.110  1.00  0.00     0.057 A 
ATOM     83  C   UNL A   1      48.579  25.984  31.179  1.00  0.00     0.134 A 
ATOM     84  C   UNL A   1      49.108  27.161  29.161  1.00  0.00     0.134 A 
ATOM     85  F   UNL A   1      47.714  25.600  32.130  1.00  0.00    -0.206 F 
ATOM     86  C   UNL A   1      49.912  25.591  31.306  1.00  0.00     0.040 A 
ATOM     87  C   UNL A   1      50.439  26.756  29.265  1.00  0.00     0.040 A 
ATOM     88  F   UNL A   1      48.761  27.921  28.111  1.00  0.00    -0.206 F 
ATOM     89  C   UNL A   1      50.846  25.972  30.344  1.00  0.00     0.006 A 
ENDBRANCH  65  82
ENDBRANCH  39  40
ENDBRANCH  31  34
ENDBRANCH  29  30
ENDBRANCH  28  29
ENDBRANCH  27  28
ENDBRANCH   1  27
TORSDOF 16
ENDMDL
