MODEL 1
REMARK VINA RESULT:     -13.9      0.000      0.000
REMARK SMILES C=C[C@@H]1[C@H](O)C[C@H]2[C@]3(CC[C@]4(C)[C@@H]([C@H](C)CCC=C(C)C)CC[C@]24C)C[C@]13CCC(=O)NCCCCNC(=O)c1ccc(-c2c3nc(c(-c4c(F)cccc4F)c4ccc([nH]4)c(-c4c(F)cccc4F)c4nc(c(-c5c(F)cccc5F)c5ccc2[nH]5)C=C4)C=C3)cc1
REMARK SMILES IDX 30 1 31 2 32 3 29 5 28 6 27 7 3 8 4 9 6 10 8 11 26 12 7 13
REMARK SMILES IDX 9 14 24 15 10 16 11 17 23 18 25 19 13 20 12 21 22 22 2 23
REMARK SMILES IDX 1 24 5 25 14 27 15 28 16 29 17 30 18 31 19 32 20 33 21 34
REMARK SMILES IDX 33 35 34 36 35 37 36 38 37 39 38 40 39 42 40 43 41 44 93 45
REMARK SMILES IDX 42 46 92 47 43 48 44 49 45 50 86 51 46 52 91 53 85 54 87 55
REMARK SMILES IDX 47 56 90 57 84 58 83 59 48 61 74 62 57 63 73 64 58 65 61 66
REMARK SMILES IDX 72 67 88 68 59 69 60 70 71 72 89 73 62 74 49 75 50 76 55 77
REMARK SMILES IDX 51 78 52 79 54 80 56 81 53 82 75 83 76 84 81 85 77 86 78 87
REMARK SMILES IDX 80 88 82 89 79 90 63 91 64 92 69 93 65 94 66 95 68 96 70 97
REMARK SMILES IDX 67 98
REMARK H PARENT 32 4 5 26 37 41 87 60 61 71
REMARK Flexibility Score: inf
ROOT
ATOM      1  C   UNL A   1      35.516  29.551  27.755  1.00  0.00     0.220 C 
ATOM      2  O   UNL A   1      36.551  28.967  28.067  1.00  0.00    -0.275 OA
ATOM      3  N   UNL A   1      35.189  30.712  28.393  1.00  0.00    -0.356 N 
ATOM      4  H   UNL A   1      35.736  30.933  29.182  1.00  0.00     0.163 HD
ENDROOT
BRANCH   1   5
ATOM      5  C   UNL A   1      34.608  29.074  26.665  1.00  0.00     0.100 C 
BRANCH   5   6
ATOM      6  C   UNL A   1      33.382  28.331  27.167  1.00  0.00     0.018 C 
BRANCH   6   7
ATOM      7  C   UNL A   1      32.457  27.859  26.050  1.00  0.00    -0.014 C 
ATOM      8  C   UNL A   1      32.190  29.334  24.790  1.00  0.00     0.047 C 
ATOM      9  C   UNL A   1      32.446  28.911  22.860  1.00  0.00     0.122 C 
ATOM     10  C   UNL A   1      32.496  27.002  22.311  1.00  0.00     0.037 C 
ATOM     11  C   UNL A   1      32.498  26.113  25.548  1.00  0.00    -0.019 C 
ATOM     12  C   UNL A   1      31.371  26.707  26.461  1.00  0.00     0.016 C 
ATOM     13  C   UNL A   1      32.707  25.634  23.698  1.00  0.00     0.005 C 
ATOM     14  C   UNL A   1      33.194  25.022  26.345  1.00  0.00     0.008 C 
ATOM     15  C   UNL A   1      32.327  24.119  23.450  1.00  0.00    -0.023 C 
ATOM     16  C   UNL A   1      32.621  23.659  25.969  1.00  0.00     0.008 C 
ATOM     17  C   UNL A   1      33.002  23.159  24.552  1.00  0.00    -0.024 C 
ATOM     18  C   UNL A   1      33.042  23.641  22.173  1.00  0.00     0.008 C 
ATOM     19  C   UNL A   1      30.815  23.946  23.315  1.00  0.00     0.012 C 
ATOM     20  C   UNL A   1      34.529  23.249  24.157  1.00  0.00    -0.002 C 
ATOM     21  C   UNL A   1      32.529  21.687  24.443  1.00  0.00     0.012 C 
ATOM     22  C   UNL A   1      34.482  23.292  22.595  1.00  0.00     0.005 C 
BRANCH   8  23
ATOM     23  C   UNL A   1      31.020  30.240  25.205  1.00  0.00    -0.028 C 
ATOM     24  C   UNL A   1      31.103  31.321  25.994  1.00  0.00     0.004 C 
ENDBRANCH   8  23
BRANCH   9  25
ATOM     25  O   UNL A   1      31.712  29.781  21.995  1.00  0.00    -0.392 OA
ATOM     26  H   UNL A   1      32.041  29.689  21.087  1.00  0.00     0.210 HD
ENDBRANCH   9  25
BRANCH  20  27
ATOM     27  C   UNL A   1      35.676  22.364  24.754  1.00  0.00    -0.010 C 
ATOM     28  C   UNL A   1      35.286  20.893  24.970  1.00  0.00     0.008 C 
BRANCH  27  29
ATOM     29  C   UNL A   1      36.415  22.908  26.007  1.00  0.00     0.008 C 
BRANCH  29  30
ATOM     30  C   UNL A   1      37.608  23.848  25.744  1.00  0.00     0.027 C 
BRANCH  30  31
ATOM     31  C   UNL A   1      38.722  23.885  26.761  1.00  0.00    -0.028 C 
ATOM     32  C   UNL A   1      39.693  22.958  26.920  1.00  0.00    -0.080 C 
ATOM     33  C   UNL A   1      40.891  23.202  27.797  1.00  0.00     0.039 C 
ATOM     34  C   UNL A   1      39.716  21.624  26.227  1.00  0.00     0.039 C 
ENDBRANCH  30  31
ENDBRANCH  29  30
ENDBRANCH  27  29
ENDBRANCH  20  27
ENDBRANCH   6   7
ENDBRANCH   5   6
ENDBRANCH   1   5
BRANCH   3  35
ATOM     35  C   UNL A   1      34.086  31.723  28.048  1.00  0.00     0.116 C 
BRANCH  35  36
ATOM     36  C   UNL A   1      33.920  33.824  28.088  1.00  0.00     0.023 C 
BRANCH  36  37
ATOM     37  C   UNL A   1      32.954  35.094  28.758  1.00  0.00     0.023 C 
BRANCH  37  38
ATOM     38  C   UNL A   1      33.379  36.184  29.746  1.00  0.00     0.116 C 
BRANCH  38  39
ATOM     39  N   UNL A   1      32.429  36.405  30.813  1.00  0.00    -0.352 N 
ATOM     40  C   UNL A   1      32.514  35.951  32.107  1.00  0.00     0.251 C 
ATOM     41  H   UNL A   1      31.634  36.941  30.587  1.00  0.00     0.163 HD
ATOM     42  O   UNL A   1      31.618  36.149  32.907  1.00  0.00    -0.269 OA
BRANCH  40  43
ATOM     43  C   UNL A   1      33.682  35.128  32.487  1.00  0.00     0.039 A 
ATOM     44  C   UNL A   1      34.936  35.738  32.457  1.00  0.00     0.014 A 
ATOM     45  C   UNL A   1      33.543  33.798  32.894  1.00  0.00     0.014 A 
ATOM     46  C   UNL A   1      36.058  35.020  32.860  1.00  0.00     0.010 A 
ATOM     47  C   UNL A   1      34.659  33.100  33.353  1.00  0.00     0.010 A 
ATOM     48  C   UNL A   1      35.928  33.701  33.325  1.00  0.00    -0.014 A 
BRANCH  48  49
ATOM     49  C   UNL A   1      37.137  32.958  33.756  1.00  0.00     0.031 A 
ATOM     50  C   UNL A   1      37.749  31.926  32.854  1.00  0.00     0.074 A 
ATOM     51  C   UNL A   1      37.686  33.227  34.955  1.00  0.00     0.049 A 
ATOM     52  N   UNL A   1      38.850  31.237  33.015  1.00  0.00    -0.248 NA
ATOM     53  C   UNL A   1      37.018  31.612  31.619  1.00  0.00     0.031 C 
ATOM     54  C   UNL A   1      37.144  34.169  35.935  1.00  0.00     0.029 A 
ATOM     55  N   UNL A   1      38.824  32.744  35.548  1.00  0.00    -0.354 N 
ATOM     56  C   UNL A   1      38.940  30.407  31.905  1.00  0.00     0.074 A 
ATOM     57  C   UNL A   1      37.751  30.634  31.111  1.00  0.00     0.031 C 
ATOM     58  C   UNL A   1      37.965  34.217  36.996  1.00  0.00     0.029 A 
ATOM     59  C   UNL A   1      39.074  33.292  36.782  1.00  0.00     0.049 A 
ATOM     60  H   UNL A   1      39.406  32.069  35.131  1.00  0.00     0.167 HD
ATOM     61  C   UNL A   1      39.933  29.549  31.567  1.00  0.00     0.037 A 
ATOM     62  C   UNL A   1      40.086  33.076  37.643  1.00  0.00     0.037 A 
ATOM     63  C   UNL A   1      41.110  29.335  32.368  1.00  0.00     0.049 A 
ATOM     64  C   UNL A   1      41.188  32.132  37.246  1.00  0.00     0.074 A 
ATOM     65  C   UNL A   1      42.207  28.536  32.097  1.00  0.00     0.029 A 
ATOM     66  N   UNL A   1      41.335  29.914  33.610  1.00  0.00    -0.354 N 
ATOM     67  N   UNL A   1      41.309  31.421  36.151  1.00  0.00    -0.248 NA
ATOM     68  C   UNL A   1      42.298  31.974  38.193  1.00  0.00     0.031 C 
ATOM     69  C   UNL A   1      43.065  28.585  33.202  1.00  0.00     0.029 A 
ATOM     70  C   UNL A   1      42.536  29.465  34.134  1.00  0.00     0.049 A 
ATOM     71  H   UNL A   1      40.729  30.551  34.054  1.00  0.00     0.167 HD
ATOM     72  C   UNL A   1      42.515  30.743  36.266  1.00  0.00     0.074 A 
ATOM     73  C   UNL A   1      43.096  31.147  37.532  1.00  0.00     0.031 C 
ATOM     74  C   UNL A   1      43.091  29.868  35.404  1.00  0.00     0.037 A 
BRANCH  61  75
ATOM     75  C   UNL A   1      39.762  28.771  30.292  1.00  0.00     0.057 A 
ATOM     76  C   UNL A   1      39.129  27.520  30.259  1.00  0.00     0.134 A 
ATOM     77  C   UNL A   1      40.258  29.269  29.081  1.00  0.00     0.134 A 
ATOM     78  F   UNL A   1      38.639  26.975  31.384  1.00  0.00    -0.206 F 
ATOM     79  C   UNL A   1      39.043  26.772  29.083  1.00  0.00     0.040 A 
ATOM     80  C   UNL A   1      40.148  28.545  27.891  1.00  0.00     0.040 A 
ATOM     81  F   UNL A   1      40.867  30.463  29.033  1.00  0.00    -0.206 F 
ATOM     82  C   UNL A   1      39.552  27.287  27.893  1.00  0.00     0.006 A 
ENDBRANCH  61  75
BRANCH  62  83
ATOM     83  C   UNL A   1      40.105  33.790  38.945  1.00  0.00     0.057 A 
ATOM     84  C   UNL A   1      40.823  34.978  39.120  1.00  0.00     0.134 A 
ATOM     85  C   UNL A   1      39.363  33.320  40.037  1.00  0.00     0.134 A 
ATOM     86  F   UNL A   1      41.565  35.473  38.118  1.00  0.00    -0.206 F 
ATOM     87  C   UNL A   1      40.808  35.670  40.332  1.00  0.00     0.040 A 
ATOM     88  C   UNL A   1      39.319  34.015  41.246  1.00  0.00     0.040 A 
ATOM     89  F   UNL A   1      38.644  32.191  39.931  1.00  0.00    -0.206 F 
ATOM     90  C   UNL A   1      40.046  35.193  41.398  1.00  0.00     0.006 A 
ENDBRANCH  62  83
BRANCH  74  91
ATOM     91  C   UNL A   1      44.426  29.301  35.795  1.00  0.00     0.057 A 
ATOM     92  C   UNL A   1      45.630  29.924  35.442  1.00  0.00     0.134 A 
ATOM     93  C   UNL A   1      44.504  28.133  36.565  1.00  0.00     0.134 A 
ATOM     94  F   UNL A   1      45.626  31.039  34.696  1.00  0.00    -0.206 F 
ATOM     95  C   UNL A   1      46.863  29.393  35.820  1.00  0.00     0.040 A 
ATOM     96  C   UNL A   1      45.731  27.610  36.975  1.00  0.00     0.040 A 
ATOM     97  F   UNL A   1      43.389  27.491  36.945  1.00  0.00    -0.206 F 
ATOM     98  C   UNL A   1      46.916  28.235  36.594  1.00  0.00     0.006 A 
ENDBRANCH  74  91
ENDBRANCH  48  49
ENDBRANCH  40  43
ENDBRANCH  38  39
ENDBRANCH  37  38
ENDBRANCH  36  37
ENDBRANCH  35  36
ENDBRANCH   3  35
TORSDOF 19
ENDMDL
MODEL 2
REMARK VINA RESULT:     -13.7      0.650      5.835
REMARK SMILES C=C[C@@H]1[C@H](O)C[C@H]2[C@]3(CC[C@]4(C)[C@@H]([C@H](C)CCC=C(C)C)CC[C@]24C)C[C@]13CCC(=O)NCCCCNC(=O)c1ccc(-c2c3nc(c(-c4c(F)cccc4F)c4ccc([nH]4)c(-c4c(F)cccc4F)c4nc(c(-c5c(F)cccc5F)c5ccc2[nH]5)C=C4)C=C3)cc1
REMARK SMILES IDX 30 1 31 2 32 3 29 5 28 6 27 7 3 8 4 9 6 10 8 11 26 12 7 13
REMARK SMILES IDX 9 14 24 15 10 16 11 17 23 18 25 19 13 20 12 21 22 22 2 23
REMARK SMILES IDX 1 24 5 25 14 27 15 28 16 29 17 30 18 31 19 32 20 33 21 34
REMARK SMILES IDX 33 35 34 36 35 37 36 38 37 39 38 40 39 42 40 43 41 44 93 45
REMARK SMILES IDX 42 46 92 47 43 48 44 49 45 50 86 51 46 52 91 53 85 54 87 55
REMARK SMILES IDX 47 56 90 57 84 58 83 59 48 61 74 62 57 63 73 64 58 65 61 66
REMARK SMILES IDX 72 67 88 68 59 69 60 70 71 72 89 73 62 74 49 75 50 76 55 77
REMARK SMILES IDX 51 78 52 79 54 80 56 81 53 82 75 83 76 84 81 85 77 86 78 87
REMARK SMILES IDX 80 88 82 89 79 90 63 91 64 92 69 93 65 94 66 95 68 96 70 97
REMARK SMILES IDX 67 98
REMARK H PARENT 32 4 5 26 37 41 87 60 61 71
REMARK Flexibility Score: inf
ROOT
ATOM      1  C   UNL A   1      35.620  29.628  27.653  1.00  0.00     0.220 C 
ATOM      2  O   UNL A   1      36.600  28.933  27.908  1.00  0.00    -0.275 OA
ATOM      3  N   UNL A   1      35.459  30.816  28.303  1.00  0.00    -0.356 N 
ATOM      4  H   UNL A   1      36.070  30.974  29.059  1.00  0.00     0.163 HD
ENDROOT
BRANCH   1   5
ATOM      5  C   UNL A   1      34.605  29.256  26.617  1.00  0.00     0.100 C 
BRANCH   5   6
ATOM      6  C   UNL A   1      33.530  28.309  27.121  1.00  0.00     0.018 C 
BRANCH   6   7
ATOM      7  C   UNL A   1      32.546  27.874  26.040  1.00  0.00    -0.014 C 
ATOM      8  C   UNL A   1      32.358  29.325  24.741  1.00  0.00     0.047 C 
ATOM      9  C   UNL A   1      32.536  28.827  22.820  1.00  0.00     0.122 C 
ATOM     10  C   UNL A   1      32.433  26.904  22.330  1.00  0.00     0.037 C 
ATOM     11  C   UNL A   1      32.447  26.114  25.592  1.00  0.00    -0.019 C 
ATOM     12  C   UNL A   1      31.389  26.817  26.511  1.00  0.00     0.016 C 
ATOM     13  C   UNL A   1      32.577  25.566  23.754  1.00  0.00     0.005 C 
ATOM     14  C   UNL A   1      33.080  24.999  26.408  1.00  0.00     0.008 C 
ATOM     15  C   UNL A   1      32.080  24.077  23.563  1.00  0.00    -0.023 C 
ATOM     16  C   UNL A   1      32.400  23.672  26.088  1.00  0.00     0.008 C 
ATOM     17  C   UNL A   1      32.709  23.103  24.679  1.00  0.00    -0.024 C 
ATOM     18  C   UNL A   1      32.727  23.509  22.287  1.00  0.00     0.008 C 
ATOM     19  C   UNL A   1      30.557  24.013  23.466  1.00  0.00     0.012 C 
ATOM     20  C   UNL A   1      34.229  23.068  24.249  1.00  0.00    -0.002 C 
ATOM     21  C   UNL A   1      32.127  21.667  24.628  1.00  0.00     0.012 C 
ATOM     22  C   UNL A   1      34.147  23.068  22.688  1.00  0.00     0.005 C 
BRANCH   8  23
ATOM     23  C   UNL A   1      31.268  30.328  25.152  1.00  0.00    -0.028 C 
ATOM     24  C   UNL A   1      31.379  31.265  26.105  1.00  0.00     0.004 C 
ENDBRANCH   8  23
BRANCH   9  25
ATOM     25  O   UNL A   1      31.848  29.723  21.944  1.00  0.00    -0.392 OA
ATOM     26  H   UNL A   1      31.574  30.512  22.437  1.00  0.00     0.210 HD
ENDBRANCH   9  25
BRANCH  20  27
ATOM     27  C   UNL A   1      35.322  22.119  24.849  1.00  0.00    -0.010 C 
ATOM     28  C   UNL A   1      35.284  22.010  26.382  1.00  0.00     0.008 C 
BRANCH  27  29
ATOM     29  C   UNL A   1      36.783  22.321  24.365  1.00  0.00     0.008 C 
BRANCH  29  30
ATOM     30  C   UNL A   1      37.795  22.799  25.424  1.00  0.00     0.027 C 
BRANCH  30  31
ATOM     31  C   UNL A   1      38.901  21.856  25.830  1.00  0.00    -0.028 C 
ATOM     32  C   UNL A   1      39.855  22.092  26.757  1.00  0.00    -0.080 C 
ATOM     33  C   UNL A   1      40.763  21.003  27.260  1.00  0.00     0.039 C 
ATOM     34  C   UNL A   1      40.092  23.424  27.413  1.00  0.00     0.039 C 
ENDBRANCH  30  31
ENDBRANCH  29  30
ENDBRANCH  27  29
ENDBRANCH  20  27
ENDBRANCH   6   7
ENDBRANCH   5   6
ENDBRANCH   1   5
BRANCH   3  35
ATOM     35  C   UNL A   1      34.455  31.943  28.017  1.00  0.00     0.116 C 
BRANCH  35  36
ATOM     36  C   UNL A   1      33.725  33.601  29.095  1.00  0.00     0.023 C 
BRANCH  36  37
ATOM     37  C   UNL A   1      33.370  35.285  28.913  1.00  0.00     0.023 C 
BRANCH  37  38
ATOM     38  C   UNL A   1      33.365  36.371  29.992  1.00  0.00     0.116 C 
BRANCH  38  39
ATOM     39  N   UNL A   1      32.341  36.190  30.996  1.00  0.00    -0.352 N 
ATOM     40  C   UNL A   1      32.465  35.545  32.203  1.00  0.00     0.251 C 
ATOM     41  H   UNL A   1      31.456  36.572  30.792  1.00  0.00     0.163 HD
ATOM     42  O   UNL A   1      31.511  35.401  32.945  1.00  0.00    -0.269 OA
BRANCH  40  43
ATOM     43  C   UNL A   1      33.771  34.941  32.544  1.00  0.00     0.039 A 
ATOM     44  C   UNL A   1      33.771  33.620  32.991  1.00  0.00     0.014 A 
ATOM     45  C   UNL A   1      34.969  35.646  32.394  1.00  0.00     0.014 A 
ATOM     46  C   UNL A   1      34.981  32.991  33.271  1.00  0.00     0.010 A 
ATOM     47  C   UNL A   1      36.181  34.995  32.618  1.00  0.00     0.010 A 
ATOM     48  C   UNL A   1      36.196  33.666  33.073  1.00  0.00    -0.014 A 
BRANCH  48  49
ATOM     49  C   UNL A   1      37.473  32.974  33.371  1.00  0.00     0.031 A 
ATOM     50  C   UNL A   1      38.222  33.283  34.634  1.00  0.00     0.074 A 
ATOM     51  C   UNL A   1      37.944  32.056  32.506  1.00  0.00     0.049 A 
ATOM     52  N   UNL A   1      39.305  32.723  35.111  1.00  0.00    -0.248 NA
ATOM     53  C   UNL A   1      37.698  34.379  35.460  1.00  0.00     0.031 C 
ATOM     54  C   UNL A   1      37.329  31.717  31.222  1.00  0.00     0.029 A 
ATOM     55  N   UNL A   1      39.042  31.237  32.578  1.00  0.00    -0.354 N 
ATOM     56  C   UNL A   1      39.592  33.401  36.288  1.00  0.00     0.074 A 
ATOM     57  C   UNL A   1      38.607  34.453  36.420  1.00  0.00     0.031 C 
ATOM     58  C   UNL A   1      38.040  30.739  30.640  1.00  0.00     0.029 A 
ATOM     59  C   UNL A   1      39.174  30.402  31.497  1.00  0.00     0.049 A 
ATOM     60  H   UNL A   1      39.673  31.246  33.333  1.00  0.00     0.167 HD
ATOM     61  C   UNL A   1      40.574  33.156  37.189  1.00  0.00     0.037 A 
ATOM     62  C   UNL A   1      40.104  29.467  31.227  1.00  0.00     0.037 A 
ATOM     63  C   UNL A   1      41.547  32.104  37.043  1.00  0.00     0.049 A 
ATOM     64  C   UNL A   1      41.179  29.196  32.244  1.00  0.00     0.074 A 
ATOM     65  C   UNL A   1      42.549  31.726  37.919  1.00  0.00     0.029 A 
ATOM     66  N   UNL A   1      41.647  31.270  35.937  1.00  0.00    -0.354 N 
ATOM     67  N   UNL A   1      41.386  29.782  33.398  1.00  0.00    -0.248 NA
ATOM     68  C   UNL A   1      42.134  28.127  31.930  1.00  0.00     0.031 C 
ATOM     69  C   UNL A   1      43.292  30.705  37.315  1.00  0.00     0.029 A 
ATOM     70  C   UNL A   1      42.714  30.401  36.092  1.00  0.00     0.049 A 
ATOM     71  H   UNL A   1      41.047  31.294  35.157  1.00  0.00     0.167 HD
ATOM     72  C   UNL A   1      42.485  29.145  33.959  1.00  0.00     0.074 A 
ATOM     73  C   UNL A   1      42.886  28.113  33.022  1.00  0.00     0.031 C 
ATOM     74  C   UNL A   1      43.106  29.389  35.141  1.00  0.00     0.037 A 
BRANCH  61  75
ATOM     75  C   UNL A   1      40.647  34.062  38.387  1.00  0.00     0.057 A 
ATOM     76  C   UNL A   1      39.983  33.769  39.587  1.00  0.00     0.134 A 
ATOM     77  C   UNL A   1      41.375  35.257  38.333  1.00  0.00     0.134 A 
ATOM     78  F   UNL A   1      39.256  32.646  39.706  1.00  0.00    -0.206 F 
ATOM     79  C   UNL A   1      39.996  34.654  40.667  1.00  0.00     0.040 A 
ATOM     80  C   UNL A   1      41.425  36.134  39.420  1.00  0.00     0.040 A 
ATOM     81  F   UNL A   1      42.044  35.599  37.222  1.00  0.00    -0.206 F 
ATOM     82  C   UNL A   1      40.722  35.840  40.586  1.00  0.00     0.006 A 
ENDBRANCH  61  75
BRANCH  62  83
ATOM     83  C   UNL A   1      40.031  28.709  29.951  1.00  0.00     0.057 A 
ATOM     84  C   UNL A   1      40.703  29.140  28.802  1.00  0.00     0.134 A 
ATOM     85  C   UNL A   1      39.319  27.505  29.867  1.00  0.00     0.134 A 
ATOM     86  F   UNL A   1      41.390  30.292  28.814  1.00  0.00    -0.206 F 
ATOM     87  C   UNL A   1      40.666  28.406  27.615  1.00  0.00     0.040 A 
ATOM     88  C   UNL A   1      39.294  26.749  28.695  1.00  0.00     0.040 A 
ATOM     89  F   UNL A   1      38.662  27.031  30.937  1.00  0.00    -0.206 F 
ATOM     90  C   UNL A   1      39.966  27.201  27.562  1.00  0.00     0.006 A 
ENDBRANCH  62  83
BRANCH  74  91
ATOM     91  C   UNL A   1      44.274  28.513  35.493  1.00  0.00     0.057 A 
ATOM     92  C   UNL A   1      44.118  27.323  36.216  1.00  0.00     0.134 A 
ATOM     93  C   UNL A   1      45.567  28.848  35.072  1.00  0.00     0.134 A 
ATOM     94  F   UNL A   1      42.908  26.949  36.659  1.00  0.00    -0.206 F 
ATOM     95  C   UNL A   1      45.210  26.513  36.530  1.00  0.00     0.040 A 
ATOM     96  C   UNL A   1      46.662  28.030  35.353  1.00  0.00     0.040 A 
ATOM     97  F   UNL A   1      45.786  29.969  34.368  1.00  0.00    -0.206 F 
ATOM     98  C   UNL A   1      46.486  26.862  36.092  1.00  0.00     0.006 A 
ENDBRANCH  74  91
ENDBRANCH  48  49
ENDBRANCH  40  43
ENDBRANCH  38  39
ENDBRANCH  37  38
ENDBRANCH  36  37
ENDBRANCH  35  36
ENDBRANCH   3  35
TORSDOF 19
ENDMDL
MODEL 3
REMARK VINA RESULT:     -13.2      1.307      6.169
REMARK SMILES C=C[C@@H]1[C@H](O)C[C@H]2[C@]3(CC[C@]4(C)[C@@H]([C@H](C)CCC=C(C)C)CC[C@]24C)C[C@]13CCC(=O)NCCCCNC(=O)c1ccc(-c2c3nc(c(-c4c(F)cccc4F)c4ccc([nH]4)c(-c4c(F)cccc4F)c4nc(c(-c5c(F)cccc5F)c5ccc2[nH]5)C=C4)C=C3)cc1
REMARK SMILES IDX 30 1 31 2 32 3 29 5 28 6 27 7 3 8 4 9 6 10 8 11 26 12 7 13
REMARK SMILES IDX 9 14 24 15 10 16 11 17 23 18 25 19 13 20 12 21 22 22 2 23
REMARK SMILES IDX 1 24 5 25 14 27 15 28 16 29 17 30 18 31 19 32 20 33 21 34
REMARK SMILES IDX 33 35 34 36 35 37 36 38 37 39 38 40 39 42 40 43 41 44 93 45
REMARK SMILES IDX 42 46 92 47 43 48 44 49 45 50 86 51 46 52 91 53 85 54 87 55
REMARK SMILES IDX 47 56 90 57 84 58 83 59 48 61 74 62 57 63 73 64 58 65 61 66
REMARK SMILES IDX 72 67 88 68 59 69 60 70 71 72 89 73 62 74 49 75 50 76 55 77
REMARK SMILES IDX 51 78 52 79 54 80 56 81 53 82 75 83 76 84 81 85 77 86 78 87
REMARK SMILES IDX 80 88 82 89 79 90 63 91 64 92 69 93 65 94 66 95 68 96 70 97
REMARK SMILES IDX 67 98
REMARK H PARENT 32 4 5 26 37 41 87 60 61 71
REMARK Flexibility Score: inf
ROOT
ATOM      1  C   UNL A   1      33.880  28.732  25.783  1.00  0.00     0.220 C 
ATOM      2  O   UNL A   1      34.032  28.404  24.609  1.00  0.00    -0.275 OA
ATOM      3  N   UNL A   1      34.011  30.044  26.129  1.00  0.00    -0.356 N 
ATOM      4  H   UNL A   1      34.374  30.635  25.430  1.00  0.00     0.163 HD
ENDROOT
BRANCH   1   5
ATOM      5  C   UNL A   1      33.508  27.760  26.859  1.00  0.00     0.100 C 
BRANCH   5   6
ATOM      6  C   UNL A   1      32.057  27.312  26.808  1.00  0.00     0.018 C 
BRANCH   6   7
ATOM      7  C   UNL A   1      31.767  26.315  25.690  1.00  0.00    -0.014 C 
ATOM      8  C   UNL A   1      31.149  27.300  24.115  1.00  0.00     0.047 C 
ATOM      9  C   UNL A   1      32.034  26.857  22.386  1.00  0.00     0.122 C 
ATOM     10  C   UNL A   1      33.113  25.192  22.277  1.00  0.00     0.037 C 
ATOM     11  C   UNL A   1      32.750  24.789  25.590  1.00  0.00    -0.019 C 
ATOM     12  C   UNL A   1      31.293  24.824  26.167  1.00  0.00     0.016 C 
ATOM     13  C   UNL A   1      33.602  24.283  23.943  1.00  0.00     0.005 C 
ATOM     14  C   UNL A   1      33.663  24.299  26.702  1.00  0.00     0.008 C 
ATOM     15  C   UNL A   1      34.057  22.769  23.973  1.00  0.00    -0.023 C 
ATOM     16  C   UNL A   1      33.913  22.803  26.546  1.00  0.00     0.008 C 
ATOM     17  C   UNL A   1      34.815  22.413  25.347  1.00  0.00    -0.024 C 
ATOM     18  C   UNL A   1      35.198  22.583  22.956  1.00  0.00     0.008 C 
ATOM     19  C   UNL A   1      32.890  21.837  23.646  1.00  0.00     0.012 C 
ATOM     20  C   UNL A   1      36.162  23.223  25.183  1.00  0.00    -0.002 C 
ATOM     21  C   UNL A   1      35.137  20.903  25.488  1.00  0.00     0.012 C 
ATOM     22  C   UNL A   1      36.480  23.064  23.662  1.00  0.00     0.005 C 
BRANCH   8  23
ATOM     23  C   UNL A   1      29.629  27.525  24.137  1.00  0.00    -0.028 C 
ATOM     24  C   UNL A   1      28.693  26.600  23.878  1.00  0.00     0.004 C 
ENDBRANCH   8  23
BRANCH   9  25
ATOM     25  O   UNL A   1      31.210  27.132  21.250  1.00  0.00    -0.392 OA
ATOM     26  H   UNL A   1      30.664  26.356  21.050  1.00  0.00     0.210 HD
ENDBRANCH   9  25
BRANCH  20  27
ATOM     27  C   UNL A   1      37.407  23.116  26.129  1.00  0.00    -0.010 C 
ATOM     28  C   UNL A   1      38.053  24.468  26.471  1.00  0.00     0.008 C 
BRANCH  27  29
ATOM     29  C   UNL A   1      38.503  22.084  25.749  1.00  0.00     0.008 C 
BRANCH  29  30
ATOM     30  C   UNL A   1      39.655  21.905  26.757  1.00  0.00     0.027 C 
BRANCH  30  31
ATOM     31  C   UNL A   1      41.027  22.395  26.364  1.00  0.00    -0.028 C 
ATOM     32  C   UNL A   1      42.081  21.626  26.011  1.00  0.00    -0.080 C 
ATOM     33  C   UNL A   1      43.328  22.214  25.408  1.00  0.00     0.039 C 
ATOM     34  C   UNL A   1      42.120  20.129  26.133  1.00  0.00     0.039 C 
ENDBRANCH  30  31
ENDBRANCH  29  30
ENDBRANCH  27  29
ENDBRANCH  20  27
ENDBRANCH   6   7
ENDBRANCH   5   6
ENDBRANCH   1   5
BRANCH   3  35
ATOM     35  C   UNL A   1      33.669  30.728  27.461  1.00  0.00     0.116 C 
BRANCH  35  36
ATOM     36  C   UNL A   1      33.934  32.662  28.258  1.00  0.00     0.023 C 
BRANCH  36  37
ATOM     37  C   UNL A   1      33.144  34.197  28.379  1.00  0.00     0.023 C 
BRANCH  37  38
ATOM     38  C   UNL A   1      33.504  35.375  29.289  1.00  0.00     0.116 C 
BRANCH  38  39
ATOM     39  N   UNL A   1      32.563  35.588  30.365  1.00  0.00    -0.352 N 
ATOM     40  C   UNL A   1      32.749  35.309  31.698  1.00  0.00     0.251 C 
ATOM     41  H   UNL A   1      31.693  35.977  30.116  1.00  0.00     0.163 HD
ATOM     42  O   UNL A   1      31.857  35.475  32.509  1.00  0.00    -0.269 OA
BRANCH  40  43
ATOM     43  C   UNL A   1      34.033  34.709  32.117  1.00  0.00     0.039 A 
ATOM     44  C   UNL A   1      34.085  33.320  32.237  1.00  0.00     0.014 A 
ATOM     45  C   UNL A   1      35.168  35.490  32.353  1.00  0.00     0.014 A 
ATOM     46  C   UNL A   1      35.288  32.705  32.574  1.00  0.00     0.010 A 
ATOM     47  C   UNL A   1      36.384  34.868  32.631  1.00  0.00     0.010 A 
ATOM     48  C   UNL A   1      36.450  33.471  32.759  1.00  0.00    -0.014 A 
BRANCH  48  49
ATOM     49  C   UNL A   1      37.721  32.795  33.111  1.00  0.00     0.031 A 
ATOM     50  C   UNL A   1      38.407  33.104  34.410  1.00  0.00     0.074 A 
ATOM     51  C   UNL A   1      38.246  31.891  32.262  1.00  0.00     0.049 A 
ATOM     52  N   UNL A   1      39.474  32.556  34.932  1.00  0.00    -0.248 NA
ATOM     53  C   UNL A   1      37.830  34.186  35.219  1.00  0.00     0.031 C 
ATOM     54  C   UNL A   1      37.695  31.552  30.949  1.00  0.00     0.029 A 
ATOM     55  N   UNL A   1      39.350  31.086  32.379  1.00  0.00    -0.354 N 
ATOM     56  C   UNL A   1      39.697  33.229  36.127  1.00  0.00     0.074 A 
ATOM     57  C   UNL A   1      38.692  34.266  36.220  1.00  0.00     0.031 C 
ATOM     58  C   UNL A   1      38.447  30.589  30.394  1.00  0.00     0.029 A 
ATOM     59  C   UNL A   1      39.545  30.261  31.299  1.00  0.00     0.049 A 
ATOM     60  H   UNL A   1      39.946  31.098  33.162  1.00  0.00     0.167 HD
ATOM     61  C   UNL A   1      40.640  32.990  37.069  1.00  0.00     0.037 A 
ATOM     62  C   UNL A   1      40.499  29.341  31.066  1.00  0.00     0.037 A 
ATOM     63  C   UNL A   1      41.633  31.953  36.962  1.00  0.00     0.049 A 
ATOM     64  C   UNL A   1      41.529  29.078  32.129  1.00  0.00     0.074 A 
ATOM     65  C   UNL A   1      42.599  31.582  37.880  1.00  0.00     0.029 A 
ATOM     66  N   UNL A   1      41.796  31.129  35.856  1.00  0.00    -0.354 N 
ATOM     67  N   UNL A   1      41.675  29.658  33.297  1.00  0.00    -0.248 NA
ATOM     68  C   UNL A   1      42.514  28.025  31.853  1.00  0.00     0.031 C 
ATOM     69  C   UNL A   1      43.384  30.576  37.304  1.00  0.00     0.029 A 
ATOM     70  C   UNL A   1      42.868  30.274  36.054  1.00  0.00     0.049 A 
ATOM     71  H   UNL A   1      41.233  31.151  35.049  1.00  0.00     0.167 HD
ATOM     72  C   UNL A   1      42.756  29.031  33.903  1.00  0.00     0.074 A 
ATOM     73  C   UNL A   1      43.214  28.012  32.978  1.00  0.00     0.031 C 
ATOM     74  C   UNL A   1      43.317  29.275  35.114  1.00  0.00     0.037 A 
BRANCH  61  75
ATOM     75  C   UNL A   1      40.645  33.887  38.277  1.00  0.00     0.057 A 
ATOM     76  C   UNL A   1      41.460  35.025  38.358  1.00  0.00     0.134 A 
ATOM     77  C   UNL A   1      39.838  33.596  39.384  1.00  0.00     0.134 A 
ATOM     78  F   UNL A   1      42.268  35.359  37.339  1.00  0.00    -0.206 F 
ATOM     79  C   UNL A   1      41.512  35.808  39.513  1.00  0.00     0.040 A 
ATOM     80  C   UNL A   1      39.857  34.392  40.532  1.00  0.00     0.040 A 
ATOM     81  F   UNL A   1      39.026  32.530  39.375  1.00  0.00    -0.206 F 
ATOM     82  C   UNL A   1      40.706  35.493  40.605  1.00  0.00     0.006 A 
ENDBRANCH  61  75
BRANCH  62  83
ATOM     83  C   UNL A   1      40.496  28.593  29.783  1.00  0.00     0.057 A 
ATOM     84  C   UNL A   1      39.692  27.465  29.594  1.00  0.00     0.134 A 
ATOM     85  C   UNL A   1      41.272  29.021  28.697  1.00  0.00     0.134 A 
ATOM     86  F   UNL A   1      38.937  26.996  30.599  1.00  0.00    -0.206 F 
ATOM     87  C   UNL A   1      39.660  26.785  28.374  1.00  0.00     0.040 A 
ATOM     88  C   UNL A   1      41.231  28.366  27.465  1.00  0.00     0.040 A 
ATOM     89  F   UNL A   1      42.058  30.102  28.810  1.00  0.00    -0.206 F 
ATOM     90  C   UNL A   1      40.425  27.242  27.302  1.00  0.00     0.006 A 
ENDBRANCH  62  83
BRANCH  74  91
ATOM     91  C   UNL A   1      44.481  28.413  35.514  1.00  0.00     0.057 A 
ATOM     92  C   UNL A   1      44.306  27.202  36.197  1.00  0.00     0.134 A 
ATOM     93  C   UNL A   1      45.789  28.784  35.179  1.00  0.00     0.134 A 
ATOM     94  F   UNL A   1      43.080  26.794  36.558  1.00  0.00    -0.206 F 
ATOM     95  C   UNL A   1      45.394  26.405  36.555  1.00  0.00     0.040 A 
ATOM     96  C   UNL A   1      46.882  27.979  35.504  1.00  0.00     0.040 A 
ATOM     97  F   UNL A   1      46.026  29.926  34.517  1.00  0.00    -0.206 F 
ATOM     98  C   UNL A   1      46.687  26.789  36.203  1.00  0.00     0.006 A 
ENDBRANCH  74  91
ENDBRANCH  48  49
ENDBRANCH  40  43
ENDBRANCH  38  39
ENDBRANCH  37  38
ENDBRANCH  36  37
ENDBRANCH  35  36
ENDBRANCH   3  35
TORSDOF 19
ENDMDL
