MODEL 1
REMARK VINA RESULT:     -12.6      0.000      0.000
REMARK SMILES Cn1c(=O)[nH]c(=O)c2c1nc(N1CCOCC1)n2CC(=O)NCCCCNC(=O)c1ccc(-c2c3nc(c(-c4c(F)cccc4F)c4ccc([nH]4)c(-c4c(F)cccc4F)c4nc(c(-c5c(F)cccc5F)c5ccc2[nH]5)C=C4)C=C3)cc1
REMARK SMILES IDX 24 1 23 2 22 3 20 4 21 5 19 7 18 8 1 9 2 10 3 11 9 12 4 13
REMARK SMILES IDX 5 14 8 15 10 16 6 17 11 19 7 20 12 21 13 22 17 23 14 24
REMARK SMILES IDX 16 25 15 26 25 27 26 28 27 29 28 30 29 32 30 33 31 34 83 35
REMARK SMILES IDX 32 36 82 37 33 38 34 39 35 40 76 41 36 42 81 43 75 44 77 45
REMARK SMILES IDX 37 46 80 47 74 48 73 49 38 51 64 52 47 53 63 54 48 55 51 56
REMARK SMILES IDX 62 57 78 58 49 59 50 60 61 62 79 63 52 64 39 65 40 66 45 67
REMARK SMILES IDX 41 68 42 69 44 70 46 71 43 72 65 73 66 74 71 75 67 76 68 77
REMARK SMILES IDX 70 78 72 79 69 80 53 81 54 82 59 83 55 84 56 85 58 86 60 87
REMARK SMILES IDX 57 88
REMARK H PARENT 22 6 5 18 27 31 77 50 51 61
REMARK Flexibility Score: inf
ROOT
ATOM      1  C   UNL A   1      32.853  28.205  27.233  1.00  0.00     0.023 C 
ENDROOT
BRANCH   1   2
ATOM      2  C   UNL A   1      32.461  27.192  26.152  1.00  0.00     0.116 C 
BRANCH   2   3
ATOM      3  N   UNL A   1      31.705  26.065  26.656  1.00  0.00    -0.355 N 
ATOM      4  C   UNL A   1      31.966  24.727  26.612  1.00  0.00     0.240 C 
ATOM      5  O   UNL A   1      31.197  24.001  27.253  1.00  0.00    -0.273 OA
ATOM      6  H   UNL A   1      30.864  26.305  27.108  1.00  0.00     0.163 HD
BRANCH   4   7
ATOM      7  C   UNL A   1      33.145  24.125  25.873  1.00  0.00     0.226 C 
BRANCH   7   8
ATOM      8  N   UNL A   1      32.841  22.995  25.016  1.00  0.00    -0.295 N 
ATOM      9  C   UNL A   1      32.238  18.866  23.011  1.00  0.00     0.157 C 
ATOM     10  N   UNL A   1      32.548  19.607  24.215  1.00  0.00    -0.279 N 
ATOM     11  C   UNL A   1      32.984  18.912  25.340  1.00  0.00     0.329 A 
ATOM     12  C   UNL A   1      32.510  20.987  24.256  1.00  0.00     0.170 A 
ATOM     13  O   UNL A   1      33.132  17.691  25.378  1.00  0.00    -0.248 OA
ATOM     14  N   UNL A   1      33.278  19.652  26.465  1.00  0.00    -0.272 N 
ATOM     15  C   UNL A   1      32.869  21.673  25.379  1.00  0.00     0.154 A 
ATOM     16  N   UNL A   1      32.155  21.830  23.245  1.00  0.00    -0.194 NA
ATOM     17  C   UNL A   1      33.248  21.023  26.593  1.00  0.00     0.279 A 
ATOM     18  H   UNL A   1      33.539  19.144  27.267  1.00  0.00     0.175 HD
ATOM     19  C   UNL A   1      32.360  23.045  23.714  1.00  0.00     0.208 A 
ATOM     20  O   UNL A   1      33.561  21.580  27.626  1.00  0.00    -0.267 OA
BRANCH  19  21
ATOM     21  N   UNL A   1      32.070  24.224  23.125  1.00  0.00    -0.338 N 
ATOM     22  C   UNL A   1      32.815  24.709  21.956  1.00  0.00     0.148 C 
ATOM     23  C   UNL A   1      30.689  24.724  23.126  1.00  0.00     0.148 C 
ATOM     24  C   UNL A   1      32.849  26.243  22.029  1.00  0.00     0.181 C 
ATOM     25  C   UNL A   1      30.739  26.265  23.111  1.00  0.00     0.181 C 
ATOM     26  O   UNL A   1      31.509  26.775  22.003  1.00  0.00    -0.378 OA
ENDBRANCH  19  21
ENDBRANCH   7   8
ENDBRANCH   4   7
ENDBRANCH   2   3
ENDBRANCH   1   2
BRANCH   1  27
ATOM     27  C   UNL A   1      33.312  29.582  26.736  1.00  0.00     0.023 C 
BRANCH  27  28
ATOM     28  C   UNL A   1      34.612  30.079  27.351  1.00  0.00     0.116 C 
BRANCH  28  29
ATOM     29  N   UNL A   1      34.431  31.265  28.182  1.00  0.00    -0.352 N 
ATOM     30  C   UNL A   1      35.081  31.575  29.359  1.00  0.00     0.251 C 
ATOM     31  H   UNL A   1      33.769  31.922  27.865  1.00  0.00     0.163 HD
ATOM     32  O   UNL A   1      34.614  32.387  30.147  1.00  0.00    -0.269 OA
BRANCH  30  33
ATOM     33  C   UNL A   1      36.360  30.909  29.654  1.00  0.00     0.039 A 
ATOM     34  C   UNL A   1      36.394  29.591  30.119  1.00  0.00     0.014 A 
ATOM     35  C   UNL A   1      37.536  31.622  29.431  1.00  0.00     0.014 A 
ATOM     36  C   UNL A   1      37.627  28.966  30.283  1.00  0.00     0.010 A 
ATOM     37  C   UNL A   1      38.744  30.971  29.477  1.00  0.00     0.010 A 
ATOM     38  C   UNL A   1      38.799  29.658  29.942  1.00  0.00    -0.014 A 
BRANCH  38  39
ATOM     39  C   UNL A   1      40.091  28.974  29.937  1.00  0.00     0.031 A 
ATOM     40  C   UNL A   1      40.713  28.801  31.286  1.00  0.00     0.074 A 
ATOM     41  C   UNL A   1      40.537  28.312  28.847  1.00  0.00     0.049 A 
ATOM     42  N   UNL A   1      41.879  29.185  31.693  1.00  0.00    -0.248 NA
ATOM     43  C   UNL A   1      39.884  28.202  32.350  1.00  0.00     0.031 C 
ATOM     44  C   UNL A   1      39.849  28.120  27.563  1.00  0.00     0.029 A 
ATOM     45  N   UNL A   1      41.652  27.548  28.697  1.00  0.00    -0.354 N 
ATOM     46  C   UNL A   1      42.007  28.712  32.998  1.00  0.00     0.074 A 
ATOM     47  C   UNL A   1      40.701  28.262  33.402  1.00  0.00     0.031 C 
ATOM     48  C   UNL A   1      40.433  27.112  26.881  1.00  0.00     0.029 A 
ATOM     49  C   UNL A   1      41.627  26.701  27.594  1.00  0.00     0.049 A 
ATOM     50  H   UNL A   1      42.415  27.593  29.318  1.00  0.00     0.167 HD
ATOM     51  C   UNL A   1      43.223  28.509  33.575  1.00  0.00     0.037 A 
ATOM     52  C   UNL A   1      42.503  25.703  27.319  1.00  0.00     0.037 A 
ATOM     53  C   UNL A   1      44.264  29.217  32.880  1.00  0.00     0.049 A 
ATOM     54  C   UNL A   1      43.712  25.942  28.145  1.00  0.00     0.074 A 
ATOM     55  C   UNL A   1      44.504  30.547  32.597  1.00  0.00     0.029 A 
ATOM     56  N   UNL A   1      45.062  28.503  32.023  1.00  0.00    -0.354 N 
ATOM     57  N   UNL A   1      44.525  26.947  27.978  1.00  0.00    -0.248 NA
ATOM     58  C   UNL A   1      43.766  25.301  29.450  1.00  0.00     0.031 C 
ATOM     59  C   UNL A   1      45.028  30.548  31.272  1.00  0.00     0.029 A 
ATOM     60  C   UNL A   1      45.144  29.219  30.857  1.00  0.00     0.049 A 
ATOM     61  H   UNL A   1      45.495  27.638  32.209  1.00  0.00     0.167 HD
ATOM     62  C   UNL A   1      44.877  27.332  29.263  1.00  0.00     0.074 A 
ATOM     63  C   UNL A   1      44.447  26.231  30.123  1.00  0.00     0.031 C 
ATOM     64  C   UNL A   1      45.219  28.623  29.543  1.00  0.00     0.037 A 
BRANCH  51  65
ATOM     65  C   UNL A   1      43.513  27.401  34.555  1.00  0.00     0.057 A 
ATOM     66  C   UNL A   1      43.573  26.068  34.112  1.00  0.00     0.134 A 
ATOM     67  C   UNL A   1      43.466  27.566  35.955  1.00  0.00     0.134 A 
ATOM     68  F   UNL A   1      43.576  25.776  32.804  1.00  0.00    -0.206 F 
ATOM     69  C   UNL A   1      43.556  24.982  34.999  1.00  0.00     0.040 A 
ATOM     70  C   UNL A   1      43.503  26.494  36.849  1.00  0.00     0.040 A 
ATOM     71  F   UNL A   1      43.279  28.763  36.525  1.00  0.00    -0.206 F 
ATOM     72  C   UNL A   1      43.524  25.194  36.373  1.00  0.00     0.006 A 
ENDBRANCH  51  65
BRANCH  52  73
ATOM     73  C   UNL A   1      42.260  24.400  26.656  1.00  0.00     0.057 A 
ATOM     74  C   UNL A   1      43.046  23.990  25.568  1.00  0.00     0.134 A 
ATOM     75  C   UNL A   1      41.461  23.405  27.246  1.00  0.00     0.134 A 
ATOM     76  F   UNL A   1      43.866  24.858  24.958  1.00  0.00    -0.206 F 
ATOM     77  C   UNL A   1      43.069  22.662  25.121  1.00  0.00     0.040 A 
ATOM     78  C   UNL A   1      41.469  22.077  26.805  1.00  0.00     0.040 A 
ATOM     79  F   UNL A   1      40.717  23.666  28.331  1.00  0.00    -0.206 F 
ATOM     80  C   UNL A   1      42.289  21.697  25.750  1.00  0.00     0.006 A 
ENDBRANCH  52  73
BRANCH  64  81
ATOM     81  C   UNL A   1      45.444  29.569  28.393  1.00  0.00     0.057 A 
ATOM     82  C   UNL A   1      44.445  30.379  27.832  1.00  0.00     0.134 A 
ATOM     83  C   UNL A   1      46.757  29.807  27.974  1.00  0.00     0.134 A 
ATOM     84  F   UNL A   1      43.170  30.290  28.232  1.00  0.00    -0.206 F 
ATOM     85  C   UNL A   1      44.738  31.364  26.883  1.00  0.00     0.040 A 
ATOM     86  C   UNL A   1      47.068  30.810  27.054  1.00  0.00     0.040 A 
ATOM     87  F   UNL A   1      47.772  29.107  28.505  1.00  0.00    -0.206 F 
ATOM     88  C   UNL A   1      46.057  31.591  26.501  1.00  0.00     0.006 A 
ENDBRANCH  64  81
ENDBRANCH  38  39
ENDBRANCH  30  33
ENDBRANCH  28  29
ENDBRANCH  27  28
ENDBRANCH   1  27
TORSDOF 13
ENDMDL
MODEL 2
REMARK VINA RESULT:     -12.5      1.595      3.754
REMARK SMILES Cn1c(=O)[nH]c(=O)c2c1nc(N1CCOCC1)n2CC(=O)NCCCCNC(=O)c1ccc(-c2c3nc(c(-c4c(F)cccc4F)c4ccc([nH]4)c(-c4c(F)cccc4F)c4nc(c(-c5c(F)cccc5F)c5ccc2[nH]5)C=C4)C=C3)cc1
REMARK SMILES IDX 24 1 23 2 22 3 20 4 21 5 19 7 18 8 1 9 2 10 3 11 9 12 4 13
REMARK SMILES IDX 5 14 8 15 10 16 6 17 11 19 7 20 12 21 13 22 17 23 14 24
REMARK SMILES IDX 16 25 15 26 25 27 26 28 27 29 28 30 29 32 30 33 31 34 83 35
REMARK SMILES IDX 32 36 82 37 33 38 34 39 35 40 76 41 36 42 81 43 75 44 77 45
REMARK SMILES IDX 37 46 80 47 74 48 73 49 38 51 64 52 47 53 63 54 48 55 51 56
REMARK SMILES IDX 62 57 78 58 49 59 50 60 61 62 79 63 52 64 39 65 40 66 45 67
REMARK SMILES IDX 41 68 42 69 44 70 46 71 43 72 65 73 66 74 71 75 67 76 68 77
REMARK SMILES IDX 70 78 72 79 69 80 53 81 54 82 59 83 55 84 56 85 58 86 60 87
REMARK SMILES IDX 57 88
REMARK H PARENT 22 6 5 18 27 31 77 50 51 61
REMARK Flexibility Score: inf
ROOT
ATOM      1  C   UNL A   1      34.050  29.245  27.277  1.00  0.00     0.023 C 
ENDROOT
BRANCH   1   2
ATOM      2  C   UNL A   1      33.605  28.407  26.074  1.00  0.00     0.116 C 
BRANCH   2   3
ATOM      3  N   UNL A   1      33.899  26.995  26.207  1.00  0.00    -0.355 N 
ATOM      4  C   UNL A   1      33.862  25.988  25.287  1.00  0.00     0.240 C 
ATOM      5  O   UNL A   1      34.302  24.894  25.660  1.00  0.00    -0.273 OA
ATOM      6  H   UNL A   1      34.171  26.716  27.111  1.00  0.00     0.163 HD
BRANCH   4   7
ATOM      7  C   UNL A   1      33.367  26.167  23.865  1.00  0.00     0.226 C 
BRANCH   7   8
ATOM      8  N   UNL A   1      31.978  26.560  23.726  1.00  0.00    -0.295 N 
ATOM      9  C   UNL A   1      27.917  28.641  22.949  1.00  0.00     0.157 C 
ATOM     10  N   UNL A   1      29.351  28.648  22.754  1.00  0.00    -0.279 N 
ATOM     11  C   UNL A   1      29.949  29.769  22.185  1.00  0.00     0.329 A 
ATOM     12  C   UNL A   1      30.155  27.616  23.197  1.00  0.00     0.170 A 
ATOM     13  O   UNL A   1      29.330  30.774  21.835  1.00  0.00    -0.248 OA
ATOM     14  N   UNL A   1      31.317  29.742  22.023  1.00  0.00    -0.272 N 
ATOM     15  C   UNL A   1      31.511  27.667  23.066  1.00  0.00     0.154 A 
ATOM     16  N   UNL A   1      29.753  26.469  23.814  1.00  0.00    -0.194 NA
ATOM     17  C   UNL A   1      32.184  28.748  22.419  1.00  0.00     0.279 A 
ATOM     18  H   UNL A   1      31.720  30.520  21.576  1.00  0.00     0.175 HD
ATOM     19  C   UNL A   1      30.865  25.835  24.132  1.00  0.00     0.208 A 
ATOM     20  O   UNL A   1      33.385  28.840  22.259  1.00  0.00    -0.267 OA
BRANCH  19  21
ATOM     21  N   UNL A   1      30.996  24.607  24.678  1.00  0.00    -0.338 N 
ATOM     22  C   UNL A   1      30.475  24.294  26.014  1.00  0.00     0.148 C 
ATOM     23  C   UNL A   1      31.007  23.419  23.814  1.00  0.00     0.148 C 
ATOM     24  C   UNL A   1      31.402  23.241  26.641  1.00  0.00     0.181 C 
ATOM     25  C   UNL A   1      31.869  22.339  24.498  1.00  0.00     0.181 C 
ATOM     26  O   UNL A   1      31.416  22.045  25.835  1.00  0.00    -0.378 OA
ENDBRANCH  19  21
ENDBRANCH   7   8
ENDBRANCH   4   7
ENDBRANCH   2   3
ENDBRANCH   1   2
BRANCH   1  27
ATOM     27  C   UNL A   1      33.527  30.686  27.330  1.00  0.00     0.023 C 
BRANCH  27  28
ATOM     28  C   UNL A   1      34.582  31.735  27.646  1.00  0.00     0.116 C 
BRANCH  28  29
ATOM     29  N   UNL A   1      34.491  32.238  29.013  1.00  0.00    -0.352 N 
ATOM     30  C   UNL A   1      35.258  31.867  30.099  1.00  0.00     0.251 C 
ATOM     31  H   UNL A   1      33.803  32.923  29.181  1.00  0.00     0.163 HD
ATOM     32  O   UNL A   1      34.877  32.070  31.245  1.00  0.00    -0.269 OA
BRANCH  30  33
ATOM     33  C   UNL A   1      36.557  31.220  29.855  1.00  0.00     0.039 A 
ATOM     34  C   UNL A   1      37.713  31.980  29.654  1.00  0.00     0.014 A 
ATOM     35  C   UNL A   1      36.605  29.827  29.859  1.00  0.00     0.014 A 
ATOM     36  C   UNL A   1      38.936  31.326  29.534  1.00  0.00     0.010 A 
ATOM     37  C   UNL A   1      37.821  29.190  29.861  1.00  0.00     0.010 A 
ATOM     38  C   UNL A   1      38.985  29.930  29.656  1.00  0.00    -0.014 A 
BRANCH  38  39
ATOM     39  C   UNL A   1      40.267  29.232  29.710  1.00  0.00     0.031 A 
ATOM     40  C   UNL A   1      40.813  29.030  31.088  1.00  0.00     0.074 A 
ATOM     41  C   UNL A   1      40.766  28.582  28.635  1.00  0.00     0.049 A 
ATOM     42  N   UNL A   1      41.959  29.395  31.564  1.00  0.00    -0.248 NA
ATOM     43  C   UNL A   1      39.921  28.424  32.095  1.00  0.00     0.031 C 
ATOM     44  C   UNL A   1      40.147  28.417  27.313  1.00  0.00     0.029 A 
ATOM     45  N   UNL A   1      41.880  27.808  28.534  1.00  0.00    -0.354 N 
ATOM     46  C   UNL A   1      42.010  28.900  32.866  1.00  0.00     0.074 A 
ATOM     47  C   UNL A   1      40.680  28.459  33.191  1.00  0.00     0.031 C 
ATOM     48  C   UNL A   1      40.757  27.414  26.648  1.00  0.00     0.029 A 
ATOM     49  C   UNL A   1      41.907  26.979  27.417  1.00  0.00     0.049 A 
ATOM     50  H   UNL A   1      42.608  27.834  29.196  1.00  0.00     0.167 HD
ATOM     51  C   UNL A   1      43.191  28.674  33.506  1.00  0.00     0.037 A 
ATOM     52  C   UNL A   1      42.786  25.975  27.175  1.00  0.00     0.037 A 
ATOM     53  C   UNL A   1      44.276  29.381  32.880  1.00  0.00     0.049 A 
ATOM     54  C   UNL A   1      43.950  26.188  28.070  1.00  0.00     0.074 A 
ATOM     55  C   UNL A   1      44.545  30.713  32.632  1.00  0.00     0.029 A 
ATOM     56  N   UNL A   1      45.112  28.672  32.056  1.00  0.00    -0.354 N 
ATOM     57  N   UNL A   1      44.782  27.186  27.963  1.00  0.00    -0.248 NA
ATOM     58  C   UNL A   1      43.926  25.526  29.365  1.00  0.00     0.031 C 
ATOM     59  C   UNL A   1      45.140  30.729  31.338  1.00  0.00     0.029 A 
ATOM     60  C   UNL A   1      45.265  29.406  30.909  1.00  0.00     0.049 A 
ATOM     61  H   UNL A   1      45.525  27.800  32.252  1.00  0.00     0.167 HD
ATOM     62  C   UNL A   1      45.067  27.547  29.272  1.00  0.00     0.074 A 
ATOM     63  C   UNL A   1      44.578  26.437  30.089  1.00  0.00     0.031 C 
ATOM     64  C   UNL A   1      45.405  28.829  29.591  1.00  0.00     0.037 A 
BRANCH  51  65
ATOM     65  C   UNL A   1      43.416  27.548  34.482  1.00  0.00     0.057 A 
ATOM     66  C   UNL A   1      43.489  26.222  34.021  1.00  0.00     0.134 A 
ATOM     67  C   UNL A   1      43.291  27.691  35.880  1.00  0.00     0.134 A 
ATOM     68  F   UNL A   1      43.563  25.951  32.710  1.00  0.00    -0.206 F 
ATOM     69  C   UNL A   1      43.413  25.122  34.888  1.00  0.00     0.040 A 
ATOM     70  C   UNL A   1      43.268  26.604  36.756  1.00  0.00     0.040 A 
ATOM     71  F   UNL A   1      43.083  28.881  36.458  1.00  0.00    -0.206 F 
ATOM     72  C   UNL A   1      43.305  25.312  36.260  1.00  0.00     0.006 A 
ENDBRANCH  51  65
BRANCH  52  73
ATOM     73  C   UNL A   1      42.566  24.685  26.479  1.00  0.00     0.057 A 
ATOM     74  C   UNL A   1      43.376  24.306  25.398  1.00  0.00     0.134 A 
ATOM     75  C   UNL A   1      41.763  23.672  27.031  1.00  0.00     0.134 A 
ATOM     76  F   UNL A   1      44.201  25.194  24.823  1.00  0.00    -0.206 F 
ATOM     77  C   UNL A   1      43.418  22.988  24.922  1.00  0.00     0.040 A 
ATOM     78  C   UNL A   1      41.790  22.354  26.561  1.00  0.00     0.040 A 
ATOM     79  F   UNL A   1      40.997  23.903  28.106  1.00  0.00    -0.206 F 
ATOM     80  C   UNL A   1      42.634  22.004  25.514  1.00  0.00     0.006 A 
ENDBRANCH  52  73
BRANCH  64  81
ATOM     81  C   UNL A   1      45.703  29.790  28.471  1.00  0.00     0.057 A 
ATOM     82  C   UNL A   1      44.742  30.611  27.860  1.00  0.00     0.134 A 
ATOM     83  C   UNL A   1      47.040  30.032  28.137  1.00  0.00     0.134 A 
ATOM     84  F   UNL A   1      43.445  30.520  28.178  1.00  0.00    -0.206 F 
ATOM     85  C   UNL A   1      45.095  31.608  26.945  1.00  0.00     0.040 A 
ATOM     86  C   UNL A   1      47.408  31.046  27.252  1.00  0.00     0.040 A 
ATOM     87  F   UNL A   1      48.019  29.322  28.720  1.00  0.00    -0.206 F 
ATOM     88  C   UNL A   1      46.435  31.837  26.648  1.00  0.00     0.006 A 
ENDBRANCH  64  81
ENDBRANCH  38  39
ENDBRANCH  30  33
ENDBRANCH  28  29
ENDBRANCH  27  28
ENDBRANCH   1  27
TORSDOF 13
ENDMDL
MODEL 3
REMARK VINA RESULT:     -12.4      2.923      8.124
REMARK SMILES Cn1c(=O)[nH]c(=O)c2c1nc(N1CCOCC1)n2CC(=O)NCCCCNC(=O)c1ccc(-c2c3nc(c(-c4c(F)cccc4F)c4ccc([nH]4)c(-c4c(F)cccc4F)c4nc(c(-c5c(F)cccc5F)c5ccc2[nH]5)C=C4)C=C3)cc1
REMARK SMILES IDX 24 1 23 2 22 3 20 4 21 5 19 7 18 8 1 9 2 10 3 11 9 12 4 13
REMARK SMILES IDX 5 14 8 15 10 16 6 17 11 19 7 20 12 21 13 22 17 23 14 24
REMARK SMILES IDX 16 25 15 26 25 27 26 28 27 29 28 30 29 32 30 33 31 34 83 35
REMARK SMILES IDX 32 36 82 37 33 38 34 39 35 40 76 41 36 42 81 43 75 44 77 45
REMARK SMILES IDX 37 46 80 47 74 48 73 49 38 51 64 52 47 53 63 54 48 55 51 56
REMARK SMILES IDX 62 57 78 58 49 59 50 60 61 62 79 63 52 64 39 65 40 66 45 67
REMARK SMILES IDX 41 68 42 69 44 70 46 71 43 72 65 73 66 74 71 75 67 76 68 77
REMARK SMILES IDX 70 78 72 79 69 80 53 81 54 82 59 83 55 84 56 85 58 86 60 87
REMARK SMILES IDX 57 88
REMARK H PARENT 22 6 5 18 27 31 77 50 51 61
REMARK Flexibility Score: inf
ROOT
ATOM      1  C   UNL A   1      36.590  23.340  24.301  1.00  0.00     0.023 C 
ENDROOT
BRANCH   1   2
ATOM      2  C   UNL A   1      35.114  23.746  24.375  1.00  0.00     0.116 C 
BRANCH   2   3
ATOM      3  N   UNL A   1      34.585  24.249  23.124  1.00  0.00    -0.355 N 
ATOM      4  C   UNL A   1      33.834  25.355  22.856  1.00  0.00     0.240 C 
ATOM      5  O   UNL A   1      33.642  25.607  21.661  1.00  0.00    -0.273 OA
ATOM      6  H   UNL A   1      34.806  23.702  22.336  1.00  0.00     0.163 HD
BRANCH   4   7
ATOM      7  C   UNL A   1      33.287  26.278  23.927  1.00  0.00     0.226 C 
BRANCH   7   8
ATOM      8  N   UNL A   1      31.896  26.665  23.777  1.00  0.00    -0.295 N 
ATOM      9  C   UNL A   1      27.833  28.716  22.940  1.00  0.00     0.157 C 
ATOM     10  N   UNL A   1      29.267  28.720  22.746  1.00  0.00    -0.279 N 
ATOM     11  C   UNL A   1      29.863  29.825  22.145  1.00  0.00     0.329 A 
ATOM     12  C   UNL A   1      30.072  27.702  23.218  1.00  0.00     0.170 A 
ATOM     13  O   UNL A   1      29.242  30.819  21.767  1.00  0.00    -0.248 OA
ATOM     14  N   UNL A   1      31.231  29.797  21.985  1.00  0.00    -0.272 N 
ATOM     15  C   UNL A   1      31.429  27.752  23.085  1.00  0.00     0.154 A 
ATOM     16  N   UNL A   1      29.673  26.572  23.866  1.00  0.00    -0.194 NA
ATOM     17  C   UNL A   1      32.100  28.816  22.408  1.00  0.00     0.279 A 
ATOM     18  H   UNL A   1      31.633  30.563  21.516  1.00  0.00     0.175 HD
ATOM     19  C   UNL A   1      30.785  25.949  24.203  1.00  0.00     0.208 A 
ATOM     20  O   UNL A   1      33.300  28.905  22.247  1.00  0.00    -0.267 OA
BRANCH  19  21
ATOM     21  N   UNL A   1      30.918  24.738  24.783  1.00  0.00    -0.338 N 
ATOM     22  C   UNL A   1      30.472  24.485  26.158  1.00  0.00     0.148 C 
ATOM     23  C   UNL A   1      30.845  23.522  23.962  1.00  0.00     0.148 C 
ATOM     24  C   UNL A   1      31.409  23.428  26.764  1.00  0.00     0.181 C 
ATOM     25  C   UNL A   1      31.720  22.441  24.630  1.00  0.00     0.181 C 
ATOM     26  O   UNL A   1      31.343  22.205  26.002  1.00  0.00    -0.378 OA
ENDBRANCH  19  21
ENDBRANCH   7   8
ENDBRANCH   4   7
ENDBRANCH   2   3
ENDBRANCH   1   2
BRANCH   1  27
ATOM     27  C   UNL A   1      37.150  22.596  25.520  1.00  0.00     0.023 C 
BRANCH  27  28
ATOM     28  C   UNL A   1      38.304  23.297  26.219  1.00  0.00     0.116 C 
BRANCH  28  29
ATOM     29  N   UNL A   1      39.554  22.547  26.144  1.00  0.00    -0.352 N 
ATOM     30  C   UNL A   1      40.839  23.047  26.192  1.00  0.00     0.251 C 
ATOM     31  H   UNL A   1      39.471  21.571  26.049  1.00  0.00     0.163 HD
ATOM     32  O   UNL A   1      41.789  22.400  25.767  1.00  0.00    -0.269 OA
BRANCH  30  33
ATOM     33  C   UNL A   1      41.055  24.383  26.771  1.00  0.00     0.039 A 
ATOM     34  C   UNL A   1      40.616  25.533  26.108  1.00  0.00     0.014 A 
ATOM     35  C   UNL A   1      41.685  24.465  28.011  1.00  0.00     0.014 A 
ATOM     36  C   UNL A   1      40.746  26.766  26.742  1.00  0.00     0.010 A 
ATOM     37  C   UNL A   1      41.704  25.661  28.684  1.00  0.00     0.010 A 
ATOM     38  C   UNL A   1      41.275  26.820  28.040  1.00  0.00    -0.014 A 
BRANCH  38  39
ATOM     39  C   UNL A   1      41.263  28.070  28.796  1.00  0.00     0.031 A 
ATOM     40  C   UNL A   1      42.367  29.019  28.455  1.00  0.00     0.074 A 
ATOM     41  C   UNL A   1      40.189  28.445  29.526  1.00  0.00     0.049 A 
ATOM     42  N   UNL A   1      43.251  29.545  29.240  1.00  0.00    -0.248 NA
ATOM     43  C   UNL A   1      42.571  29.349  27.032  1.00  0.00     0.031 C 
ATOM     44  C   UNL A   1      38.901  27.752  29.659  1.00  0.00     0.029 A 
ATOM     45  N   UNL A   1      39.968  29.604  30.203  1.00  0.00    -0.354 N 
ATOM     46  C   UNL A   1      43.998  30.417  28.449  1.00  0.00     0.074 A 
ATOM     47  C   UNL A   1      43.647  30.136  27.083  1.00  0.00     0.031 C 
ATOM     48  C   UNL A   1      37.975  28.604  30.149  1.00  0.00     0.029 A 
ATOM     49  C   UNL A   1      38.634  29.841  30.521  1.00  0.00     0.049 A 
ATOM     50  H   UNL A   1      40.692  30.224  30.449  1.00  0.00     0.167 HD
ATOM     51  C   UNL A   1      44.683  31.467  28.982  1.00  0.00     0.037 A 
ATOM     52  C   UNL A   1      38.110  30.993  31.008  1.00  0.00     0.037 A 
ATOM     53  C   UNL A   1      44.885  31.304  30.396  1.00  0.00     0.049 A 
ATOM     54  C   UNL A   1      39.237  31.795  31.542  1.00  0.00     0.074 A 
ATOM     55  C   UNL A   1      45.519  30.359  31.179  1.00  0.00     0.029 A 
ATOM     56  N   UNL A   1      44.063  32.001  31.245  1.00  0.00    -0.354 N 
ATOM     57  N   UNL A   1      39.942  31.462  32.587  1.00  0.00    -0.248 NA
ATOM     58  C   UNL A   1      39.865  32.748  30.639  1.00  0.00     0.031 C 
ATOM     59  C   UNL A   1      44.677  30.207  32.318  1.00  0.00     0.029 A 
ATOM     60  C   UNL A   1      43.626  31.117  32.197  1.00  0.00     0.049 A 
ATOM     61  H   UNL A   1      43.830  32.955  31.182  1.00  0.00     0.167 HD
ATOM     62  C   UNL A   1      41.243  31.818  32.262  1.00  0.00     0.074 A 
ATOM     63  C   UNL A   1      41.120  32.681  31.088  1.00  0.00     0.031 C 
ATOM     64  C   UNL A   1      42.309  31.154  32.792  1.00  0.00     0.037 A 
BRANCH  51  65
ATOM     65  C   UNL A   1      44.864  32.791  28.285  1.00  0.00     0.057 A 
ATOM     66  C   UNL A   1      43.790  33.695  28.202  1.00  0.00     0.134 A 
ATOM     67  C   UNL A   1      45.968  33.094  27.461  1.00  0.00     0.134 A 
ATOM     68  F   UNL A   1      42.664  33.493  28.901  1.00  0.00    -0.206 F 
ATOM     69  C   UNL A   1      43.806  34.800  27.339  1.00  0.00     0.040 A 
ATOM     70  C   UNL A   1      46.016  34.221  26.638  1.00  0.00     0.040 A 
ATOM     71  F   UNL A   1      47.011  32.263  27.334  1.00  0.00    -0.206 F 
ATOM     72  C   UNL A   1      44.923  35.067  26.556  1.00  0.00     0.006 A 
ENDBRANCH  51  65
BRANCH  52  73
ATOM     73  C   UNL A   1      36.777  31.592  30.762  1.00  0.00     0.057 A 
ATOM     74  C   UNL A   1      35.909  31.875  31.828  1.00  0.00     0.134 A 
ATOM     75  C   UNL A   1      36.440  32.171  29.526  1.00  0.00     0.134 A 
ATOM     76  F   UNL A   1      36.162  31.395  33.055  1.00  0.00    -0.206 F 
ATOM     77  C   UNL A   1      34.798  32.717  31.684  1.00  0.00     0.040 A 
ATOM     78  C   UNL A   1      35.330  33.007  29.367  1.00  0.00     0.040 A 
ATOM     79  F   UNL A   1      37.230  32.022  28.452  1.00  0.00    -0.206 F 
ATOM     80  C   UNL A   1      34.514  33.298  30.453  1.00  0.00     0.006 A 
ENDBRANCH  52  73
BRANCH  64  81
ATOM     81  C   UNL A   1      42.061  30.188  33.921  1.00  0.00     0.057 A 
ATOM     82  C   UNL A   1      41.792  28.822  33.746  1.00  0.00     0.134 A 
ATOM     83  C   UNL A   1      42.296  30.620  35.231  1.00  0.00     0.134 A 
ATOM     84  F   UNL A   1      41.641  28.294  32.525  1.00  0.00    -0.206 F 
ATOM     85  C   UNL A   1      41.739  27.935  34.825  1.00  0.00     0.040 A 
ATOM     86  C   UNL A   1      42.280  29.739  36.313  1.00  0.00     0.040 A 
ATOM     87  F   UNL A   1      42.610  31.903  35.472  1.00  0.00    -0.206 F 
ATOM     88  C   UNL A   1      41.997  28.390  36.114  1.00  0.00     0.006 A 
ENDBRANCH  64  81
ENDBRANCH  38  39
ENDBRANCH  30  33
ENDBRANCH  28  29
ENDBRANCH  27  28
ENDBRANCH   1  27
TORSDOF 13
ENDMDL
