MODEL 1
REMARK VINA RESULT:     -10.5      0.000      0.000
REMARK SMILES CC1=C(CCC(=O)NCCCCNC(=O)c2ccc(-c3c4nc(c(-c5c(F)cccc5F)c5ccc([nH]5)c(-c5c(F)cccc5F)c5nc(c(-c6c(F)cccc6F)c6ccc3[nH]6)C=C5)C=C4)cc2)N=N[C@H]1C
REMARK SMILES IDX 10 1 9 2 8 3 6 4 7 5 5 7 4 8 3 9 1 10 2 11 72 12 70 13 71 14
REMARK SMILES IDX 73 15 11 16 12 17 13 18 14 19 15 21 16 22 17 23 69 24 18 25
REMARK SMILES IDX 68 26 19 27 20 28 21 29 62 30 22 31 67 32 61 33 63 34 23 35
REMARK SMILES IDX 66 36 60 37 59 38 24 40 50 41 33 42 49 43 34 44 37 45 48 46
REMARK SMILES IDX 64 47 35 48 36 49 47 51 65 52 38 53 25 54 26 55 31 56 27 57
REMARK SMILES IDX 28 58 30 59 32 60 29 61 51 62 52 63 57 64 53 65 54 66 56 67
REMARK SMILES IDX 58 68 55 69 39 70 40 71 45 72 41 73 42 74 44 75 46 76 43 77
REMARK H PARENT 8 6 13 20 63 39 37 50
REMARK Flexibility Score: inf
ROOT
ATOM      1  C   UNL A   1      34.340  33.184  28.309  1.00  0.00     0.023 C 
ENDROOT
BRANCH   1   2
ATOM      2  C   UNL A   1      34.000  31.688  28.327  1.00  0.00     0.116 C 
BRANCH   2   3
ATOM      3  N   UNL A   1      33.168  31.326  27.196  1.00  0.00    -0.356 N 
ATOM      4  C   UNL A   1      33.018  30.122  26.570  1.00  0.00     0.220 C 
ATOM      5  O   UNL A   1      32.387  30.099  25.511  1.00  0.00    -0.275 OA
ATOM      6  H   UNL A   1      32.628  32.059  26.823  1.00  0.00     0.163 HD
BRANCH   4   7
ATOM      7  C   UNL A   1      33.544  28.831  27.183  1.00  0.00     0.106 C 
BRANCH   7   8
ATOM      8  C   UNL A   1      33.716  27.659  26.206  1.00  0.00     0.068 C 
BRANCH   8   9
ATOM      9  C   UNL A   1      32.470  26.845  26.026  1.00  0.00     0.064 C 
ATOM     10  C   UNL A   1      32.861  25.545  23.845  1.00  0.00     0.044 C 
ATOM     11  C   UNL A   1      32.111  26.047  25.015  1.00  0.00    -0.024 C 
ATOM     12  C   UNL A   1      30.694  25.671  25.288  1.00  0.00     0.153 C 
ATOM     13  N   UNL A   1      31.522  26.856  27.015  1.00  0.00    -0.160 NA
ATOM     14  N   UNL A   1      30.505  26.195  26.664  1.00  0.00    -0.181 NA
ATOM     15  C   UNL A   1      29.718  26.375  24.346  1.00  0.00     0.040 C 
ENDBRANCH   8   9
ENDBRANCH   7   8
ENDBRANCH   4   7
ENDBRANCH   2   3
ENDBRANCH   1   2
BRANCH   1  16
ATOM     16  C   UNL A   1      33.233  34.187  28.626  1.00  0.00     0.023 C 
BRANCH  16  17
ATOM     17  C   UNL A   1      33.724  35.419  29.368  1.00  0.00     0.116 C 
BRANCH  17  18
ATOM     18  N   UNL A   1      32.902  35.803  30.528  1.00  0.00    -0.352 N 
ATOM     19  C   UNL A   1      32.895  35.225  31.799  1.00  0.00     0.251 C 
ATOM     20  H   UNL A   1      32.284  36.558  30.391  1.00  0.00     0.163 HD
ATOM     21  O   UNL A   1      32.007  35.396  32.599  1.00  0.00    -0.269 OA
BRANCH  19  22
ATOM     22  C   UNL A   1      34.081  34.424  32.146  1.00  0.00     0.039 A 
ATOM     23  C   UNL A   1      34.131  33.029  32.037  1.00  0.00     0.014 A 
ATOM     24  C   UNL A   1      35.216  35.181  32.382  1.00  0.00     0.014 A 
ATOM     25  C   UNL A   1      35.380  32.411  32.058  1.00  0.00     0.010 A 
ATOM     26  C   UNL A   1      36.417  34.607  32.109  1.00  0.00     0.010 A 
ATOM     27  C   UNL A   1      36.521  33.222  32.064  1.00  0.00    -0.014 A 
BRANCH  27  28
ATOM     28  C   UNL A   1      37.877  32.716  31.935  1.00  0.00     0.031 A 
ATOM     29  C   UNL A   1      38.615  32.536  33.213  1.00  0.00     0.074 A 
ATOM     30  C   UNL A   1      38.259  32.119  30.782  1.00  0.00     0.049 A 
ATOM     31  N   UNL A   1      39.639  33.200  33.633  1.00  0.00    -0.248 NA
ATOM     32  C   UNL A   1      38.060  31.613  34.218  1.00  0.00     0.031 C 
ATOM     33  C   UNL A   1      37.470  31.891  29.559  1.00  0.00     0.029 A 
ATOM     34  N   UNL A   1      39.399  31.431  30.526  1.00  0.00    -0.354 N 
ATOM     35  C   UNL A   1      40.008  32.609  34.840  1.00  0.00     0.074 A 
ATOM     36  C   UNL A   1      38.872  31.832  35.255  1.00  0.00     0.031 C 
ATOM     37  C   UNL A   1      38.043  30.917  28.822  1.00  0.00     0.029 A 
ATOM     38  C   UNL A   1      39.324  30.596  29.413  1.00  0.00     0.049 A 
ATOM     39  H   UNL A   1      40.209  31.513  31.078  1.00  0.00     0.167 HD
ATOM     40  C   UNL A   1      41.316  32.578  35.235  1.00  0.00     0.037 A 
ATOM     41  C   UNL A   1      40.252  29.674  29.059  1.00  0.00     0.037 A 
ATOM     42  C   UNL A   1      42.108  33.476  34.420  1.00  0.00     0.049 A 
ATOM     43  C   UNL A   1      41.515  30.055  29.754  1.00  0.00     0.074 A 
ATOM     44  C   UNL A   1      42.041  34.823  34.113  1.00  0.00     0.029 A 
ATOM     45  N   UNL A   1      42.901  32.919  33.443  1.00  0.00    -0.354 N 
ATOM     46  N   UNL A   1      42.167  31.160  29.499  1.00  0.00    -0.248 NA
ATOM     47  C   UNL A   1      41.744  29.490  31.077  1.00  0.00     0.031 C 
ATOM     48  C   UNL A   1      42.326  34.889  32.715  1.00  0.00     0.029 A 
ATOM     49  C   UNL A   1      42.653  33.603  32.281  1.00  0.00     0.049 A 
ATOM     50  H   UNL A   1      43.528  32.169  33.556  1.00  0.00     0.167 HD
ATOM     51  C   UNL A   1      42.541  31.654  30.744  1.00  0.00     0.074 A 
ATOM     52  C   UNL A   1      42.303  30.547  31.674  1.00  0.00     0.031 C 
ATOM     53  C   UNL A   1      42.699  32.993  30.969  1.00  0.00     0.037 A 
BRANCH  40  54
ATOM     54  C   UNL A   1      41.970  31.466  36.037  1.00  0.00     0.057 A 
ATOM     55  C   UNL A   1      42.834  31.823  37.093  1.00  0.00     0.134 A 
ATOM     56  C   UNL A   1      42.045  30.113  35.653  1.00  0.00     0.134 A 
ATOM     57  F   UNL A   1      42.842  33.071  37.586  1.00  0.00    -0.206 F 
ATOM     58  C   UNL A   1      43.788  30.946  37.622  1.00  0.00     0.040 A 
ATOM     59  C   UNL A   1      42.962  29.214  36.209  1.00  0.00     0.040 A 
ATOM     60  F   UNL A   1      41.310  29.591  34.667  1.00  0.00    -0.206 F 
ATOM     61  C   UNL A   1      43.869  29.640  37.164  1.00  0.00     0.006 A 
ENDBRANCH  40  54
BRANCH  41  62
ATOM     62  C   UNL A   1      40.005  28.342  28.457  1.00  0.00     0.057 A 
ATOM     63  C   UNL A   1      40.490  28.013  27.185  1.00  0.00     0.134 A 
ATOM     64  C   UNL A   1      39.491  27.269  29.213  1.00  0.00     0.134 A 
ATOM     65  F   UNL A   1      41.042  28.954  26.405  1.00  0.00    -0.206 F 
ATOM     66  C   UNL A   1      40.474  26.697  26.697  1.00  0.00     0.040 A 
ATOM     67  C   UNL A   1      39.462  25.955  28.736  1.00  0.00     0.040 A 
ATOM     68  F   UNL A   1      39.074  27.446  30.476  1.00  0.00    -0.206 F 
ATOM     69  C   UNL A   1      39.966  25.662  27.477  1.00  0.00     0.006 A 
ENDBRANCH  41  62
BRANCH  53  70
ATOM     70  C   UNL A   1      42.670  33.943  29.799  1.00  0.00     0.057 A 
ATOM     71  C   UNL A   1      41.537  34.666  29.396  1.00  0.00     0.134 A 
ATOM     72  C   UNL A   1      43.881  34.297  29.193  1.00  0.00     0.134 A 
ATOM     73  F   UNL A   1      40.351  34.480  29.980  1.00  0.00    -0.206 F 
ATOM     74  C   UNL A   1      41.599  35.669  28.421  1.00  0.00     0.040 A 
ATOM     75  C   UNL A   1      43.965  35.317  28.243  1.00  0.00     0.040 A 
ATOM     76  F   UNL A   1      45.022  33.696  29.567  1.00  0.00    -0.206 F 
ATOM     77  C   UNL A   1      42.820  36.004  27.848  1.00  0.00     0.006 A 
ENDBRANCH  53  70
ENDBRANCH  27  28
ENDBRANCH  19  22
ENDBRANCH  17  18
ENDBRANCH  16  17
ENDBRANCH   1  16
TORSDOF 13
ENDMDL
MODEL 2
REMARK VINA RESULT:     -10.5      5.612     10.682
REMARK SMILES CC1=C(CCC(=O)NCCCCNC(=O)c2ccc(-c3c4nc(c(-c5c(F)cccc5F)c5ccc([nH]5)c(-c5c(F)cccc5F)c5nc(c(-c6c(F)cccc6F)c6ccc3[nH]6)C=C5)C=C4)cc2)N=N[C@H]1C
REMARK SMILES IDX 10 1 9 2 8 3 6 4 7 5 5 7 4 8 3 9 1 10 2 11 72 12 70 13 71 14
REMARK SMILES IDX 73 15 11 16 12 17 13 18 14 19 15 21 16 22 17 23 69 24 18 25
REMARK SMILES IDX 68 26 19 27 20 28 21 29 62 30 22 31 67 32 61 33 63 34 23 35
REMARK SMILES IDX 66 36 60 37 59 38 24 40 50 41 33 42 49 43 34 44 37 45 48 46
REMARK SMILES IDX 64 47 35 48 36 49 47 51 65 52 38 53 25 54 26 55 31 56 27 57
REMARK SMILES IDX 28 58 30 59 32 60 29 61 51 62 52 63 57 64 53 65 54 66 56 67
REMARK SMILES IDX 58 68 55 69 39 70 40 71 45 72 41 73 42 74 44 75 46 76 43 77
REMARK H PARENT 8 6 13 20 63 39 37 50
REMARK Flexibility Score: inf
ROOT
ATOM      1  C   UNL A   1      40.966  20.747  26.590  1.00  0.00     0.023 C 
ENDROOT
BRANCH   1   2
ATOM      2  C   UNL A   1      39.577  21.112  26.051  1.00  0.00     0.116 C 
BRANCH   2   3
ATOM      3  N   UNL A   1      39.113  22.369  26.605  1.00  0.00    -0.356 N 
ATOM      4  C   UNL A   1      38.184  23.246  26.126  1.00  0.00     0.220 C 
ATOM      5  O   UNL A   1      38.087  24.343  26.683  1.00  0.00    -0.275 OA
ATOM      6  H   UNL A   1      39.532  22.630  27.456  1.00  0.00     0.163 HD
BRANCH   4   7
ATOM      7  C   UNL A   1      37.240  22.872  24.992  1.00  0.00     0.106 C 
BRANCH   7   8
ATOM      8  C   UNL A   1      36.115  23.878  24.708  1.00  0.00     0.068 C 
BRANCH   8   9
ATOM      9  C   UNL A   1      34.756  23.376  25.092  1.00  0.00     0.064 C 
ATOM     10  C   UNL A   1      33.505  25.467  25.908  1.00  0.00     0.044 C 
ATOM     11  C   UNL A   1      33.732  24.030  25.651  1.00  0.00    -0.024 C 
ATOM     12  C   UNL A   1      32.726  22.981  25.987  1.00  0.00     0.153 C 
ATOM     13  N   UNL A   1      34.438  22.067  24.845  1.00  0.00    -0.160 NA
ATOM     14  N   UNL A   1      33.297  21.791  25.309  1.00  0.00    -0.181 NA
ATOM     15  C   UNL A   1      32.651  22.714  27.491  1.00  0.00     0.040 C 
ENDBRANCH   8   9
ENDBRANCH   7   8
ENDBRANCH   4   7
ENDBRANCH   2   3
ENDBRANCH   1   2
BRANCH   1  16
ATOM     16  C   UNL A   1      41.601  19.433  26.140  1.00  0.00     0.023 C 
BRANCH  16  17
ATOM     17  C   UNL A   1      43.095  19.359  26.405  1.00  0.00     0.116 C 
BRANCH  17  18
ATOM     18  N   UNL A   1      43.908  18.992  25.233  1.00  0.00    -0.352 N 
ATOM     19  C   UNL A   1      44.431  19.844  24.257  1.00  0.00     0.251 C 
ATOM     20  H   UNL A   1      44.105  18.034  25.124  1.00  0.00     0.163 HD
ATOM     21  O   UNL A   1      44.834  19.455  23.186  1.00  0.00    -0.269 OA
BRANCH  19  22
ATOM     22  C   UNL A   1      44.526  21.265  24.629  1.00  0.00     0.039 A 
ATOM     23  C   UNL A   1      43.572  22.224  24.268  1.00  0.00     0.014 A 
ATOM     24  C   UNL A   1      45.525  21.536  25.550  1.00  0.00     0.014 A 
ATOM     25  C   UNL A   1      43.573  23.442  24.947  1.00  0.00     0.010 A 
ATOM     26  C   UNL A   1      45.332  22.588  26.388  1.00  0.00     0.010 A 
ATOM     27  C   UNL A   1      44.445  23.597  26.030  1.00  0.00    -0.014 A 
BRANCH  27  28
ATOM     28  C   UNL A   1      44.445  24.750  26.914  1.00  0.00     0.031 A 
ATOM     29  C   UNL A   1      45.500  25.762  26.642  1.00  0.00     0.074 A 
ATOM     30  C   UNL A   1      43.345  25.024  27.652  1.00  0.00     0.049 A 
ATOM     31  N   UNL A   1      46.515  26.061  27.382  1.00  0.00    -0.248 NA
ATOM     32  C   UNL A   1      45.522  26.413  25.321  1.00  0.00     0.031 C 
ATOM     33  C   UNL A   1      42.069  24.290  27.709  1.00  0.00     0.029 A 
ATOM     34  N   UNL A   1      43.076  26.132  28.388  1.00  0.00    -0.354 N 
ATOM     35  C   UNL A   1      47.160  27.115  26.735  1.00  0.00     0.074 A 
ATOM     36  C   UNL A   1      46.661  27.106  25.387  1.00  0.00     0.031 C 
ATOM     37  C   UNL A   1      41.105  25.090  28.209  1.00  0.00     0.029 A 
ATOM     38  C   UNL A   1      41.726  26.307  28.684  1.00  0.00     0.049 A 
ATOM     39  H   UNL A   1      43.775  26.758  28.685  1.00  0.00     0.167 HD
ATOM     40  C   UNL A   1      47.820  28.076  27.447  1.00  0.00     0.037 A 
ATOM     41  C   UNL A   1      41.182  27.417  29.238  1.00  0.00     0.037 A 
ATOM     42  C   UNL A   1      47.994  27.651  28.821  1.00  0.00     0.049 A 
ATOM     43  C   UNL A   1      42.300  28.158  29.890  1.00  0.00     0.074 A 
ATOM     44  C   UNL A   1      48.562  26.548  29.432  1.00  0.00     0.029 A 
ATOM     45  N   UNL A   1      47.170  28.210  29.771  1.00  0.00    -0.354 N 
ATOM     46  N   UNL A   1      42.973  27.688  30.909  1.00  0.00    -0.248 NA
ATOM     47  C   UNL A   1      43.004  29.145  29.083  1.00  0.00     0.031 C 
ATOM     48  C   UNL A   1      47.652  26.208  30.480  1.00  0.00     0.029 A 
ATOM     49  C   UNL A   1      46.650  27.180  30.512  1.00  0.00     0.049 A 
ATOM     50  H   UNL A   1      46.986  29.169  29.895  1.00  0.00     0.167 HD
ATOM     51  C   UNL A   1      44.302  27.984  30.631  1.00  0.00     0.074 A 
ATOM     52  C   UNL A   1      44.251  28.937  29.520  1.00  0.00     0.031 C 
ATOM     53  C   UNL A   1      45.325  27.203  31.094  1.00  0.00     0.037 A 
BRANCH  40  54
ATOM     54  C   UNL A   1      47.935  29.540  27.060  1.00  0.00     0.057 A 
ATOM     55  C   UNL A   1      49.186  30.175  27.209  1.00  0.00     0.134 A 
ATOM     56  C   UNL A   1      46.855  30.419  26.846  1.00  0.00     0.134 A 
ATOM     57  F   UNL A   1      50.307  29.458  27.382  1.00  0.00    -0.206 F 
ATOM     58  C   UNL A   1      49.325  31.566  27.284  1.00  0.00     0.040 A 
ATOM     59  C   UNL A   1      46.992  31.812  26.871  1.00  0.00     0.040 A 
ATOM     60  F   UNL A   1      45.595  30.004  26.691  1.00  0.00    -0.206 F 
ATOM     61  C   UNL A   1      48.220  32.390  27.135  1.00  0.00     0.006 A 
ENDBRANCH  40  54
BRANCH  41  62
ATOM     62  C   UNL A   1      39.858  28.011  28.934  1.00  0.00     0.057 A 
ATOM     63  C   UNL A   1      38.839  28.055  29.892  1.00  0.00     0.134 A 
ATOM     64  C   UNL A   1      39.637  28.772  27.768  1.00  0.00     0.134 A 
ATOM     65  F   UNL A   1      38.973  27.403  31.056  1.00  0.00    -0.206 F 
ATOM     66  C   UNL A   1      37.673  28.815  29.708  1.00  0.00     0.040 A 
ATOM     67  C   UNL A   1      38.476  29.528  27.568  1.00  0.00     0.040 A 
ATOM     68  F   UNL A   1      40.576  28.875  26.816  1.00  0.00    -0.206 F 
ATOM     69  C   UNL A   1      37.493  29.560  28.546  1.00  0.00     0.006 A 
ENDBRANCH  41  62
BRANCH  53  70
ATOM     70  C   UNL A   1      45.025  26.117  32.095  1.00  0.00     0.057 A 
ATOM     71  C   UNL A   1      44.729  24.787  31.754  1.00  0.00     0.134 A 
ATOM     72  C   UNL A   1      45.251  26.374  33.451  1.00  0.00     0.134 A 
ATOM     73  F   UNL A   1      44.595  24.411  30.479  1.00  0.00    -0.206 F 
ATOM     74  C   UNL A   1      44.635  23.774  32.714  1.00  0.00     0.040 A 
ATOM     75  C   UNL A   1      45.192  25.368  34.418  1.00  0.00     0.040 A 
ATOM     76  F   UNL A   1      45.599  27.607  33.854  1.00  0.00    -0.206 F 
ATOM     77  C   UNL A   1      44.877  24.062  34.052  1.00  0.00     0.006 A 
ENDBRANCH  53  70
ENDBRANCH  27  28
ENDBRANCH  19  22
ENDBRANCH  17  18
ENDBRANCH  16  17
ENDBRANCH   1  16
TORSDOF 13
ENDMDL
MODEL 3
REMARK VINA RESULT:     -10.3      2.074      6.308
REMARK SMILES CC1=C(CCC(=O)NCCCCNC(=O)c2ccc(-c3c4nc(c(-c5c(F)cccc5F)c5ccc([nH]5)c(-c5c(F)cccc5F)c5nc(c(-c6c(F)cccc6F)c6ccc3[nH]6)C=C5)C=C4)cc2)N=N[C@H]1C
REMARK SMILES IDX 10 1 9 2 8 3 6 4 7 5 5 7 4 8 3 9 1 10 2 11 72 12 70 13 71 14
REMARK SMILES IDX 73 15 11 16 12 17 13 18 14 19 15 21 16 22 17 23 69 24 18 25
REMARK SMILES IDX 68 26 19 27 20 28 21 29 62 30 22 31 67 32 61 33 63 34 23 35
REMARK SMILES IDX 66 36 60 37 59 38 24 40 50 41 33 42 49 43 34 44 37 45 48 46
REMARK SMILES IDX 64 47 35 48 36 49 47 51 65 52 38 53 25 54 26 55 31 56 27 57
REMARK SMILES IDX 28 58 30 59 32 60 29 61 51 62 52 63 57 64 53 65 54 66 56 67
REMARK SMILES IDX 58 68 55 69 39 70 40 71 45 72 41 73 42 74 44 75 46 76 43 77
REMARK H PARENT 8 6 13 20 63 39 37 50
REMARK Flexibility Score: inf
ROOT
ATOM      1  C   UNL A   1      32.123  30.125  26.811  1.00  0.00     0.023 C 
ENDROOT
BRANCH   1   2
ATOM      2  C   UNL A   1      33.562  29.638  26.596  1.00  0.00     0.116 C 
BRANCH   2   3
ATOM      3  N   UNL A   1      33.857  29.481  25.185  1.00  0.00    -0.356 N 
ATOM      4  C   UNL A   1      33.733  28.384  24.382  1.00  0.00     0.220 C 
ATOM      5  O   UNL A   1      34.219  28.442  23.250  1.00  0.00    -0.275 OA
ATOM      6  H   UNL A   1      34.198  30.288  24.737  1.00  0.00     0.163 HD
BRANCH   4   7
ATOM      7  C   UNL A   1      32.961  27.150  24.828  1.00  0.00     0.106 C 
BRANCH   7   8
ATOM      8  C   UNL A   1      33.738  26.170  25.719  1.00  0.00     0.068 C 
BRANCH   8   9
ATOM      9  C   UNL A   1      32.889  25.065  26.271  1.00  0.00     0.064 C 
ATOM     10  C   UNL A   1      34.442  23.019  26.312  1.00  0.00     0.044 C 
ATOM     11  C   UNL A   1      33.175  23.769  26.434  1.00  0.00    -0.024 C 
ATOM     12  C   UNL A   1      31.890  23.124  26.828  1.00  0.00     0.153 C 
ATOM     13  N   UNL A   1      31.626  25.357  26.714  1.00  0.00    -0.160 NA
ATOM     14  N   UNL A   1      31.021  24.305  27.060  1.00  0.00    -0.181 NA
ATOM     15  C   UNL A   1      31.297  22.279  25.700  1.00  0.00     0.040 C 
ENDBRANCH   8   9
ENDBRANCH   7   8
ENDBRANCH   4   7
ENDBRANCH   2   3
ENDBRANCH   1   2
BRANCH   1  16
ATOM     16  C   UNL A   1      31.855  31.628  26.815  1.00  0.00     0.023 C 
BRANCH  16  17
ATOM     17  C   UNL A   1      32.949  32.437  27.491  1.00  0.00     0.116 C 
BRANCH  17  18
ATOM     18  N   UNL A   1      32.595  33.841  27.761  1.00  0.00    -0.352 N 
ATOM     19  C   UNL A   1      33.100  34.671  28.765  1.00  0.00     0.251 C 
ATOM     20  H   UNL A   1      31.923  34.241  27.163  1.00  0.00     0.163 HD
ATOM     21  O   UNL A   1      32.565  35.699  29.105  1.00  0.00    -0.269 OA
BRANCH  19  22
ATOM     22  C   UNL A   1      34.380  34.251  29.361  1.00  0.00     0.039 A 
ATOM     23  C   UNL A   1      34.473  33.438  30.496  1.00  0.00     0.014 A 
ATOM     24  C   UNL A   1      35.484  34.550  28.581  1.00  0.00     0.014 A 
ATOM     25  C   UNL A   1      35.696  32.827  30.770  1.00  0.00     0.010 A 
ATOM     26  C   UNL A   1      36.563  33.733  28.689  1.00  0.00     0.010 A 
ATOM     27  C   UNL A   1      36.728  32.962  29.834  1.00  0.00    -0.014 A 
BRANCH  27  28
ATOM     28  C   UNL A   1      37.997  32.259  29.919  1.00  0.00     0.031 A 
ATOM     29  C   UNL A   1      38.023  30.911  29.292  1.00  0.00     0.074 A 
ATOM     30  C   UNL A   1      39.124  32.950  30.208  1.00  0.00     0.049 A 
ATOM     31  N   UNL A   1      38.137  29.769  29.882  1.00  0.00    -0.248 NA
ATOM     32  C   UNL A   1      37.730  30.803  27.852  1.00  0.00     0.031 C 
ATOM     33  C   UNL A   1      39.277  34.391  30.472  1.00  0.00     0.029 A 
ATOM     34  N   UNL A   1      40.411  32.525  30.156  1.00  0.00    -0.354 N 
ATOM     35  C   UNL A   1      38.186  28.817  28.864  1.00  0.00     0.074 A 
ATOM     36  C   UNL A   1      37.682  29.479  27.691  1.00  0.00     0.031 C 
ATOM     37  C   UNL A   1      40.565  34.752  30.295  1.00  0.00     0.029 A 
ATOM     38  C   UNL A   1      41.350  33.553  30.101  1.00  0.00     0.049 A 
ATOM     39  H   UNL A   1      40.661  31.573  30.156  1.00  0.00     0.167 HD
ATOM     40  C   UNL A   1      38.908  27.667  29.012  1.00  0.00     0.037 A 
ATOM     41  C   UNL A   1      42.673  33.395  29.858  1.00  0.00     0.037 A 
ATOM     42  C   UNL A   1      39.288  27.489  30.398  1.00  0.00     0.049 A 
ATOM     43  C   UNL A   1      42.991  31.967  30.148  1.00  0.00     0.074 A 
ATOM     44  C   UNL A   1      38.597  27.427  31.595  1.00  0.00     0.029 A 
ATOM     45  N   UNL A   1      40.591  27.770  30.744  1.00  0.00    -0.354 N 
ATOM     46  N   UNL A   1      42.903  31.441  31.343  1.00  0.00    -0.248 NA
ATOM     47  C   UNL A   1      42.876  31.023  29.045  1.00  0.00     0.031 C 
ATOM     48  C   UNL A   1      39.384  28.196  32.506  1.00  0.00     0.029 A 
ATOM     49  C   UNL A   1      40.550  28.586  31.845  1.00  0.00     0.049 A 
ATOM     50  H   UNL A   1      41.400  27.447  30.287  1.00  0.00     0.167 HD
ATOM     51  C   UNL A   1      42.305  30.202  31.149  1.00  0.00     0.074 A 
ATOM     52  C   UNL A   1      42.368  29.976  29.703  1.00  0.00     0.031 C 
ATOM     53  C   UNL A   1      41.529  29.617  32.112  1.00  0.00     0.037 A 
BRANCH  40  54
ATOM     54  C   UNL A   1      39.635  26.931  27.900  1.00  0.00     0.057 A 
ATOM     55  C   UNL A   1      39.621  25.521  27.912  1.00  0.00     0.134 A 
ATOM     56  C   UNL A   1      40.577  27.499  27.020  1.00  0.00     0.134 A 
ATOM     57  F   UNL A   1      38.749  24.845  28.676  1.00  0.00    -0.206 F 
ATOM     58  C   UNL A   1      40.558  24.748  27.216  1.00  0.00     0.040 A 
ATOM     59  C   UNL A   1      41.487  26.733  26.283  1.00  0.00     0.040 A 
ATOM     60  F   UNL A   1      40.743  28.817  26.878  1.00  0.00    -0.206 F 
ATOM     61  C   UNL A   1      41.511  25.356  26.413  1.00  0.00     0.006 A 
ENDBRANCH  40  54
BRANCH  41  62
ATOM     62  C   UNL A   1      43.555  34.301  29.084  1.00  0.00     0.057 A 
ATOM     63  C   UNL A   1      43.799  34.094  27.721  1.00  0.00     0.134 A 
ATOM     64  C   UNL A   1      43.991  35.536  29.603  1.00  0.00     0.134 A 
ATOM     65  F   UNL A   1      43.383  32.970  27.119  1.00  0.00    -0.206 F 
ATOM     66  C   UNL A   1      44.431  35.058  26.920  1.00  0.00     0.040 A 
ATOM     67  C   UNL A   1      44.628  36.503  28.819  1.00  0.00     0.040 A 
ATOM     68  F   UNL A   1      43.739  35.883  30.875  1.00  0.00    -0.206 F 
ATOM     69  C   UNL A   1      44.841  36.270  27.468  1.00  0.00     0.006 A 
ENDBRANCH  41  62
BRANCH  53  70
ATOM     70  C   UNL A   1      41.486  30.228  33.490  1.00  0.00     0.057 A 
ATOM     71  C   UNL A   1      40.516  31.150  33.915  1.00  0.00     0.134 A 
ATOM     72  C   UNL A   1      42.325  29.707  34.480  1.00  0.00     0.134 A 
ATOM     73  F   UNL A   1      39.600  31.632  33.072  1.00  0.00    -0.206 F 
ATOM     74  C   UNL A   1      40.405  31.553  35.251  1.00  0.00     0.040 A 
ATOM     75  C   UNL A   1      42.206  30.075  35.822  1.00  0.00     0.040 A 
ATOM     76  F   UNL A   1      43.239  28.775  34.166  1.00  0.00    -0.206 F 
ATOM     77  C   UNL A   1      41.248  31.006  36.212  1.00  0.00     0.006 A 
ENDBRANCH  53  70
ENDBRANCH  27  28
ENDBRANCH  19  22
ENDBRANCH  17  18
ENDBRANCH  16  17
ENDBRANCH   1  16
TORSDOF 13
ENDMDL
