MODEL 1
REMARK VINA RESULT:     -12.1      0.000      0.000
REMARK SMILES O=C(C[C@H](NC(=O)[C@]12C[C@H]3C[C@H](C[C@H](C3)C1)C2)c1ccc(Cl)cc1Cl)NCCCCNC(=O)c1ccc(-c2c3nc(c(-c4c(F)cccc4F)c4ccc([nH]4)c(-c4c(F)cccc4F)c4nc(c(-c5c(F)cccc5F)c5ccc2[nH]5)C=C4)C=C3)cc1
REMARK SMILES IDX 28 1 27 2 26 3 1 4 2 5 3 7 4 8 18 9 19 10 24 11 20 12 23 13
REMARK SMILES IDX 25 14 21 15 22 16 5 17 6 18 7 20 8 21 9 22 16 23 17 24 10 25
REMARK SMILES IDX 14 26 12 27 11 28 15 29 13 30 29 31 30 32 31 33 32 34 33 36
REMARK SMILES IDX 34 37 35 38 87 39 36 40 86 41 37 42 38 43 39 44 80 45 40 46
REMARK SMILES IDX 85 47 79 48 81 49 41 50 84 51 78 52 77 53 42 55 68 56 51 57
REMARK SMILES IDX 67 58 52 59 55 60 66 61 82 62 53 63 54 64 65 66 83 67 56 68
REMARK SMILES IDX 43 69 44 70 49 71 45 72 46 73 48 74 50 75 47 76 69 77 70 78
REMARK SMILES IDX 75 79 71 80 72 81 74 82 76 83 73 84 57 85 58 86 63 87 59 88
REMARK SMILES IDX 60 89 62 90 64 91 61 92
REMARK H PARENT 26 6 5 19 31 35 81 54 55 65
REMARK Flexibility Score: inf
ROOT
ATOM      1  C   UNL A   1      31.248  30.464  24.952  1.00  0.00     0.023 C 
ENDROOT
BRANCH   1   2
ATOM      2  C   UNL A   1      30.119  30.029  24.022  1.00  0.00     0.116 C 
BRANCH   2   3
ATOM      3  N   UNL A   1      29.785  28.633  24.191  1.00  0.00    -0.356 N 
ATOM      4  O   UNL A   1      30.334  27.918  22.074  1.00  0.00    -0.275 OA
ATOM      5  C   UNL A   1      29.980  27.680  23.220  1.00  0.00     0.222 C 
ATOM      6  H   UNL A   1      29.397  28.349  25.050  1.00  0.00     0.163 HD
BRANCH   5   7
ATOM      7  C   UNL A   1      29.713  26.280  23.721  1.00  0.00     0.129 C 
BRANCH   7   8
ATOM      8  C   UNL A   1      30.910  25.564  24.373  1.00  0.00     0.123 C 
BRANCH   8   9
ATOM      9  C   UNL A   1      31.807  26.458  25.240  1.00  0.00    -0.006 A 
ATOM     10  C   UNL A   1      31.425  26.881  26.528  1.00  0.00     0.009 A 
ATOM     11  C   UNL A   1      33.044  26.940  24.738  1.00  0.00     0.047 A 
ATOM     12  C   UNL A   1      32.233  27.751  27.271  1.00  0.00     0.021 A 
ATOM     13  C   UNL A   1      33.821  27.849  25.463  1.00  0.00     0.041 A 
ATOM     14  Cl  UNL A   1      33.675  26.461  23.199  1.00  0.00    -0.084 Cl
ATOM     15  C   UNL A   1      33.410  28.251  26.725  1.00  0.00     0.042 A 
ATOM     16  Cl  UNL A   1      34.345  29.389  27.610  1.00  0.00    -0.084 Cl
ENDBRANCH   8   9
BRANCH   8  17
ATOM     17  N   UNL A   1      30.409  24.392  25.108  1.00  0.00    -0.348 N 
ATOM     18  C   UNL A   1      30.959  23.228  25.526  1.00  0.00     0.226 C 
ATOM     19  H   UNL A   1      29.458  24.471  25.349  1.00  0.00     0.164 HD
ATOM     20  O   UNL A   1      30.135  22.417  25.971  1.00  0.00    -0.274 OA
BRANCH  18  21
ATOM     21  C   UNL A   1      32.448  22.840  25.420  1.00  0.00     0.050 C 
ATOM     22  C   UNL A   1      33.131  23.115  24.066  1.00  0.00     0.020 C 
ATOM     23  C   UNL A   1      32.637  21.346  25.783  1.00  0.00     0.020 C 
ATOM     24  C   UNL A   1      33.208  23.668  26.505  1.00  0.00     0.020 C 
ATOM     25  C   UNL A   1      34.625  22.769  24.099  1.00  0.00    -0.010 C 
ATOM     26  C   UNL A   1      34.134  20.975  25.798  1.00  0.00    -0.010 C 
ATOM     27  C   UNL A   1      34.701  23.313  26.543  1.00  0.00    -0.010 C 
ATOM     28  C   UNL A   1      35.320  23.610  25.172  1.00  0.00     0.007 C 
ATOM     29  C   UNL A   1      34.761  21.272  24.426  1.00  0.00     0.007 C 
ATOM     30  C   UNL A   1      34.856  21.817  26.863  1.00  0.00     0.007 C 
ENDBRANCH  18  21
ENDBRANCH   8  17
ENDBRANCH   7   8
ENDBRANCH   5   7
ENDBRANCH   2   3
ENDBRANCH   1   2
BRANCH   1  31
ATOM     31  C   UNL A   1      30.968  31.711  25.798  1.00  0.00     0.023 C 
BRANCH  31  32
ATOM     32  C   UNL A   1      32.018  32.054  26.850  1.00  0.00     0.116 C 
BRANCH  32  33
ATOM     33  N   UNL A   1      31.995  33.448  27.247  1.00  0.00    -0.352 N 
ATOM     34  C   UNL A   1      32.885  34.140  28.032  1.00  0.00     0.251 C 
ATOM     35  H   UNL A   1      31.235  33.972  26.907  1.00  0.00     0.163 HD
ATOM     36  O   UNL A   1      32.640  35.290  28.380  1.00  0.00    -0.269 OA
BRANCH  34  37
ATOM     37  C   UNL A   1      34.126  33.482  28.492  1.00  0.00     0.039 A 
ATOM     38  C   UNL A   1      35.334  33.837  27.889  1.00  0.00     0.014 A 
ATOM     39  C   UNL A   1      34.103  32.532  29.517  1.00  0.00     0.014 A 
ATOM     40  C   UNL A   1      36.529  33.291  28.360  1.00  0.00     0.010 A 
ATOM     41  C   UNL A   1      35.300  32.032  30.026  1.00  0.00     0.010 A 
ATOM     42  C   UNL A   1      36.526  32.413  29.456  1.00  0.00    -0.014 A 
BRANCH  42  43
ATOM     43  C   UNL A   1      37.800  31.904  30.028  1.00  0.00     0.031 A 
ATOM     44  C   UNL A   1      38.424  30.642  29.502  1.00  0.00     0.074 A 
ATOM     45  C   UNL A   1      38.370  32.555  31.061  1.00  0.00     0.049 A 
ATOM     46  N   UNL A   1      39.505  30.025  29.905  1.00  0.00    -0.248 NA
ATOM     47  C   UNL A   1      37.728  29.973  28.392  1.00  0.00     0.031 C 
ATOM     48  C   UNL A   1      37.845  33.767  31.692  1.00  0.00     0.029 A 
ATOM     49  N   UNL A   1      39.515  32.281  31.770  1.00  0.00    -0.354 N 
ATOM     50  C   UNL A   1      39.614  28.891  29.110  1.00  0.00     0.074 A 
ATOM     51  C   UNL A   1      38.463  28.882  28.232  1.00  0.00     0.031 C 
ATOM     52  C   UNL A   1      38.676  34.146  32.677  1.00  0.00     0.029 A 
ATOM     53  C   UNL A   1      39.773  33.187  32.770  1.00  0.00     0.049 A 
ATOM     54  H   UNL A   1      40.095  31.510  31.578  1.00  0.00     0.167 HD
ATOM     55  C   UNL A   1      40.593  27.956  29.098  1.00  0.00     0.037 A 
ATOM     56  C   UNL A   1      40.778  33.238  33.665  1.00  0.00     0.037 A 
ATOM     57  C   UNL A   1      41.750  27.979  29.953  1.00  0.00     0.049 A 
ATOM     58  C   UNL A   1      41.847  32.182  33.635  1.00  0.00     0.074 A 
ATOM     59  C   UNL A   1      42.829  27.111  29.968  1.00  0.00     0.029 A 
ATOM     60  N   UNL A   1      41.980  28.917  30.948  1.00  0.00    -0.354 N 
ATOM     61  N   UNL A   1      41.973  31.156  32.830  1.00  0.00    -0.248 NA
ATOM     62  C   UNL A   1      42.917  32.295  34.637  1.00  0.00     0.031 C 
ATOM     63  C   UNL A   1      43.690  27.498  31.000  1.00  0.00     0.029 A 
ATOM     64  C   UNL A   1      43.171  28.634  31.599  1.00  0.00     0.049 A 
ATOM     65  H   UNL A   1      41.385  29.672  31.161  1.00  0.00     0.167 HD
ATOM     66  C   UNL A   1      43.148  30.519  33.207  1.00  0.00     0.074 A 
ATOM     67  C   UNL A   1      43.703  31.280  34.306  1.00  0.00     0.031 C 
ATOM     68  C   UNL A   1      43.716  29.404  32.688  1.00  0.00     0.037 A 
BRANCH  55  69
ATOM     69  C   UNL A   1      40.454  26.822  28.123  1.00  0.00     0.057 A 
ATOM     70  C   UNL A   1      41.133  26.813  26.899  1.00  0.00     0.134 A 
ATOM     71  C   UNL A   1      39.661  25.709  28.431  1.00  0.00     0.134 A 
ATOM     72  F   UNL A   1      41.901  27.853  26.539  1.00  0.00    -0.206 F 
ATOM     73  C   UNL A   1      41.009  25.749  26.003  1.00  0.00     0.040 A 
ATOM     74  C   UNL A   1      39.549  24.629  27.555  1.00  0.00     0.040 A 
ATOM     75  F   UNL A   1      38.987  25.651  29.590  1.00  0.00    -0.206 F 
ATOM     76  C   UNL A   1      40.220  24.650  26.334  1.00  0.00     0.006 A 
ENDBRANCH  55  69
BRANCH  56  77
ATOM     77  C   UNL A   1      40.837  34.345  34.653  1.00  0.00     0.057 A 
ATOM     78  C   UNL A   1      40.210  34.231  35.898  1.00  0.00     0.134 A 
ATOM     79  C   UNL A   1      41.509  35.540  34.376  1.00  0.00     0.134 A 
ATOM     80  F   UNL A   1      39.533  33.116  36.213  1.00  0.00    -0.206 F 
ATOM     81  C   UNL A   1      40.231  35.273  36.826  1.00  0.00     0.040 A 
ATOM     82  C   UNL A   1      41.560  36.582  35.303  1.00  0.00     0.040 A 
ATOM     83  F   UNL A   1      42.137  35.708  33.202  1.00  0.00    -0.206 F 
ATOM     84  C   UNL A   1      40.912  36.452  36.531  1.00  0.00     0.006 A 
ENDBRANCH  56  77
BRANCH  68  85
ATOM     85  C   UNL A   1      45.021  28.958  33.278  1.00  0.00     0.057 A 
ATOM     86  C   UNL A   1      46.249  29.437  32.805  1.00  0.00     0.134 A 
ATOM     87  C   UNL A   1      45.047  28.067  34.359  1.00  0.00     0.134 A 
ATOM     88  F   UNL A   1      46.293  30.282  31.763  1.00  0.00    -0.206 F 
ATOM     89  C   UNL A   1      47.457  29.029  33.372  1.00  0.00     0.040 A 
ATOM     90  C   UNL A   1      46.246  27.671  34.950  1.00  0.00     0.040 A 
ATOM     91  F   UNL A   1      43.905  27.577  34.866  1.00  0.00    -0.206 F 
ATOM     92  C   UNL A   1      47.458  28.147  34.452  1.00  0.00     0.006 A 
ENDBRANCH  68  85
ENDBRANCH  42  43
ENDBRANCH  34  37
ENDBRANCH  32  33
ENDBRANCH  31  32
ENDBRANCH   1  31
TORSDOF 15
ENDMDL
MODEL 2
REMARK VINA RESULT:     -12.0      1.870      6.433
REMARK SMILES O=C(C[C@H](NC(=O)[C@]12C[C@H]3C[C@H](C[C@H](C3)C1)C2)c1ccc(Cl)cc1Cl)NCCCCNC(=O)c1ccc(-c2c3nc(c(-c4c(F)cccc4F)c4ccc([nH]4)c(-c4c(F)cccc4F)c4nc(c(-c5c(F)cccc5F)c5ccc2[nH]5)C=C4)C=C3)cc1
REMARK SMILES IDX 28 1 27 2 26 3 1 4 2 5 3 7 4 8 18 9 19 10 24 11 20 12 23 13
REMARK SMILES IDX 25 14 21 15 22 16 5 17 6 18 7 20 8 21 9 22 16 23 17 24 10 25
REMARK SMILES IDX 14 26 12 27 11 28 15 29 13 30 29 31 30 32 31 33 32 34 33 36
REMARK SMILES IDX 34 37 35 38 87 39 36 40 86 41 37 42 38 43 39 44 80 45 40 46
REMARK SMILES IDX 85 47 79 48 81 49 41 50 84 51 78 52 77 53 42 55 68 56 51 57
REMARK SMILES IDX 67 58 52 59 55 60 66 61 82 62 53 63 54 64 65 66 83 67 56 68
REMARK SMILES IDX 43 69 44 70 49 71 45 72 46 73 48 74 50 75 47 76 69 77 70 78
REMARK SMILES IDX 75 79 71 80 72 81 74 82 76 83 73 84 57 85 58 86 63 87 59 88
REMARK SMILES IDX 60 89 62 90 64 91 61 92
REMARK H PARENT 26 6 5 19 31 35 81 54 55 65
REMARK Flexibility Score: inf
ROOT
ATOM      1  C   UNL A   1      31.619  30.820  26.508  1.00  0.00     0.023 C 
ENDROOT
BRANCH   1   2
ATOM      2  C   UNL A   1      33.073  30.367  26.408  1.00  0.00     0.116 C 
BRANCH   2   3
ATOM      3  N   UNL A   1      33.300  29.527  25.253  1.00  0.00    -0.356 N 
ATOM      4  O   UNL A   1      33.631  27.542  26.368  1.00  0.00    -0.275 OA
ATOM      5  C   UNL A   1      33.498  28.169  25.327  1.00  0.00     0.222 C 
ATOM      6  H   UNL A   1      33.313  29.951  24.365  1.00  0.00     0.163 HD
BRANCH   5   7
ATOM      7  C   UNL A   1      33.532  27.515  23.966  1.00  0.00     0.129 C 
BRANCH   7   8
ATOM      8  C   UNL A   1      32.247  26.775  23.548  1.00  0.00     0.123 C 
BRANCH   8   9
ATOM      9  C   UNL A   1      31.097  27.683  23.091  1.00  0.00    -0.006 A 
ATOM     10  C   UNL A   1      31.318  28.858  22.347  1.00  0.00     0.009 A 
ATOM     11  C   UNL A   1      29.759  27.389  23.460  1.00  0.00     0.047 A 
ATOM     12  C   UNL A   1      30.255  29.703  22.001  1.00  0.00     0.021 A 
ATOM     13  C   UNL A   1      28.710  28.262  23.155  1.00  0.00     0.041 A 
ATOM     14  Cl  UNL A   1      29.323  25.952  24.322  1.00  0.00    -0.084 Cl
ATOM     15  C   UNL A   1      28.965  29.416  22.429  1.00  0.00     0.042 A 
ATOM     16  Cl  UNL A   1      27.685  30.507  22.076  1.00  0.00    -0.084 Cl
ENDBRANCH   8   9
BRANCH   8  17
ATOM     17  N   UNL A   1      32.599  25.764  22.538  1.00  0.00    -0.348 N 
ATOM     18  C   UNL A   1      32.979  24.466  22.588  1.00  0.00     0.226 C 
ATOM     19  H   UNL A   1      32.547  26.110  21.618  1.00  0.00     0.164 HD
ATOM     20  O   UNL A   1      33.356  24.013  21.498  1.00  0.00    -0.274 OA
BRANCH  18  21
ATOM     21  C   UNL A   1      33.043  23.589  23.855  1.00  0.00     0.050 C 
ATOM     22  C   UNL A   1      33.791  24.186  25.063  1.00  0.00     0.020 C 
ATOM     23  C   UNL A   1      33.658  22.208  23.518  1.00  0.00     0.020 C 
ATOM     24  C   UNL A   1      31.567  23.330  24.299  1.00  0.00     0.020 C 
ATOM     25  C   UNL A   1      33.722  23.268  26.290  1.00  0.00    -0.010 C 
ATOM     26  C   UNL A   1      33.617  21.278  24.748  1.00  0.00    -0.010 C 
ATOM     27  C   UNL A   1      31.500  22.403  25.520  1.00  0.00    -0.010 C 
ATOM     28  C   UNL A   1      32.258  23.053  26.684  1.00  0.00     0.007 C 
ATOM     29  C   UNL A   1      34.374  21.926  25.918  1.00  0.00     0.007 C 
ATOM     30  C   UNL A   1      32.155  21.057  25.169  1.00  0.00     0.007 C 
ENDBRANCH  18  21
ENDBRANCH   8  17
ENDBRANCH   7   8
ENDBRANCH   5   7
ENDBRANCH   2   3
ENDBRANCH   1   2
BRANCH   1  31
ATOM     31  C   UNL A   1      31.406  32.294  26.873  1.00  0.00     0.023 C 
BRANCH  31  32
ATOM     32  C   UNL A   1      32.659  33.075  27.251  1.00  0.00     0.116 C 
BRANCH  32  33
ATOM     33  N   UNL A   1      32.375  34.410  27.740  1.00  0.00    -0.352 N 
ATOM     34  C   UNL A   1      32.988  35.112  28.750  1.00  0.00     0.251 C 
ATOM     35  H   UNL A   1      31.638  34.879  27.286  1.00  0.00     0.163 HD
ATOM     36  O   UNL A   1      32.528  36.186  29.125  1.00  0.00    -0.269 OA
BRANCH  34  37
ATOM     37  C   UNL A   1      34.183  34.552  29.413  1.00  0.00     0.039 A 
ATOM     38  C   UNL A   1      34.030  33.924  30.651  1.00  0.00     0.014 A 
ATOM     39  C   UNL A   1      35.445  34.634  28.816  1.00  0.00     0.014 A 
ATOM     40  C   UNL A   1      35.129  33.316  31.259  1.00  0.00     0.010 A 
ATOM     41  C   UNL A   1      36.530  33.976  29.395  1.00  0.00     0.010 A 
ATOM     42  C   UNL A   1      36.380  33.304  30.620  1.00  0.00    -0.014 A 
BRANCH  42  43
ATOM     43  C   UNL A   1      37.531  32.575  31.212  1.00  0.00     0.031 A 
ATOM     44  C   UNL A   1      38.142  33.033  32.506  1.00  0.00     0.074 A 
ATOM     45  C   UNL A   1      38.063  31.526  30.552  1.00  0.00     0.049 A 
ATOM     46  N   UNL A   1      39.175  32.549  33.149  1.00  0.00    -0.248 NA
ATOM     47  C   UNL A   1      37.525  34.202  33.152  1.00  0.00     0.031 C 
ATOM     48  C   UNL A   1      37.591  31.008  29.267  1.00  0.00     0.029 A 
ATOM     49  N   UNL A   1      39.123  30.714  30.869  1.00  0.00    -0.354 N 
ATOM     50  C   UNL A   1      39.339  33.359  34.265  1.00  0.00     0.074 A 
ATOM     51  C   UNL A   1      38.329  34.393  34.188  1.00  0.00     0.031 C 
ATOM     52  C   UNL A   1      38.342  29.951  28.918  1.00  0.00     0.029 A 
ATOM     53  C   UNL A   1      39.368  29.738  29.934  1.00  0.00     0.049 A 
ATOM     54  H   UNL A   1      39.657  30.820  31.690  1.00  0.00     0.167 HD
ATOM     55  C   UNL A   1      40.236  33.240  35.272  1.00  0.00     0.037 A 
ATOM     56  C   UNL A   1      40.316  28.782  29.896  1.00  0.00     0.037 A 
ATOM     57  C   UNL A   1      41.224  32.197  35.363  1.00  0.00     0.049 A 
ATOM     58  C   UNL A   1      41.305  28.677  31.023  1.00  0.00     0.074 A 
ATOM     59  C   UNL A   1      42.133  31.956  36.380  1.00  0.00     0.029 A 
ATOM     60  N   UNL A   1      41.437  31.223  34.400  1.00  0.00    -0.354 N 
ATOM     61  N   UNL A   1      41.403  29.407  32.107  1.00  0.00    -0.248 NA
ATOM     62  C   UNL A   1      42.313  27.612  30.922  1.00  0.00     0.031 C 
ATOM     63  C   UNL A   1      42.923  30.862  36.011  1.00  0.00     0.029 A 
ATOM     64  C   UNL A   1      42.478  30.394  34.787  1.00  0.00     0.049 A 
ATOM     65  H   UNL A   1      40.924  31.134  33.564  1.00  0.00     0.167 HD
ATOM     66  C   UNL A   1      42.461  28.873  32.830  1.00  0.00     0.074 A 
ATOM     67  C   UNL A   1      42.966  27.751  32.068  1.00  0.00     0.031 C 
ATOM     68  C   UNL A   1      42.967  29.276  34.021  1.00  0.00     0.037 A 
BRANCH  55  69
ATOM     69  C   UNL A   1      40.190  34.270  36.365  1.00  0.00     0.057 A 
ATOM     70  C   UNL A   1      40.934  35.454  36.295  1.00  0.00     0.134 A 
ATOM     71  C   UNL A   1      39.362  34.090  37.481  1.00  0.00     0.134 A 
ATOM     72  F   UNL A   1      41.754  35.682  35.258  1.00  0.00    -0.206 F 
ATOM     73  C   UNL A   1      40.877  36.412  37.309  1.00  0.00     0.040 A 
ATOM     74  C   UNL A   1      39.278  35.052  38.488  1.00  0.00     0.040 A 
ATOM     75  F   UNL A   1      38.619  32.981  37.607  1.00  0.00    -0.206 F 
ATOM     76  C   UNL A   1      40.041  36.216  38.406  1.00  0.00     0.006 A 
ENDBRANCH  55  69
BRANCH  56  77
ATOM     77  C   UNL A   1      40.362  27.827  28.761  1.00  0.00     0.057 A 
ATOM     78  C   UNL A   1      39.642  26.627  28.801  1.00  0.00     0.134 A 
ATOM     79  C   UNL A   1      41.128  28.081  27.618  1.00  0.00     0.134 A 
ATOM     80  F   UNL A   1      38.905  26.318  29.879  1.00  0.00    -0.206 F 
ATOM     81  C   UNL A   1      39.698  25.705  27.755  1.00  0.00     0.040 A 
ATOM     82  C   UNL A   1      41.175  27.179  26.554  1.00  0.00     0.040 A 
ATOM     83  F   UNL A   1      41.835  29.217  27.516  1.00  0.00    -0.206 F 
ATOM     84  C   UNL A   1      40.463  25.983  26.624  1.00  0.00     0.006 A 
ENDBRANCH  56  77
BRANCH  68  85
ATOM     85  C   UNL A   1      44.104  28.479  34.589  1.00  0.00     0.057 A 
ATOM     86  C   UNL A   1      45.440  28.823  34.350  1.00  0.00     0.134 A 
ATOM     87  C   UNL A   1      43.857  27.375  35.416  1.00  0.00     0.134 A 
ATOM     88  F   UNL A   1      45.744  29.861  33.555  1.00  0.00    -0.206 F 
ATOM     89  C   UNL A   1      46.491  28.085  34.897  1.00  0.00     0.040 A 
ATOM     90  C   UNL A   1      44.898  26.645  35.988  1.00  0.00     0.040 A 
ATOM     91  F   UNL A   1      42.599  26.998  35.691  1.00  0.00    -0.206 F 
ATOM     92  C   UNL A   1      46.221  26.995  35.724  1.00  0.00     0.006 A 
ENDBRANCH  68  85
ENDBRANCH  42  43
ENDBRANCH  34  37
ENDBRANCH  32  33
ENDBRANCH  31  32
ENDBRANCH   1  31
TORSDOF 15
ENDMDL
MODEL 3
REMARK VINA RESULT:     -12.0      1.991      3.026
REMARK SMILES O=C(C[C@H](NC(=O)[C@]12C[C@H]3C[C@H](C[C@H](C3)C1)C2)c1ccc(Cl)cc1Cl)NCCCCNC(=O)c1ccc(-c2c3nc(c(-c4c(F)cccc4F)c4ccc([nH]4)c(-c4c(F)cccc4F)c4nc(c(-c5c(F)cccc5F)c5ccc2[nH]5)C=C4)C=C3)cc1
REMARK SMILES IDX 28 1 27 2 26 3 1 4 2 5 3 7 4 8 18 9 19 10 24 11 20 12 23 13
REMARK SMILES IDX 25 14 21 15 22 16 5 17 6 18 7 20 8 21 9 22 16 23 17 24 10 25
REMARK SMILES IDX 14 26 12 27 11 28 15 29 13 30 29 31 30 32 31 33 32 34 33 36
REMARK SMILES IDX 34 37 35 38 87 39 36 40 86 41 37 42 38 43 39 44 80 45 40 46
REMARK SMILES IDX 85 47 79 48 81 49 41 50 84 51 78 52 77 53 42 55 68 56 51 57
REMARK SMILES IDX 67 58 52 59 55 60 66 61 82 62 53 63 54 64 65 66 83 67 56 68
REMARK SMILES IDX 43 69 44 70 49 71 45 72 46 73 48 74 50 75 47 76 69 77 70 78
REMARK SMILES IDX 75 79 71 80 72 81 74 82 76 83 73 84 57 85 58 86 63 87 59 88
REMARK SMILES IDX 60 89 62 90 64 91 61 92
REMARK H PARENT 26 6 5 19 31 35 81 54 55 65
REMARK Flexibility Score: inf
ROOT
ATOM      1  C   UNL A   1      31.746  30.589  26.735  1.00  0.00     0.023 C 
ENDROOT
BRANCH   1   2
ATOM      2  C   UNL A   1      33.185  30.142  26.500  1.00  0.00     0.116 C 
BRANCH   2   3
ATOM      3  N   UNL A   1      33.334  29.431  25.250  1.00  0.00    -0.356 N 
ATOM      4  O   UNL A   1      33.969  27.397  26.118  1.00  0.00    -0.275 OA
ATOM      5  C   UNL A   1      33.653  28.097  25.166  1.00  0.00     0.222 C 
ATOM      6  H   UNL A   1      33.199  29.930  24.412  1.00  0.00     0.163 HD
BRANCH   5   7
ATOM      7  C   UNL A   1      33.569  27.569  23.753  1.00  0.00     0.129 C 
BRANCH   7   8
ATOM      8  C   UNL A   1      32.263  26.838  23.389  1.00  0.00     0.123 C 
BRANCH   8   9
ATOM      9  C   UNL A   1      31.097  27.753  22.991  1.00  0.00    -0.006 A 
ATOM     10  C   UNL A   1      31.293  28.951  22.277  1.00  0.00     0.009 A 
ATOM     11  C   UNL A   1      29.771  27.443  23.389  1.00  0.00     0.047 A 
ATOM     12  C   UNL A   1      30.218  29.801  21.986  1.00  0.00     0.021 A 
ATOM     13  C   UNL A   1      28.710  28.319  23.139  1.00  0.00     0.041 A 
ATOM     14  Cl  UNL A   1      29.364  25.978  24.218  1.00  0.00    -0.084 Cl
ATOM     15  C   UNL A   1      28.941  29.496  22.440  1.00  0.00     0.042 A 
ATOM     16  Cl  UNL A   1      27.648  30.591  22.155  1.00  0.00    -0.084 Cl
ENDBRANCH   8   9
BRANCH   8  17
ATOM     17  N   UNL A   1      32.564  25.833  22.358  1.00  0.00    -0.348 N 
ATOM     18  C   UNL A   1      32.953  24.536  22.382  1.00  0.00     0.226 C 
ATOM     19  H   UNL A   1      32.459  26.181  21.443  1.00  0.00     0.164 HD
ATOM     20  O   UNL A   1      33.271  24.089  21.271  1.00  0.00    -0.274 OA
BRANCH  18  21
ATOM     21  C   UNL A   1      33.091  23.655  23.640  1.00  0.00     0.050 C 
ATOM     22  C   UNL A   1      31.912  23.692  24.633  1.00  0.00     0.020 C 
ATOM     23  C   UNL A   1      34.395  24.006  24.397  1.00  0.00     0.020 C 
ATOM     24  C   UNL A   1      33.239  22.181  23.143  1.00  0.00     0.020 C 
ATOM     25  C   UNL A   1      32.118  22.720  25.801  1.00  0.00    -0.010 C 
ATOM     26  C   UNL A   1      34.607  23.051  25.590  1.00  0.00    -0.010 C 
ATOM     27  C   UNL A   1      33.455  21.211  24.313  1.00  0.00    -0.010 C 
ATOM     28  C   UNL A   1      32.251  21.294  25.260  1.00  0.00     0.007 C 
ATOM     29  C   UNL A   1      33.402  23.129  26.542  1.00  0.00     0.007 C 
ATOM     30  C   UNL A   1      34.732  21.609  25.071  1.00  0.00     0.007 C 
ENDBRANCH  18  21
ENDBRANCH   8  17
ENDBRANCH   7   8
ENDBRANCH   5   7
ENDBRANCH   2   3
ENDBRANCH   1   2
BRANCH   1  31
ATOM     31  C   UNL A   1      31.526  32.105  26.815  1.00  0.00     0.023 C 
BRANCH  31  32
ATOM     32  C   UNL A   1      32.739  32.934  27.224  1.00  0.00     0.116 C 
BRANCH  32  33
ATOM     33  N   UNL A   1      32.399  34.285  27.623  1.00  0.00    -0.352 N 
ATOM     34  C   UNL A   1      32.956  35.065  28.608  1.00  0.00     0.251 C 
ATOM     35  H   UNL A   1      31.665  34.703  27.118  1.00  0.00     0.163 HD
ATOM     36  O   UNL A   1      32.453  36.144  28.902  1.00  0.00    -0.269 OA
BRANCH  34  37
ATOM     37  C   UNL A   1      34.144  34.583  29.342  1.00  0.00     0.039 A 
ATOM     38  C   UNL A   1      33.966  34.015  30.604  1.00  0.00     0.014 A 
ATOM     39  C   UNL A   1      35.424  34.678  28.786  1.00  0.00     0.014 A 
ATOM     40  C   UNL A   1      35.062  33.478  31.283  1.00  0.00     0.010 A 
ATOM     41  C   UNL A   1      36.508  34.090  29.437  1.00  0.00     0.010 A 
ATOM     42  C   UNL A   1      36.335  33.478  30.690  1.00  0.00    -0.014 A 
BRANCH  42  43
ATOM     43  C   UNL A   1      37.487  32.822  31.360  1.00  0.00     0.031 A 
ATOM     44  C   UNL A   1      38.148  31.621  30.743  1.00  0.00     0.074 A 
ATOM     45  C   UNL A   1      37.907  33.278  32.557  1.00  0.00     0.049 A 
ATOM     46  N   UNL A   1      39.133  30.892  31.203  1.00  0.00    -0.248 NA
ATOM     47  C   UNL A   1      37.615  31.164  29.450  1.00  0.00     0.031 C 
ATOM     48  C   UNL A   1      37.325  34.408  33.283  1.00  0.00     0.029 A 
ATOM     49  N   UNL A   1      38.917  32.840  33.378  1.00  0.00    -0.354 N 
ATOM     50  C   UNL A   1      39.331  29.887  30.265  1.00  0.00     0.074 A 
ATOM     51  C   UNL A   1      38.333  30.072  29.233  1.00  0.00     0.031 C 
ATOM     52  C   UNL A   1      38.002  34.589  34.429  1.00  0.00     0.029 A 
ATOM     53  C   UNL A   1      39.042  33.569  34.535  1.00  0.00     0.049 A 
ATOM     54  H   UNL A   1      39.497  32.075  33.158  1.00  0.00     0.167 HD
ATOM     55  C   UNL A   1      40.271  28.913  30.255  1.00  0.00     0.037 A 
ATOM     56  C   UNL A   1      39.894  33.431  35.568  1.00  0.00     0.037 A 
ATOM     57  C   UNL A   1      41.280  28.744  31.267  1.00  0.00     0.049 A 
ATOM     58  C   UNL A   1      40.923  32.336  35.535  1.00  0.00     0.074 A 
ATOM     59  C   UNL A   1      42.317  27.827  31.309  1.00  0.00     0.029 A 
ATOM     60  N   UNL A   1      41.379  29.508  32.420  1.00  0.00    -0.354 N 
ATOM     61  N   UNL A   1      41.143  31.436  34.607  1.00  0.00    -0.248 NA
ATOM     62  C   UNL A   1      41.824  32.238  36.692  1.00  0.00     0.031 C 
ATOM     63  C   UNL A   1      43.015  28.008  32.507  1.00  0.00     0.029 A 
ATOM     64  C   UNL A   1      42.443  29.067  33.191  1.00  0.00     0.049 A 
ATOM     65  H   UNL A   1      40.780  30.253  32.657  1.00  0.00     0.167 HD
ATOM     66  C   UNL A   1      42.224  30.687  35.053  1.00  0.00     0.074 A 
ATOM     67  C   UNL A   1      42.622  31.244  36.328  1.00  0.00     0.031 C 
ATOM     68  C   UNL A   1      42.832  29.634  34.457  1.00  0.00     0.037 A 
BRANCH  55  69
ATOM     69  C   UNL A   1      40.253  27.947  29.105  1.00  0.00     0.057 A 
ATOM     70  C   UNL A   1      40.998  28.171  27.941  1.00  0.00     0.134 A 
ATOM     71  C   UNL A   1      39.512  26.761  29.180  1.00  0.00     0.134 A 
ATOM     72  F   UNL A   1      41.722  29.292  27.801  1.00  0.00    -0.206 F 
ATOM     73  C   UNL A   1      40.987  27.263  26.880  1.00  0.00     0.040 A 
ATOM     74  C   UNL A   1      39.512  25.834  28.137  1.00  0.00     0.040 A 
ATOM     75  F   UNL A   1      38.780  26.481  30.269  1.00  0.00    -0.206 F 
ATOM     76  C   UNL A   1      40.247  26.086  26.980  1.00  0.00     0.006 A 
ENDBRANCH  55  69
BRANCH  56  77
ATOM     77  C   UNL A   1      39.831  34.372  36.715  1.00  0.00     0.057 A 
ATOM     78  C   UNL A   1      40.510  35.595  36.679  1.00  0.00     0.134 A 
ATOM     79  C   UNL A   1      39.103  34.071  37.871  1.00  0.00     0.134 A 
ATOM     80  F   UNL A   1      41.241  35.931  35.605  1.00  0.00    -0.206 F 
ATOM     81  C   UNL A   1      40.485  36.478  37.761  1.00  0.00     0.040 A 
ATOM     82  C   UNL A   1      39.049  34.954  38.951  1.00  0.00     0.040 A 
ATOM     83  F   UNL A   1      38.425  32.918  37.963  1.00  0.00    -0.206 F 
ATOM     84  C   UNL A   1      39.747  36.159  38.899  1.00  0.00     0.006 A 
ENDBRANCH  56  77
BRANCH  68  85
ATOM     85  C   UNL A   1      44.014  29.035  35.160  1.00  0.00     0.057 A 
ATOM     86  C   UNL A   1      45.321  29.477  34.919  1.00  0.00     0.134 A 
ATOM     87  C   UNL A   1      43.838  28.027  36.117  1.00  0.00     0.134 A 
ATOM     88  F   UNL A   1      45.558  30.430  34.005  1.00  0.00    -0.206 F 
ATOM     89  C   UNL A   1      46.413  28.925  35.591  1.00  0.00     0.040 A 
ATOM     90  C   UNL A   1      44.918  27.484  36.814  1.00  0.00     0.040 A 
ATOM     91  F   UNL A   1      42.611  27.563  36.401  1.00  0.00    -0.206 F 
ATOM     92  C   UNL A   1      46.212  27.929  36.546  1.00  0.00     0.006 A 
ENDBRANCH  68  85
ENDBRANCH  42  43
ENDBRANCH  34  37
ENDBRANCH  32  33
ENDBRANCH  31  32
ENDBRANCH   1  31
TORSDOF 15
ENDMDL
