MODEL 1
REMARK VINA RESULT:     -13.0      0.000      0.000
REMARK SMILES C[C@@H](C(=O)NCCCCNC(=O)c1ccc(-c2c3nc(c(-c4c(F)cccc4F)c4ccc([nH]4)c(-c4c(F)cccc4F)c4nc(c(-c5c(F)cccc5F)c5ccc2[nH]5)C=C4)C=C3)cc1)c1ccc(C[C@H]2CCC[C@H]2O)cc1-c1ccc(O)cc1
REMARK SMILES IDX 6 1 5 2 3 3 4 4 2 6 1 7 67 8 68 9 79 10 69 11 78 12 70 13
REMARK SMILES IDX 80 14 81 15 86 16 82 17 85 18 83 19 84 20 71 22 72 23 73 24
REMARK SMILES IDX 76 25 74 26 75 27 77 28 7 30 8 31 9 32 10 33 11 34 12 36
REMARK SMILES IDX 13 37 14 38 66 39 15 40 65 41 16 42 17 43 18 44 59 45 19 46
REMARK SMILES IDX 64 47 58 48 60 49 20 50 63 51 57 52 56 53 21 55 47 56 30 57
REMARK SMILES IDX 46 58 31 59 34 60 45 61 61 62 32 63 33 64 44 66 62 67 35 68
REMARK SMILES IDX 22 69 23 70 28 71 24 72 25 73 27 74 29 75 26 76 48 77 49 78
REMARK SMILES IDX 54 79 50 80 51 81 53 82 55 83 52 84 36 85 37 86 42 87 38 88
REMARK SMILES IDX 39 89 41 90 43 91 40 92
REMARK H PARENT 5 5 84 21 77 29 10 35 60 54 34 65
REMARK Flexibility Score: inf
ROOT
ATOM      1  C   UNL A   1      34.198  29.592  27.148  1.00  0.00     0.116 C 
ENDROOT
BRANCH   1   2
ATOM      2  N   UNL A   1      33.068  28.960  27.789  1.00  0.00    -0.356 N 
ATOM      3  C   UNL A   1      32.219  28.008  27.305  1.00  0.00     0.227 C 
ATOM      4  O   UNL A   1      31.274  27.698  28.036  1.00  0.00    -0.274 OA
ATOM      5  H   UNL A   1      32.885  29.260  28.708  1.00  0.00     0.163 HD
BRANCH   3   6
ATOM      6  C   UNL A   1      32.490  27.348  25.934  1.00  0.00     0.106 C 
ATOM      7  C   UNL A   1      33.822  27.804  25.324  1.00  0.00     0.023 C 
BRANCH   6   8
ATOM      8  C   UNL A   1      31.322  27.611  24.979  1.00  0.00    -0.028 A 
ATOM      9  C   UNL A   1      31.163  28.910  24.461  1.00  0.00     0.005 A 
ATOM     10  C   UNL A   1      30.368  26.620  24.644  1.00  0.00    -0.014 A 
ATOM     11  C   UNL A   1      30.085  29.240  23.654  1.00  0.00     0.004 A 
ATOM     12  C   UNL A   1      29.233  27.009  23.897  1.00  0.00     0.012 A 
ATOM     13  C   UNL A   1      29.063  28.324  23.436  1.00  0.00    -0.047 A 
BRANCH  10  14
ATOM     14  C   UNL A   1      30.543  25.193  24.979  1.00  0.00    -0.018 A 
ATOM     15  C   UNL A   1      31.088  24.321  24.018  1.00  0.00     0.012 A 
ATOM     16  C   UNL A   1      30.226  24.670  26.242  1.00  0.00     0.012 A 
ATOM     17  C   UNL A   1      31.338  22.981  24.318  1.00  0.00     0.047 A 
ATOM     18  C   UNL A   1      30.487  23.329  26.551  1.00  0.00     0.047 A 
ATOM     19  C   UNL A   1      31.048  22.498  25.586  1.00  0.00     0.115 A 
BRANCH  19  20
ATOM     20  O   UNL A   1      31.340  21.192  25.846  1.00  0.00    -0.508 OA
ATOM     21  H   UNL A   1      31.264  20.551  25.168  1.00  0.00     0.293 HD
ENDBRANCH  19  20
ENDBRANCH  10  14
BRANCH  13  22
ATOM     22  C   UNL A   1      27.800  28.771  22.748  1.00  0.00     0.041 C 
BRANCH  22  23
ATOM     23  C   UNL A   1      27.649  30.279  22.461  1.00  0.00     0.022 C 
ATOM     24  C   UNL A   1      28.102  31.217  23.592  1.00  0.00     0.007 C 
ATOM     25  C   UNL A   1      28.276  30.876  21.189  1.00  0.00     0.117 C 
ATOM     26  C   UNL A   1      28.529  32.523  22.914  1.00  0.00     0.003 C 
ATOM     27  C   UNL A   1      28.160  32.376  21.441  1.00  0.00     0.032 C 
BRANCH  25  28
ATOM     28  O   UNL A   1      29.645  30.581  20.976  1.00  0.00    -0.393 OA
ATOM     29  H   UNL A   1      29.834  29.683  21.290  1.00  0.00     0.210 HD
ENDBRANCH  25  28
ENDBRANCH  22  23
ENDBRANCH  13  22
ENDBRANCH   6   8
ENDBRANCH   3   6
ENDBRANCH   1   2
BRANCH   1  30
ATOM     30  C   UNL A   1      34.310  31.058  27.567  1.00  0.00     0.023 C 
BRANCH  30  31
ATOM     31  C   UNL A   1      32.970  31.783  27.710  1.00  0.00     0.023 C 
BRANCH  31  32
ATOM     32  C   UNL A   1      32.909  33.157  27.057  1.00  0.00     0.116 C 
BRANCH  32  33
ATOM     33  N   UNL A   1      32.556  34.210  27.994  1.00  0.00    -0.352 N 
ATOM     34  C   UNL A   1      33.202  34.604  29.141  1.00  0.00     0.251 C 
ATOM     35  H   UNL A   1      31.737  34.712  27.778  1.00  0.00     0.163 HD
ATOM     36  O   UNL A   1      32.679  35.420  29.890  1.00  0.00    -0.269 OA
BRANCH  34  37
ATOM     37  C   UNL A   1      34.518  34.023  29.479  1.00  0.00     0.039 A 
ATOM     38  C   UNL A   1      34.603  33.138  30.557  1.00  0.00     0.014 A 
ATOM     39  C   UNL A   1      35.662  34.350  28.746  1.00  0.00     0.014 A 
ATOM     40  C   UNL A   1      35.829  32.551  30.873  1.00  0.00     0.010 A 
ATOM     41  C   UNL A   1      36.863  33.697  29.007  1.00  0.00     0.010 A 
ATOM     42  C   UNL A   1      36.963  32.806  30.085  1.00  0.00    -0.014 A 
BRANCH  42  43
ATOM     43  C   UNL A   1      38.267  32.171  30.398  1.00  0.00     0.031 A 
ATOM     44  C   UNL A   1      39.222  32.837  31.352  1.00  0.00     0.074 A 
ATOM     45  C   UNL A   1      38.609  31.016  29.797  1.00  0.00     0.049 A 
ATOM     46  N   UNL A   1      40.408  32.445  31.745  1.00  0.00    -0.248 NA
ATOM     47  C   UNL A   1      38.802  34.129  31.918  1.00  0.00     0.031 C 
ATOM     48  C   UNL A   1      37.793  30.297  28.817  1.00  0.00     0.029 A 
ATOM     49  N   UNL A   1      39.734  30.241  29.923  1.00  0.00    -0.354 N 
ATOM     50  C   UNL A   1      40.877  33.446  32.587  1.00  0.00     0.074 A 
ATOM     51  C   UNL A   1      39.878  34.491  32.599  1.00  0.00     0.031 C 
ATOM     52  C   UNL A   1      38.424  29.166  28.463  1.00  0.00     0.029 A 
ATOM     53  C   UNL A   1      39.705  29.099  29.160  1.00  0.00     0.049 A 
ATOM     54  H   UNL A   1      40.491  30.481  30.506  1.00  0.00     0.167 HD
ATOM     55  C   UNL A   1      42.024  33.480  33.306  1.00  0.00     0.037 A 
ATOM     56  C   UNL A   1      40.608  28.108  29.040  1.00  0.00     0.037 A 
ATOM     57  C   UNL A   1      43.005  32.427  33.309  1.00  0.00     0.049 A 
ATOM     58  C   UNL A   1      41.878  28.174  29.843  1.00  0.00     0.074 A 
ATOM     59  C   UNL A   1      44.168  32.332  34.053  1.00  0.00     0.029 A 
ATOM     60  N   UNL A   1      42.940  31.286  32.523  1.00  0.00    -0.354 N 
ATOM     61  N   UNL A   1      42.273  29.086  30.699  1.00  0.00    -0.248 NA
ATOM     62  C   UNL A   1      42.826  27.065  29.669  1.00  0.00     0.031 C 
ATOM     63  C   UNL A   1      44.835  31.162  33.675  1.00  0.00     0.029 A 
ATOM     64  C   UNL A   1      44.057  30.495  32.743  1.00  0.00     0.049 A 
ATOM     65  H   UNL A   1      42.208  31.068  31.901  1.00  0.00     0.167 HD
ATOM     66  C   UNL A   1      43.493  28.643  31.193  1.00  0.00     0.074 A 
ATOM     67  C   UNL A   1      43.767  27.374  30.549  1.00  0.00     0.031 C 
ATOM     68  C   UNL A   1      44.312  29.231  32.100  1.00  0.00     0.037 A 
BRANCH  55  69
ATOM     69  C   UNL A   1      42.280  34.702  34.142  1.00  0.00     0.057 A 
ATOM     70  C   UNL A   1      42.892  35.849  33.617  1.00  0.00     0.134 A 
ATOM     71  C   UNL A   1      41.892  34.741  35.488  1.00  0.00     0.134 A 
ATOM     72  F   UNL A   1      43.301  35.878  32.340  1.00  0.00    -0.206 F 
ATOM     73  C   UNL A   1      43.139  36.973  34.407  1.00  0.00     0.040 A 
ATOM     74  C   UNL A   1      42.105  35.870  36.279  1.00  0.00     0.040 A 
ATOM     75  F   UNL A   1      41.295  33.681  36.055  1.00  0.00    -0.206 F 
ATOM     76  C   UNL A   1      42.740  36.988  35.741  1.00  0.00     0.006 A 
ENDBRANCH  55  69
BRANCH  56  77
ATOM     77  C   UNL A   1      40.330  26.946  28.158  1.00  0.00     0.057 A 
ATOM     78  C   UNL A   1      39.515  25.893  28.590  1.00  0.00     0.134 A 
ATOM     79  C   UNL A   1      40.879  26.851  26.874  1.00  0.00     0.134 A 
ATOM     80  F   UNL A   1      38.973  25.918  29.817  1.00  0.00    -0.206 F 
ATOM     81  C   UNL A   1      39.275  24.776  27.789  1.00  0.00     0.040 A 
ATOM     82  C   UNL A   1      40.626  25.753  26.051  1.00  0.00     0.040 A 
ATOM     83  F   UNL A   1      41.661  27.830  26.396  1.00  0.00    -0.206 F 
ATOM     84  C   UNL A   1      39.829  24.706  26.512  1.00  0.00     0.006 A 
ENDBRANCH  56  77
BRANCH  68  85
ATOM     85  C   UNL A   1      45.556  28.482  32.487  1.00  0.00     0.057 A 
ATOM     86  C   UNL A   1      46.778  28.677  31.830  1.00  0.00     0.134 A 
ATOM     87  C   UNL A   1      45.534  27.571  33.550  1.00  0.00     0.134 A 
ATOM     88  F   UNL A   1      46.868  29.527  30.796  1.00  0.00    -0.206 F 
ATOM     89  C   UNL A   1      47.923  27.967  32.195  1.00  0.00     0.040 A 
ATOM     90  C   UNL A   1      46.680  26.879  33.946  1.00  0.00     0.040 A 
ATOM     91  F   UNL A   1      44.400  27.344  34.231  1.00  0.00    -0.206 F 
ATOM     92  C   UNL A   1      47.877  27.069  33.259  1.00  0.00     0.006 A 
ENDBRANCH  68  85
ENDBRANCH  42  43
ENDBRANCH  34  37
ENDBRANCH  32  33
ENDBRANCH  31  32
ENDBRANCH  30  31
ENDBRANCH   1  30
TORSDOF 17
ENDMDL
MODEL 2
REMARK VINA RESULT:     -12.9      1.421      1.847
REMARK SMILES C[C@@H](C(=O)NCCCCNC(=O)c1ccc(-c2c3nc(c(-c4c(F)cccc4F)c4ccc([nH]4)c(-c4c(F)cccc4F)c4nc(c(-c5c(F)cccc5F)c5ccc2[nH]5)C=C4)C=C3)cc1)c1ccc(C[C@H]2CCC[C@H]2O)cc1-c1ccc(O)cc1
REMARK SMILES IDX 6 1 5 2 3 3 4 4 2 6 1 7 67 8 68 9 79 10 69 11 78 12 70 13
REMARK SMILES IDX 80 14 81 15 86 16 82 17 85 18 83 19 84 20 71 22 72 23 73 24
REMARK SMILES IDX 76 25 74 26 75 27 77 28 7 30 8 31 9 32 10 33 11 34 12 36
REMARK SMILES IDX 13 37 14 38 66 39 15 40 65 41 16 42 17 43 18 44 59 45 19 46
REMARK SMILES IDX 64 47 58 48 60 49 20 50 63 51 57 52 56 53 21 55 47 56 30 57
REMARK SMILES IDX 46 58 31 59 34 60 45 61 61 62 32 63 33 64 44 66 62 67 35 68
REMARK SMILES IDX 22 69 23 70 28 71 24 72 25 73 27 74 29 75 26 76 48 77 49 78
REMARK SMILES IDX 54 79 50 80 51 81 53 82 55 83 52 84 36 85 37 86 42 87 38 88
REMARK SMILES IDX 39 89 41 90 43 91 40 92
REMARK H PARENT 5 5 84 21 77 29 10 35 60 54 34 65
REMARK Flexibility Score: inf
ROOT
ATOM      1  C   UNL A   1      32.834  29.962  25.655  1.00  0.00     0.116 C 
ENDROOT
BRANCH   1   2
ATOM      2  N   UNL A   1      33.109  28.656  26.209  1.00  0.00    -0.356 N 
ATOM      3  C   UNL A   1      33.186  27.448  25.580  1.00  0.00     0.227 C 
ATOM      4  O   UNL A   1      33.351  26.465  26.308  1.00  0.00    -0.274 OA
ATOM      5  H   UNL A   1      33.262  28.636  27.181  1.00  0.00     0.163 HD
BRANCH   3   6
ATOM      6  C   UNL A   1      33.114  27.366  24.039  1.00  0.00     0.106 C 
ATOM      7  C   UNL A   1      34.179  28.239  23.362  1.00  0.00     0.023 C 
BRANCH   6   8
ATOM      8  C   UNL A   1      31.708  27.729  23.554  1.00  0.00    -0.028 A 
ATOM      9  C   UNL A   1      31.543  28.914  22.810  1.00  0.00     0.005 A 
ATOM     10  C   UNL A   1      30.564  26.958  23.872  1.00  0.00    -0.014 A 
ATOM     11  C   UNL A   1      30.289  29.346  22.406  1.00  0.00     0.004 A 
ATOM     12  C   UNL A   1      29.293  27.471  23.527  1.00  0.00     0.012 A 
ATOM     13  C   UNL A   1      29.145  28.682  22.834  1.00  0.00    -0.047 A 
BRANCH  10  14
ATOM     14  C   UNL A   1      30.647  25.616  24.480  1.00  0.00    -0.018 A 
ATOM     15  C   UNL A   1      31.169  24.548  23.727  1.00  0.00     0.012 A 
ATOM     16  C   UNL A   1      30.263  25.363  25.807  1.00  0.00     0.012 A 
ATOM     17  C   UNL A   1      31.332  23.280  24.287  1.00  0.00     0.047 A 
ATOM     18  C   UNL A   1      30.438  24.096  26.377  1.00  0.00     0.047 A 
ATOM     19  C   UNL A   1      30.979  23.066  25.612  1.00  0.00     0.115 A 
BRANCH  19  20
ATOM     20  O   UNL A   1      31.187  21.822  26.128  1.00  0.00    -0.508 OA
ATOM     21  H   UNL A   1      30.706  21.541  26.881  1.00  0.00     0.293 HD
ENDBRANCH  19  20
ENDBRANCH  10  14
BRANCH  13  22
ATOM     22  C   UNL A   1      27.793  29.293  22.573  1.00  0.00     0.041 C 
BRANCH  22  23
ATOM     23  C   UNL A   1      27.692  30.831  22.620  1.00  0.00     0.022 C 
ATOM     24  C   UNL A   1      28.566  31.519  23.681  1.00  0.00     0.007 C 
ATOM     25  C   UNL A   1      27.927  31.647  21.336  1.00  0.00     0.117 C 
ATOM     26  C   UNL A   1      28.866  32.920  23.138  1.00  0.00     0.003 C 
ATOM     27  C   UNL A   1      28.032  33.071  21.870  1.00  0.00     0.032 C 
BRANCH  25  28
ATOM     28  O   UNL A   1      29.122  31.362  20.632  1.00  0.00    -0.393 OA
ATOM     29  H   UNL A   1      29.881  31.466  21.227  1.00  0.00     0.210 HD
ENDBRANCH  25  28
ENDBRANCH  22  23
ENDBRANCH  13  22
ENDBRANCH   6   8
ENDBRANCH   3   6
ENDBRANCH   1   2
BRANCH   1  30
ATOM     30  C   UNL A   1      31.386  30.373  25.926  1.00  0.00     0.023 C 
BRANCH  30  31
ATOM     31  C   UNL A   1      31.215  31.813  26.414  1.00  0.00     0.023 C 
BRANCH  31  32
ATOM     32  C   UNL A   1      32.496  32.490  26.879  1.00  0.00     0.116 C 
BRANCH  32  33
ATOM     33  N   UNL A   1      32.272  33.838  27.376  1.00  0.00    -0.352 N 
ATOM     34  C   UNL A   1      32.947  34.524  28.356  1.00  0.00     0.251 C 
ATOM     35  H   UNL A   1      31.531  34.328  26.952  1.00  0.00     0.163 HD
ATOM     36  O   UNL A   1      32.525  35.605  28.749  1.00  0.00    -0.269 OA
BRANCH  34  37
ATOM     37  C   UNL A   1      34.167  33.942  28.953  1.00  0.00     0.039 A 
ATOM     38  C   UNL A   1      34.030  32.958  29.934  1.00  0.00     0.014 A 
ATOM     39  C   UNL A   1      35.438  34.366  28.555  1.00  0.00     0.014 A 
ATOM     40  C   UNL A   1      35.169  32.371  30.487  1.00  0.00     0.010 A 
ATOM     41  C   UNL A   1      36.569  33.719  29.043  1.00  0.00     0.010 A 
ATOM     42  C   UNL A   1      36.447  32.729  30.028  1.00  0.00    -0.014 A 
BRANCH  42  43
ATOM     43  C   UNL A   1      37.665  32.096  30.592  1.00  0.00     0.031 A 
ATOM     44  C   UNL A   1      38.266  32.621  31.869  1.00  0.00     0.074 A 
ATOM     45  C   UNL A   1      38.251  31.076  29.939  1.00  0.00     0.049 A 
ATOM     46  N   UNL A   1      39.329  32.209  32.513  1.00  0.00    -0.248 NA
ATOM     47  C   UNL A   1      37.603  33.779  32.488  1.00  0.00     0.031 C 
ATOM     48  C   UNL A   1      37.795  30.509  28.668  1.00  0.00     0.029 A 
ATOM     49  N   UNL A   1      39.361  30.332  30.254  1.00  0.00    -0.354 N 
ATOM     50  C   UNL A   1      39.467  33.065  33.599  1.00  0.00     0.074 A 
ATOM     51  C   UNL A   1      38.419  34.056  33.492  1.00  0.00     0.031 C 
ATOM     52  C   UNL A   1      38.590  29.480  28.334  1.00  0.00     0.029 A 
ATOM     53  C   UNL A   1      39.634  29.339  29.344  1.00  0.00     0.049 A 
ATOM     54  H   UNL A   1      39.908  30.494  31.056  1.00  0.00     0.167 HD
ATOM     55  C   UNL A   1      40.369  33.015  34.609  1.00  0.00     0.037 A 
ATOM     56  C   UNL A   1      40.615  28.417  29.330  1.00  0.00     0.037 A 
ATOM     57  C   UNL A   1      41.396  32.013  34.723  1.00  0.00     0.049 A 
ATOM     58  C   UNL A   1      41.609  28.388  30.459  1.00  0.00     0.074 A 
ATOM     59  C   UNL A   1      42.316  31.833  35.740  1.00  0.00     0.029 A 
ATOM     60  N   UNL A   1      41.641  31.024  33.782  1.00  0.00    -0.354 N 
ATOM     61  N   UNL A   1      41.679  29.152  31.523  1.00  0.00    -0.248 NA
ATOM     62  C   UNL A   1      42.657  27.361  30.387  1.00  0.00     0.031 C 
ATOM     63  C   UNL A   1      43.156  30.771  35.387  1.00  0.00     0.029 A 
ATOM     64  C   UNL A   1      42.718  30.248  34.181  1.00  0.00     0.049 A 
ATOM     65  H   UNL A   1      41.126  30.891  32.953  1.00  0.00     0.167 HD
ATOM     66  C   UNL A   1      42.752  28.673  32.265  1.00  0.00     0.074 A 
ATOM     67  C   UNL A   1      43.294  27.546  31.534  1.00  0.00     0.031 C 
ATOM     68  C   UNL A   1      43.242  29.124  33.447  1.00  0.00     0.037 A 
BRANCH  55  69
ATOM     69  C   UNL A   1      40.286  34.082  35.663  1.00  0.00     0.057 A 
ATOM     70  C   UNL A   1      39.533  33.914  36.835  1.00  0.00     0.134 A 
ATOM     71  C   UNL A   1      40.985  35.287  35.517  1.00  0.00     0.134 A 
ATOM     72  F   UNL A   1      38.829  32.790  37.036  1.00  0.00    -0.206 F 
ATOM     73  C   UNL A   1      39.450  34.918  37.801  1.00  0.00     0.040 A 
ATOM     74  C   UNL A   1      40.935  36.285  36.491  1.00  0.00     0.040 A 
ATOM     75  F   UNL A   1      41.731  35.513  34.425  1.00  0.00    -0.206 F 
ATOM     76  C   UNL A   1      40.158  36.105  37.633  1.00  0.00     0.006 A 
ENDBRANCH  55  69
BRANCH  56  77
ATOM     77  C   UNL A   1      40.685  27.417  28.235  1.00  0.00     0.057 A 
ATOM     78  C   UNL A   1      39.975  26.212  28.314  1.00  0.00     0.134 A 
ATOM     79  C   UNL A   1      41.467  27.629  27.095  1.00  0.00     0.134 A 
ATOM     80  F   UNL A   1      39.221  25.942  29.390  1.00  0.00    -0.206 F 
ATOM     81  C   UNL A   1      40.060  25.244  27.312  1.00  0.00     0.040 A 
ATOM     82  C   UNL A   1      41.540  26.683  26.072  1.00  0.00     0.040 A 
ATOM     83  F   UNL A   1      42.163  28.766  26.952  1.00  0.00    -0.206 F 
ATOM     84  C   UNL A   1      40.842  25.481  26.183  1.00  0.00     0.006 A 
ENDBRANCH  56  77
BRANCH  68  85
ATOM     85  C   UNL A   1      44.392  28.365  34.046  1.00  0.00     0.057 A 
ATOM     86  C   UNL A   1      45.725  28.734  33.826  1.00  0.00     0.134 A 
ATOM     87  C   UNL A   1      44.157  27.262  34.877  1.00  0.00     0.134 A 
ATOM     88  F   UNL A   1      46.021  29.774  33.031  1.00  0.00    -0.206 F 
ATOM     89  C   UNL A   1      46.783  28.013  34.382  1.00  0.00     0.040 A 
ATOM     90  C   UNL A   1      45.205  26.553  35.466  1.00  0.00     0.040 A 
ATOM     91  F   UNL A   1      42.904  26.861  35.140  1.00  0.00    -0.206 F 
ATOM     92  C   UNL A   1      46.524  26.923  35.209  1.00  0.00     0.006 A 
ENDBRANCH  68  85
ENDBRANCH  42  43
ENDBRANCH  34  37
ENDBRANCH  32  33
ENDBRANCH  31  32
ENDBRANCH  30  31
ENDBRANCH   1  30
TORSDOF 17
ENDMDL
MODEL 3
REMARK VINA RESULT:     -12.8      3.100      6.246
REMARK SMILES C[C@@H](C(=O)NCCCCNC(=O)c1ccc(-c2c3nc(c(-c4c(F)cccc4F)c4ccc([nH]4)c(-c4c(F)cccc4F)c4nc(c(-c5c(F)cccc5F)c5ccc2[nH]5)C=C4)C=C3)cc1)c1ccc(C[C@H]2CCC[C@H]2O)cc1-c1ccc(O)cc1
REMARK SMILES IDX 6 1 5 2 3 3 4 4 2 6 1 7 67 8 68 9 79 10 69 11 78 12 70 13
REMARK SMILES IDX 80 14 81 15 86 16 82 17 85 18 83 19 84 20 71 22 72 23 73 24
REMARK SMILES IDX 76 25 74 26 75 27 77 28 7 30 8 31 9 32 10 33 11 34 12 36
REMARK SMILES IDX 13 37 14 38 66 39 15 40 65 41 16 42 17 43 18 44 59 45 19 46
REMARK SMILES IDX 64 47 58 48 60 49 20 50 63 51 57 52 56 53 21 55 47 56 30 57
REMARK SMILES IDX 46 58 31 59 34 60 45 61 61 62 32 63 33 64 44 66 62 67 35 68
REMARK SMILES IDX 22 69 23 70 28 71 24 72 25 73 27 74 29 75 26 76 48 77 49 78
REMARK SMILES IDX 54 79 50 80 51 81 53 82 55 83 52 84 36 85 37 86 42 87 38 88
REMARK SMILES IDX 39 89 41 90 43 91 40 92
REMARK H PARENT 5 5 84 21 77 29 10 35 60 54 34 65
REMARK Flexibility Score: inf
ROOT
ATOM      1  C   UNL A   1      33.735  26.050  25.682  1.00  0.00     0.116 C 
ENDROOT
BRANCH   1   2
ATOM      2  N   UNL A   1      34.724  25.014  25.496  1.00  0.00    -0.356 N 
ATOM      3  C   UNL A   1      34.665  23.692  25.825  1.00  0.00     0.227 C 
ATOM      4  O   UNL A   1      35.693  23.036  25.633  1.00  0.00    -0.274 OA
ATOM      5  H   UNL A   1      35.563  25.306  25.071  1.00  0.00     0.163 HD
BRANCH   3   6
ATOM      6  C   UNL A   1      33.351  23.080  26.361  1.00  0.00     0.106 C 
ATOM      7  C   UNL A   1      33.428  22.762  27.860  1.00  0.00     0.023 C 
BRANCH   6   8
ATOM      8  C   UNL A   1      32.973  21.839  25.548  1.00  0.00    -0.028 A 
ATOM      9  C   UNL A   1      33.064  20.580  26.172  1.00  0.00     0.005 A 
ATOM     10  C   UNL A   1      32.596  21.901  24.185  1.00  0.00    -0.014 A 
ATOM     11  C   UNL A   1      32.814  19.408  25.475  1.00  0.00     0.004 A 
ATOM     12  C   UNL A   1      32.437  20.687  23.478  1.00  0.00     0.012 A 
ATOM     13  C   UNL A   1      32.587  19.440  24.104  1.00  0.00    -0.047 A 
BRANCH  10  14
ATOM     14  C   UNL A   1      32.292  23.170  23.495  1.00  0.00    -0.018 A 
ATOM     15  C   UNL A   1      33.159  23.632  22.487  1.00  0.00     0.012 A 
ATOM     16  C   UNL A   1      31.140  23.923  23.773  1.00  0.00     0.012 A 
ATOM     17  C   UNL A   1      32.870  24.788  21.761  1.00  0.00     0.047 A 
ATOM     18  C   UNL A   1      30.840  25.076  23.037  1.00  0.00     0.047 A 
ATOM     19  C   UNL A   1      31.707  25.494  22.031  1.00  0.00     0.115 A 
BRANCH  19  20
ATOM     20  O   UNL A   1      31.447  26.598  21.275  1.00  0.00    -0.508 OA
ATOM     21  H   UNL A   1      31.630  26.590  20.356  1.00  0.00     0.293 HD
ENDBRANCH  19  20
ENDBRANCH  10  14
BRANCH  13  22
ATOM     22  C   UNL A   1      32.541  18.148  23.330  1.00  0.00     0.041 C 
BRANCH  22  23
ATOM     23  C   UNL A   1      33.537  17.044  23.740  1.00  0.00     0.022 C 
ATOM     24  C   UNL A   1      34.895  17.538  24.263  1.00  0.00     0.007 C 
ATOM     25  C   UNL A   1      33.102  15.966  24.749  1.00  0.00     0.117 C 
ATOM     26  C   UNL A   1      35.404  16.450  25.214  1.00  0.00     0.003 C 
ATOM     27  C   UNL A   1      34.423  15.287  25.091  1.00  0.00     0.032 C 
BRANCH  25  28
ATOM     28  O   UNL A   1      32.537  16.442  25.958  1.00  0.00    -0.393 OA
ATOM     29  H   UNL A   1      33.053  17.197  26.281  1.00  0.00     0.210 HD
ENDBRANCH  25  28
ENDBRANCH  22  23
ENDBRANCH  13  22
ENDBRANCH   6   8
ENDBRANCH   3   6
ENDBRANCH   1   2
BRANCH   1  30
ATOM     30  C   UNL A   1      33.759  27.041  24.518  1.00  0.00     0.023 C 
BRANCH  30  31
ATOM     31  C   UNL A   1      33.744  28.513  24.935  1.00  0.00     0.023 C 
BRANCH  31  32
ATOM     32  C   UNL A   1      34.108  28.772  26.390  1.00  0.00     0.116 C 
BRANCH  32  33
ATOM     33  N   UNL A   1      33.880  30.151  26.791  1.00  0.00    -0.352 N 
ATOM     34  C   UNL A   1      34.605  30.934  27.655  1.00  0.00     0.251 C 
ATOM     35  H   UNL A   1      33.094  30.584  26.386  1.00  0.00     0.163 HD
ATOM     36  O   UNL A   1      34.181  32.034  27.989  1.00  0.00    -0.269 OA
BRANCH  34  37
ATOM     37  C   UNL A   1      35.884  30.436  28.201  1.00  0.00     0.039 A 
ATOM     38  C   UNL A   1      35.867  29.711  29.395  1.00  0.00     0.014 A 
ATOM     39  C   UNL A   1      37.094  30.685  27.547  1.00  0.00     0.014 A 
ATOM     40  C   UNL A   1      37.060  29.202  29.910  1.00  0.00     0.010 A 
ATOM     41  C   UNL A   1      38.268  30.103  28.015  1.00  0.00     0.010 A 
ATOM     42  C   UNL A   1      38.266  29.372  29.212  1.00  0.00    -0.014 A 
BRANCH  42  43
ATOM     43  C   UNL A   1      39.538  28.817  29.739  1.00  0.00     0.031 A 
ATOM     44  C   UNL A   1      40.164  29.406  30.974  1.00  0.00     0.074 A 
ATOM     45  C   UNL A   1      40.147  27.809  29.087  1.00  0.00     0.049 A 
ATOM     46  N   UNL A   1      41.273  29.066  31.582  1.00  0.00    -0.248 NA
ATOM     47  C   UNL A   1      39.470  30.547  31.591  1.00  0.00     0.031 C 
ATOM     48  C   UNL A   1      39.667  27.184  27.853  1.00  0.00     0.029 A 
ATOM     49  N   UNL A   1      41.305  27.130  29.373  1.00  0.00    -0.354 N 
ATOM     50  C   UNL A   1      41.413  29.958  32.638  1.00  0.00     0.074 A 
ATOM     51  C   UNL A   1      40.313  30.892  32.552  1.00  0.00     0.031 C 
ATOM     52  C   UNL A   1      40.498  26.188  27.512  1.00  0.00     0.029 A 
ATOM     53  C   UNL A   1      41.590  26.127  28.479  1.00  0.00     0.049 A 
ATOM     54  H   UNL A   1      41.877  27.341  30.146  1.00  0.00     0.167 HD
ATOM     55  C   UNL A   1      42.358  29.981  33.609  1.00  0.00     0.037 A 
ATOM     56  C   UNL A   1      42.615  25.255  28.446  1.00  0.00     0.037 A 
ATOM     57  C   UNL A   1      43.438  29.035  33.704  1.00  0.00     0.049 A 
ATOM     58  C   UNL A   1      43.656  25.307  29.530  1.00  0.00     0.074 A 
ATOM     59  C   UNL A   1      44.409  28.929  34.685  1.00  0.00     0.029 A 
ATOM     60  N   UNL A   1      43.694  28.033  32.779  1.00  0.00    -0.354 N 
ATOM     61  N   UNL A   1      43.732  26.103  30.570  1.00  0.00    -0.248 NA
ATOM     62  C   UNL A   1      44.751  24.331  29.439  1.00  0.00     0.031 C 
ATOM     63  C   UNL A   1      45.286  27.901  34.323  1.00  0.00     0.029 A 
ATOM     64  C   UNL A   1      44.824  27.323  33.151  1.00  0.00     0.049 A 
ATOM     65  H   UNL A   1      43.152  27.852  31.977  1.00  0.00     0.167 HD
ATOM     66  C   UNL A   1      44.857  25.699  31.277  1.00  0.00     0.074 A 
ATOM     67  C   UNL A   1      45.426  24.580  30.553  1.00  0.00     0.031 C 
ATOM     68  C   UNL A   1      45.374  26.207  32.424  1.00  0.00     0.037 A 
BRANCH  55  69
ATOM     69  C   UNL A   1      42.265  31.071  34.638  1.00  0.00     0.057 A 
ATOM     70  C   UNL A   1      41.530  30.918  35.822  1.00  0.00     0.134 A 
ATOM     71  C   UNL A   1      42.938  32.286  34.454  1.00  0.00     0.134 A 
ATOM     72  F   UNL A   1      40.851  29.785  36.059  1.00  0.00    -0.206 F 
ATOM     73  C   UNL A   1      41.437  31.943  36.765  1.00  0.00     0.040 A 
ATOM     74  C   UNL A   1      42.879  33.307  35.404  1.00  0.00     0.040 A 
ATOM     75  F   UNL A   1      43.666  32.501  33.348  1.00  0.00    -0.206 F 
ATOM     76  C   UNL A   1      42.119  33.140  36.560  1.00  0.00     0.006 A 
ENDBRANCH  55  69
BRANCH  56  77
ATOM     77  C   UNL A   1      42.689  24.229  27.375  1.00  0.00     0.057 A 
ATOM     78  C   UNL A   1      42.183  22.939  27.578  1.00  0.00     0.134 A 
ATOM     79  C   UNL A   1      43.275  24.503  26.134  1.00  0.00     0.134 A 
ATOM     80  F   UNL A   1      41.626  22.609  28.752  1.00  0.00    -0.206 F 
ATOM     81  C   UNL A   1      42.280  21.951  26.596  1.00  0.00     0.040 A 
ATOM     82  C   UNL A   1      43.353  23.534  25.133  1.00  0.00     0.040 A 
ATOM     83  F   UNL A   1      43.769  25.722  25.872  1.00  0.00    -0.206 F 
ATOM     84  C   UNL A   1      42.863  22.250  25.366  1.00  0.00     0.006 A 
ENDBRANCH  56  77
BRANCH  68  85
ATOM     85  C   UNL A   1      46.585  25.523  32.992  1.00  0.00     0.057 A 
ATOM     86  C   UNL A   1      46.486  24.485  33.927  1.00  0.00     0.134 A 
ATOM     87  C   UNL A   1      47.870  25.894  32.575  1.00  0.00     0.134 A 
ATOM     88  F   UNL A   1      45.286  24.087  34.379  1.00  0.00    -0.206 F 
ATOM     89  C   UNL A   1      47.621  23.866  34.453  1.00  0.00     0.040 A 
ATOM     90  C   UNL A   1      49.011  25.260  33.068  1.00  0.00     0.040 A 
ATOM     91  F   UNL A   1      48.038  26.872  31.672  1.00  0.00    -0.206 F 
ATOM     92  C   UNL A   1      48.888  24.249  34.019  1.00  0.00     0.006 A 
ENDBRANCH  68  85
ENDBRANCH  42  43
ENDBRANCH  34  37
ENDBRANCH  32  33
ENDBRANCH  31  32
ENDBRANCH  30  31
ENDBRANCH   1  30
TORSDOF 17
ENDMDL
