MODEL 1
REMARK VINA RESULT:     -11.5      0.000      0.000
REMARK SMILES CCc1c(C(=O)NCCCCNC(=O)c2ccc(-c3c4nc(c(-c5c(F)cccc5F)c5ccc([nH]5)c(-c5c(F)cccc5F)c5nc(c(-c6c(F)cccc6F)c6ccc3[nH]6)C=C5)C=C4)cc2)nnn1-c1ccc(OC)cc1
REMARK SMILES IDX 9 1 8 2 7 3 5 4 6 5 4 7 3 8 71 9 69 10 70 11 2 12 1 13 72 14
REMARK SMILES IDX 73 15 79 16 74 17 78 18 75 19 76 20 77 21 10 22 11 23 12 24
REMARK SMILES IDX 13 25 14 27 15 28 16 29 68 30 17 31 67 32 18 33 19 34 20 35
REMARK SMILES IDX 61 36 21 37 66 38 60 39 62 40 22 41 65 42 59 43 58 44 23 46
REMARK SMILES IDX 49 47 32 48 48 49 33 50 36 51 47 52 63 53 34 54 35 55 46 57
REMARK SMILES IDX 64 58 37 59 24 60 25 61 30 62 26 63 27 64 29 65 31 66 28 67
REMARK SMILES IDX 50 68 51 69 56 70 52 71 53 72 55 73 57 74 54 75 38 76 39 77
REMARK SMILES IDX 44 78 40 79 41 80 43 81 45 82 42 83
REMARK H PARENT 7 6 12 26 62 45 36 56
REMARK Flexibility Score: inf
ROOT
ATOM      1  C   UNL A   1      33.475  27.984  25.457  1.00  0.00     0.023 C 
ENDROOT
BRANCH   1   2
ATOM      2  C   UNL A   1      33.732  28.440  24.019  1.00  0.00     0.116 C 
BRANCH   2   3
ATOM      3  N   UNL A   1      32.670  28.077  23.118  1.00  0.00    -0.351 N 
ATOM      4  C   UNL A   1      32.123  26.913  22.644  1.00  0.00     0.273 C 
ATOM      5  O   UNL A   1      31.140  27.121  21.919  1.00  0.00    -0.267 OA
ATOM      6  H   UNL A   1      32.221  28.870  22.744  1.00  0.00     0.163 HD
BRANCH   4   7
ATOM      7  C   UNL A   1      32.560  25.526  22.897  1.00  0.00     0.174 A 
ATOM      8  C   UNL A   1      32.232  24.459  23.740  1.00  0.00     0.077 A 
ATOM      9  N   UNL A   1      33.100  23.439  23.339  1.00  0.00    -0.217 N 
ATOM     10  N   UNL A   1      33.664  25.124  22.149  1.00  0.00    -0.124 NA
ATOM     11  N   UNL A   1      34.036  23.914  22.511  1.00  0.00    -0.061 NA
BRANCH   8  12
ATOM     12  C   UNL A   1      31.363  24.260  24.938  1.00  0.00     0.055 C 
ATOM     13  C   UNL A   1      32.086  24.650  26.216  1.00  0.00     0.011 C 
ENDBRANCH   8  12
BRANCH   9  14
ATOM     14  C   UNL A   1      33.140  22.099  23.782  1.00  0.00     0.067 A 
ATOM     15  C   UNL A   1      32.248  21.169  23.243  1.00  0.00     0.032 A 
ATOM     16  C   UNL A   1      34.117  21.696  24.698  1.00  0.00     0.032 A 
ATOM     17  C   UNL A   1      32.421  19.815  23.542  1.00  0.00     0.048 A 
ATOM     18  C   UNL A   1      34.265  20.344  25.010  1.00  0.00     0.048 A 
ATOM     19  C   UNL A   1      33.438  19.394  24.406  1.00  0.00     0.119 A 
BRANCH  19  20
ATOM     20  O   UNL A   1      33.527  18.040  24.575  1.00  0.00    -0.497 OA
ATOM     21  C   UNL A   1      32.740  17.474  25.617  1.00  0.00     0.278 C 
ENDBRANCH  19  20
ENDBRANCH   9  14
ENDBRANCH   4   7
ENDBRANCH   2   3
ENDBRANCH   1   2
BRANCH   1  22
ATOM     22  C   UNL A   1      33.732  29.032  26.546  1.00  0.00     0.023 C 
BRANCH  22  23
ATOM     23  C   UNL A   1      35.087  28.923  27.240  1.00  0.00     0.116 C 
BRANCH  23  24
ATOM     24  N   UNL A   1      35.252  29.854  28.358  1.00  0.00    -0.352 N 
ATOM     25  C   UNL A   1      36.291  29.896  29.277  1.00  0.00     0.251 C 
ATOM     26  H   UNL A   1      34.542  30.528  28.472  1.00  0.00     0.163 HD
ATOM     27  O   UNL A   1      36.180  30.443  30.354  1.00  0.00    -0.269 OA
BRANCH  25  28
ATOM     28  C   UNL A   1      37.559  29.260  28.883  1.00  0.00     0.039 A 
ATOM     29  C   UNL A   1      38.282  29.694  27.771  1.00  0.00     0.014 A 
ATOM     30  C   UNL A   1      38.066  28.295  29.748  1.00  0.00     0.014 A 
ATOM     31  C   UNL A   1      39.581  29.220  27.595  1.00  0.00     0.010 A 
ATOM     32  C   UNL A   1      39.392  27.958  29.660  1.00  0.00     0.010 A 
ATOM     33  C   UNL A   1      40.145  28.376  28.564  1.00  0.00    -0.014 A 
BRANCH  33  34
ATOM     34  C   UNL A   1      41.553  27.991  28.496  1.00  0.00     0.031 A 
ATOM     35  C   UNL A   1      41.864  26.747  27.731  1.00  0.00     0.074 A 
ATOM     36  C   UNL A   1      42.550  28.813  28.889  1.00  0.00     0.049 A 
ATOM     37  N   UNL A   1      42.367  25.645  28.180  1.00  0.00    -0.248 NA
ATOM     38  C   UNL A   1      41.499  26.693  26.306  1.00  0.00     0.031 C 
ATOM     39  C   UNL A   1      42.470  30.201  29.362  1.00  0.00     0.029 A 
ATOM     40  N   UNL A   1      43.890  28.595  28.837  1.00  0.00    -0.354 N 
ATOM     41  C   UNL A   1      42.559  24.817  27.073  1.00  0.00     0.074 A 
ATOM     42  C   UNL A   1      41.872  25.453  25.978  1.00  0.00     0.031 C 
ATOM     43  C   UNL A   1      43.695  30.768  29.313  1.00  0.00     0.029 A 
ATOM     44  C   UNL A   1      44.663  29.735  28.999  1.00  0.00     0.049 A 
ATOM     45  H   UNL A   1      44.281  27.703  28.696  1.00  0.00     0.167 HD
ATOM     46  C   UNL A   1      43.444  23.781  27.101  1.00  0.00     0.037 A 
ATOM     47  C   UNL A   1      46.006  29.829  28.868  1.00  0.00     0.037 A 
ATOM     48  C   UNL A   1      43.818  23.449  28.453  1.00  0.00     0.049 A 
ATOM     49  C   UNL A   1      46.559  28.460  29.020  1.00  0.00     0.074 A 
ATOM     50  C   UNL A   1      43.129  23.056  29.584  1.00  0.00     0.029 A 
ATOM     51  N   UNL A   1      45.049  23.861  28.905  1.00  0.00    -0.354 N 
ATOM     52  N   UNL A   1      46.520  27.783  30.135  1.00  0.00    -0.248 NA
ATOM     53  C   UNL A   1      46.732  27.666  27.814  1.00  0.00     0.031 C 
ATOM     54  C   UNL A   1      43.766  23.750  30.656  1.00  0.00     0.029 A 
ATOM     55  C   UNL A   1      44.841  24.460  30.120  1.00  0.00     0.049 A 
ATOM     56  H   UNL A   1      45.913  23.746  28.445  1.00  0.00     0.167 HD
ATOM     57  C   UNL A   1      46.235  26.482  29.751  1.00  0.00     0.074 A 
ATOM     58  C   UNL A   1      46.467  26.453  28.307  1.00  0.00     0.031 C 
ATOM     59  C   UNL A   1      45.565  25.623  30.576  1.00  0.00     0.037 A 
BRANCH  46  60
ATOM     60  C   UNL A   1      44.246  23.290  25.917  1.00  0.00     0.057 A 
ATOM     61  C   UNL A   1      44.278  21.912  25.628  1.00  0.00     0.134 A 
ATOM     62  C   UNL A   1      45.215  24.060  25.243  1.00  0.00     0.134 A 
ATOM     63  F   UNL A   1      43.414  21.065  26.208  1.00  0.00    -0.206 F 
ATOM     64  C   UNL A   1      45.252  21.335  24.802  1.00  0.00     0.040 A 
ATOM     65  C   UNL A   1      46.159  23.503  24.374  1.00  0.00     0.040 A 
ATOM     66  F   UNL A   1      45.367  25.372  25.461  1.00  0.00    -0.206 F 
ATOM     67  C   UNL A   1      46.204  22.131  24.179  1.00  0.00     0.006 A 
ENDBRANCH  46  60
BRANCH  47  68
ATOM     68  C   UNL A   1      46.788  30.968  28.343  1.00  0.00     0.057 A 
ATOM     69  C   UNL A   1      46.640  31.404  27.022  1.00  0.00     0.134 A 
ATOM     70  C   UNL A   1      47.507  31.822  29.201  1.00  0.00     0.134 A 
ATOM     71  F   UNL A   1      45.939  30.676  26.141  1.00  0.00    -0.206 F 
ATOM     72  C   UNL A   1      47.157  32.629  26.581  1.00  0.00     0.040 A 
ATOM     73  C   UNL A   1      48.033  33.044  28.773  1.00  0.00     0.040 A 
ATOM     74  F   UNL A   1      47.647  31.539  30.505  1.00  0.00    -0.206 F 
ATOM     75  C   UNL A   1      47.847  33.459  27.461  1.00  0.00     0.006 A 
ENDBRANCH  47  68
BRANCH  59  76
ATOM     76  C   UNL A   1      45.333  26.039  32.005  1.00  0.00     0.057 A 
ATOM     77  C   UNL A   1      44.165  26.671  32.460  1.00  0.00     0.134 A 
ATOM     78  C   UNL A   1      46.244  25.628  32.984  1.00  0.00     0.134 A 
ATOM     79  F   UNL A   1      43.186  27.011  31.617  1.00  0.00    -0.206 F 
ATOM     80  C   UNL A   1      43.934  26.915  33.818  1.00  0.00     0.040 A 
ATOM     81  C   UNL A   1      46.011  25.837  34.346  1.00  0.00     0.040 A 
ATOM     82  F   UNL A   1      47.358  24.963  32.634  1.00  0.00    -0.206 F 
ATOM     83  C   UNL A   1      44.856  26.490  34.767  1.00  0.00     0.006 A 
ENDBRANCH  59  76
ENDBRANCH  33  34
ENDBRANCH  25  28
ENDBRANCH  23  24
ENDBRANCH  22  23
ENDBRANCH   1  22
TORSDOF 14
ENDMDL
MODEL 2
REMARK VINA RESULT:     -11.4      2.003      6.157
REMARK SMILES CCc1c(C(=O)NCCCCNC(=O)c2ccc(-c3c4nc(c(-c5c(F)cccc5F)c5ccc([nH]5)c(-c5c(F)cccc5F)c5nc(c(-c6c(F)cccc6F)c6ccc3[nH]6)C=C5)C=C4)cc2)nnn1-c1ccc(OC)cc1
REMARK SMILES IDX 9 1 8 2 7 3 5 4 6 5 4 7 3 8 71 9 69 10 70 11 2 12 1 13 72 14
REMARK SMILES IDX 73 15 79 16 74 17 78 18 75 19 76 20 77 21 10 22 11 23 12 24
REMARK SMILES IDX 13 25 14 27 15 28 16 29 68 30 17 31 67 32 18 33 19 34 20 35
REMARK SMILES IDX 61 36 21 37 66 38 60 39 62 40 22 41 65 42 59 43 58 44 23 46
REMARK SMILES IDX 49 47 32 48 48 49 33 50 36 51 47 52 63 53 34 54 35 55 46 57
REMARK SMILES IDX 64 58 37 59 24 60 25 61 30 62 26 63 27 64 29 65 31 66 28 67
REMARK SMILES IDX 50 68 51 69 56 70 52 71 53 72 55 73 57 74 54 75 38 76 39 77
REMARK SMILES IDX 44 78 40 79 41 80 43 81 45 82 42 83
REMARK H PARENT 7 6 12 26 62 45 36 56
REMARK Flexibility Score: inf
ROOT
ATOM      1  C   UNL A   1      32.291  29.172  26.502  1.00  0.00     0.023 C 
ENDROOT
BRANCH   1   2
ATOM      2  C   UNL A   1      31.741  28.973  25.088  1.00  0.00     0.116 C 
BRANCH   2   3
ATOM      3  N   UNL A   1      32.743  29.147  24.068  1.00  0.00    -0.351 N 
ATOM      4  C   UNL A   1      33.493  28.331  23.262  1.00  0.00     0.273 C 
ATOM      5  O   UNL A   1      34.188  28.974  22.464  1.00  0.00    -0.267 OA
ATOM      6  H   UNL A   1      32.942  30.098  23.910  1.00  0.00     0.163 HD
BRANCH   4   7
ATOM      7  C   UNL A   1      33.547  26.856  23.248  1.00  0.00     0.174 A 
ATOM      8  C   UNL A   1      33.509  25.795  24.160  1.00  0.00     0.077 A 
ATOM      9  N   UNL A   1      33.582  24.658  23.350  1.00  0.00    -0.217 N 
ATOM     10  N   UNL A   1      33.764  26.298  21.990  1.00  0.00    -0.124 NA
ATOM     11  N   UNL A   1      33.893  24.992  22.093  1.00  0.00    -0.061 NA
BRANCH   8  12
ATOM     12  C   UNL A   1      33.560  25.648  25.645  1.00  0.00     0.055 C 
ATOM     13  C   UNL A   1      32.170  25.458  26.229  1.00  0.00     0.011 C 
ENDBRANCH   8  12
BRANCH   9  14
ATOM     14  C   UNL A   1      33.481  23.303  23.733  1.00  0.00     0.067 A 
ATOM     15  C   UNL A   1      32.294  22.607  23.494  1.00  0.00     0.032 A 
ATOM     16  C   UNL A   1      34.589  22.647  24.279  1.00  0.00     0.032 A 
ATOM     17  C   UNL A   1      32.268  21.225  23.698  1.00  0.00     0.048 A 
ATOM     18  C   UNL A   1      34.545  21.270  24.503  1.00  0.00     0.048 A 
ATOM     19  C   UNL A   1      33.394  20.548  24.180  1.00  0.00     0.119 A 
BRANCH  19  20
ATOM     20  O   UNL A   1      33.250  19.193  24.288  1.00  0.00    -0.497 OA
ATOM     21  C   UNL A   1      32.797  18.697  25.544  1.00  0.00     0.278 C 
ENDBRANCH  19  20
ENDBRANCH   9  14
ENDBRANCH   4   7
ENDBRANCH   2   3
ENDBRANCH   1   2
BRANCH   1  22
ATOM     22  C   UNL A   1      32.526  30.627  26.927  1.00  0.00     0.023 C 
BRANCH  22  23
ATOM     23  C   UNL A   1      33.940  30.939  27.408  1.00  0.00     0.116 C 
BRANCH  23  24
ATOM     24  N   UNL A   1      33.985  31.865  28.541  1.00  0.00    -0.352 N 
ATOM     25  C   UNL A   1      34.918  31.901  29.568  1.00  0.00     0.251 C 
ATOM     26  H   UNL A   1      33.269  32.541  28.579  1.00  0.00     0.163 HD
ATOM     27  O   UNL A   1      34.692  32.445  30.628  1.00  0.00    -0.269 OA
BRANCH  25  28
ATOM     28  C   UNL A   1      36.220  31.262  29.312  1.00  0.00     0.039 A 
ATOM     29  C   UNL A   1      37.398  32.006  29.231  1.00  0.00     0.014 A 
ATOM     30  C   UNL A   1      36.236  29.871  29.288  1.00  0.00     0.014 A 
ATOM     31  C   UNL A   1      38.616  31.327  29.233  1.00  0.00     0.010 A 
ATOM     32  C   UNL A   1      37.430  29.219  29.450  1.00  0.00     0.010 A 
ATOM     33  C   UNL A   1      38.627  29.931  29.377  1.00  0.00    -0.014 A 
BRANCH  33  34
ATOM     34  C   UNL A   1      39.883  29.205  29.545  1.00  0.00     0.031 A 
ATOM     35  C   UNL A   1      40.345  28.996  30.950  1.00  0.00     0.074 A 
ATOM     36  C   UNL A   1      40.486  28.550  28.529  1.00  0.00     0.049 A 
ATOM     37  N   UNL A   1      41.414  29.459  31.510  1.00  0.00    -0.248 NA
ATOM     38  C   UNL A   1      39.474  28.247  31.869  1.00  0.00     0.031 C 
ATOM     39  C   UNL A   1      40.021  28.360  27.149  1.00  0.00     0.029 A 
ATOM     40  N   UNL A   1      41.622  27.807  28.563  1.00  0.00    -0.354 N 
ATOM     41  C   UNL A   1      41.456  28.914  32.795  1.00  0.00     0.074 A 
ATOM     42  C   UNL A   1      40.168  28.303  33.009  1.00  0.00     0.031 C 
ATOM     43  C   UNL A   1      40.727  27.368  26.566  1.00  0.00     0.029 A 
ATOM     44  C   UNL A   1      41.811  26.996  27.454  1.00  0.00     0.049 A 
ATOM     45  H   UNL A   1      42.260  27.841  29.313  1.00  0.00     0.167 HD
ATOM     46  C   UNL A   1      42.621  28.830  33.498  1.00  0.00     0.037 A 
ATOM     47  C   UNL A   1      42.782  26.069  27.283  1.00  0.00     0.037 A 
ATOM     48  C   UNL A   1      43.636  29.681  32.931  1.00  0.00     0.049 A 
ATOM     49  C   UNL A   1      43.879  26.404  28.224  1.00  0.00     0.074 A 
ATOM     50  C   UNL A   1      43.740  31.035  32.676  1.00  0.00     0.029 A 
ATOM     51  N   UNL A   1      44.627  29.095  32.180  1.00  0.00    -0.354 N 
ATOM     52  N   UNL A   1      44.616  27.476  28.125  1.00  0.00    -0.248 NA
ATOM     53  C   UNL A   1      43.849  25.788  29.541  1.00  0.00     0.031 C 
ATOM     54  C   UNL A   1      44.400  31.117  31.414  1.00  0.00     0.029 A 
ATOM     55  C   UNL A   1      44.718  29.818  31.018  1.00  0.00     0.049 A 
ATOM     56  H   UNL A   1      45.167  28.310  32.429  1.00  0.00     0.167 HD
ATOM     57  C   UNL A   1      44.791  27.909  29.430  1.00  0.00     0.074 A 
ATOM     58  C   UNL A   1      44.374  26.782  30.263  1.00  0.00     0.031 C 
ATOM     59  C   UNL A   1      44.982  29.230  29.725  1.00  0.00     0.037 A 
BRANCH  46  60
ATOM     60  C   UNL A   1      42.967  27.732  34.478  1.00  0.00     0.057 A 
ATOM     61  C   UNL A   1      43.282  26.448  33.993  1.00  0.00     0.134 A 
ATOM     62  C   UNL A   1      42.714  27.798  35.863  1.00  0.00     0.134 A 
ATOM     63  F   UNL A   1      43.537  26.245  32.691  1.00  0.00    -0.206 F 
ATOM     64  C   UNL A   1      43.260  25.307  34.806  1.00  0.00     0.040 A 
ATOM     65  C   UNL A   1      42.741  26.673  36.694  1.00  0.00     0.040 A 
ATOM     66  F   UNL A   1      42.330  28.928  36.468  1.00  0.00    -0.206 F 
ATOM     67  C   UNL A   1      42.979  25.417  36.161  1.00  0.00     0.006 A 
ENDBRANCH  46  60
BRANCH  47  68
ATOM     68  C   UNL A   1      42.685  24.776  26.574  1.00  0.00     0.057 A 
ATOM     69  C   UNL A   1      43.432  24.524  25.417  1.00  0.00     0.134 A 
ATOM     70  C   UNL A   1      42.055  23.662  27.161  1.00  0.00     0.134 A 
ATOM     71  F   UNL A   1      44.098  25.515  24.809  1.00  0.00    -0.206 F 
ATOM     72  C   UNL A   1      43.565  23.235  24.885  1.00  0.00     0.040 A 
ATOM     73  C   UNL A   1      42.175  22.372  26.637  1.00  0.00     0.040 A 
ATOM     74  F   UNL A   1      41.375  23.776  28.311  1.00  0.00    -0.206 F 
ATOM     75  C   UNL A   1      42.944  22.151  25.502  1.00  0.00     0.006 A 
ENDBRANCH  47  68
BRANCH  59  76
ATOM     76  C   UNL A   1      45.225  30.189  28.590  1.00  0.00     0.057 A 
ATOM     77  C   UNL A   1      44.207  30.870  27.905  1.00  0.00     0.134 A 
ATOM     78  C   UNL A   1      46.539  30.571  28.299  1.00  0.00     0.134 A 
ATOM     79  F   UNL A   1      42.917  30.653  28.183  1.00  0.00    -0.206 F 
ATOM     80  C   UNL A   1      44.483  31.854  26.951  1.00  0.00     0.040 A 
ATOM     81  C   UNL A   1      46.828  31.576  27.371  1.00  0.00     0.040 A 
ATOM     82  F   UNL A   1      47.567  30.010  28.955  1.00  0.00    -0.206 F 
ATOM     83  C   UNL A   1      45.799  32.215  26.687  1.00  0.00     0.006 A 
ENDBRANCH  59  76
ENDBRANCH  33  34
ENDBRANCH  25  28
ENDBRANCH  23  24
ENDBRANCH  22  23
ENDBRANCH   1  22
TORSDOF 14
ENDMDL
MODEL 3
REMARK VINA RESULT:     -11.3      3.705      5.170
REMARK SMILES CCc1c(C(=O)NCCCCNC(=O)c2ccc(-c3c4nc(c(-c5c(F)cccc5F)c5ccc([nH]5)c(-c5c(F)cccc5F)c5nc(c(-c6c(F)cccc6F)c6ccc3[nH]6)C=C5)C=C4)cc2)nnn1-c1ccc(OC)cc1
REMARK SMILES IDX 9 1 8 2 7 3 5 4 6 5 4 7 3 8 71 9 69 10 70 11 2 12 1 13 72 14
REMARK SMILES IDX 73 15 79 16 74 17 78 18 75 19 76 20 77 21 10 22 11 23 12 24
REMARK SMILES IDX 13 25 14 27 15 28 16 29 68 30 17 31 67 32 18 33 19 34 20 35
REMARK SMILES IDX 61 36 21 37 66 38 60 39 62 40 22 41 65 42 59 43 58 44 23 46
REMARK SMILES IDX 49 47 32 48 48 49 33 50 36 51 47 52 63 53 34 54 35 55 46 57
REMARK SMILES IDX 64 58 37 59 24 60 25 61 30 62 26 63 27 64 29 65 31 66 28 67
REMARK SMILES IDX 50 68 51 69 56 70 52 71 53 72 55 73 57 74 54 75 38 76 39 77
REMARK SMILES IDX 44 78 40 79 41 80 43 81 45 82 42 83
REMARK H PARENT 7 6 12 26 62 45 36 56
REMARK Flexibility Score: inf
ROOT
ATOM      1  C   UNL A   1      31.955  29.703  26.308  1.00  0.00     0.023 C 
ENDROOT
BRANCH   1   2
ATOM      2  C   UNL A   1      31.579  29.136  24.938  1.00  0.00     0.116 C 
BRANCH   2   3
ATOM      3  N   UNL A   1      32.611  29.326  23.951  1.00  0.00    -0.351 N 
ATOM      4  C   UNL A   1      33.425  28.523  23.197  1.00  0.00     0.273 C 
ATOM      5  O   UNL A   1      34.122  29.175  22.407  1.00  0.00    -0.267 OA
ATOM      6  H   UNL A   1      32.774  30.281  23.773  1.00  0.00     0.163 HD
BRANCH   4   7
ATOM      7  C   UNL A   1      33.545  27.053  23.228  1.00  0.00     0.174 A 
ATOM      8  C   UNL A   1      33.577  26.021  24.173  1.00  0.00     0.077 A 
ATOM      9  N   UNL A   1      33.680  24.862  23.398  1.00  0.00    -0.217 N 
ATOM     10  N   UNL A   1      33.754  26.464  21.983  1.00  0.00    -0.124 NA
ATOM     11  N   UNL A   1      33.944  25.169  22.123  1.00  0.00    -0.061 NA
BRANCH   8  12
ATOM     12  C   UNL A   1      33.671  25.924  25.660  1.00  0.00     0.055 C 
ATOM     13  C   UNL A   1      32.297  25.788  26.293  1.00  0.00     0.011 C 
ENDBRANCH   8  12
BRANCH   9  14
ATOM     14  C   UNL A   1      33.649  23.517  23.825  1.00  0.00     0.067 A 
ATOM     15  C   UNL A   1      32.457  22.795  23.738  1.00  0.00     0.032 A 
ATOM     16  C   UNL A   1      34.824  22.896  24.262  1.00  0.00     0.032 A 
ATOM     17  C   UNL A   1      32.481  21.419  23.979  1.00  0.00     0.048 A 
ATOM     18  C   UNL A   1      34.831  21.526  24.526  1.00  0.00     0.048 A 
ATOM     19  C   UNL A   1      33.667  20.776  24.352  1.00  0.00     0.119 A 
BRANCH  19  20
ATOM     20  O   UNL A   1      33.562  19.421  24.512  1.00  0.00    -0.497 OA
ATOM     21  C   UNL A   1      32.759  18.966  25.595  1.00  0.00     0.278 C 
ENDBRANCH  19  20
ENDBRANCH   9  14
ENDBRANCH   4   7
ENDBRANCH   2   3
ENDBRANCH   1   2
BRANCH   1  22
ATOM     22  C   UNL A   1      31.632  31.186  26.527  1.00  0.00     0.023 C 
BRANCH  22  23
ATOM     23  C   UNL A   1      32.708  31.980  27.261  1.00  0.00     0.116 C 
BRANCH  23  24
ATOM     24  N   UNL A   1      32.364  33.388  27.468  1.00  0.00    -0.352 N 
ATOM     25  C   UNL A   1      32.934  34.274  28.372  1.00  0.00     0.251 C 
ATOM     26  H   UNL A   1      31.643  33.747  26.901  1.00  0.00     0.163 HD
ATOM     27  O   UNL A   1      32.370  35.288  28.725  1.00  0.00    -0.269 OA
BRANCH  25  28
ATOM     28  C   UNL A   1      34.277  33.944  28.878  1.00  0.00     0.039 A 
ATOM     29  C   UNL A   1      34.456  33.178  30.032  1.00  0.00     0.014 A 
ATOM     30  C   UNL A   1      35.352  34.317  28.079  1.00  0.00     0.014 A 
ATOM     31  C   UNL A   1      35.733  32.697  30.318  1.00  0.00     0.010 A 
ATOM     32  C   UNL A   1      36.566  33.713  28.277  1.00  0.00     0.010 A 
ATOM     33  C   UNL A   1      36.781  32.940  29.417  1.00  0.00    -0.014 A 
BRANCH  33  34
ATOM     34  C   UNL A   1      38.089  32.317  29.602  1.00  0.00     0.031 A 
ATOM     35  C   UNL A   1      38.205  30.885  29.195  1.00  0.00     0.074 A 
ATOM     36  C   UNL A   1      39.198  33.029  29.899  1.00  0.00     0.049 A 
ATOM     37  N   UNL A   1      38.454  29.864  29.947  1.00  0.00    -0.248 NA
ATOM     38  C   UNL A   1      37.933  30.532  27.791  1.00  0.00     0.031 C 
ATOM     39  C   UNL A   1      39.356  34.484  30.017  1.00  0.00     0.029 A 
ATOM     40  N   UNL A   1      40.471  32.580  30.052  1.00  0.00    -0.354 N 
ATOM     41  C   UNL A   1      38.556  28.761  29.097  1.00  0.00     0.074 A 
ATOM     42  C   UNL A   1      38.080  29.205  27.812  1.00  0.00     0.031 C 
ATOM     43  C   UNL A   1      40.667  34.802  29.973  1.00  0.00     0.029 A 
ATOM     44  C   UNL A   1      41.436  33.574  30.025  1.00  0.00     0.049 A 
ATOM     45  H   UNL A   1      40.690  31.627  30.172  1.00  0.00     0.167 HD
ATOM     46  C   UNL A   1      39.220  27.631  29.470  1.00  0.00     0.037 A 
ATOM     47  C   UNL A   1      42.778  33.401  30.029  1.00  0.00     0.037 A 
ATOM     48  C   UNL A   1      39.432  27.595  30.895  1.00  0.00     0.049 A 
ATOM     49  C   UNL A   1      43.044  32.043  30.562  1.00  0.00     0.074 A 
ATOM     50  C   UNL A   1      38.605  27.626  32.002  1.00  0.00     0.029 A 
ATOM     51  N   UNL A   1      40.686  27.892  31.373  1.00  0.00    -0.354 N 
ATOM     52  N   UNL A   1      42.801  31.688  31.794  1.00  0.00    -0.248 NA
ATOM     53  C   UNL A   1      43.142  30.951  29.607  1.00  0.00     0.031 C 
ATOM     54  C   UNL A   1      39.290  28.451  32.944  1.00  0.00     0.029 A 
ATOM     55  C   UNL A   1      40.516  28.807  32.379  1.00  0.00     0.049 A 
ATOM     56  H   UNL A   1      41.539  27.519  31.054  1.00  0.00     0.167 HD
ATOM     57  C   UNL A   1      42.296  30.400  31.700  1.00  0.00     0.074 A 
ATOM     58  C   UNL A   1      42.615  29.966  30.341  1.00  0.00     0.031 C 
ATOM     59  C   UNL A   1      41.419  29.907  32.625  1.00  0.00     0.037 A 
BRANCH  46  60
ATOM     60  C   UNL A   1      39.990  26.726  28.535  1.00  0.00     0.057 A 
ATOM     61  C   UNL A   1      40.962  27.282  27.681  1.00  0.00     0.134 A 
ATOM     62  C   UNL A   1      39.614  25.404  28.225  1.00  0.00     0.134 A 
ATOM     63  F   UNL A   1      41.403  28.537  27.862  1.00  0.00    -0.206 F 
ATOM     64  C   UNL A   1      41.455  26.608  26.556  1.00  0.00     0.040 A 
ATOM     65  C   UNL A   1      40.139  24.701  27.134  1.00  0.00     0.040 A 
ATOM     66  F   UNL A   1      38.651  24.757  28.892  1.00  0.00    -0.206 F 
ATOM     67  C   UNL A   1      41.035  25.314  26.274  1.00  0.00     0.006 A 
ENDBRANCH  46  60
BRANCH  47  68
ATOM     68  C   UNL A   1      43.799  34.219  29.340  1.00  0.00     0.057 A 
ATOM     69  C   UNL A   1      44.047  34.070  27.971  1.00  0.00     0.134 A 
ATOM     70  C   UNL A   1      44.372  35.349  29.955  1.00  0.00     0.134 A 
ATOM     71  F   UNL A   1      43.513  33.046  27.291  1.00  0.00    -0.206 F 
ATOM     72  C   UNL A   1      44.802  35.002  27.247  1.00  0.00     0.040 A 
ATOM     73  C   UNL A   1      45.132  36.282  29.246  1.00  0.00     0.040 A 
ATOM     74  F   UNL A   1      44.139  35.629  31.246  1.00  0.00    -0.206 F 
ATOM     75  C   UNL A   1      45.339  36.119  27.883  1.00  0.00     0.006 A 
ENDBRANCH  47  68
BRANCH  59  76
ATOM     76  C   UNL A   1      41.177  30.706  33.878  1.00  0.00     0.057 A 
ATOM     77  C   UNL A   1      40.151  31.654  34.021  1.00  0.00     0.134 A 
ATOM     78  C   UNL A   1      41.891  30.378  35.036  1.00  0.00     0.134 A 
ATOM     79  F   UNL A   1      39.344  31.962  33.001  1.00  0.00    -0.206 F 
ATOM     80  C   UNL A   1      39.875  32.272  35.244  1.00  0.00     0.040 A 
ATOM     81  C   UNL A   1      41.604  30.965  36.273  1.00  0.00     0.040 A 
ATOM     82  F   UNL A   1      42.847  29.437  34.996  1.00  0.00    -0.206 F 
ATOM     83  C   UNL A   1      40.600  31.922  36.378  1.00  0.00     0.006 A 
ENDBRANCH  59  76
ENDBRANCH  33  34
ENDBRANCH  25  28
ENDBRANCH  23  24
ENDBRANCH  22  23
ENDBRANCH   1  22
TORSDOF 14
ENDMDL
