MODEL 1
REMARK VINA RESULT:     -12.3      0.000      0.000
REMARK SMILES CC[C@@]1(C(=O)NCCCCNC(=O)c2ccc(-c3c4nc(c(-c5c(F)cccc5F)c5ccc([nH]5)c(-c5c(F)cccc5F)c5nc(c(-c6c(F)cccc6F)c6ccc3[nH]6)C=C5)C=C4)cc2)CCC[N@@H+](Cc2ccc(C3CC3)cc2)C1
REMARK SMILES IDX 8 1 7 2 6 3 4 4 5 5 3 7 68 8 82 9 69 10 71 11 70 12 2 14
REMARK SMILES IDX 1 15 72 16 73 17 74 18 81 19 75 20 80 21 76 22 77 23 78 24
REMARK SMILES IDX 79 25 9 26 10 27 11 28 12 29 13 31 14 32 15 33 67 34 16 35
REMARK SMILES IDX 66 36 17 37 18 38 19 39 60 40 20 41 65 42 59 43 61 44 21 45
REMARK SMILES IDX 64 46 58 47 57 48 22 50 48 51 31 52 47 53 32 54 35 55 46 56
REMARK SMILES IDX 62 57 33 58 34 59 45 61 63 62 36 63 23 64 24 65 29 66 25 67
REMARK SMILES IDX 26 68 28 69 30 70 27 71 49 72 50 73 55 74 51 75 52 76 54 77
REMARK SMILES IDX 56 78 53 79 37 80 38 81 43 82 39 83 40 84 42 85 44 86 41 87
REMARK H PARENT 6 6 71 13 11 30 61 49 35 60
REMARK Flexibility Score: inf
ROOT
ATOM      1  C   UNL A   1      31.822  28.870  26.500  1.00  0.00     0.023 C 
ENDROOT
BRANCH   1   2
ATOM      2  C   UNL A   1      33.025  28.156  27.130  1.00  0.00     0.116 C 
BRANCH   2   3
ATOM      3  N   UNL A   1      34.036  27.721  26.170  1.00  0.00    -0.355 N 
ATOM      4  C   UNL A   1      33.770  27.222  24.916  1.00  0.00     0.231 C 
ATOM      5  O   UNL A   1      34.115  27.923  23.960  1.00  0.00    -0.274 OA
ATOM      6  H   UNL A   1      34.981  27.790  26.442  1.00  0.00     0.163 HD
BRANCH   4   7
ATOM      7  C   UNL A   1      33.375  25.732  24.733  1.00  0.00     0.098 C 
ATOM      8  C   UNL A   1      33.880  25.200  23.355  1.00  0.00     0.028 C 
ATOM      9  C   UNL A   1      31.864  25.474  24.832  1.00  0.00     0.279 C 
ATOM     10  C   UNL A   1      32.987  25.594  22.179  1.00  0.00     0.063 C 
ATOM     11  N   UNL A   1      31.139  25.993  23.679  1.00  0.00    -0.330 N 
ATOM     12  C   UNL A   1      31.510  25.305  22.451  1.00  0.00     0.262 C 
ATOM     13  H   UNL A   1      31.491  26.949  23.634  1.00  0.00     0.348 HD
BRANCH   7  14
ATOM     14  C   UNL A   1      34.167  24.929  25.818  1.00  0.00     0.019 C 
ATOM     15  C   UNL A   1      35.481  24.283  25.394  1.00  0.00     0.005 C 
ENDBRANCH   7  14
BRANCH  11  16
ATOM     16  C   UNL A   1      29.730  26.362  23.793  1.00  0.00     0.299 C 
BRANCH  16  17
ATOM     17  C   UNL A   1      29.216  27.738  23.427  1.00  0.00     0.006 A 
ATOM     18  C   UNL A   1      30.102  28.823  23.513  1.00  0.00     0.010 A 
ATOM     19  C   UNL A   1      27.868  28.043  23.220  1.00  0.00     0.010 A 
ATOM     20  C   UNL A   1      29.656  30.145  23.368  1.00  0.00     0.004 A 
ATOM     21  C   UNL A   1      27.429  29.364  23.069  1.00  0.00     0.004 A 
ATOM     22  C   UNL A   1      28.307  30.452  23.132  1.00  0.00    -0.045 A 
BRANCH  22  23
ATOM     23  C   UNL A   1      27.866  31.894  22.978  1.00  0.00     0.019 C 
ATOM     24  C   UNL A   1      28.854  33.037  22.945  1.00  0.00     0.009 C 
ATOM     25  C   UNL A   1      28.134  32.638  21.690  1.00  0.00     0.009 C 
ENDBRANCH  22  23
ENDBRANCH  16  17
ENDBRANCH  11  16
ENDBRANCH   4   7
ENDBRANCH   2   3
ENDBRANCH   1   2
BRANCH   1  26
ATOM     26  C   UNL A   1      31.509  30.258  27.056  1.00  0.00     0.023 C 
BRANCH  26  27
ATOM     27  C   UNL A   1      32.178  31.442  26.370  1.00  0.00     0.116 C 
BRANCH  27  28
ATOM     28  N   UNL A   1      31.999  32.735  27.008  1.00  0.00    -0.352 N 
ATOM     29  C   UNL A   1      32.928  33.418  27.778  1.00  0.00     0.251 C 
ATOM     30  H   UNL A   1      31.125  33.173  26.880  1.00  0.00     0.163 HD
ATOM     31  O   UNL A   1      32.664  34.502  28.277  1.00  0.00    -0.269 OA
BRANCH  29  32
ATOM     32  C   UNL A   1      34.233  32.765  28.055  1.00  0.00     0.039 A 
ATOM     33  C   UNL A   1      35.386  33.552  28.086  1.00  0.00     0.014 A 
ATOM     34  C   UNL A   1      34.290  31.421  28.430  1.00  0.00     0.014 A 
ATOM     35  C   UNL A   1      36.567  33.025  28.620  1.00  0.00     0.010 A 
ATOM     36  C   UNL A   1      35.437  30.929  29.046  1.00  0.00     0.010 A 
ATOM     37  C   UNL A   1      36.581  31.733  29.174  1.00  0.00    -0.014 A 
BRANCH  37  38
ATOM     38  C   UNL A   1      37.754  31.223  29.938  1.00  0.00     0.031 A 
ATOM     39  C   UNL A   1      38.706  30.242  29.307  1.00  0.00     0.074 A 
ATOM     40  C   UNL A   1      37.904  31.552  31.237  1.00  0.00     0.049 A 
ATOM     41  N   UNL A   1      39.707  29.596  29.849  1.00  0.00    -0.248 NA
ATOM     42  C   UNL A   1      38.476  29.916  27.891  1.00  0.00     0.031 C 
ATOM     43  C   UNL A   1      37.013  32.426  32.004  1.00  0.00     0.029 A 
ATOM     44  N   UNL A   1      38.856  31.172  32.154  1.00  0.00    -0.354 N 
ATOM     45  C   UNL A   1      40.201  28.762  28.853  1.00  0.00     0.074 A 
ATOM     46  C   UNL A   1      39.362  28.953  27.689  1.00  0.00     0.031 C 
ATOM     47  C   UNL A   1      37.474  32.537  33.261  1.00  0.00     0.029 A 
ATOM     48  C   UNL A   1      38.671  31.716  33.403  1.00  0.00     0.049 A 
ATOM     49  H   UNL A   1      39.600  30.566  31.936  1.00  0.00     0.167 HD
ATOM     50  C   UNL A   1      41.268  27.929  28.895  1.00  0.00     0.037 A 
ATOM     51  C   UNL A   1      39.384  31.571  34.536  1.00  0.00     0.037 A 
ATOM     52  C   UNL A   1      42.140  27.779  30.029  1.00  0.00     0.049 A 
ATOM     53  C   UNL A   1      40.601  30.689  34.540  1.00  0.00     0.074 A 
ATOM     54  C   UNL A   1      43.297  27.027  30.133  1.00  0.00     0.029 A 
ATOM     55  N   UNL A   1      41.955  28.400  31.254  1.00  0.00    -0.354 N 
ATOM     56  N   UNL A   1      41.098  29.965  33.566  1.00  0.00    -0.248 NA
ATOM     57  C   UNL A   1      41.361  30.609  35.796  1.00  0.00     0.031 C 
ATOM     58  C   UNL A   1      43.801  27.176  31.429  1.00  0.00     0.029 A 
ATOM     59  C   UNL A   1      42.974  28.043  32.122  1.00  0.00     0.049 A 
ATOM     60  H   UNL A   1      41.211  29.007  31.474  1.00  0.00     0.167 HD
ATOM     61  C   UNL A   1      42.238  29.365  34.083  1.00  0.00     0.074 A 
ATOM     62  C   UNL A   1      42.368  29.818  35.452  1.00  0.00     0.031 C 
ATOM     63  C   UNL A   1      43.099  28.513  33.477  1.00  0.00     0.037 A 
BRANCH  50  64
ATOM     64  C   UNL A   1      41.561  27.125  27.664  1.00  0.00     0.057 A 
ATOM     65  C   UNL A   1      42.350  27.632  26.623  1.00  0.00     0.134 A 
ATOM     66  C   UNL A   1      41.072  25.819  27.530  1.00  0.00     0.134 A 
ATOM     67  F   UNL A   1      42.837  28.881  26.687  1.00  0.00    -0.206 F 
ATOM     68  C   UNL A   1      42.618  26.880  25.479  1.00  0.00     0.040 A 
ATOM     69  C   UNL A   1      41.355  25.048  26.401  1.00  0.00     0.040 A 
ATOM     70  F   UNL A   1      40.316  25.271  28.493  1.00  0.00    -0.206 F 
ATOM     71  C   UNL A   1      42.125  25.582  25.369  1.00  0.00     0.006 A 
ENDBRANCH  50  64
BRANCH  51  72
ATOM     72  C   UNL A   1      38.987  32.302  35.765  1.00  0.00     0.057 A 
ATOM     73  C   UNL A   1      38.215  31.678  36.754  1.00  0.00     0.134 A 
ATOM     74  C   UNL A   1      39.349  33.637  35.975  1.00  0.00     0.134 A 
ATOM     75  F   UNL A   1      37.820  30.406  36.597  1.00  0.00    -0.206 F 
ATOM     76  C   UNL A   1      37.802  32.362  37.898  1.00  0.00     0.040 A 
ATOM     77  C   UNL A   1      38.960  34.326  37.126  1.00  0.00     0.040 A 
ATOM     78  F   UNL A   1      40.092  34.288  35.069  1.00  0.00    -0.206 F 
ATOM     79  C   UNL A   1      38.178  33.690  38.088  1.00  0.00     0.006 A 
ENDBRANCH  51  72
BRANCH  63  80
ATOM     80  C   UNL A   1      44.275  28.041  34.275  1.00  0.00     0.057 A 
ATOM     81  C   UNL A   1      44.234  26.855  35.018  1.00  0.00     0.134 A 
ATOM     82  C   UNL A   1      45.477  28.761  34.267  1.00  0.00     0.134 A 
ATOM     83  F   UNL A   1      43.107  26.130  35.077  1.00  0.00    -0.206 F 
ATOM     84  C   UNL A   1      45.343  26.408  35.736  1.00  0.00     0.040 A 
ATOM     85  C   UNL A   1      46.599  28.312  34.964  1.00  0.00     0.040 A 
ATOM     86  F   UNL A   1      45.582  29.902  33.569  1.00  0.00    -0.206 F 
ATOM     87  C   UNL A   1      46.533  27.134  35.704  1.00  0.00     0.006 A 
ENDBRANCH  63  80
ENDBRANCH  37  38
ENDBRANCH  29  32
ENDBRANCH  27  28
ENDBRANCH  26  27
ENDBRANCH   1  26
TORSDOF 15
ENDMDL
MODEL 2
REMARK VINA RESULT:     -12.2      2.011      6.108
REMARK SMILES CC[C@@]1(C(=O)NCCCCNC(=O)c2ccc(-c3c4nc(c(-c5c(F)cccc5F)c5ccc([nH]5)c(-c5c(F)cccc5F)c5nc(c(-c6c(F)cccc6F)c6ccc3[nH]6)C=C5)C=C4)cc2)CCC[N@@H+](Cc2ccc(C3CC3)cc2)C1
REMARK SMILES IDX 8 1 7 2 6 3 4 4 5 5 3 7 68 8 82 9 69 10 71 11 70 12 2 14
REMARK SMILES IDX 1 15 72 16 73 17 74 18 81 19 75 20 80 21 76 22 77 23 78 24
REMARK SMILES IDX 79 25 9 26 10 27 11 28 12 29 13 31 14 32 15 33 67 34 16 35
REMARK SMILES IDX 66 36 17 37 18 38 19 39 60 40 20 41 65 42 59 43 61 44 21 45
REMARK SMILES IDX 64 46 58 47 57 48 22 50 48 51 31 52 47 53 32 54 35 55 46 56
REMARK SMILES IDX 62 57 33 58 34 59 45 61 63 62 36 63 23 64 24 65 29 66 25 67
REMARK SMILES IDX 26 68 28 69 30 70 27 71 49 72 50 73 55 74 51 75 52 76 54 77
REMARK SMILES IDX 56 78 53 79 37 80 38 81 43 82 39 83 40 84 42 85 44 86 41 87
REMARK H PARENT 6 6 71 13 11 30 61 49 35 60
REMARK Flexibility Score: inf
ROOT
ATOM      1  C   UNL A   1      31.840  29.224  26.665  1.00  0.00     0.023 C 
ENDROOT
BRANCH   1   2
ATOM      2  C   UNL A   1      32.794  28.170  27.240  1.00  0.00     0.116 C 
BRANCH   2   3
ATOM      3  N   UNL A   1      33.868  27.772  26.333  1.00  0.00    -0.355 N 
ATOM      4  C   UNL A   1      33.685  27.291  25.058  1.00  0.00     0.231 C 
ATOM      5  O   UNL A   1      34.069  28.015  24.135  1.00  0.00    -0.274 OA
ATOM      6  H   UNL A   1      34.794  27.855  26.660  1.00  0.00     0.163 HD
BRANCH   4   7
ATOM      7  C   UNL A   1      33.331  25.797  24.827  1.00  0.00     0.098 C 
ATOM      8  C   UNL A   1      33.912  25.303  23.465  1.00  0.00     0.028 C 
ATOM      9  C   UNL A   1      31.823  25.505  24.849  1.00  0.00     0.279 C 
ATOM     10  C   UNL A   1      33.067  25.702  22.255  1.00  0.00     0.063 C 
ATOM     11  N   UNL A   1      31.142  26.032  23.673  1.00  0.00    -0.330 N 
ATOM     12  C   UNL A   1      31.586  25.377  22.451  1.00  0.00     0.262 C 
ATOM     13  H   UNL A   1      31.475  26.996  23.663  1.00  0.00     0.348 HD
BRANCH   7  14
ATOM     14  C   UNL A   1      34.088  24.988  25.933  1.00  0.00     0.019 C 
ATOM     15  C   UNL A   1      35.353  24.246  25.518  1.00  0.00     0.005 C 
ENDBRANCH   7  14
BRANCH  11  16
ATOM     16  C   UNL A   1      29.722  26.370  23.727  1.00  0.00     0.299 C 
BRANCH  16  17
ATOM     17  C   UNL A   1      29.198  27.747  23.383  1.00  0.00     0.006 A 
ATOM     18  C   UNL A   1      30.087  28.831  23.445  1.00  0.00     0.010 A 
ATOM     19  C   UNL A   1      27.845  28.054  23.220  1.00  0.00     0.010 A 
ATOM     20  C   UNL A   1      29.638  30.154  23.320  1.00  0.00     0.004 A 
ATOM     21  C   UNL A   1      27.402  29.376  23.088  1.00  0.00     0.004 A 
ATOM     22  C   UNL A   1      28.283  30.463  23.129  1.00  0.00    -0.045 A 
BRANCH  22  23
ATOM     23  C   UNL A   1      27.839  31.906  22.994  1.00  0.00     0.019 C 
ATOM     24  C   UNL A   1      28.825  33.050  22.961  1.00  0.00     0.009 C 
ATOM     25  C   UNL A   1      28.090  32.663  21.711  1.00  0.00     0.009 C 
ENDBRANCH  22  23
ENDBRANCH  16  17
ENDBRANCH  11  16
ENDBRANCH   4   7
ENDBRANCH   2   3
ENDBRANCH   1   2
BRANCH   1  26
ATOM     26  C   UNL A   1      32.490  30.527  26.203  1.00  0.00     0.023 C 
BRANCH  26  27
ATOM     27  C   UNL A   1      33.135  31.393  27.277  1.00  0.00     0.116 C 
BRANCH  27  28
ATOM     28  N   UNL A   1      32.531  32.698  27.493  1.00  0.00    -0.352 N 
ATOM     29  C   UNL A   1      33.087  33.767  28.180  1.00  0.00     0.251 C 
ATOM     30  H   UNL A   1      31.634  32.837  27.111  1.00  0.00     0.163 HD
ATOM     31  O   UNL A   1      32.482  34.821  28.309  1.00  0.00    -0.269 OA
BRANCH  29  32
ATOM     32  C   UNL A   1      34.408  33.579  28.831  1.00  0.00     0.039 A 
ATOM     33  C   UNL A   1      34.461  32.939  30.072  1.00  0.00     0.014 A 
ATOM     34  C   UNL A   1      35.587  33.893  28.153  1.00  0.00     0.014 A 
ATOM     35  C   UNL A   1      35.693  32.497  30.568  1.00  0.00     0.010 A 
ATOM     36  C   UNL A   1      36.797  33.371  28.602  1.00  0.00     0.010 A 
ATOM     37  C   UNL A   1      36.861  32.642  29.800  1.00  0.00    -0.014 A 
BRANCH  37  38
ATOM     38  C   UNL A   1      38.144  31.998  30.199  1.00  0.00     0.031 A 
ATOM     39  C   UNL A   1      39.106  32.714  31.107  1.00  0.00     0.074 A 
ATOM     40  C   UNL A   1      38.498  30.815  29.655  1.00  0.00     0.049 A 
ATOM     41  N   UNL A   1      40.318  32.370  31.465  1.00  0.00    -0.248 NA
ATOM     42  C   UNL A   1      38.663  34.006  31.653  1.00  0.00     0.031 C 
ATOM     43  C   UNL A   1      37.702  30.045  28.696  1.00  0.00     0.029 A 
ATOM     44  N   UNL A   1      39.634  30.058  29.818  1.00  0.00    -0.354 N 
ATOM     45  C   UNL A   1      40.793  33.418  32.243  1.00  0.00     0.074 A 
ATOM     46  C   UNL A   1      39.756  34.426  32.271  1.00  0.00     0.031 C 
ATOM     47  C   UNL A   1      38.360  28.917  28.379  1.00  0.00     0.029 A 
ATOM     48  C   UNL A   1      39.637  28.897  29.082  1.00  0.00     0.049 A 
ATOM     49  H   UNL A   1      40.376  30.323  30.407  1.00  0.00     0.167 HD
ATOM     50  C   UNL A   1      41.976  33.522  32.896  1.00  0.00     0.037 A 
ATOM     51  C   UNL A   1      40.565  27.926  28.981  1.00  0.00     0.037 A 
ATOM     52  C   UNL A   1      42.984  32.498  32.921  1.00  0.00     0.049 A 
ATOM     53  C   UNL A   1      41.843  28.036  29.764  1.00  0.00     0.074 A 
ATOM     54  C   UNL A   1      44.175  32.478  33.628  1.00  0.00     0.029 A 
ATOM     55  N   UNL A   1      42.919  31.308  32.215  1.00  0.00    -0.354 N 
ATOM     56  N   UNL A   1      42.244  29.000  30.557  1.00  0.00    -0.248 NA
ATOM     57  C   UNL A   1      42.794  26.921  29.646  1.00  0.00     0.031 C 
ATOM     58  C   UNL A   1      44.840  31.284  33.331  1.00  0.00     0.029 A 
ATOM     59  C   UNL A   1      44.051  30.549  32.463  1.00  0.00     0.049 A 
ATOM     60  H   UNL A   1      42.177  31.041  31.624  1.00  0.00     0.167 HD
ATOM     61  C   UNL A   1      43.478  28.598  31.049  1.00  0.00     0.074 A 
ATOM     62  C   UNL A   1      43.756  27.297  30.477  1.00  0.00     0.031 C 
ATOM     63  C   UNL A   1      44.308  29.250  31.898  1.00  0.00     0.037 A 
BRANCH  50  64
ATOM     64  C   UNL A   1      42.232  34.790  33.654  1.00  0.00     0.057 A 
ATOM     65  C   UNL A   1      42.858  35.892  33.057  1.00  0.00     0.134 A 
ATOM     66  C   UNL A   1      41.826  34.920  34.988  1.00  0.00     0.134 A 
ATOM     67  F   UNL A   1      43.283  35.825  31.785  1.00  0.00    -0.206 F 
ATOM     68  C   UNL A   1      43.096  37.069  33.767  1.00  0.00     0.040 A 
ATOM     69  C   UNL A   1      42.036  36.102  35.701  1.00  0.00     0.040 A 
ATOM     70  F   UNL A   1      41.215  33.905  35.617  1.00  0.00    -0.206 F 
ATOM     71  C   UNL A   1      42.678  37.178  35.092  1.00  0.00     0.006 A 
ENDBRANCH  50  64
BRANCH  51  72
ATOM     72  C   UNL A   1      40.312  26.740  28.125  1.00  0.00     0.057 A 
ATOM     73  C   UNL A   1      40.898  26.631  26.858  1.00  0.00     0.134 A 
ATOM     74  C   UNL A   1      39.471  25.700  28.540  1.00  0.00     0.134 A 
ATOM     75  F   UNL A   1      41.695  27.607  26.398  1.00  0.00    -0.206 F 
ATOM     76  C   UNL A   1      40.642  25.541  26.026  1.00  0.00     0.040 A 
ATOM     77  C   UNL A   1      39.224  24.594  27.726  1.00  0.00     0.040 A 
ATOM     78  F   UNL A   1      38.886  25.743  29.745  1.00  0.00    -0.206 F 
ATOM     79  C   UNL A   1      39.804  24.516  26.460  1.00  0.00     0.006 A 
ENDBRANCH  51  72
BRANCH  63  80
ATOM     80  C   UNL A   1      45.577  28.556  32.288  1.00  0.00     0.057 A 
ATOM     81  C   UNL A   1      46.767  28.742  31.575  1.00  0.00     0.134 A 
ATOM     82  C   UNL A   1      45.617  27.724  33.414  1.00  0.00     0.134 A 
ATOM     83  F   UNL A   1      46.789  29.515  30.478  1.00  0.00    -0.206 F 
ATOM     84  C   UNL A   1      47.952  28.114  31.961  1.00  0.00     0.040 A 
ATOM     85  C   UNL A   1      46.801  27.109  33.822  1.00  0.00     0.040 A 
ATOM     86  F   UNL A   1      44.511  27.511  34.143  1.00  0.00    -0.206 F 
ATOM     87  C   UNL A   1      47.971  27.300  33.093  1.00  0.00     0.006 A 
ENDBRANCH  63  80
ENDBRANCH  37  38
ENDBRANCH  29  32
ENDBRANCH  27  28
ENDBRANCH  26  27
ENDBRANCH   1  26
TORSDOF 15
ENDMDL
MODEL 3
REMARK VINA RESULT:     -12.2      0.397      6.256
REMARK SMILES CC[C@@]1(C(=O)NCCCCNC(=O)c2ccc(-c3c4nc(c(-c5c(F)cccc5F)c5ccc([nH]5)c(-c5c(F)cccc5F)c5nc(c(-c6c(F)cccc6F)c6ccc3[nH]6)C=C5)C=C4)cc2)CCC[N@@H+](Cc2ccc(C3CC3)cc2)C1
REMARK SMILES IDX 8 1 7 2 6 3 4 4 5 5 3 7 68 8 82 9 69 10 71 11 70 12 2 14
REMARK SMILES IDX 1 15 72 16 73 17 74 18 81 19 75 20 80 21 76 22 77 23 78 24
REMARK SMILES IDX 79 25 9 26 10 27 11 28 12 29 13 31 14 32 15 33 67 34 16 35
REMARK SMILES IDX 66 36 17 37 18 38 19 39 60 40 20 41 65 42 59 43 61 44 21 45
REMARK SMILES IDX 64 46 58 47 57 48 22 50 48 51 31 52 47 53 32 54 35 55 46 56
REMARK SMILES IDX 62 57 33 58 34 59 45 61 63 62 36 63 23 64 24 65 29 66 25 67
REMARK SMILES IDX 26 68 28 69 30 70 27 71 49 72 50 73 55 74 51 75 52 76 54 77
REMARK SMILES IDX 56 78 53 79 37 80 38 81 43 82 39 83 40 84 42 85 44 86 41 87
REMARK H PARENT 6 6 71 13 11 30 61 49 35 60
REMARK Flexibility Score: inf
ROOT
ATOM      1  C   UNL A   1      31.691  29.148  26.272  1.00  0.00     0.023 C 
ENDROOT
BRANCH   1   2
ATOM      2  C   UNL A   1      32.784  28.346  26.990  1.00  0.00     0.116 C 
BRANCH   2   3
ATOM      3  N   UNL A   1      33.886  27.926  26.129  1.00  0.00    -0.355 N 
ATOM      4  C   UNL A   1      33.743  27.393  24.870  1.00  0.00     0.231 C 
ATOM      5  O   UNL A   1      34.145  28.085  23.930  1.00  0.00    -0.274 OA
ATOM      6  H   UNL A   1      34.802  28.033  26.477  1.00  0.00     0.163 HD
BRANCH   4   7
ATOM      7  C   UNL A   1      33.413  25.887  24.689  1.00  0.00     0.098 C 
ATOM      8  C   UNL A   1      33.964  25.368  23.323  1.00  0.00     0.028 C 
ATOM      9  C   UNL A   1      31.912  25.567  24.764  1.00  0.00     0.279 C 
ATOM     10  C   UNL A   1      33.076  25.718  22.129  1.00  0.00     0.063 C 
ATOM     11  N   UNL A   1      31.187  26.049  23.595  1.00  0.00    -0.330 N 
ATOM     12  C   UNL A   1      31.607  25.370  22.378  1.00  0.00     0.262 C 
ATOM     13  H   UNL A   1      31.500  27.018  23.550  1.00  0.00     0.348 HD
BRANCH   7  14
ATOM     14  C   UNL A   1      34.219  25.123  25.792  1.00  0.00     0.019 C 
ATOM     15  C   UNL A   1      35.337  24.196  25.331  1.00  0.00     0.005 C 
ENDBRANCH   7  14
BRANCH  11  16
ATOM     16  C   UNL A   1      29.762  26.361  23.683  1.00  0.00     0.299 C 
BRANCH  16  17
ATOM     17  C   UNL A   1      29.203  27.722  23.331  1.00  0.00     0.006 A 
ATOM     18  C   UNL A   1      30.095  28.801  23.229  1.00  0.00     0.010 A 
ATOM     19  C   UNL A   1      27.840  28.031  23.316  1.00  0.00     0.010 A 
ATOM     20  C   UNL A   1      29.636  30.119  23.088  1.00  0.00     0.004 A 
ATOM     21  C   UNL A   1      27.387  29.348  23.168  1.00  0.00     0.004 A 
ATOM     22  C   UNL A   1      28.268  30.428  23.044  1.00  0.00    -0.045 A 
BRANCH  22  23
ATOM     23  C   UNL A   1      27.813  31.866  22.888  1.00  0.00     0.019 C 
ATOM     24  C   UNL A   1      28.783  33.023  22.919  1.00  0.00     0.009 C 
ATOM     25  C   UNL A   1      28.132  32.632  21.625  1.00  0.00     0.009 C 
ENDBRANCH  22  23
ENDBRANCH  16  17
ENDBRANCH  11  16
ENDBRANCH   4   7
ENDBRANCH   2   3
ENDBRANCH   1   2
BRANCH   1  26
ATOM     26  C   UNL A   1      31.391  30.529  26.852  1.00  0.00     0.023 C 
BRANCH  26  27
ATOM     27  C   UNL A   1      32.240  31.688  26.346  1.00  0.00     0.116 C 
BRANCH  27  28
ATOM     28  N   UNL A   1      32.117  32.937  27.079  1.00  0.00    -0.352 N 
ATOM     29  C   UNL A   1      33.073  33.516  27.900  1.00  0.00     0.251 C 
ATOM     30  H   UNL A   1      31.266  33.423  26.983  1.00  0.00     0.163 HD
ATOM     31  O   UNL A   1      32.857  34.571  28.478  1.00  0.00    -0.269 OA
BRANCH  29  32
ATOM     32  C   UNL A   1      34.345  32.784  28.130  1.00  0.00     0.039 A 
ATOM     33  C   UNL A   1      35.519  33.517  28.318  1.00  0.00     0.014 A 
ATOM     34  C   UNL A   1      34.346  31.399  28.308  1.00  0.00     0.014 A 
ATOM     35  C   UNL A   1      36.660  32.877  28.816  1.00  0.00     0.010 A 
ATOM     36  C   UNL A   1      35.451  30.784  28.890  1.00  0.00     0.010 A 
ATOM     37  C   UNL A   1      36.611  31.520  29.177  1.00  0.00    -0.014 A 
BRANCH  37  38
ATOM     38  C   UNL A   1      37.735  30.864  29.903  1.00  0.00     0.031 A 
ATOM     39  C   UNL A   1      37.990  31.176  31.353  1.00  0.00     0.074 A 
ATOM     40  C   UNL A   1      38.597  30.073  29.232  1.00  0.00     0.049 A 
ATOM     41  N   UNL A   1      38.985  30.802  32.117  1.00  0.00    -0.248 NA
ATOM     42  C   UNL A   1      37.019  32.058  32.020  1.00  0.00     0.031 C 
ATOM     43  C   UNL A   1      38.523  29.747  27.806  1.00  0.00     0.029 A 
ATOM     44  N   UNL A   1      39.723  29.409  29.660  1.00  0.00    -0.354 N 
ATOM     45  C   UNL A   1      38.780  31.432  33.339  1.00  0.00     0.074 A 
ATOM     46  C   UNL A   1      37.590  32.244  33.200  1.00  0.00     0.031 C 
ATOM     47  C   UNL A   1      39.538  28.928  27.485  1.00  0.00     0.029 A 
ATOM     48  C   UNL A   1      40.356  28.696  28.670  1.00  0.00     0.049 A 
ATOM     49  H   UNL A   1      40.046  29.442  30.589  1.00  0.00     0.167 HD
ATOM     50  C   UNL A   1      39.501  31.326  34.480  1.00  0.00     0.037 A 
ATOM     51  C   UNL A   1      41.471  27.942  28.709  1.00  0.00     0.037 A 
ATOM     52  C   UNL A   1      40.649  30.475  34.642  1.00  0.00     0.049 A 
ATOM     53  C   UNL A   1      42.219  27.791  30.004  1.00  0.00     0.074 A 
ATOM     54  C   UNL A   1      41.390  30.234  35.786  1.00  0.00     0.029 A 
ATOM     55  N   UNL A   1      41.218  29.717  33.631  1.00  0.00    -0.354 N 
ATOM     56  N   UNL A   1      41.968  28.333  31.170  1.00  0.00    -0.248 NA
ATOM     57  C   UNL A   1      43.401  26.917  29.991  1.00  0.00     0.031 C 
ATOM     58  C   UNL A   1      42.421  29.348  35.462  1.00  0.00     0.029 A 
ATOM     59  C   UNL A   1      42.305  29.014  34.123  1.00  0.00     0.049 A 
ATOM     60  H   UNL A   1      40.896  29.683  32.700  1.00  0.00     0.167 HD
ATOM     61  C   UNL A   1      42.942  27.849  32.032  1.00  0.00     0.074 A 
ATOM     62  C   UNL A   1      43.783  26.959  31.259  1.00  0.00     0.031 C 
ATOM     63  C   UNL A   1      43.124  28.121  33.347  1.00  0.00     0.037 A 
BRANCH  50  64
ATOM     64  C   UNL A   1      39.055  32.145  35.654  1.00  0.00     0.057 A 
ATOM     65  C   UNL A   1      38.221  31.615  36.648  1.00  0.00     0.134 A 
ATOM     66  C   UNL A   1      39.484  33.469  35.807  1.00  0.00     0.134 A 
ATOM     67  F   UNL A   1      37.765  30.356  36.552  1.00  0.00    -0.206 F 
ATOM     68  C   UNL A   1      37.807  32.382  37.737  1.00  0.00     0.040 A 
ATOM     69  C   UNL A   1      39.097  34.238  36.906  1.00  0.00     0.040 A 
ATOM     70  F   UNL A   1      40.289  34.035  34.895  1.00  0.00    -0.206 F 
ATOM     71  C   UNL A   1      38.250  33.696  37.872  1.00  0.00     0.006 A 
ENDBRANCH  50  64
BRANCH  51  72
ATOM     72  C   UNL A   1      41.938  27.239  27.488  1.00  0.00     0.057 A 
ATOM     73  C   UNL A   1      42.749  27.892  26.551  1.00  0.00     0.134 A 
ATOM     74  C   UNL A   1      41.578  25.914  27.219  1.00  0.00     0.134 A 
ATOM     75  F   UNL A   1      43.108  29.170  26.745  1.00  0.00    -0.206 F 
ATOM     76  C   UNL A   1      43.167  27.258  25.380  1.00  0.00     0.040 A 
ATOM     77  C   UNL A   1      42.008  25.262  26.062  1.00  0.00     0.040 A 
ATOM     78  F   UNL A   1      40.810  25.233  28.081  1.00  0.00    -0.206 F 
ATOM     79  C   UNL A   1      42.799  25.938  25.134  1.00  0.00     0.006 A 
ENDBRANCH  51  72
BRANCH  63  80
ATOM     80  C   UNL A   1      44.253  27.423  34.042  1.00  0.00     0.057 A 
ATOM     81  C   UNL A   1      45.525  27.999  34.144  1.00  0.00     0.134 A 
ATOM     82  C   UNL A   1      44.054  26.179  34.654  1.00  0.00     0.134 A 
ATOM     83  F   UNL A   1      45.782  29.183  33.566  1.00  0.00    -0.206 F 
ATOM     84  C   UNL A   1      46.563  27.357  34.818  1.00  0.00     0.040 A 
ATOM     85  C   UNL A   1      45.078  25.536  35.349  1.00  0.00     0.040 A 
ATOM     86  F   UNL A   1      42.856  25.577  34.598  1.00  0.00    -0.206 F 
ATOM     87  C   UNL A   1      46.339  26.124  35.429  1.00  0.00     0.006 A 
ENDBRANCH  63  80
ENDBRANCH  37  38
ENDBRANCH  29  32
ENDBRANCH  27  28
ENDBRANCH  26  27
ENDBRANCH   1  26
TORSDOF 15
ENDMDL
