MODEL 1
REMARK VINA RESULT:     -10.9      0.000      0.000
REMARK SMILES CCCC1(CCC)SC[C@@H]2C(=O)N(Cc3ccc(C(=O)NCCCCNC(=O)c4ccc(-c5c6nc(c(-c7c(F)cccc7F)c7ccc([nH]7)c(-c7c(F)cccc7F)c7nc(c(-c8c(F)cccc8F)c8ccc5[nH]8)C=C7)C=C6)cc4)cc3)CC(=O)N21
REMARK SMILES IDX 22 1 21 2 19 3 20 4 18 6 15 7 16 8 84 9 17 10 83 11 14 12
REMARK SMILES IDX 13 13 4 14 8 15 88 16 9 17 10 18 86 19 11 20 85 21 87 22
REMARK SMILES IDX 12 23 3 24 2 25 1 26 5 27 6 28 7 29 23 30 24 31 25 32 26 33
REMARK SMILES IDX 27 34 28 36 29 37 30 38 82 39 31 40 81 41 32 42 33 43 34 44
REMARK SMILES IDX 75 45 35 46 80 47 74 48 76 49 36 50 79 51 73 52 72 53 37 55
REMARK SMILES IDX 63 56 46 57 62 58 47 59 50 60 61 61 77 62 48 63 49 64 60 66
REMARK SMILES IDX 78 67 51 68 38 69 39 70 44 71 40 72 41 73 43 74 45 75 42 76
REMARK SMILES IDX 64 77 65 78 70 79 66 80 67 81 69 82 71 83 68 84 52 85 53 86
REMARK SMILES IDX 58 87 54 88 55 89 57 90 59 91 56 92
REMARK H PARENT 21 5 26 35 76 54 50 65
REMARK Flexibility Score: inf
ROOT
ATOM      1  C   UNL A   1      34.247  34.390  28.084  1.00  0.00     0.116 C 
ENDROOT
BRANCH   1   2
ATOM      2  N   UNL A   1      35.539  33.733  28.186  1.00  0.00    -0.352 N 
ATOM      3  C   UNL A   1      35.889  32.418  27.993  1.00  0.00     0.251 C 
ATOM      4  O   UNL A   1      37.080  32.110  28.008  1.00  0.00    -0.269 OA
ATOM      5  H   UNL A   1      36.286  34.327  28.434  1.00  0.00     0.163 HD
BRANCH   3   6
ATOM      6  C   UNL A   1      34.871  31.371  27.718  1.00  0.00     0.039 A 
ATOM      7  C   UNL A   1      33.026  29.326  27.117  1.00  0.00    -0.029 A 
ATOM      8  C   UNL A   1      34.370  29.017  27.363  1.00  0.00     0.006 A 
ATOM      9  C   UNL A   1      32.612  30.659  27.233  1.00  0.00     0.006 A 
ATOM     10  C   UNL A   1      35.285  30.034  27.665  1.00  0.00     0.014 A 
ATOM     11  C   UNL A   1      33.520  31.666  27.553  1.00  0.00     0.014 A 
BRANCH   7  12
ATOM     12  C   UNL A   1      32.015  28.267  26.755  1.00  0.00     0.155 C 
BRANCH  12  13
ATOM     13  N   UNL A   1      32.494  27.278  25.794  1.00  0.00    -0.327 N 
ATOM     14  C   UNL A   1      33.339  23.926  23.155  1.00  0.00     0.090 C 
ATOM     15  S   UNL A   1      32.964  24.834  21.470  1.00  0.00    -0.131 SA
ATOM     16  N   UNL A   1      33.244  25.070  24.103  1.00  0.00    -0.314 N 
ATOM     17  C   UNL A   1      32.733  26.461  22.200  1.00  0.00     0.107 C 
ATOM     18  C   UNL A   1      32.364  26.145  23.633  1.00  0.00     0.186 C 
ATOM     19  C   UNL A   1      33.504  24.986  25.460  1.00  0.00     0.244 C 
ATOM     20  C   UNL A   1      32.255  27.442  24.439  1.00  0.00     0.247 C 
ATOM     21  C   UNL A   1      33.506  26.324  26.213  1.00  0.00     0.220 C 
ATOM     22  O   UNL A   1      33.920  23.978  26.020  1.00  0.00    -0.273 OA
ATOM     23  O   UNL A   1      31.731  28.446  23.960  1.00  0.00    -0.272 OA
BRANCH  14  24
ATOM     24  C   UNL A   1      32.122  22.951  23.254  1.00  0.00     0.040 C 
BRANCH  24  25
ATOM     25  C   UNL A   1      32.252  21.546  23.835  1.00  0.00    -0.000 C 
ATOM     26  C   UNL A   1      31.890  21.411  25.301  1.00  0.00     0.004 C 
ENDBRANCH  24  25
ENDBRANCH  14  24
BRANCH  14  27
ATOM     27  C   UNL A   1      34.761  23.371  22.831  1.00  0.00     0.040 C 
BRANCH  27  28
ATOM     28  C   UNL A   1      35.634  22.576  23.813  1.00  0.00    -0.000 C 
ATOM     29  C   UNL A   1      36.807  23.324  24.431  1.00  0.00     0.004 C 
ENDBRANCH  27  28
ENDBRANCH  14  27
ENDBRANCH  12  13
ENDBRANCH   7  12
ENDBRANCH   3   6
ENDBRANCH   1   2
BRANCH   1  30
ATOM     30  C   UNL A   1      34.382  35.911  28.168  1.00  0.00     0.023 C 
BRANCH  30  31
ATOM     31  C   UNL A   1      33.315  36.602  29.018  1.00  0.00     0.023 C 
BRANCH  31  32
ATOM     32  C   UNL A   1      32.624  35.709  30.041  1.00  0.00     0.116 C 
BRANCH  32  33
ATOM     33  N   UNL A   1      32.383  36.369  31.316  1.00  0.00    -0.352 N 
ATOM     34  C   UNL A   1      33.009  36.160  32.523  1.00  0.00     0.251 C 
ATOM     35  H   UNL A   1      31.678  37.055  31.314  1.00  0.00     0.163 HD
ATOM     36  O   UNL A   1      32.624  36.732  33.534  1.00  0.00    -0.269 OA
BRANCH  34  37
ATOM     37  C   UNL A   1      34.127  35.196  32.593  1.00  0.00     0.039 A 
ATOM     38  C   UNL A   1      35.376  35.580  32.101  1.00  0.00     0.014 A 
ATOM     39  C   UNL A   1      33.954  33.951  33.202  1.00  0.00     0.014 A 
ATOM     40  C   UNL A   1      36.479  34.751  32.307  1.00  0.00     0.010 A 
ATOM     41  C   UNL A   1      35.065  33.156  33.464  1.00  0.00     0.010 A 
ATOM     42  C   UNL A   1      36.339  33.559  33.037  1.00  0.00    -0.014 A 
BRANCH  42  43
ATOM     43  C   UNL A   1      37.523  32.752  33.422  1.00  0.00     0.031 A 
ATOM     44  C   UNL A   1      38.285  33.070  34.675  1.00  0.00     0.074 A 
ATOM     45  C   UNL A   1      37.960  31.788  32.589  1.00  0.00     0.049 A 
ATOM     46  N   UNL A   1      39.390  32.534  35.126  1.00  0.00    -0.248 NA
ATOM     47  C   UNL A   1      37.749  34.149  35.520  1.00  0.00     0.031 C 
ATOM     48  C   UNL A   1      37.334  31.421  31.316  1.00  0.00     0.029 A 
ATOM     49  N   UNL A   1      39.045  30.952  32.678  1.00  0.00    -0.354 N 
ATOM     50  C   UNL A   1      39.686  33.214  36.300  1.00  0.00     0.074 A 
ATOM     51  C   UNL A   1      38.671  34.232  36.468  1.00  0.00     0.031 C 
ATOM     52  C   UNL A   1      38.035  30.425  30.752  1.00  0.00     0.029 A 
ATOM     53  C   UNL A   1      39.180  30.110  31.600  1.00  0.00     0.049 A 
ATOM     54  H   UNL A   1      39.667  30.954  33.441  1.00  0.00     0.167 HD
ATOM     55  C   UNL A   1      40.701  32.994  37.168  1.00  0.00     0.037 A 
ATOM     56  C   UNL A   1      40.129  29.196  31.320  1.00  0.00     0.037 A 
ATOM     57  C   UNL A   1      41.698  31.968  37.007  1.00  0.00     0.049 A 
ATOM     58  C   UNL A   1      41.260  28.992  32.286  1.00  0.00     0.074 A 
ATOM     59  C   UNL A   1      42.718  31.613  37.872  1.00  0.00     0.029 A 
ATOM     60  N   UNL A   1      41.805  31.138  35.901  1.00  0.00    -0.354 N 
ATOM     61  N   UNL A   1      41.483  29.587  33.433  1.00  0.00    -0.248 NA
ATOM     62  C   UNL A   1      42.275  27.996  31.917  1.00  0.00     0.031 C 
ATOM     63  C   UNL A   1      43.470  30.600  37.270  1.00  0.00     0.029 A 
ATOM     64  C   UNL A   1      42.896  30.296  36.046  1.00  0.00     0.049 A 
ATOM     65  H   UNL A   1      41.197  31.146  35.128  1.00  0.00     0.167 HD
ATOM     66  C   UNL A   1      42.654  29.030  33.928  1.00  0.00     0.074 A 
ATOM     67  C   UNL A   1      43.084  28.034  32.967  1.00  0.00     0.031 C 
ATOM     68  C   UNL A   1      43.316  29.320  35.075  1.00  0.00     0.037 A 
BRANCH  55  69
ATOM     69  C   UNL A   1      40.782  33.878  38.377  1.00  0.00     0.057 A 
ATOM     70  C   UNL A   1      40.064  33.596  39.546  1.00  0.00     0.134 A 
ATOM     71  C   UNL A   1      41.616  35.003  38.386  1.00  0.00     0.134 A 
ATOM     72  F   UNL A   1      39.239  32.540  39.597  1.00  0.00    -0.206 F 
ATOM     73  C   UNL A   1      40.155  34.412  40.674  1.00  0.00     0.040 A 
ATOM     74  C   UNL A   1      41.735  35.814  39.515  1.00  0.00     0.040 A 
ATOM     75  F   UNL A   1      42.335  35.327  37.301  1.00  0.00    -0.206 F 
ATOM     76  C   UNL A   1      40.999  35.522  40.663  1.00  0.00     0.006 A 
ENDBRANCH  55  69
BRANCH  56  77
ATOM     77  C   UNL A   1      40.048  28.404  30.068  1.00  0.00     0.057 A 
ATOM     78  C   UNL A   1      39.299  27.224  30.011  1.00  0.00     0.134 A 
ATOM     79  C   UNL A   1      40.715  28.802  28.904  1.00  0.00     0.134 A 
ATOM     80  F   UNL A   1      38.654  26.780  31.100  1.00  0.00    -0.206 F 
ATOM     81  C   UNL A   1      39.228  26.459  28.845  1.00  0.00     0.040 A 
ATOM     82  C   UNL A   1      40.634  28.061  27.724  1.00  0.00     0.040 A 
ATOM     83  F   UNL A   1      41.445  29.927  28.893  1.00  0.00    -0.206 F 
ATOM     84  C   UNL A   1      39.892  26.881  27.695  1.00  0.00     0.006 A 
ENDBRANCH  56  77
BRANCH  68  85
ATOM     85  C   UNL A   1      44.573  28.551  35.351  1.00  0.00     0.057 A 
ATOM     86  C   UNL A   1      45.829  29.038  34.966  1.00  0.00     0.134 A 
ATOM     87  C   UNL A   1      44.533  27.333  36.043  1.00  0.00     0.134 A 
ATOM     88  F   UNL A   1      45.932  30.190  34.287  1.00  0.00    -0.206 F 
ATOM     89  C   UNL A   1      47.001  28.334  35.249  1.00  0.00     0.040 A 
ATOM     90  C   UNL A   1      45.699  26.632  36.351  1.00  0.00     0.040 A 
ATOM     91  F   UNL A   1      43.362  26.815  36.443  1.00  0.00    -0.206 F 
ATOM     92  C   UNL A   1      46.937  27.131  35.950  1.00  0.00     0.006 A 
ENDBRANCH  68  85
ENDBRANCH  42  43
ENDBRANCH  34  37
ENDBRANCH  32  33
ENDBRANCH  31  32
ENDBRANCH  30  31
ENDBRANCH   1  30
TORSDOF 17
ENDMDL
MODEL 2
REMARK VINA RESULT:     -10.9      2.907      9.083
REMARK SMILES CCCC1(CCC)SC[C@@H]2C(=O)N(Cc3ccc(C(=O)NCCCCNC(=O)c4ccc(-c5c6nc(c(-c7c(F)cccc7F)c7ccc([nH]7)c(-c7c(F)cccc7F)c7nc(c(-c8c(F)cccc8F)c8ccc5[nH]8)C=C7)C=C6)cc4)cc3)CC(=O)N21
REMARK SMILES IDX 22 1 21 2 19 3 20 4 18 6 15 7 16 8 84 9 17 10 83 11 14 12
REMARK SMILES IDX 13 13 4 14 8 15 88 16 9 17 10 18 86 19 11 20 85 21 87 22
REMARK SMILES IDX 12 23 3 24 2 25 1 26 5 27 6 28 7 29 23 30 24 31 25 32 26 33
REMARK SMILES IDX 27 34 28 36 29 37 30 38 82 39 31 40 81 41 32 42 33 43 34 44
REMARK SMILES IDX 75 45 35 46 80 47 74 48 76 49 36 50 79 51 73 52 72 53 37 55
REMARK SMILES IDX 63 56 46 57 62 58 47 59 50 60 61 61 77 62 48 63 49 64 60 66
REMARK SMILES IDX 78 67 51 68 38 69 39 70 44 71 40 72 41 73 43 74 45 75 42 76
REMARK SMILES IDX 64 77 65 78 70 79 66 80 67 81 69 82 71 83 68 84 52 85 53 86
REMARK SMILES IDX 58 87 54 88 55 89 57 90 59 91 56 92
REMARK H PARENT 21 5 26 35 76 54 50 65
REMARK Flexibility Score: inf
ROOT
ATOM      1  C   UNL A   1      38.921  22.760  26.237  1.00  0.00     0.116 C 
ENDROOT
BRANCH   1   2
ATOM      2  N   UNL A   1      38.906  21.350  25.888  1.00  0.00    -0.352 N 
ATOM      3  C   UNL A   1      37.977  20.613  25.192  1.00  0.00     0.251 C 
ATOM      4  O   UNL A   1      38.239  19.447  24.901  1.00  0.00    -0.269 OA
ATOM      5  H   UNL A   1      39.688  20.839  26.201  1.00  0.00     0.163 HD
BRANCH   3   6
ATOM      6  C   UNL A   1      36.691  21.204  24.739  1.00  0.00     0.039 A 
ATOM      7  C   UNL A   1      34.207  22.205  23.858  1.00  0.00    -0.029 A 
ATOM      8  C   UNL A   1      34.263  21.076  24.685  1.00  0.00     0.006 A 
ATOM      9  C   UNL A   1      35.404  22.854  23.528  1.00  0.00     0.006 A 
ATOM     10  C   UNL A   1      35.498  20.582  25.125  1.00  0.00     0.014 A 
ATOM     11  C   UNL A   1      36.629  22.373  23.984  1.00  0.00     0.014 A 
BRANCH   7  12
ATOM     12  C   UNL A   1      32.902  22.749  23.333  1.00  0.00     0.155 C 
BRANCH  12  13
ATOM     13  N   UNL A   1      32.706  24.177  23.565  1.00  0.00    -0.327 N 
ATOM     14  C   UNL A   1      32.700  28.370  24.718  1.00  0.00     0.090 C 
ATOM     15  S   UNL A   1      33.245  29.104  22.994  1.00  0.00    -0.131 SA
ATOM     16  N   UNL A   1      32.505  26.940  24.351  1.00  0.00    -0.314 N 
ATOM     17  C   UNL A   1      33.164  27.541  22.110  1.00  0.00     0.107 C 
ATOM     18  C   UNL A   1      33.323  26.515  23.210  1.00  0.00     0.186 C 
ATOM     19  C   UNL A   1      32.034  25.968  25.216  1.00  0.00     0.244 C 
ATOM     20  C   UNL A   1      33.147  25.106  22.636  1.00  0.00     0.247 C 
ATOM     21  C   UNL A   1      31.754  24.600  24.576  1.00  0.00     0.220 C 
ATOM     22  O   UNL A   1      31.649  26.190  26.358  1.00  0.00    -0.273 OA
ATOM     23  O   UNL A   1      33.625  24.800  21.545  1.00  0.00    -0.272 OA
BRANCH  14  24
ATOM     24  C   UNL A   1      33.987  28.609  25.572  1.00  0.00     0.040 C 
BRANCH  24  25
ATOM     25  C   UNL A   1      33.929  29.181  26.985  1.00  0.00    -0.000 C 
ATOM     26  C   UNL A   1      35.271  29.383  27.662  1.00  0.00     0.004 C 
ENDBRANCH  24  25
ENDBRANCH  14  24
BRANCH  14  27
ATOM     27  C   UNL A   1      31.425  29.233  24.968  1.00  0.00     0.040 C 
BRANCH  27  28
ATOM     28  C   UNL A   1      30.339  29.514  23.919  1.00  0.00    -0.000 C 
ATOM     29  C   UNL A   1      29.541  28.312  23.436  1.00  0.00     0.004 C 
ENDBRANCH  27  28
ENDBRANCH  14  27
ENDBRANCH  12  13
ENDBRANCH   7  12
ENDBRANCH   3   6
ENDBRANCH   1   2
BRANCH   1  30
ATOM     30  C   UNL A   1      40.216  23.148  26.953  1.00  0.00     0.023 C 
BRANCH  30  31
ATOM     31  C   UNL A   1      40.324  24.628  27.323  1.00  0.00     0.023 C 
BRANCH  31  32
ATOM     32  C   UNL A   1      40.612  25.566  26.158  1.00  0.00     0.116 C 
BRANCH  32  33
ATOM     33  N   UNL A   1      41.972  25.457  25.649  1.00  0.00    -0.352 N 
ATOM     34  C   UNL A   1      43.113  26.072  26.109  1.00  0.00     0.251 C 
ATOM     35  H   UNL A   1      42.091  24.864  24.873  1.00  0.00     0.163 HD
ATOM     36  O   UNL A   1      44.173  25.952  25.509  1.00  0.00    -0.269 OA
BRANCH  34  37
ATOM     37  C   UNL A   1      43.032  26.924  27.314  1.00  0.00     0.039 A 
ATOM     38  C   UNL A   1      43.010  28.311  27.154  1.00  0.00     0.014 A 
ATOM     39  C   UNL A   1      42.910  26.352  28.583  1.00  0.00     0.014 A 
ATOM     40  C   UNL A   1      42.767  29.126  28.261  1.00  0.00     0.010 A 
ATOM     41  C   UNL A   1      42.604  27.161  29.672  1.00  0.00     0.010 A 
ATOM     42  C   UNL A   1      42.509  28.551  29.516  1.00  0.00    -0.014 A 
BRANCH  42  43
ATOM     43  C   UNL A   1      42.075  29.383  30.666  1.00  0.00     0.031 A 
ATOM     44  C   UNL A   1      40.791  30.156  30.601  1.00  0.00     0.074 A 
ATOM     45  C   UNL A   1      42.888  29.508  31.731  1.00  0.00     0.049 A 
ATOM     46  N   UNL A   1      40.293  31.001  31.468  1.00  0.00    -0.248 NA
ATOM     47  C   UNL A   1      39.969  29.976  29.394  1.00  0.00     0.031 C 
ATOM     48  C   UNL A   1      44.187  28.847  31.888  1.00  0.00     0.029 A 
ATOM     49  N   UNL A   1      42.754  30.248  32.879  1.00  0.00    -0.354 N 
ATOM     50  C   UNL A   1      39.108  31.459  30.909  1.00  0.00     0.074 A 
ATOM     51  C   UNL A   1      38.982  30.834  29.609  1.00  0.00     0.031 C 
ATOM     52  C   UNL A   1      44.721  29.198  33.068  1.00  0.00     0.029 A 
ATOM     53  C   UNL A   1      43.825  30.139  33.733  1.00  0.00     0.049 A 
ATOM     54  H   UNL A   1      41.965  30.804  33.073  1.00  0.00     0.167 HD
ATOM     55  C   UNL A   1      38.197  32.307  31.441  1.00  0.00     0.037 A 
ATOM     56  C   UNL A   1      44.065  30.740  34.914  1.00  0.00     0.037 A 
ATOM     57  C   UNL A   1      38.316  32.912  32.742  1.00  0.00     0.049 A 
ATOM     58  C   UNL A   1      43.052  31.699  35.469  1.00  0.00     0.074 A 
ATOM     59  C   UNL A   1      37.408  33.720  33.404  1.00  0.00     0.029 A 
ATOM     60  N   UNL A   1      39.416  32.781  33.576  1.00  0.00    -0.354 N 
ATOM     61  N   UNL A   1      41.896  32.061  34.966  1.00  0.00    -0.248 NA
ATOM     62  C   UNL A   1      43.377  32.339  36.751  1.00  0.00     0.031 C 
ATOM     63  C   UNL A   1      37.978  34.117  34.618  1.00  0.00     0.029 A 
ATOM     64  C   UNL A   1      39.225  33.524  34.730  1.00  0.00     0.049 A 
ATOM     65  H   UNL A   1      40.215  32.242  33.377  1.00  0.00     0.167 HD
ATOM     66  C   UNL A   1      41.352  32.959  35.873  1.00  0.00     0.074 A 
ATOM     67  C   UNL A   1      42.294  33.072  36.969  1.00  0.00     0.031 C 
ATOM     68  C   UNL A   1      40.178  33.634  35.804  1.00  0.00     0.037 A 
BRANCH  55  69
ATOM     69  C   UNL A   1      36.986  32.630  30.617  1.00  0.00     0.057 A 
ATOM     70  C   UNL A   1      35.816  31.864  30.696  1.00  0.00     0.134 A 
ATOM     71  C   UNL A   1      36.975  33.739  29.764  1.00  0.00     0.134 A 
ATOM     72  F   UNL A   1      35.765  30.781  31.487  1.00  0.00    -0.206 F 
ATOM     73  C   UNL A   1      34.685  32.177  29.941  1.00  0.00     0.040 A 
ATOM     74  C   UNL A   1      35.843  34.077  29.021  1.00  0.00     0.040 A 
ATOM     75  F   UNL A   1      38.061  34.518  29.644  1.00  0.00    -0.206 F 
ATOM     76  C   UNL A   1      34.695  33.292  29.104  1.00  0.00     0.006 A 
ENDBRANCH  55  69
BRANCH  56  77
ATOM     77  C   UNL A   1      45.319  30.451  35.652  1.00  0.00     0.057 A 
ATOM     78  C   UNL A   1      46.469  31.221  35.447  1.00  0.00     0.134 A 
ATOM     79  C   UNL A   1      45.401  29.402  36.576  1.00  0.00     0.134 A 
ATOM     80  F   UNL A   1      46.458  32.227  34.560  1.00  0.00    -0.206 F 
ATOM     81  C   UNL A   1      47.660  30.950  36.122  1.00  0.00     0.040 A 
ATOM     82  C   UNL A   1      46.578  29.134  37.275  1.00  0.00     0.040 A 
ATOM     83  F   UNL A   1      44.331  28.631  36.821  1.00  0.00    -0.206 F 
ATOM     84  C   UNL A   1      47.715  29.907  37.044  1.00  0.00     0.006 A 
ENDBRANCH  56  77
BRANCH  68  85
ATOM     85  C   UNL A   1      39.849  34.551  36.943  1.00  0.00     0.057 A 
ATOM     86  C   UNL A   1      39.246  34.076  38.115  1.00  0.00     0.134 A 
ATOM     87  C   UNL A   1      40.176  35.912  36.888  1.00  0.00     0.134 A 
ATOM     88  F   UNL A   1      38.895  32.785  38.223  1.00  0.00    -0.206 F 
ATOM     89  C   UNL A   1      38.966  34.925  39.186  1.00  0.00     0.040 A 
ATOM     90  C   UNL A   1      39.921  36.767  37.961  1.00  0.00     0.040 A 
ATOM     91  F   UNL A   1      40.760  36.429  35.796  1.00  0.00    -0.206 F 
ATOM     92  C   UNL A   1      39.311  36.274  39.113  1.00  0.00     0.006 A 
ENDBRANCH  68  85
ENDBRANCH  42  43
ENDBRANCH  34  37
ENDBRANCH  32  33
ENDBRANCH  31  32
ENDBRANCH  30  31
ENDBRANCH   1  30
TORSDOF 17
ENDMDL
MODEL 3
REMARK VINA RESULT:     -10.9      5.205      8.593
REMARK SMILES CCCC1(CCC)SC[C@@H]2C(=O)N(Cc3ccc(C(=O)NCCCCNC(=O)c4ccc(-c5c6nc(c(-c7c(F)cccc7F)c7ccc([nH]7)c(-c7c(F)cccc7F)c7nc(c(-c8c(F)cccc8F)c8ccc5[nH]8)C=C7)C=C6)cc4)cc3)CC(=O)N21
REMARK SMILES IDX 22 1 21 2 19 3 20 4 18 6 15 7 16 8 84 9 17 10 83 11 14 12
REMARK SMILES IDX 13 13 4 14 8 15 88 16 9 17 10 18 86 19 11 20 85 21 87 22
REMARK SMILES IDX 12 23 3 24 2 25 1 26 5 27 6 28 7 29 23 30 24 31 25 32 26 33
REMARK SMILES IDX 27 34 28 36 29 37 30 38 82 39 31 40 81 41 32 42 33 43 34 44
REMARK SMILES IDX 75 45 35 46 80 47 74 48 76 49 36 50 79 51 73 52 72 53 37 55
REMARK SMILES IDX 63 56 46 57 62 58 47 59 50 60 61 61 77 62 48 63 49 64 60 66
REMARK SMILES IDX 78 67 51 68 38 69 39 70 44 71 40 72 41 73 43 74 45 75 42 76
REMARK SMILES IDX 64 77 65 78 70 79 66 80 67 81 69 82 71 83 68 84 52 85 53 86
REMARK SMILES IDX 58 87 54 88 55 89 57 90 59 91 56 92
REMARK H PARENT 21 5 26 35 76 54 50 65
REMARK Flexibility Score: inf
ROOT
ATOM      1  C   UNL A   1      37.458  33.091  30.465  1.00  0.00     0.116 C 
ENDROOT
BRANCH   1   2
ATOM      2  N   UNL A   1      36.823  31.891  30.982  1.00  0.00    -0.352 N 
ATOM      3  C   UNL A   1      37.091  30.565  30.739  1.00  0.00     0.251 C 
ATOM      4  O   UNL A   1      36.502  29.709  31.397  1.00  0.00    -0.269 OA
ATOM      5  H   UNL A   1      36.080  32.054  31.609  1.00  0.00     0.163 HD
BRANCH   3   6
ATOM      6  C   UNL A   1      38.108  30.143  29.742  1.00  0.00     0.039 A 
ATOM      7  C   UNL A   1      39.952  29.259  27.800  1.00  0.00    -0.029 A 
ATOM      8  C   UNL A   1      38.609  29.466  27.459  1.00  0.00     0.006 A 
ATOM      9  C   UNL A   1      40.366  29.556  29.106  1.00  0.00     0.006 A 
ATOM     10  C   UNL A   1      37.695  29.909  28.424  1.00  0.00     0.014 A 
ATOM     11  C   UNL A   1      39.459  30.015  30.057  1.00  0.00     0.014 A 
BRANCH   7  12
ATOM     12  C   UNL A   1      40.962  28.751  26.802  1.00  0.00     0.155 C 
BRANCH  12  13
ATOM     13  N   UNL A   1      41.417  27.386  27.045  1.00  0.00    -0.327 N 
ATOM     14  C   UNL A   1      42.782  23.257  27.031  1.00  0.00     0.090 C 
ATOM     15  S   UNL A   1      44.572  23.582  27.735  1.00  0.00    -0.131 SA
ATOM     16  N   UNL A   1      42.185  24.613  27.176  1.00  0.00    -0.314 N 
ATOM     17  C   UNL A   1      44.306  25.328  28.076  1.00  0.00     0.107 C 
ATOM     18  C   UNL A   1      43.177  25.693  27.137  1.00  0.00     0.186 C 
ATOM     19  C   UNL A   1      40.869  24.925  26.884  1.00  0.00     0.244 C 
ATOM     20  C   UNL A   1      42.735  27.136  27.393  1.00  0.00     0.247 C 
ATOM     21  C   UNL A   1      40.429  26.345  27.267  1.00  0.00     0.220 C 
ATOM     22  O   UNL A   1      40.025  24.101  26.548  1.00  0.00    -0.273 OA
ATOM     23  O   UNL A   1      43.558  28.024  27.612  1.00  0.00    -0.272 OA
BRANCH  14  24
ATOM     24  C   UNL A   1      43.101  22.888  25.545  1.00  0.00     0.040 C 
BRANCH  24  25
ATOM     25  C   UNL A   1      44.482  22.414  25.104  1.00  0.00    -0.000 C 
ATOM     26  C   UNL A   1      44.643  20.913  24.967  1.00  0.00     0.004 C 
ENDBRANCH  24  25
ENDBRANCH  14  24
BRANCH  14  27
ATOM     27  C   UNL A   1      42.316  22.151  28.027  1.00  0.00     0.040 C 
BRANCH  27  28
ATOM     28  C   UNL A   1      41.318  21.033  27.690  1.00  0.00    -0.000 C 
ATOM     29  C   UNL A   1      41.915  19.712  27.228  1.00  0.00     0.004 C 
ENDBRANCH  27  28
ENDBRANCH  14  27
ENDBRANCH  12  13
ENDBRANCH   7  12
ENDBRANCH   3   6
ENDBRANCH   1   2
BRANCH   1  30
ATOM     30  C   UNL A   1      38.300  33.788  31.535  1.00  0.00     0.023 C 
BRANCH  30  31
ATOM     31  C   UNL A   1      37.502  34.345  32.715  1.00  0.00     0.023 C 
BRANCH  31  32
ATOM     32  C   UNL A   1      38.291  34.512  34.008  1.00  0.00     0.116 C 
BRANCH  32  33
ATOM     33  N   UNL A   1      37.714  33.794  35.134  1.00  0.00    -0.352 N 
ATOM     34  C   UNL A   1      38.049  32.552  35.624  1.00  0.00     0.251 C 
ATOM     35  H   UNL A   1      36.987  34.257  35.609  1.00  0.00     0.163 HD
ATOM     36  O   UNL A   1      37.400  32.040  36.526  1.00  0.00    -0.269 OA
BRANCH  34  37
ATOM     37  C   UNL A   1      39.177  31.821  35.011  1.00  0.00     0.039 A 
ATOM     38  C   UNL A   1      38.907  30.909  33.987  1.00  0.00     0.014 A 
ATOM     39  C   UNL A   1      40.492  32.086  35.399  1.00  0.00     0.014 A 
ATOM     40  C   UNL A   1      39.967  30.334  33.284  1.00  0.00     0.010 A 
ATOM     41  C   UNL A   1      41.545  31.563  34.656  1.00  0.00     0.010 A 
ATOM     42  C   UNL A   1      41.290  30.699  33.580  1.00  0.00    -0.014 A 
BRANCH  42  43
ATOM     43  C   UNL A   1      42.420  30.240  32.734  1.00  0.00     0.031 A 
ATOM     44  C   UNL A   1      42.871  31.058  31.560  1.00  0.00     0.074 A 
ATOM     45  C   UNL A   1      42.977  29.039  32.978  1.00  0.00     0.049 A 
ATOM     46  N   UNL A   1      43.778  30.777  30.660  1.00  0.00    -0.248 NA
ATOM     47  C   UNL A   1      42.198  32.351  31.356  1.00  0.00     0.031 C 
ATOM     48  C   UNL A   1      42.589  28.128  34.059  1.00  0.00     0.029 A 
ATOM     49  N   UNL A   1      43.977  28.366  32.322  1.00  0.00    -0.354 N 
ATOM     50  C   UNL A   1      43.779  31.850  29.779  1.00  0.00     0.074 A 
ATOM     51  C   UNL A   1      42.751  32.767  30.226  1.00  0.00     0.031 C 
ATOM     52  C   UNL A   1      43.352  27.026  34.001  1.00  0.00     0.029 A 
ATOM     53  C   UNL A   1      44.253  27.132  32.858  1.00  0.00     0.049 A 
ATOM     54  H   UNL A   1      44.452  28.733  31.541  1.00  0.00     0.167 HD
ATOM     55  C   UNL A   1      44.579  32.061  28.708  1.00  0.00     0.037 A 
ATOM     56  C   UNL A   1      45.126  26.184  32.465  1.00  0.00     0.037 A 
ATOM     57  C   UNL A   1      45.613  31.156  28.277  1.00  0.00     0.049 A 
ATOM     58  C   UNL A   1      45.982  26.430  31.256  1.00  0.00     0.074 A 
ATOM     59  C   UNL A   1      46.530  31.318  27.254  1.00  0.00     0.029 A 
ATOM     60  N   UNL A   1      45.860  29.914  28.843  1.00  0.00    -0.354 N 
ATOM     61  N   UNL A   1      46.028  27.486  30.479  1.00  0.00    -0.248 NA
ATOM     62  C   UNL A   1      46.900  25.353  30.863  1.00  0.00     0.031 C 
ATOM     63  C   UNL A   1      47.301  30.155  27.169  1.00  0.00     0.029 A 
ATOM     64  C   UNL A   1      46.891  29.284  28.166  1.00  0.00     0.049 A 
ATOM     65  H   UNL A   1      45.374  29.536  29.610  1.00  0.00     0.167 HD
ATOM     66  C   UNL A   1      46.988  27.206  29.515  1.00  0.00     0.074 A 
ATOM     67  C   UNL A   1      47.514  25.890  29.817  1.00  0.00     0.031 C 
ATOM     68  C   UNL A   1      47.394  27.969  28.471  1.00  0.00     0.037 A 
BRANCH  55  69
ATOM     69  C   UNL A   1      44.371  33.324  27.925  1.00  0.00     0.057 A 
ATOM     70  C   UNL A   1      43.808  33.312  26.643  1.00  0.00     0.134 A 
ATOM     71  C   UNL A   1      44.703  34.569  28.474  1.00  0.00     0.134 A 
ATOM     72  F   UNL A   1      43.480  32.150  26.056  1.00  0.00    -0.206 F 
ATOM     73  C   UNL A   1      43.601  34.490  25.925  1.00  0.00     0.040 A 
ATOM     74  C   UNL A   1      44.479  35.756  27.777  1.00  0.00     0.040 A 
ATOM     75  F   UNL A   1      45.241  34.652  29.700  1.00  0.00    -0.206 F 
ATOM     76  C   UNL A   1      43.931  35.719  26.495  1.00  0.00     0.006 A 
ENDBRANCH  55  69
BRANCH  56  77
ATOM     77  C   UNL A   1      45.235  24.915  33.225  1.00  0.00     0.057 A 
ATOM     78  C   UNL A   1      44.522  23.777  32.831  1.00  0.00     0.134 A 
ATOM     79  C   UNL A   1      46.048  24.806  34.359  1.00  0.00     0.134 A 
ATOM     80  F   UNL A   1      43.712  23.824  31.763  1.00  0.00    -0.206 F 
ATOM     81  C   UNL A   1      44.603  22.580  33.545  1.00  0.00     0.040 A 
ATOM     82  C   UNL A   1      46.156  23.610  35.070  1.00  0.00     0.040 A 
ATOM     83  F   UNL A   1      46.761  25.860  34.784  1.00  0.00    -0.206 F 
ATOM     84  C   UNL A   1      45.426  22.493  34.666  1.00  0.00     0.006 A 
ENDBRANCH  56  77
BRANCH  68  85
ATOM     85  C   UNL A   1      48.457  27.399  27.582  1.00  0.00     0.057 A 
ATOM     86  C   UNL A   1      49.818  27.598  27.848  1.00  0.00     0.134 A 
ATOM     87  C   UNL A   1      48.121  26.611  26.474  1.00  0.00     0.134 A 
ATOM     88  F   UNL A   1      50.204  28.357  28.886  1.00  0.00    -0.206 F 
ATOM     89  C   UNL A   1      50.808  27.044  27.036  1.00  0.00     0.040 A 
ATOM     90  C   UNL A   1      49.102  26.032  25.667  1.00  0.00     0.040 A 
ATOM     91  F   UNL A   1      46.836  26.378  26.168  1.00  0.00    -0.206 F 
ATOM     92  C   UNL A   1      50.450  26.252  25.946  1.00  0.00     0.006 A 
ENDBRANCH  68  85
ENDBRANCH  42  43
ENDBRANCH  34  37
ENDBRANCH  32  33
ENDBRANCH  31  32
ENDBRANCH  30  31
ENDBRANCH   1  30
TORSDOF 17
ENDMDL
