MODEL 1
REMARK VINA RESULT:     -10.2      0.000      0.000
REMARK SMILES Cc1cc(C)n(C)c(=O)c1C(=O)N1CCC2(CC1)C[NH2+][C@@H](C(=O)NCCCCNC(=O)c1ccc(-c3c4nc(c(-c5c(F)cccc5F)c5ccc([nH]5)c(-c5c(F)cccc5F)c5nc(c(-c6c(F)cccc6F)c6ccc3[nH]6)C=C5)C=C4)cc1)C2
REMARK SMILES IDX 27 1 26 2 25 3 24 4 22 5 23 6 21 8 11 9 12 10 13 11 14 12
REMARK SMILES IDX 18 13 15 14 17 15 16 16 19 17 86 18 20 19 10 22 1 23 2 24
REMARK SMILES IDX 3 25 4 26 8 27 5 28 6 29 9 30 7 31 28 32 29 33 30 34 31 36
REMARK SMILES IDX 32 37 33 38 85 39 34 40 84 41 35 42 36 43 37 44 78 45 38 46
REMARK SMILES IDX 83 47 77 48 79 49 39 50 82 51 76 52 75 53 40 55 66 56 49 57
REMARK SMILES IDX 65 58 50 59 53 60 64 61 80 62 51 63 52 64 63 66 81 67 54 68
REMARK SMILES IDX 41 69 42 70 47 71 43 72 44 73 46 74 48 75 45 76 67 77 68 78
REMARK SMILES IDX 73 79 69 80 70 81 72 82 74 83 71 84 55 85 56 86 61 87 57 88
REMARK SMILES IDX 58 89 60 90 62 91 59 92
REMARK H PARENT 24 7 20 20 20 21 29 35 79 54 53 65
REMARK Flexibility Score: inf
ROOT
ATOM      1  C   UNL A   1      34.969  32.320  31.482  1.00  0.00     0.023 C 
ENDROOT
BRANCH   1   2
ATOM      2  C   UNL A   1      36.102  32.648  32.448  1.00  0.00     0.023 C 
BRANCH   2   3
ATOM      3  C   UNL A   1      37.128  31.532  32.618  1.00  0.00     0.116 C 
BRANCH   3   4
ATOM      4  N   UNL A   1      37.389  31.242  34.015  1.00  0.00    -0.351 N 
ATOM      5  C   UNL A   1      38.426  30.561  34.583  1.00  0.00     0.278 C 
ATOM      6  O   UNL A   1      38.446  30.463  35.814  1.00  0.00    -0.268 OA
ATOM      7  H   UNL A   1      36.718  31.589  34.647  1.00  0.00     0.163 HD
BRANCH   5   8
ATOM      8  C   UNL A   1      39.522  29.906  33.731  1.00  0.00     0.273 C 
ATOM      9  C   UNL A   1      45.099  26.580  34.489  1.00  0.00     0.259 C 
ATOM     10  O   UNL A   1      46.102  27.153  34.052  1.00  0.00    -0.269 OA
ATOM     11  N   UNL A   1      43.926  27.290  34.717  1.00  0.00    -0.338 N 
ATOM     12  C   UNL A   1      43.812  28.605  34.104  1.00  0.00     0.120 C 
ATOM     13  C   UNL A   1      42.789  26.923  35.554  1.00  0.00     0.120 C 
ATOM     14  C   UNL A   1      42.655  28.565  33.118  1.00  0.00     0.034 C 
ATOM     15  C   UNL A   1      41.440  27.062  34.820  1.00  0.00     0.034 C 
ATOM     16  C   UNL A   1      41.314  28.249  33.813  1.00  0.00     0.029 C 
ATOM     17  C   UNL A   1      40.259  27.943  32.721  1.00  0.00     0.268 C 
ATOM     18  C   UNL A   1      40.772  29.518  34.513  1.00  0.00     0.088 C 
ATOM     19  N   UNL A   1      39.052  28.653  33.114  1.00  0.00    -0.336 N 
ATOM     20  H   UNL A   1      38.517  28.104  33.786  1.00  0.00     0.346 HD
ATOM     21  H   UNL A   1      38.438  28.828  32.320  1.00  0.00     0.346 HD
BRANCH   9  22
ATOM     22  C   UNL A   1      45.162  25.088  34.621  1.00  0.00     0.108 A 
ATOM     23  C   UNL A   1      44.425  24.593  32.220  1.00  0.00     0.045 C 
ATOM     24  C   UNL A   1      44.909  24.245  33.594  1.00  0.00    -0.031 A 
ATOM     25  C   UNL A   1      45.263  22.843  33.689  1.00  0.00     0.026 A 
ATOM     26  C   UNL A   1      46.099  22.394  34.636  1.00  0.00     0.018 A 
ATOM     27  C   UNL A   1      45.913  24.529  35.809  1.00  0.00     0.263 A 
ATOM     28  C   UNL A   1      46.584  20.972  34.556  1.00  0.00     0.064 C 
ATOM     29  N   UNL A   1      46.485  23.252  35.659  1.00  0.00    -0.315 N 
ATOM     30  O   UNL A   1      46.024  25.187  36.845  1.00  0.00    -0.268 OA
ATOM     31  C   UNL A   1      47.480  22.839  36.640  1.00  0.00     0.153 C 
ENDBRANCH   9  22
ENDBRANCH   5   8
ENDBRANCH   3   4
ENDBRANCH   2   3
ENDBRANCH   1   2
BRANCH   1  32
ATOM     32  C   UNL A   1      35.301  32.544  30.013  1.00  0.00     0.116 C 
BRANCH  32  33
ATOM     33  N   UNL A   1      34.466  31.755  29.118  1.00  0.00    -0.352 N 
ATOM     34  C   UNL A   1      34.819  30.669  28.356  1.00  0.00     0.251 C 
ATOM     35  H   UNL A   1      33.525  32.038  29.050  1.00  0.00     0.163 HD
ATOM     36  O   UNL A   1      34.031  30.194  27.544  1.00  0.00    -0.269 OA
BRANCH  34  37
ATOM     37  C   UNL A   1      36.171  30.096  28.504  1.00  0.00     0.039 A 
ATOM     38  C   UNL A   1      37.092  30.258  27.468  1.00  0.00     0.014 A 
ATOM     39  C   UNL A   1      36.533  29.433  29.680  1.00  0.00     0.014 A 
ATOM     40  C   UNL A   1      38.402  29.806  27.635  1.00  0.00     0.010 A 
ATOM     41  C   UNL A   1      37.854  29.049  29.874  1.00  0.00     0.010 A 
ATOM     42  C   UNL A   1      38.799  29.228  28.851  1.00  0.00    -0.014 A 
BRANCH  42  43
ATOM     43  C   UNL A   1      40.196  28.791  29.081  1.00  0.00     0.031 A 
ATOM     44  C   UNL A   1      41.188  29.743  29.682  1.00  0.00     0.074 A 
ATOM     45  C   UNL A   1      40.588  27.569  28.675  1.00  0.00     0.049 A 
ATOM     46  N   UNL A   1      42.474  29.593  29.864  1.00  0.00    -0.248 NA
ATOM     47  C   UNL A   1      40.667  31.052  30.110  1.00  0.00     0.031 C 
ATOM     48  C   UNL A   1      39.725  26.569  28.046  1.00  0.00     0.029 A 
ATOM     49  N   UNL A   1      41.821  26.968  28.716  1.00  0.00    -0.354 N 
ATOM     50  C   UNL A   1      42.919  30.790  30.408  1.00  0.00     0.074 A 
ATOM     51  C   UNL A   1      41.776  31.673  30.482  1.00  0.00     0.031 C 
ATOM     52  C   UNL A   1      40.450  25.474  27.773  1.00  0.00     0.029 A 
ATOM     53  C   UNL A   1      41.835  25.709  28.168  1.00  0.00     0.049 A 
ATOM     54  H   UNL A   1      42.618  27.398  29.102  1.00  0.00     0.167 HD
ATOM     55  C   UNL A   1      44.165  31.115  30.826  1.00  0.00     0.037 A 
ATOM     56  C   UNL A   1      42.854  24.846  27.995  1.00  0.00     0.037 A 
ATOM     57  C   UNL A   1      45.293  30.222  30.767  1.00  0.00     0.049 A 
ATOM     58  C   UNL A   1      44.229  25.226  28.462  1.00  0.00     0.074 A 
ATOM     59  C   UNL A   1      46.584  30.437  31.217  1.00  0.00     0.029 A 
ATOM     60  N   UNL A   1      45.266  28.947  30.221  1.00  0.00    -0.354 N 
ATOM     61  N   UNL A   1      44.630  26.343  29.021  1.00  0.00    -0.248 NA
ATOM     62  C   UNL A   1      45.291  24.228  28.284  1.00  0.00     0.031 C 
ATOM     63  C   UNL A   1      47.350  29.312  30.898  1.00  0.00     0.029 A 
ATOM     64  C   UNL A   1      46.524  28.372  30.302  1.00  0.00     0.049 A 
ATOM     65  H   UNL A   1      44.471  28.515  29.834  1.00  0.00     0.167 HD
ATOM     66  C   UNL A   1      45.985  26.175  29.281  1.00  0.00     0.074 A 
ATOM     67  C   UNL A   1      46.332  24.842  28.830  1.00  0.00     0.031 C 
ATOM     68  C   UNL A   1      46.859  27.046  29.843  1.00  0.00     0.037 A 
BRANCH  55  69
ATOM     69  C   UNL A   1      44.372  32.496  31.379  1.00  0.00     0.057 A 
ATOM     70  C   UNL A   1      44.162  32.791  32.734  1.00  0.00     0.134 A 
ATOM     71  C   UNL A   1      44.817  33.536  30.554  1.00  0.00     0.134 A 
ATOM     72  F   UNL A   1      43.721  31.844  33.576  1.00  0.00    -0.206 F 
ATOM     73  C   UNL A   1      44.362  34.076  33.240  1.00  0.00     0.040 A 
ATOM     74  C   UNL A   1      45.050  34.817  31.055  1.00  0.00     0.040 A 
ATOM     75  F   UNL A   1      45.041  33.322  29.248  1.00  0.00    -0.206 F 
ATOM     76  C   UNL A   1      44.816  35.092  32.402  1.00  0.00     0.006 A 
ENDBRANCH  55  69
BRANCH  56  77
ATOM     77  C   UNL A   1      42.586  23.523  27.376  1.00  0.00     0.057 A 
ATOM     78  C   UNL A   1      42.705  23.337  25.995  1.00  0.00     0.134 A 
ATOM     79  C   UNL A   1      42.262  22.405  28.154  1.00  0.00     0.134 A 
ATOM     80  F   UNL A   1      42.997  24.376  25.197  1.00  0.00    -0.206 F 
ATOM     81  C   UNL A   1      42.513  22.086  25.407  1.00  0.00     0.040 A 
ATOM     82  C   UNL A   1      42.088  21.144  27.582  1.00  0.00     0.040 A 
ATOM     83  F   UNL A   1      42.142  22.517  29.485  1.00  0.00    -0.206 F 
ATOM     84  C   UNL A   1      42.214  20.983  26.203  1.00  0.00     0.006 A 
ENDBRANCH  56  77
BRANCH  68  85
ATOM     85  C   UNL A   1      48.275  26.581  30.026  1.00  0.00     0.057 A 
ATOM     86  C   UNL A   1      49.287  26.917  29.120  1.00  0.00     0.134 A 
ATOM     87  C   UNL A   1      48.638  25.830  31.151  1.00  0.00     0.134 A 
ATOM     88  F   UNL A   1      49.005  27.627  28.016  1.00  0.00    -0.206 F 
ATOM     89  C   UNL A   1      50.607  26.505  29.315  1.00  0.00     0.040 A 
ATOM     90  C   UNL A   1      49.958  25.436  31.372  1.00  0.00     0.040 A 
ATOM     91  F   UNL A   1      47.719  25.483  32.065  1.00  0.00    -0.206 F 
ATOM     92  C   UNL A   1      50.946  25.768  30.449  1.00  0.00     0.006 A 
ENDBRANCH  68  85
ENDBRANCH  42  43
ENDBRANCH  34  37
ENDBRANCH  32  33
ENDBRANCH   1  32
TORSDOF 12
ENDMDL
MODEL 2
REMARK VINA RESULT:     -10.2      5.122     10.843
REMARK SMILES Cc1cc(C)n(C)c(=O)c1C(=O)N1CCC2(CC1)C[NH2+][C@@H](C(=O)NCCCCNC(=O)c1ccc(-c3c4nc(c(-c5c(F)cccc5F)c5ccc([nH]5)c(-c5c(F)cccc5F)c5nc(c(-c6c(F)cccc6F)c6ccc3[nH]6)C=C5)C=C4)cc1)C2
REMARK SMILES IDX 27 1 26 2 25 3 24 4 22 5 23 6 21 8 11 9 12 10 13 11 14 12
REMARK SMILES IDX 18 13 15 14 17 15 16 16 19 17 86 18 20 19 10 22 1 23 2 24
REMARK SMILES IDX 3 25 4 26 8 27 5 28 6 29 9 30 7 31 28 32 29 33 30 34 31 36
REMARK SMILES IDX 32 37 33 38 85 39 34 40 84 41 35 42 36 43 37 44 78 45 38 46
REMARK SMILES IDX 83 47 77 48 79 49 39 50 82 51 76 52 75 53 40 55 66 56 49 57
REMARK SMILES IDX 65 58 50 59 53 60 64 61 80 62 51 63 52 64 63 66 81 67 54 68
REMARK SMILES IDX 41 69 42 70 47 71 43 72 44 73 46 74 48 75 45 76 67 77 68 78
REMARK SMILES IDX 73 79 69 80 70 81 72 82 74 83 71 84 55 85 56 86 61 87 57 88
REMARK SMILES IDX 58 89 60 90 62 91 59 92
REMARK H PARENT 24 7 20 20 20 21 29 35 79 54 53 65
REMARK Flexibility Score: inf
ROOT
ATOM      1  C   UNL A   1      31.035  31.870  26.805  1.00  0.00     0.023 C 
ENDROOT
BRANCH   1   2
ATOM      2  C   UNL A   1      30.698  31.392  25.396  1.00  0.00     0.023 C 
BRANCH   2   3
ATOM      3  C   UNL A   1      31.404  30.104  24.983  1.00  0.00     0.116 C 
BRANCH   3   4
ATOM      4  N   UNL A   1      30.834  29.536  23.776  1.00  0.00    -0.351 N 
ATOM      5  C   UNL A   1      31.218  28.434  23.068  1.00  0.00     0.278 C 
ATOM      6  O   UNL A   1      30.553  28.128  22.074  1.00  0.00    -0.268 OA
ATOM      7  H   UNL A   1      30.054  30.016  23.415  1.00  0.00     0.163 HD
BRANCH   5   8
ATOM      8  C   UNL A   1      32.451  27.611  23.465  1.00  0.00     0.273 C 
ATOM      9  C   UNL A   1      33.934  21.813  26.095  1.00  0.00     0.259 C 
ATOM     10  O   UNL A   1      34.515  21.876  27.183  1.00  0.00    -0.269 OA
ATOM     11  N   UNL A   1      33.255  22.918  25.594  1.00  0.00    -0.338 N 
ATOM     12  C   UNL A   1      33.548  24.210  26.196  1.00  0.00     0.120 C 
ATOM     13  C   UNL A   1      32.221  22.961  24.567  1.00  0.00     0.120 C 
ATOM     14  C   UNL A   1      34.160  25.100  25.126  1.00  0.00     0.034 C 
ATOM     15  C   UNL A   1      32.508  24.013  23.477  1.00  0.00     0.034 C 
ATOM     16  C   UNL A   1      33.192  25.335  23.947  1.00  0.00     0.029 C 
ATOM     17  C   UNL A   1      33.984  25.995  22.791  1.00  0.00     0.268 C 
ATOM     18  C   UNL A   1      32.139  26.400  24.336  1.00  0.00     0.088 C 
ATOM     19  N   UNL A   1      33.140  27.065  22.282  1.00  0.00    -0.336 N 
ATOM     20  H   UNL A   1      32.463  26.700  21.612  1.00  0.00     0.346 HD
ATOM     21  H   UNL A   1      33.682  27.778  21.796  1.00  0.00     0.346 HD
BRANCH   9  22
ATOM     22  C   UNL A   1      34.114  20.560  25.291  1.00  0.00     0.108 A 
ATOM     23  C   UNL A   1      36.656  20.766  25.074  1.00  0.00     0.045 C 
ATOM     24  C   UNL A   1      35.325  20.102  24.901  1.00  0.00    -0.031 A 
ATOM     25  C   UNL A   1      35.469  18.754  24.388  1.00  0.00     0.026 A 
ATOM     26  C   UNL A   1      34.509  17.834  24.552  1.00  0.00     0.018 A 
ATOM     27  C   UNL A   1      32.959  19.583  25.264  1.00  0.00     0.263 A 
ATOM     28  C   UNL A   1      34.803  16.408  24.177  1.00  0.00     0.064 C 
ATOM     29  N   UNL A   1      33.275  18.228  25.056  1.00  0.00    -0.315 N 
ATOM     30  O   UNL A   1      31.803  19.976  25.437  1.00  0.00    -0.268 OA
ATOM     31  C   UNL A   1      32.246  17.242  25.357  1.00  0.00     0.153 C 
ENDBRANCH   9  22
ENDBRANCH   5   8
ENDBRANCH   3   4
ENDBRANCH   2   3
ENDBRANCH   1   2
BRANCH   1  32
ATOM     32  C   UNL A   1      32.387  32.556  26.938  1.00  0.00     0.116 C 
BRANCH  32  33
ATOM     33  N   UNL A   1      32.283  33.918  27.442  1.00  0.00    -0.352 N 
ATOM     34  C   UNL A   1      33.068  34.543  28.379  1.00  0.00     0.251 C 
ATOM     35  H   UNL A   1      31.555  34.460  27.063  1.00  0.00     0.163 HD
ATOM     36  O   UNL A   1      32.768  35.656  28.802  1.00  0.00    -0.269 OA
BRANCH  34  37
ATOM     37  C   UNL A   1      34.263  33.849  28.896  1.00  0.00     0.039 A 
ATOM     38  C   UNL A   1      35.527  34.360  28.594  1.00  0.00     0.014 A 
ATOM     39  C   UNL A   1      34.129  32.717  29.704  1.00  0.00     0.014 A 
ATOM     40  C   UNL A   1      36.660  33.770  29.156  1.00  0.00     0.010 A 
ATOM     41  C   UNL A   1      35.250  32.175  30.321  1.00  0.00     0.010 A 
ATOM     42  C   UNL A   1      36.525  32.695  30.048  1.00  0.00    -0.014 A 
BRANCH  42  43
ATOM     43  C   UNL A   1      37.704  32.082  30.706  1.00  0.00     0.031 A 
ATOM     44  C   UNL A   1      38.461  30.988  30.014  1.00  0.00     0.074 A 
ATOM     45  C   UNL A   1      38.039  32.454  31.956  1.00  0.00     0.049 A 
ATOM     46  N   UNL A   1      39.447  30.253  30.460  1.00  0.00    -0.248 NA
ATOM     47  C   UNL A   1      38.035  30.657  28.644  1.00  0.00     0.031 C 
ATOM     48  C   UNL A   1      37.356  33.480  32.744  1.00  0.00     0.029 A 
ATOM     49  N   UNL A   1      39.029  31.997  32.788  1.00  0.00    -0.354 N 
ATOM     50  C   UNL A   1      39.745  29.362  29.437  1.00  0.00     0.074 A 
ATOM     51  C   UNL A   1      38.805  29.616  28.367  1.00  0.00     0.031 C 
ATOM     52  C   UNL A   1      37.956  33.585  33.940  1.00  0.00     0.029 A 
ATOM     53  C   UNL A   1      39.037  32.607  34.018  1.00  0.00     0.049 A 
ATOM     54  H   UNL A   1      39.673  31.299  32.527  1.00  0.00     0.167 HD
ATOM     55  C   UNL A   1      40.727  28.431  29.389  1.00  0.00     0.037 A 
ATOM     56  C   UNL A   1      39.821  32.394  35.092  1.00  0.00     0.037 A 
ATOM     57  C   UNL A   1      41.670  28.199  30.451  1.00  0.00     0.049 A 
ATOM     58  C   UNL A   1      40.902  31.354  35.019  1.00  0.00     0.074 A 
ATOM     59  C   UNL A   1      42.737  27.318  30.476  1.00  0.00     0.029 A 
ATOM     60  N   UNL A   1      41.658  28.850  31.676  1.00  0.00    -0.354 N 
ATOM     61  N   UNL A   1      41.208  30.550  34.029  1.00  0.00    -0.248 NA
ATOM     62  C   UNL A   1      41.752  31.196  36.206  1.00  0.00     0.031 C 
ATOM     63  C   UNL A   1      43.339  27.399  31.736  1.00  0.00     0.029 A 
ATOM     64  C   UNL A   1      42.685  28.371  32.475  1.00  0.00     0.049 A 
ATOM     65  H   UNL A   1      41.015  29.546  31.940  1.00  0.00     0.167 HD
ATOM     66  C   UNL A   1      42.297  29.805  34.463  1.00  0.00     0.074 A 
ATOM     67  C   UNL A   1      42.606  30.265  35.802  1.00  0.00     0.031 C 
ATOM     68  C   UNL A   1      42.979  28.832  33.810  1.00  0.00     0.037 A 
BRANCH  55  69
ATOM     69  C   UNL A   1      40.824  27.592  28.147  1.00  0.00     0.057 A 
ATOM     70  C   UNL A   1      41.585  27.992  27.040  1.00  0.00     0.134 A 
ATOM     71  C   UNL A   1      40.175  26.354  28.070  1.00  0.00     0.134 A 
ATOM     72  F   UNL A   1      42.220  29.174  27.042  1.00  0.00    -0.206 F 
ATOM     73  C   UNL A   1      41.675  27.203  25.892  1.00  0.00     0.040 A 
ATOM     74  C   UNL A   1      40.282  25.542  26.940  1.00  0.00     0.040 A 
ATOM     75  F   UNL A   1      39.432  25.908  29.095  1.00  0.00    -0.206 F 
ATOM     76  C   UNL A   1      41.029  25.969  25.843  1.00  0.00     0.006 A 
ENDBRANCH  55  69
BRANCH  56  77
ATOM     77  C   UNL A   1      39.621  33.217  36.311  1.00  0.00     0.057 A 
ATOM     78  C   UNL A   1      40.313  34.420  36.488  1.00  0.00     0.134 A 
ATOM     79  C   UNL A   1      38.696  32.851  37.296  1.00  0.00     0.134 A 
ATOM     80  F   UNL A   1      41.224  34.814  35.585  1.00  0.00    -0.206 F 
ATOM     81  C   UNL A   1      40.093  35.232  37.601  1.00  0.00     0.040 A 
ATOM     82  C   UNL A   1      38.450  33.664  38.403  1.00  0.00     0.040 A 
ATOM     83  F   UNL A   1      37.995  31.714  37.179  1.00  0.00    -0.206 F 
ATOM     84  C   UNL A   1      39.151  34.859  38.558  1.00  0.00     0.006 A 
ENDBRANCH  56  77
BRANCH  68  85
ATOM     85  C   UNL A   1      44.144  28.209  34.523  1.00  0.00     0.057 A 
ATOM     86  C   UNL A   1      44.015  27.021  35.253  1.00  0.00     0.134 A 
ATOM     87  C   UNL A   1      45.421  28.778  34.434  1.00  0.00     0.134 A 
ATOM     88  F   UNL A   1      42.818  26.429  35.384  1.00  0.00    -0.206 F 
ATOM     89  C   UNL A   1      45.111  26.433  35.887  1.00  0.00     0.040 A 
ATOM     90  C   UNL A   1      46.529  28.185  35.040  1.00  0.00     0.040 A 
ATOM     91  F   UNL A   1      45.616  29.910  33.741  1.00  0.00    -0.206 F 
ATOM     92  C   UNL A   1      46.375  27.012  35.775  1.00  0.00     0.006 A 
ENDBRANCH  68  85
ENDBRANCH  42  43
ENDBRANCH  34  37
ENDBRANCH  32  33
ENDBRANCH   1  32
TORSDOF 12
ENDMDL
MODEL 3
REMARK VINA RESULT:      -9.9      4.785     11.873
REMARK SMILES Cc1cc(C)n(C)c(=O)c1C(=O)N1CCC2(CC1)C[NH2+][C@@H](C(=O)NCCCCNC(=O)c1ccc(-c3c4nc(c(-c5c(F)cccc5F)c5ccc([nH]5)c(-c5c(F)cccc5F)c5nc(c(-c6c(F)cccc6F)c6ccc3[nH]6)C=C5)C=C4)cc1)C2
REMARK SMILES IDX 27 1 26 2 25 3 24 4 22 5 23 6 21 8 11 9 12 10 13 11 14 12
REMARK SMILES IDX 18 13 15 14 17 15 16 16 19 17 86 18 20 19 10 22 1 23 2 24
REMARK SMILES IDX 3 25 4 26 8 27 5 28 6 29 9 30 7 31 28 32 29 33 30 34 31 36
REMARK SMILES IDX 32 37 33 38 85 39 34 40 84 41 35 42 36 43 37 44 78 45 38 46
REMARK SMILES IDX 83 47 77 48 79 49 39 50 82 51 76 52 75 53 40 55 66 56 49 57
REMARK SMILES IDX 65 58 50 59 53 60 64 61 80 62 51 63 52 64 63 66 81 67 54 68
REMARK SMILES IDX 41 69 42 70 47 71 43 72 44 73 46 74 48 75 45 76 67 77 68 78
REMARK SMILES IDX 73 79 69 80 70 81 72 82 74 83 71 84 55 85 56 86 61 87 57 88
REMARK SMILES IDX 58 89 60 90 62 91 59 92
REMARK H PARENT 24 7 20 20 20 21 29 35 79 54 53 65
REMARK Flexibility Score: inf
ROOT
ATOM      1  C   UNL A   1      38.505  19.893  24.787  1.00  0.00     0.023 C 
ENDROOT
BRANCH   1   2
ATOM      2  C   UNL A   1      37.039  19.529  24.999  1.00  0.00     0.023 C 
BRANCH   2   3
ATOM      3  C   UNL A   1      36.088  20.722  24.997  1.00  0.00     0.116 C 
BRANCH   3   4
ATOM      4  N   UNL A   1      34.705  20.314  25.155  1.00  0.00    -0.351 N 
ATOM      5  C   UNL A   1      33.620  21.048  25.538  1.00  0.00     0.278 C 
ATOM      6  O   UNL A   1      32.525  20.479  25.575  1.00  0.00    -0.268 OA
ATOM      7  H   UNL A   1      34.522  19.367  24.956  1.00  0.00     0.163 HD
BRANCH   5   8
ATOM      8  C   UNL A   1      33.747  22.523  25.940  1.00  0.00     0.273 C 
ATOM      9  C   UNL A   1      32.461  28.469  23.545  1.00  0.00     0.259 C 
ATOM     10  O   UNL A   1      33.457  29.175  23.364  1.00  0.00    -0.269 OA
ATOM     11  N   UNL A   1      32.593  27.094  23.709  1.00  0.00    -0.338 N 
ATOM     12  C   UNL A   1      33.921  26.583  24.012  1.00  0.00     0.120 C 
ATOM     13  C   UNL A   1      31.577  26.059  23.556  1.00  0.00     0.120 C 
ATOM     14  C   UNL A   1      33.875  25.938  25.389  1.00  0.00     0.034 C 
ATOM     15  C   UNL A   1      31.525  25.095  24.758  1.00  0.00     0.034 C 
ATOM     16  C   UNL A   1      32.888  24.753  25.438  1.00  0.00     0.029 C 
ATOM     17  C   UNL A   1      32.686  24.348  26.919  1.00  0.00     0.268 C 
ATOM     18  C   UNL A   1      33.534  23.504  24.793  1.00  0.00     0.088 C 
ATOM     19  N   UNL A   1      32.744  22.896  26.953  1.00  0.00    -0.336 N 
ATOM     20  H   UNL A   1      31.835  22.495  26.719  1.00  0.00     0.346 HD
ATOM     21  H   UNL A   1      32.991  22.546  27.878  1.00  0.00     0.346 HD
BRANCH   9  22
ATOM     22  C   UNL A   1      31.146  29.166  23.722  1.00  0.00     0.108 A 
ATOM     23  C   UNL A   1      31.808  30.409  25.860  1.00  0.00     0.045 C 
ATOM     24  C   UNL A   1      30.908  30.049  24.719  1.00  0.00    -0.031 A 
ATOM     25  C   UNL A   1      29.739  30.905  24.678  1.00  0.00     0.026 A 
ATOM     26  C   UNL A   1      29.032  31.073  23.552  1.00  0.00     0.018 A 
ATOM     27  C   UNL A   1      30.209  29.189  22.535  1.00  0.00     0.263 A 
ATOM     28  C   UNL A   1      27.959  32.127  23.523  1.00  0.00     0.064 C 
ATOM     29  N   UNL A   1      29.309  30.268  22.453  1.00  0.00    -0.315 N 
ATOM     30  O   UNL A   1      30.261  28.304  21.679  1.00  0.00    -0.268 OA
ATOM     31  C   UNL A   1      28.644  30.496  21.178  1.00  0.00     0.153 C 
ENDBRANCH   9  22
ENDBRANCH   5   8
ENDBRANCH   3   4
ENDBRANCH   2   3
ENDBRANCH   1   2
BRANCH   1  32
ATOM     32  C   UNL A   1      39.349  19.895  26.054  1.00  0.00     0.116 C 
BRANCH  32  33
ATOM     33  N   UNL A   1      40.405  18.893  26.031  1.00  0.00    -0.352 N 
ATOM     34  C   UNL A   1      41.761  19.079  26.139  1.00  0.00     0.251 C 
ATOM     35  H   UNL A   1      40.108  17.960  25.926  1.00  0.00     0.163 HD
ATOM     36  O   UNL A   1      42.535  18.142  25.964  1.00  0.00    -0.269 OA
BRANCH  34  37
ATOM     37  C   UNL A   1      42.281  20.427  26.438  1.00  0.00     0.039 A 
ATOM     38  C   UNL A   1      42.741  21.224  25.389  1.00  0.00     0.014 A 
ATOM     39  C   UNL A   1      42.278  20.911  27.749  1.00  0.00     0.014 A 
ATOM     40  C   UNL A   1      43.144  22.535  25.645  1.00  0.00     0.010 A 
ATOM     41  C   UNL A   1      42.610  22.238  27.993  1.00  0.00     0.010 A 
ATOM     42  C   UNL A   1      43.050  23.060  26.944  1.00  0.00    -0.014 A 
BRANCH  42  43
ATOM     43  C   UNL A   1      43.415  24.465  27.240  1.00  0.00     0.031 A 
ATOM     44  C   UNL A   1      44.851  24.895  27.165  1.00  0.00     0.074 A 
ATOM     45  C   UNL A   1      42.469  25.329  27.653  1.00  0.00     0.049 A 
ATOM     46  N   UNL A   1      45.389  26.043  27.488  1.00  0.00    -0.248 NA
ATOM     47  C   UNL A   1      45.816  23.890  26.689  1.00  0.00     0.031 C 
ATOM     48  C   UNL A   1      41.047  25.017  27.800  1.00  0.00     0.029 A 
ATOM     49  N   UNL A   1      42.566  26.640  28.043  1.00  0.00    -0.354 N 
ATOM     50  C   UNL A   1      46.753  25.892  27.274  1.00  0.00     0.074 A 
ATOM     51  C   UNL A   1      46.966  24.529  26.840  1.00  0.00     0.031 C 
ATOM     52  C   UNL A   1      40.402  26.111  28.234  1.00  0.00     0.029 A 
ATOM     53  C   UNL A   1      41.369  27.186  28.435  1.00  0.00     0.049 A 
ATOM     54  H   UNL A   1      43.413  27.142  28.040  1.00  0.00     0.167 HD
ATOM     55  C   UNL A   1      47.735  26.815  27.408  1.00  0.00     0.037 A 
ATOM     56  C   UNL A   1      41.084  28.412  28.913  1.00  0.00     0.037 A 
ATOM     57  C   UNL A   1      47.511  28.175  27.822  1.00  0.00     0.049 A 
ATOM     58  C   UNL A   1      42.188  29.420  29.058  1.00  0.00     0.074 A 
ATOM     59  C   UNL A   1      48.432  29.202  27.934  1.00  0.00     0.029 A 
ATOM     60  N   UNL A   1      46.281  28.697  28.194  1.00  0.00    -0.354 N 
ATOM     61  N   UNL A   1      43.468  29.283  28.806  1.00  0.00    -0.248 NA
ATOM     62  C   UNL A   1      41.811  30.752  29.545  1.00  0.00     0.031 C 
ATOM     63  C   UNL A   1      47.768  30.331  28.423  1.00  0.00     0.029 A 
ATOM     64  C   UNL A   1      46.423  30.026  28.560  1.00  0.00     0.049 A 
ATOM     65  H   UNL A   1      45.433  28.198  28.198  1.00  0.00     0.167 HD
ATOM     66  C   UNL A   1      44.046  30.515  29.082  1.00  0.00     0.074 A 
ATOM     67  C   UNL A   1      42.973  31.391  29.509  1.00  0.00     0.031 C 
ATOM     68  C   UNL A   1      45.347  30.887  28.989  1.00  0.00     0.037 A 
BRANCH  55  69
ATOM     69  C   UNL A   1      49.140  26.378  27.109  1.00  0.00     0.057 A 
ATOM     70  C   UNL A   1      49.668  26.417  25.811  1.00  0.00     0.134 A 
ATOM     71  C   UNL A   1      49.986  25.943  28.137  1.00  0.00     0.134 A 
ATOM     72  F   UNL A   1      48.907  26.809  24.778  1.00  0.00    -0.206 F 
ATOM     73  C   UNL A   1      50.977  26.015  25.543  1.00  0.00     0.040 A 
ATOM     74  C   UNL A   1      51.307  25.568  27.886  1.00  0.00     0.040 A 
ATOM     75  F   UNL A   1      49.547  25.884  29.403  1.00  0.00    -0.206 F 
ATOM     76  C   UNL A   1      51.804  25.597  26.584  1.00  0.00     0.006 A 
ENDBRANCH  55  69
BRANCH  56  77
ATOM     77  C   UNL A   1      39.679  28.750  29.253  1.00  0.00     0.057 A 
ATOM     78  C   UNL A   1      38.793  29.212  28.273  1.00  0.00     0.134 A 
ATOM     79  C   UNL A   1      39.176  28.568  30.546  1.00  0.00     0.134 A 
ATOM     80  F   UNL A   1      39.223  29.421  27.020  1.00  0.00    -0.206 F 
ATOM     81  C   UNL A   1      37.455  29.478  28.566  1.00  0.00     0.040 A 
ATOM     82  C   UNL A   1      37.835  28.810  30.848  1.00  0.00     0.040 A 
ATOM     83  F   UNL A   1      39.974  28.120  31.527  1.00  0.00    -0.206 F 
ATOM     84  C   UNL A   1      36.971  29.268  29.855  1.00  0.00     0.006 A 
ENDBRANCH  56  77
BRANCH  68  85
ATOM     85  C   UNL A   1      45.685  32.308  29.333  1.00  0.00     0.057 A 
ATOM     86  C   UNL A   1      46.073  32.685  30.623  1.00  0.00     0.134 A 
ATOM     87  C   UNL A   1      45.671  33.302  28.345  1.00  0.00     0.134 A 
ATOM     88  F   UNL A   1      46.099  31.784  31.617  1.00  0.00    -0.206 F 
ATOM     89  C   UNL A   1      46.415  34.005  30.926  1.00  0.00     0.040 A 
ATOM     90  C   UNL A   1      46.038  34.619  28.629  1.00  0.00     0.040 A 
ATOM     91  F   UNL A   1      45.320  33.006  27.085  1.00  0.00    -0.206 F 
ATOM     92  C   UNL A   1      46.405  34.975  29.924  1.00  0.00     0.006 A 
ENDBRANCH  68  85
ENDBRANCH  42  43
ENDBRANCH  34  37
ENDBRANCH  32  33
ENDBRANCH   1  32
TORSDOF 12
ENDMDL
