MODEL 1
REMARK VINA RESULT:      -9.1      0.000      0.000
REMARK SMILES O=C(CSC(=S)N1CCCC1)NCCCCNC(=O)c1ccc(-c2c3nc(c(-c4c(F)cccc4F)c4ccc([nH]4)c(-c4c(F)cccc4F)c4nc(c(-c5c(F)cccc5F)c5ccc2[nH]5)C=C4)C=C3)cc1
REMARK SMILES IDX 14 1 13 2 12 3 1 4 2 5 3 7 4 8 5 9 6 10 7 11 8 12 11 13 9 14
REMARK SMILES IDX 10 15 15 16 16 17 17 18 18 19 19 21 20 22 21 23 73 24 22 25
REMARK SMILES IDX 72 26 23 27 24 28 25 29 66 30 26 31 71 32 65 33 67 34 27 35
REMARK SMILES IDX 70 36 64 37 63 38 28 40 54 41 37 42 53 43 38 44 41 45 52 46
REMARK SMILES IDX 68 47 39 48 40 49 51 51 69 52 42 53 29 54 30 55 35 56 31 57
REMARK SMILES IDX 32 58 34 59 36 60 33 61 55 62 56 63 61 64 57 65 58 66 60 67
REMARK SMILES IDX 62 68 59 69 43 70 44 71 49 72 45 73 46 74 48 75 50 76 47 77
REMARK H PARENT 12 6 17 20 67 39 41 50
REMARK Flexibility Score: inf
ROOT
ATOM      1  C   UNL A   1      34.143  34.995  28.958  1.00  0.00     0.023 C 
ENDROOT
BRANCH   1   2
ATOM      2  C   UNL A   1      33.498  35.370  30.291  1.00  0.00     0.116 C 
BRANCH   2   3
ATOM      3  N   UNL A   1      34.442  35.426  31.389  1.00  0.00    -0.355 N 
ATOM      4  O   UNL A   1      33.664  33.539  32.425  1.00  0.00    -0.274 OA
ATOM      5  C   UNL A   1      34.509  34.430  32.342  1.00  0.00     0.230 C 
ATOM      6  H   UNL A   1      35.052  36.196  31.457  1.00  0.00     0.163 HD
BRANCH   5   7
ATOM      7  C   UNL A   1      35.634  34.541  33.361  1.00  0.00     0.177 C 
BRANCH   7   8
ATOM      8  S   UNL A   1      36.547  33.009  33.672  1.00  0.00    -0.087 SA
BRANCH   8   9
ATOM      9  C   UNL A   1      38.140  33.219  32.934  1.00  0.00     0.136 C 
ATOM     10  S   UNL A   1      39.607  32.944  33.701  1.00  0.00    -0.053 S 
BRANCH   9  11
ATOM     11  N   UNL A   1      38.064  33.526  31.578  1.00  0.00    -0.358 N 
ATOM     12  C   UNL A   1      37.246  32.856  30.571  1.00  0.00     0.118 C 
ATOM     13  C   UNL A   1      38.814  34.620  30.959  1.00  0.00     0.118 C 
ATOM     14  C   UNL A   1      37.993  33.100  29.274  1.00  0.00     0.023 C 
ATOM     15  C   UNL A   1      38.562  34.501  29.459  1.00  0.00     0.023 C 
ENDBRANCH   9  11
ENDBRANCH   8   9
ENDBRANCH   7   8
ENDBRANCH   5   7
ENDBRANCH   2   3
ENDBRANCH   1   2
BRANCH   1  16
ATOM     16  C   UNL A   1      33.662  33.675  28.352  1.00  0.00     0.023 C 
BRANCH  16  17
ATOM     17  C   UNL A   1      34.496  32.446  28.694  1.00  0.00     0.116 C 
BRANCH  17  18
ATOM     18  N   UNL A   1      33.918  31.201  28.212  1.00  0.00    -0.352 N 
ATOM     19  C   UNL A   1      34.525  29.995  27.956  1.00  0.00     0.251 C 
ATOM     20  H   UNL A   1      32.947  31.226  28.045  1.00  0.00     0.163 HD
ATOM     21  O   UNL A   1      33.884  29.083  27.437  1.00  0.00    -0.269 OA
BRANCH  19  22
ATOM     22  C   UNL A   1      35.958  29.793  28.268  1.00  0.00     0.039 A 
ATOM     23  C   UNL A   1      36.313  29.340  29.543  1.00  0.00     0.014 A 
ATOM     24  C   UNL A   1      36.951  30.044  27.318  1.00  0.00     0.014 A 
ATOM     25  C   UNL A   1      37.651  29.067  29.838  1.00  0.00     0.010 A 
ATOM     26  C   UNL A   1      38.275  29.698  27.587  1.00  0.00     0.010 A 
ATOM     27  C   UNL A   1      38.639  29.200  28.848  1.00  0.00    -0.014 A 
BRANCH  27  28
ATOM     28  C   UNL A   1      40.051  28.811  29.109  1.00  0.00     0.031 A 
ATOM     29  C   UNL A   1      40.998  29.776  29.769  1.00  0.00     0.074 A 
ATOM     30  C   UNL A   1      40.500  27.610  28.694  1.00  0.00     0.049 A 
ATOM     31  N   UNL A   1      42.278  29.643  30.013  1.00  0.00    -0.248 NA
ATOM     32  C   UNL A   1      40.440  31.070  30.188  1.00  0.00     0.031 C 
ATOM     33  C   UNL A   1      39.698  26.599  28.003  1.00  0.00     0.029 A 
ATOM     34  N   UNL A   1      41.746  27.040  28.783  1.00  0.00    -0.354 N 
ATOM     35  C   UNL A   1      42.677  30.836  30.603  1.00  0.00     0.074 A 
ATOM     36  C   UNL A   1      41.519  31.701  30.628  1.00  0.00     0.031 C 
ATOM     37  C   UNL A   1      40.465  25.527  27.747  1.00  0.00     0.029 A 
ATOM     38  C   UNL A   1      41.822  25.789  28.217  1.00  0.00     0.049 A 
ATOM     39  H   UNL A   1      42.513  27.484  29.212  1.00  0.00     0.167 HD
ATOM     40  C   UNL A   1      43.891  31.170  31.103  1.00  0.00     0.037 A 
ATOM     41  C   UNL A   1      42.868  24.951  28.081  1.00  0.00     0.037 A 
ATOM     42  C   UNL A   1      45.041  30.303  31.090  1.00  0.00     0.049 A 
ATOM     43  C   UNL A   1      44.211  25.356  28.623  1.00  0.00     0.074 A 
ATOM     44  C   UNL A   1      46.301  30.536  31.613  1.00  0.00     0.029 A 
ATOM     45  N   UNL A   1      45.074  29.040  30.519  1.00  0.00    -0.354 N 
ATOM     46  N   UNL A   1      44.557  26.461  29.235  1.00  0.00    -0.248 NA
ATOM     47  C   UNL A   1      45.310  24.392  28.459  1.00  0.00     0.031 C 
ATOM     48  C   UNL A   1      47.110  29.435  31.315  1.00  0.00     0.029 A 
ATOM     49  C   UNL A   1      46.339  28.492  30.657  1.00  0.00     0.049 A 
ATOM     50  H   UNL A   1      44.310  28.598  30.081  1.00  0.00     0.167 HD
ATOM     51  C   UNL A   1      45.901  26.315  29.557  1.00  0.00     0.074 A 
ATOM     52  C   UNL A   1      46.303  25.006  29.084  1.00  0.00     0.031 C 
ATOM     53  C   UNL A   1      46.727  27.185  30.188  1.00  0.00     0.037 A 
BRANCH  40  54
ATOM     54  C   UNL A   1      44.038  32.537  31.710  1.00  0.00     0.057 A 
ATOM     55  C   UNL A   1      44.462  33.639  30.956  1.00  0.00     0.134 A 
ATOM     56  C   UNL A   1      43.717  32.763  33.055  1.00  0.00     0.134 A 
ATOM     57  F   UNL A   1      44.797  33.491  29.665  1.00  0.00    -0.206 F 
ATOM     58  C   UNL A   1      44.589  34.909  31.522  1.00  0.00     0.040 A 
ATOM     59  C   UNL A   1      43.810  34.034  33.625  1.00  0.00     0.040 A 
ATOM     60  F   UNL A   1      43.296  31.755  33.835  1.00  0.00    -0.206 F 
ATOM     61  C   UNL A   1      44.255  35.110  32.859  1.00  0.00     0.006 A 
ENDBRANCH  40  54
BRANCH  41  62
ATOM     62  C   UNL A   1      42.687  23.638  27.409  1.00  0.00     0.057 A 
ATOM     63  C   UNL A   1      42.370  22.487  28.141  1.00  0.00     0.134 A 
ATOM     64  C   UNL A   1      42.838  23.498  26.025  1.00  0.00     0.134 A 
ATOM     65  F   UNL A   1      42.230  22.553  29.474  1.00  0.00    -0.206 F 
ATOM     66  C   UNL A   1      42.234  21.243  27.526  1.00  0.00     0.040 A 
ATOM     67  C   UNL A   1      42.677  22.264  25.391  1.00  0.00     0.040 A 
ATOM     68  F   UNL A   1      43.135  24.562  25.264  1.00  0.00    -0.206 F 
ATOM     69  C   UNL A   1      42.382  21.130  26.145  1.00  0.00     0.006 A 
ENDBRANCH  41  62
BRANCH  53  70
ATOM     70  C   UNL A   1      48.138  26.738  30.440  1.00  0.00     0.057 A 
ATOM     71  C   UNL A   1      49.185  27.050  29.562  1.00  0.00     0.134 A 
ATOM     72  C   UNL A   1      48.461  26.016  31.597  1.00  0.00     0.134 A 
ATOM     73  F   UNL A   1      48.944  27.727  28.429  1.00  0.00    -0.206 F 
ATOM     74  C   UNL A   1      50.496  26.639  29.814  1.00  0.00     0.040 A 
ATOM     75  C   UNL A   1      49.771  25.626  31.875  1.00  0.00     0.040 A 
ATOM     76  F   UNL A   1      47.509  25.692  32.484  1.00  0.00    -0.206 F 
ATOM     77  C   UNL A   1      50.792  25.932  30.977  1.00  0.00     0.006 A 
ENDBRANCH  53  70
ENDBRANCH  27  28
ENDBRANCH  19  22
ENDBRANCH  17  18
ENDBRANCH  16  17
ENDBRANCH   1  16
TORSDOF 14
ENDMDL
MODEL 2
REMARK VINA RESULT:      -9.0      5.248     10.376
REMARK SMILES O=C(CSC(=S)N1CCCC1)NCCCCNC(=O)c1ccc(-c2c3nc(c(-c4c(F)cccc4F)c4ccc([nH]4)c(-c4c(F)cccc4F)c4nc(c(-c5c(F)cccc5F)c5ccc2[nH]5)C=C4)C=C3)cc1
REMARK SMILES IDX 14 1 13 2 12 3 1 4 2 5 3 7 4 8 5 9 6 10 7 11 8 12 11 13 9 14
REMARK SMILES IDX 10 15 15 16 16 17 17 18 18 19 19 21 20 22 21 23 73 24 22 25
REMARK SMILES IDX 72 26 23 27 24 28 25 29 66 30 26 31 71 32 65 33 67 34 27 35
REMARK SMILES IDX 70 36 64 37 63 38 28 40 54 41 37 42 53 43 38 44 41 45 52 46
REMARK SMILES IDX 68 47 39 48 40 49 51 51 69 52 42 53 29 54 30 55 35 56 31 57
REMARK SMILES IDX 32 58 34 59 36 60 33 61 55 62 56 63 61 64 57 65 58 66 60 67
REMARK SMILES IDX 62 68 59 69 43 70 44 71 49 72 45 73 46 74 48 75 50 76 47 77
REMARK H PARENT 12 6 17 20 67 39 41 50
REMARK Flexibility Score: inf
ROOT
ATOM      1  C   UNL A   1      36.733  20.318  25.077  1.00  0.00     0.023 C 
ENDROOT
BRANCH   1   2
ATOM      2  C   UNL A   1      36.745  21.831  24.866  1.00  0.00     0.116 C 
BRANCH   2   3
ATOM      3  N   UNL A   1      35.433  22.382  24.591  1.00  0.00    -0.355 N 
ATOM      4  O   UNL A   1      36.052  23.424  22.649  1.00  0.00    -0.274 OA
ATOM      5  C   UNL A   1      35.166  23.075  23.428  1.00  0.00     0.230 C 
ATOM      6  H   UNL A   1      34.714  22.258  25.251  1.00  0.00     0.163 HD
BRANCH   5   7
ATOM      7  C   UNL A   1      33.717  23.481  23.198  1.00  0.00     0.177 C 
BRANCH   7   8
ATOM      8  S   UNL A   1      32.595  22.128  22.765  1.00  0.00    -0.087 SA
BRANCH   8   9
ATOM      9  C   UNL A   1      32.230  21.280  24.273  1.00  0.00     0.136 C 
ATOM     10  S   UNL A   1      31.480  21.962  25.610  1.00  0.00    -0.053 S 
BRANCH   9  11
ATOM     11  N   UNL A   1      32.523  19.920  24.206  1.00  0.00    -0.358 N 
ATOM     12  C   UNL A   1      33.035  19.079  25.284  1.00  0.00     0.118 C 
ATOM     13  C   UNL A   1      32.330  19.116  22.999  1.00  0.00     0.118 C 
ATOM     14  C   UNL A   1      33.766  17.965  24.560  1.00  0.00     0.023 C 
ATOM     15  C   UNL A   1      32.916  17.743  23.315  1.00  0.00     0.023 C 
ENDBRANCH   9  11
ENDBRANCH   8   9
ENDBRANCH   7   8
ENDBRANCH   5   7
ENDBRANCH   2   3
ENDBRANCH   1   2
BRANCH   1  16
ATOM     16  C   UNL A   1      38.076  19.619  24.857  1.00  0.00     0.023 C 
BRANCH  16  17
ATOM     17  C   UNL A   1      39.155  19.916  25.893  1.00  0.00     0.116 C 
BRANCH  17  18
ATOM     18  N   UNL A   1      40.231  18.937  25.905  1.00  0.00    -0.352 N 
ATOM     19  C   UNL A   1      41.578  19.119  26.106  1.00  0.00     0.251 C 
ATOM     20  H   UNL A   1      39.952  18.006  25.746  1.00  0.00     0.163 HD
ATOM     21  O   UNL A   1      42.353  18.176  25.961  1.00  0.00    -0.269 OA
BRANCH  19  22
ATOM     22  C   UNL A   1      42.112  20.453  26.461  1.00  0.00     0.039 A 
ATOM     23  C   UNL A   1      42.532  21.305  25.435  1.00  0.00     0.014 A 
ATOM     24  C   UNL A   1      42.200  20.871  27.792  1.00  0.00     0.014 A 
ATOM     25  C   UNL A   1      42.966  22.598  25.738  1.00  0.00     0.010 A 
ATOM     26  C   UNL A   1      42.559  22.185  28.086  1.00  0.00     0.010 A 
ATOM     27  C   UNL A   1      42.941  23.066  27.062  1.00  0.00    -0.014 A 
BRANCH  27  28
ATOM     28  C   UNL A   1      43.295  24.473  27.391  1.00  0.00     0.031 A 
ATOM     29  C   UNL A   1      44.731  24.919  27.384  1.00  0.00     0.074 A 
ATOM     30  C   UNL A   1      42.328  25.336  27.760  1.00  0.00     0.049 A 
ATOM     31  N   UNL A   1      45.239  26.081  27.712  1.00  0.00    -0.248 NA
ATOM     32  C   UNL A   1      45.733  23.921  26.978  1.00  0.00     0.031 C 
ATOM     33  C   UNL A   1      40.901  25.020  27.852  1.00  0.00     0.029 A 
ATOM     34  N   UNL A   1      42.400  26.654  28.139  1.00  0.00    -0.354 N 
ATOM     35  C   UNL A   1      46.614  25.950  27.561  1.00  0.00     0.074 A 
ATOM     36  C   UNL A   1      46.866  24.581  27.168  1.00  0.00     0.031 C 
ATOM     37  C   UNL A   1      40.232  26.117  28.242  1.00  0.00     0.029 A 
ATOM     38  C   UNL A   1      41.182  27.201  28.468  1.00  0.00     0.049 A 
ATOM     39  H   UNL A   1      43.244  27.160  28.172  1.00  0.00     0.167 HD
ATOM     40  C   UNL A   1      47.577  26.892  27.710  1.00  0.00     0.037 A 
ATOM     41  C   UNL A   1      40.866  28.432  28.914  1.00  0.00     0.037 A 
ATOM     42  C   UNL A   1      47.325  28.258  28.088  1.00  0.00     0.049 A 
ATOM     43  C   UNL A   1      41.957  29.453  29.094  1.00  0.00     0.074 A 
ATOM     44  C   UNL A   1      48.230  29.297  28.220  1.00  0.00     0.029 A 
ATOM     45  N   UNL A   1      46.077  28.776  28.401  1.00  0.00    -0.354 N 
ATOM     46  N   UNL A   1      43.245  29.332  28.886  1.00  0.00    -0.248 NA
ATOM     47  C   UNL A   1      41.548  30.783  29.567  1.00  0.00     0.031 C 
ATOM     48  C   UNL A   1      47.538  30.429  28.661  1.00  0.00     0.029 A 
ATOM     49  C   UNL A   1      46.193  30.112  28.748  1.00  0.00     0.049 A 
ATOM     50  H   UNL A   1      45.233  28.268  28.379  1.00  0.00     0.167 HD
ATOM     51  C   UNL A   1      43.796  30.576  29.171  1.00  0.00     0.074 A 
ATOM     52  C   UNL A   1      42.698  31.440  29.553  1.00  0.00     0.031 C 
ATOM     53  C   UNL A   1      45.092  30.966  29.121  1.00  0.00     0.037 A 
BRANCH  40  54
ATOM     54  C   UNL A   1      48.999  26.474  27.461  1.00  0.00     0.057 A 
ATOM     55  C   UNL A   1      49.818  25.990  28.490  1.00  0.00     0.134 A 
ATOM     56  C   UNL A   1      49.546  26.521  26.172  1.00  0.00     0.134 A 
ATOM     57  F   UNL A   1      49.361  25.928  29.751  1.00  0.00    -0.206 F 
ATOM     58  C   UNL A   1      51.136  25.594  28.253  1.00  0.00     0.040 A 
ATOM     59  C   UNL A   1      50.852  26.099  25.916  1.00  0.00     0.040 A 
ATOM     60  F   UNL A   1      48.816  26.966  25.138  1.00  0.00    -0.206 F 
ATOM     61  C   UNL A   1      51.654  25.642  26.960  1.00  0.00     0.006 A 
ENDBRANCH  40  54
BRANCH  41  62
ATOM     62  C   UNL A   1      39.452  28.775  29.213  1.00  0.00     0.057 A 
ATOM     63  C   UNL A   1      38.905  28.553  30.483  1.00  0.00     0.134 A 
ATOM     64  C   UNL A   1      38.610  29.320  28.237  1.00  0.00     0.134 A 
ATOM     65  F   UNL A   1      39.657  28.016  31.455  1.00  0.00    -0.206 F 
ATOM     66  C   UNL A   1      37.569  28.837  30.764  1.00  0.00     0.040 A 
ATOM     67  C   UNL A   1      37.278  29.636  28.512  1.00  0.00     0.040 A 
ATOM     68  F   UNL A   1      39.072  29.564  27.001  1.00  0.00    -0.206 F 
ATOM     69  C   UNL A   1      36.752  29.386  29.778  1.00  0.00     0.006 A 
ENDBRANCH  41  62
BRANCH  53  70
ATOM     70  C   UNL A   1      45.395  32.400  29.449  1.00  0.00     0.057 A 
ATOM     71  C   UNL A   1      45.740  32.809  30.743  1.00  0.00     0.134 A 
ATOM     72  C   UNL A   1      45.376  33.378  28.446  1.00  0.00     0.134 A 
ATOM     73  F   UNL A   1      45.765  31.926  31.753  1.00  0.00    -0.206 F 
ATOM     74  C   UNL A   1      46.032  34.144  31.032  1.00  0.00     0.040 A 
ATOM     75  C   UNL A   1      45.695  34.710  28.716  1.00  0.00     0.040 A 
ATOM     76  F   UNL A   1      45.063  33.053  27.183  1.00  0.00    -0.206 F 
ATOM     77  C   UNL A   1      46.017  35.096  30.015  1.00  0.00     0.006 A 
ENDBRANCH  53  70
ENDBRANCH  27  28
ENDBRANCH  19  22
ENDBRANCH  17  18
ENDBRANCH  16  17
ENDBRANCH   1  16
TORSDOF 14
ENDMDL
MODEL 3
REMARK VINA RESULT:      -8.9      5.178      9.977
REMARK SMILES O=C(CSC(=S)N1CCCC1)NCCCCNC(=O)c1ccc(-c2c3nc(c(-c4c(F)cccc4F)c4ccc([nH]4)c(-c4c(F)cccc4F)c4nc(c(-c5c(F)cccc5F)c5ccc2[nH]5)C=C4)C=C3)cc1
REMARK SMILES IDX 14 1 13 2 12 3 1 4 2 5 3 7 4 8 5 9 6 10 7 11 8 12 11 13 9 14
REMARK SMILES IDX 10 15 15 16 16 17 17 18 18 19 19 21 20 22 21 23 73 24 22 25
REMARK SMILES IDX 72 26 23 27 24 28 25 29 66 30 26 31 71 32 65 33 67 34 27 35
REMARK SMILES IDX 70 36 64 37 63 38 28 40 54 41 37 42 53 43 38 44 41 45 52 46
REMARK SMILES IDX 68 47 39 48 40 49 51 51 69 52 42 53 29 54 30 55 35 56 31 57
REMARK SMILES IDX 32 58 34 59 36 60 33 61 55 62 56 63 61 64 57 65 58 66 60 67
REMARK SMILES IDX 62 68 59 69 43 70 44 71 49 72 45 73 46 74 48 75 50 76 47 77
REMARK H PARENT 12 6 17 20 67 39 41 50
REMARK Flexibility Score: inf
ROOT
ATOM      1  C   UNL A   1      36.744  20.768  25.238  1.00  0.00     0.023 C 
ENDROOT
BRANCH   1   2
ATOM      2  C   UNL A   1      36.777  22.295  25.263  1.00  0.00     0.116 C 
BRANCH   2   3
ATOM      3  N   UNL A   1      35.542  22.902  24.808  1.00  0.00    -0.355 N 
ATOM      4  O   UNL A   1      36.146  22.968  22.601  1.00  0.00    -0.274 OA
ATOM      5  C   UNL A   1      35.285  23.111  23.468  1.00  0.00     0.230 C 
ATOM      6  H   UNL A   1      34.868  23.174  25.473  1.00  0.00     0.163 HD
BRANCH   5   7
ATOM      7  C   UNL A   1      33.897  23.629  23.117  1.00  0.00     0.177 C 
BRANCH   7   8
ATOM      8  S   UNL A   1      32.684  22.356  22.688  1.00  0.00    -0.087 SA
BRANCH   8   9
ATOM      9  C   UNL A   1      32.315  21.493  24.186  1.00  0.00     0.136 C 
ATOM     10  S   UNL A   1      31.547  22.157  25.522  1.00  0.00    -0.053 S 
BRANCH   9  11
ATOM     11  N   UNL A   1      32.622  20.137  24.111  1.00  0.00    -0.358 N 
ATOM     12  C   UNL A   1      33.353  19.347  25.098  1.00  0.00     0.118 C 
ATOM     13  C   UNL A   1      32.219  19.283  22.993  1.00  0.00     0.118 C 
ATOM     14  C   UNL A   1      33.957  18.218  24.285  1.00  0.00     0.023 C 
ATOM     15  C   UNL A   1      32.888  17.934  23.237  1.00  0.00     0.023 C 
ENDBRANCH   9  11
ENDBRANCH   8   9
ENDBRANCH   7   8
ENDBRANCH   5   7
ENDBRANCH   2   3
ENDBRANCH   1   2
BRANCH   1  16
ATOM     16  C   UNL A   1      38.085  20.094  24.942  1.00  0.00     0.023 C 
BRANCH  16  17
ATOM     17  C   UNL A   1      39.124  20.167  26.056  1.00  0.00     0.116 C 
BRANCH  17  18
ATOM     18  N   UNL A   1      40.168  19.160  25.940  1.00  0.00    -0.352 N 
ATOM     19  C   UNL A   1      41.529  19.291  26.082  1.00  0.00     0.251 C 
ATOM     20  H   UNL A   1      39.852  18.251  25.731  1.00  0.00     0.163 HD
ATOM     21  O   UNL A   1      42.266  18.340  25.828  1.00  0.00    -0.269 OA
BRANCH  19  22
ATOM     22  C   UNL A   1      42.121  20.580  26.502  1.00  0.00     0.039 A 
ATOM     23  C   UNL A   1      42.631  21.439  25.523  1.00  0.00     0.014 A 
ATOM     24  C   UNL A   1      42.177  20.951  27.849  1.00  0.00     0.014 A 
ATOM     25  C   UNL A   1      43.124  22.695  25.885  1.00  0.00     0.010 A 
ATOM     26  C   UNL A   1      42.596  22.233  28.200  1.00  0.00     0.010 A 
ATOM     27  C   UNL A   1      43.069  23.121  27.222  1.00  0.00    -0.014 A 
BRANCH  27  28
ATOM     28  C   UNL A   1      43.488  24.495  27.612  1.00  0.00     0.031 A 
ATOM     29  C   UNL A   1      42.460  25.533  27.968  1.00  0.00     0.074 A 
ATOM     30  C   UNL A   1      44.794  24.828  27.583  1.00  0.00     0.049 A 
ATOM     31  N   UNL A   1      42.629  26.799  28.262  1.00  0.00    -0.248 NA
ATOM     32  C   UNL A   1      41.055  25.100  27.971  1.00  0.00     0.031 C 
ATOM     33  C   UNL A   1      45.889  23.930  27.212  1.00  0.00     0.029 A 
ATOM     34  N   UNL A   1      45.421  26.018  27.859  1.00  0.00    -0.354 N 
ATOM     35  C   UNL A   1      41.355  27.312  28.475  1.00  0.00     0.074 A 
ATOM     36  C   UNL A   1      40.421  26.237  28.220  1.00  0.00     0.031 C 
ATOM     37  C   UNL A   1      47.053  24.593  27.302  1.00  0.00     0.029 A 
ATOM     38  C   UNL A   1      46.786  25.973  27.695  1.00  0.00     0.049 A 
ATOM     39  H   UNL A   1      44.940  26.827  28.148  1.00  0.00     0.167 HD
ATOM     40  C   UNL A   1      40.998  28.557  28.872  1.00  0.00     0.037 A 
ATOM     41  C   UNL A   1      47.717  26.937  27.833  1.00  0.00     0.037 A 
ATOM     42  C   UNL A   1      41.929  29.623  29.138  1.00  0.00     0.049 A 
ATOM     43  C   UNL A   1      47.292  28.317  28.252  1.00  0.00     0.074 A 
ATOM     44  C   UNL A   1      41.665  30.904  29.588  1.00  0.00     0.029 A 
ATOM     45  N   UNL A   1      43.302  29.534  28.972  1.00  0.00    -0.354 N 
ATOM     46  N   UNL A   1      46.090  28.770  28.511  1.00  0.00    -0.248 NA
ATOM     47  C   UNL A   1      48.356  29.321  28.402  1.00  0.00     0.031 C 
ATOM     48  C   UNL A   1      42.873  31.606  29.647  1.00  0.00     0.029 A 
ATOM     49  C   UNL A   1      43.896  30.745  29.288  1.00  0.00     0.049 A 
ATOM     50  H   UNL A   1      43.785  28.728  28.673  1.00  0.00     0.167 HD
ATOM     51  C   UNL A   1      46.254  30.098  28.884  1.00  0.00     0.074 A 
ATOM     52  C   UNL A   1      47.675  30.374  28.831  1.00  0.00     0.031 C 
ATOM     53  C   UNL A   1      45.313  31.007  29.239  1.00  0.00     0.037 A 
BRANCH  40  54
ATOM     54  C   UNL A   1      39.531  28.834  29.045  1.00  0.00     0.057 A 
ATOM     55  C   UNL A   1      38.893  28.691  30.284  1.00  0.00     0.134 A 
ATOM     56  C   UNL A   1      38.754  29.283  27.969  1.00  0.00     0.134 A 
ATOM     57  F   UNL A   1      39.575  28.254  31.354  1.00  0.00    -0.206 F 
ATOM     58  C   UNL A   1      37.531  28.957  30.442  1.00  0.00     0.040 A 
ATOM     59  C   UNL A   1      37.398  29.583  28.122  1.00  0.00     0.040 A 
ATOM     60  F   UNL A   1      39.300  29.451  26.756  1.00  0.00    -0.206 F 
ATOM     61  C   UNL A   1      36.782  29.412  29.360  1.00  0.00     0.006 A 
ENDBRANCH  40  54
BRANCH  41  62
ATOM     62  C   UNL A   1      49.149  26.629  27.583  1.00  0.00     0.057 A 
ATOM     63  C   UNL A   1      49.993  26.213  28.619  1.00  0.00     0.134 A 
ATOM     64  C   UNL A   1      49.712  26.756  26.307  1.00  0.00     0.134 A 
ATOM     65  F   UNL A   1      49.518  26.091  29.868  1.00  0.00    -0.206 F 
ATOM     66  C   UNL A   1      51.347  25.957  28.403  1.00  0.00     0.040 A 
ATOM     67  C   UNL A   1      51.059  26.475  26.070  1.00  0.00     0.040 A 
ATOM     68  F   UNL A   1      48.956  27.144  25.268  1.00  0.00    -0.206 F 
ATOM     69  C   UNL A   1      51.883  26.082  27.122  1.00  0.00     0.006 A 
ENDBRANCH  41  62
BRANCH  53  70
ATOM     70  C   UNL A   1      45.790  32.374  29.637  1.00  0.00     0.057 A 
ATOM     71  C   UNL A   1      46.152  32.681  30.954  1.00  0.00     0.134 A 
ATOM     72  C   UNL A   1      45.922  33.388  28.678  1.00  0.00     0.134 A 
ATOM     73  F   UNL A   1      46.038  31.761  31.924  1.00  0.00    -0.206 F 
ATOM     74  C   UNL A   1      46.606  33.954  31.308  1.00  0.00     0.040 A 
ATOM     75  C   UNL A   1      46.402  34.654  29.014  1.00  0.00     0.040 A 
ATOM     76  F   UNL A   1      45.601  33.159  27.396  1.00  0.00    -0.206 F 
ATOM     77  C   UNL A   1      46.739  34.941  30.335  1.00  0.00     0.006 A 
ENDBRANCH  53  70
ENDBRANCH  27  28
ENDBRANCH  19  22
ENDBRANCH  17  18
ENDBRANCH  16  17
ENDBRANCH   1  16
TORSDOF 14
ENDMDL
