MODEL 1
REMARK VINA RESULT:     -12.7      0.000      0.000
REMARK SMILES CC(=O)Nc1cccc(-c2ccc(F)c(C(=O)NCCCCNC(=O)c3ccc(-c4c5nc(c(-c6c(F)cccc6F)c6ccc([nH]6)c(-c6c(F)cccc6F)c6nc(c(-c7c(F)cccc7F)c7ccc4[nH]7)C=C6)C=C5)cc3)c2)c1
REMARK SMILES IDX 20 1 19 2 18 3 16 4 17 5 15 7 10 8 11 9 80 10 12 11 13 12
REMARK SMILES IDX 14 13 9 14 5 15 6 16 81 17 7 18 8 19 4 20 1 21 2 22 3 23
REMARK SMILES IDX 21 25 22 26 23 27 24 28 25 30 26 31 27 32 79 33 28 34 78 35
REMARK SMILES IDX 29 36 30 37 31 38 72 39 32 40 77 41 71 42 73 43 33 44 76 45
REMARK SMILES IDX 70 46 69 47 34 49 60 50 43 51 59 52 44 53 47 54 58 55 74 56
REMARK SMILES IDX 45 57 46 58 57 60 75 61 48 62 35 63 36 64 41 65 37 66 38 67
REMARK SMILES IDX 40 68 42 69 39 70 61 71 62 72 67 73 63 74 64 75 66 76 68 77
REMARK SMILES IDX 65 78 49 79 50 80 55 81 51 82 52 83 54 84 56 85 53 86
REMARK H PARENT 18 6 4 24 23 29 73 48 47 59
REMARK Flexibility Score: inf
ROOT
ATOM      1  C   UNL A   1      31.559  30.617  26.283  1.00  0.00     0.023 C 
ENDROOT
BRANCH   1   2
ATOM      2  C   UNL A   1      32.979  30.107  26.076  1.00  0.00     0.116 C 
BRANCH   2   3
ATOM      3  N   UNL A   1      33.301  29.693  24.717  1.00  0.00    -0.352 N 
ATOM      4  C   UNL A   1      33.069  28.508  24.041  1.00  0.00     0.254 C 
ATOM      5  O   UNL A   1      33.388  28.444  22.857  1.00  0.00    -0.269 OA
ATOM      6  H   UNL A   1      33.768  30.378  24.185  1.00  0.00     0.163 HD
BRANCH   4   7
ATOM      7  C   UNL A   1      32.476  27.326  24.715  1.00  0.00     0.076 A 
ATOM      8  C   UNL A   1      32.734  25.038  25.541  1.00  0.00    -0.017 A 
ATOM      9  C   UNL A   1      31.340  24.933  25.633  1.00  0.00     0.012 A 
ATOM     10  C   UNL A   1      33.277  26.289  25.198  1.00  0.00     0.025 A 
ATOM     11  C   UNL A   1      30.524  26.023  25.312  1.00  0.00     0.041 A 
ATOM     12  C   UNL A   1      31.093  27.199  24.819  1.00  0.00     0.135 A 
ATOM     13  F   UNL A   1      30.267  28.171  24.409  1.00  0.00    -0.206 F 
BRANCH   8  14
ATOM     14  C   UNL A   1      33.632  23.867  25.593  1.00  0.00    -0.016 A 
ATOM     15  C   UNL A   1      33.946  21.474  26.020  1.00  0.00     0.041 A 
ATOM     16  C   UNL A   1      35.312  21.698  26.213  1.00  0.00     0.026 A 
ATOM     17  C   UNL A   1      33.122  22.560  25.711  1.00  0.00     0.034 A 
ATOM     18  C   UNL A   1      35.852  22.972  26.046  1.00  0.00     0.003 A 
ATOM     19  C   UNL A   1      35.018  24.046  25.735  1.00  0.00     0.009 A 
BRANCH  15  20
ATOM     20  N   UNL A   1      33.472  20.173  26.250  1.00  0.00    -0.326 N 
ATOM     21  C   UNL A   1      32.801  19.463  23.954  1.00  0.00     0.114 C 
ATOM     22  C   UNL A   1      32.835  19.273  25.445  1.00  0.00     0.221 C 
ATOM     23  O   UNL A   1      32.335  18.270  25.958  1.00  0.00    -0.275 OA
ATOM     24  H   UNL A   1      33.628  19.847  27.166  1.00  0.00     0.169 HD
ENDBRANCH  15  20
ENDBRANCH   8  14
ENDBRANCH   4   7
ENDBRANCH   2   3
ENDBRANCH   1   2
BRANCH   1  25
ATOM     25  C   UNL A   1      31.398  32.105  26.565  1.00  0.00     0.023 C 
BRANCH  25  26
ATOM     26  C   UNL A   1      32.561  32.790  27.272  1.00  0.00     0.116 C 
BRANCH  26  27
ATOM     27  N   UNL A   1      32.284  34.159  27.681  1.00  0.00    -0.352 N 
ATOM     28  C   UNL A   1      32.958  34.973  28.566  1.00  0.00     0.251 C 
ATOM     29  H   UNL A   1      31.493  34.567  27.262  1.00  0.00     0.163 HD
ATOM     30  O   UNL A   1      32.519  36.084  28.833  1.00  0.00    -0.269 OA
BRANCH  28  31
ATOM     31  C   UNL A   1      34.185  34.486  29.237  1.00  0.00     0.039 A 
ATOM     32  C   UNL A   1      34.068  33.887  30.495  1.00  0.00     0.014 A 
ATOM     33  C   UNL A   1      35.436  34.589  28.627  1.00  0.00     0.014 A 
ATOM     34  C   UNL A   1      35.187  33.298  31.090  1.00  0.00     0.010 A 
ATOM     35  C   UNL A   1      36.532  33.932  29.182  1.00  0.00     0.010 A 
ATOM     36  C   UNL A   1      36.416  33.268  30.413  1.00  0.00    -0.014 A 
BRANCH  36  37
ATOM     37  C   UNL A   1      37.585  32.534  30.962  1.00  0.00     0.031 A 
ATOM     38  C   UNL A   1      38.284  33.038  32.194  1.00  0.00     0.074 A 
ATOM     39  C   UNL A   1      38.065  31.456  30.309  1.00  0.00     0.049 A 
ATOM     40  N   UNL A   1      39.375  32.595  32.766  1.00  0.00    -0.248 NA
ATOM     41  C   UNL A   1      37.692  34.211  32.858  1.00  0.00     0.031 C 
ATOM     42  C   UNL A   1      37.508  30.891  29.078  1.00  0.00     0.029 A 
ATOM     43  N   UNL A   1      39.140  30.648  30.587  1.00  0.00    -0.354 N 
ATOM     44  C   UNL A   1      39.606  33.439  33.844  1.00  0.00     0.074 A 
ATOM     45  C   UNL A   1      38.573  34.452  33.818  1.00  0.00     0.031 C 
ATOM     46  C   UNL A   1      38.231  29.818  28.719  1.00  0.00     0.029 A 
ATOM     47  C   UNL A   1      39.324  29.639  29.670  1.00  0.00     0.049 A 
ATOM     48  H   UNL A   1      39.724  30.777  31.368  1.00  0.00     0.167 HD
ATOM     49  C   UNL A   1      40.576  33.364  34.786  1.00  0.00     0.037 A 
ATOM     50  C   UNL A   1      40.271  28.685  29.600  1.00  0.00     0.037 A 
ATOM     51  C   UNL A   1      41.588  32.343  34.831  1.00  0.00     0.049 A 
ATOM     52  C   UNL A   1      41.340  28.630  30.656  1.00  0.00     0.074 A 
ATOM     53  C   UNL A   1      42.590  32.162  35.770  1.00  0.00     0.029 A 
ATOM     54  N   UNL A   1      41.723  31.325  33.899  1.00  0.00    -0.354 N 
ATOM     55  N   UNL A   1      41.514  29.407  31.697  1.00  0.00    -0.248 NA
ATOM     56  C   UNL A   1      42.344  27.563  30.527  1.00  0.00     0.031 C 
ATOM     57  C   UNL A   1      43.348  31.049  35.390  1.00  0.00     0.029 A 
ATOM     58  C   UNL A   1      42.796  30.517  34.237  1.00  0.00     0.049 A 
ATOM     59  H   UNL A   1      41.142  31.197  33.115  1.00  0.00     0.167 HD
ATOM     60  C   UNL A   1      42.624  28.904  32.365  1.00  0.00     0.074 A 
ATOM     61  C   UNL A   1      43.074  27.748  31.618  1.00  0.00     0.031 C 
ATOM     62  C   UNL A   1      43.218  29.358  33.494  1.00  0.00     0.037 A 
BRANCH  49  63
ATOM     63  C   UNL A   1      40.575  34.408  35.863  1.00  0.00     0.057 A 
ATOM     64  C   UNL A   1      39.865  34.227  37.057  1.00  0.00     0.134 A 
ATOM     65  C   UNL A   1      41.325  35.583  35.728  1.00  0.00     0.134 A 
ATOM     66  F   UNL A   1      39.116  33.130  37.243  1.00  0.00    -0.206 F 
ATOM     67  C   UNL A   1      39.884  35.186  38.071  1.00  0.00     0.040 A 
ATOM     68  C   UNL A   1      41.373  36.538  36.745  1.00  0.00     0.040 A 
ATOM     69  F   UNL A   1      42.031  35.816  34.612  1.00  0.00    -0.206 F 
ATOM     70  C   UNL A   1      40.647  36.343  37.918  1.00  0.00     0.006 A 
ENDBRANCH  49  63
BRANCH  50  71
ATOM     71  C   UNL A   1      40.252  27.685  28.502  1.00  0.00     0.057 A 
ATOM     72  C   UNL A   1      39.592  26.460  28.658  1.00  0.00     0.134 A 
ATOM     73  C   UNL A   1      40.919  27.909  27.292  1.00  0.00     0.134 A 
ATOM     74  F   UNL A   1      38.952  26.178  29.802  1.00  0.00    -0.206 F 
ATOM     75  C   UNL A   1      39.620  25.482  27.661  1.00  0.00     0.040 A 
ATOM     76  C   UNL A   1      40.934  26.950  26.278  1.00  0.00     0.040 A 
ATOM     77  F   UNL A   1      41.565  29.065  27.079  1.00  0.00    -0.206 F 
ATOM     78  C   UNL A   1      40.292  25.728  26.466  1.00  0.00     0.006 A 
ENDBRANCH  50  71
BRANCH  62  79
ATOM     79  C   UNL A   1      44.388  28.580  34.015  1.00  0.00     0.057 A 
ATOM     80  C   UNL A   1      45.706  28.922  33.690  1.00  0.00     0.134 A 
ATOM     81  C   UNL A   1      44.192  27.498  34.882  1.00  0.00     0.134 A 
ATOM     82  F   UNL A   1      45.958  29.939  32.852  1.00  0.00    -0.206 F 
ATOM     83  C   UNL A   1      46.790  28.199  34.193  1.00  0.00     0.040 A 
ATOM     84  C   UNL A   1      45.268  26.784  35.411  1.00  0.00     0.040 A 
ATOM     85  F   UNL A   1      42.954  27.126  35.239  1.00  0.00    -0.206 F 
ATOM     86  C   UNL A   1      46.572  27.131  35.061  1.00  0.00     0.006 A 
ENDBRANCH  62  79
ENDBRANCH  36  37
ENDBRANCH  28  31
ENDBRANCH  26  27
ENDBRANCH  25  26
ENDBRANCH   1  25
TORSDOF 13
ENDMDL
MODEL 2
REMARK VINA RESULT:     -12.7      0.753      6.267
REMARK SMILES CC(=O)Nc1cccc(-c2ccc(F)c(C(=O)NCCCCNC(=O)c3ccc(-c4c5nc(c(-c6c(F)cccc6F)c6ccc([nH]6)c(-c6c(F)cccc6F)c6nc(c(-c7c(F)cccc7F)c7ccc4[nH]7)C=C6)C=C5)cc3)c2)c1
REMARK SMILES IDX 20 1 19 2 18 3 16 4 17 5 15 7 10 8 11 9 80 10 12 11 13 12
REMARK SMILES IDX 14 13 9 14 5 15 6 16 81 17 7 18 8 19 4 20 1 21 2 22 3 23
REMARK SMILES IDX 21 25 22 26 23 27 24 28 25 30 26 31 27 32 79 33 28 34 78 35
REMARK SMILES IDX 29 36 30 37 31 38 72 39 32 40 77 41 71 42 73 43 33 44 76 45
REMARK SMILES IDX 70 46 69 47 34 49 60 50 43 51 59 52 44 53 47 54 58 55 74 56
REMARK SMILES IDX 45 57 46 58 57 60 75 61 48 62 35 63 36 64 41 65 37 66 38 67
REMARK SMILES IDX 40 68 42 69 39 70 61 71 62 72 67 73 63 74 64 75 66 76 68 77
REMARK SMILES IDX 65 78 49 79 50 80 55 81 51 82 52 83 54 84 56 85 53 86
REMARK H PARENT 18 6 4 24 23 29 73 48 47 59
REMARK Flexibility Score: inf
ROOT
ATOM      1  C   UNL A   1      31.819  30.427  26.786  1.00  0.00     0.023 C 
ENDROOT
BRANCH   1   2
ATOM      2  C   UNL A   1      33.250  29.935  26.616  1.00  0.00     0.116 C 
BRANCH   2   3
ATOM      3  N   UNL A   1      33.645  29.624  25.248  1.00  0.00    -0.352 N 
ATOM      4  C   UNL A   1      33.423  28.506  24.463  1.00  0.00     0.254 C 
ATOM      5  O   UNL A   1      33.813  28.529  23.298  1.00  0.00    -0.269 OA
ATOM      6  H   UNL A   1      34.163  30.335  24.805  1.00  0.00     0.163 HD
BRANCH   4   7
ATOM      7  C   UNL A   1      32.757  27.293  24.999  1.00  0.00     0.076 A 
ATOM      8  C   UNL A   1      32.897  24.934  25.633  1.00  0.00    -0.017 A 
ATOM      9  C   UNL A   1      31.497  24.873  25.643  1.00  0.00     0.012 A 
ATOM     10  C   UNL A   1      33.497  26.189  25.429  1.00  0.00     0.025 A 
ATOM     11  C   UNL A   1      30.735  26.015  25.378  1.00  0.00     0.041 A 
ATOM     12  C   UNL A   1      31.367  27.207  25.019  1.00  0.00     0.135 A 
ATOM     13  F   UNL A   1      30.596  28.240  24.654  1.00  0.00    -0.206 F 
BRANCH   8  14
ATOM     14  C   UNL A   1      33.754  23.731  25.629  1.00  0.00    -0.016 A 
ATOM     15  C   UNL A   1      33.996  21.320  25.996  1.00  0.00     0.041 A 
ATOM     16  C   UNL A   1      35.375  21.491  26.142  1.00  0.00     0.026 A 
ATOM     17  C   UNL A   1      33.201  22.441  25.740  1.00  0.00     0.034 A 
ATOM     18  C   UNL A   1      35.955  22.748  25.980  1.00  0.00     0.003 A 
ATOM     19  C   UNL A   1      35.150  23.858  25.722  1.00  0.00     0.009 A 
BRANCH  15  20
ATOM     20  N   UNL A   1      33.484  20.032  26.218  1.00  0.00    -0.326 N 
ATOM     21  C   UNL A   1      32.825  19.343  23.912  1.00  0.00     0.114 C 
ATOM     22  C   UNL A   1      32.834  19.151  25.403  1.00  0.00     0.221 C 
ATOM     23  O   UNL A   1      32.300  18.161  25.907  1.00  0.00    -0.275 OA
ATOM     24  H   UNL A   1      33.618  19.702  27.136  1.00  0.00     0.169 HD
ENDBRANCH  15  20
ENDBRANCH   8  14
ENDBRANCH   4   7
ENDBRANCH   2   3
ENDBRANCH   1   2
BRANCH   1  25
ATOM     25  C   UNL A   1      31.607  31.934  26.788  1.00  0.00     0.023 C 
BRANCH  25  26
ATOM     26  C   UNL A   1      32.759  32.780  27.318  1.00  0.00     0.116 C 
BRANCH  26  27
ATOM     27  N   UNL A   1      32.384  34.143  27.667  1.00  0.00    -0.352 N 
ATOM     28  C   UNL A   1      32.957  35.016  28.566  1.00  0.00     0.251 C 
ATOM     29  H   UNL A   1      31.601  34.495  27.187  1.00  0.00     0.163 HD
ATOM     30  O   UNL A   1      32.444  36.109  28.770  1.00  0.00    -0.269 OA
BRANCH  28  31
ATOM     31  C   UNL A   1      34.163  34.617  29.326  1.00  0.00     0.039 A 
ATOM     32  C   UNL A   1      34.005  34.125  30.624  1.00  0.00     0.014 A 
ATOM     33  C   UNL A   1      35.438  34.695  28.760  1.00  0.00     0.014 A 
ATOM     34  C   UNL A   1      35.108  33.615  31.313  1.00  0.00     0.010 A 
ATOM     35  C   UNL A   1      36.521  34.113  29.414  1.00  0.00     0.010 A 
ATOM     36  C   UNL A   1      36.365  33.554  30.692  1.00  0.00    -0.014 A 
BRANCH  36  37
ATOM     37  C   UNL A   1      37.524  32.896  31.349  1.00  0.00     0.031 A 
ATOM     38  C   UNL A   1      38.165  31.689  30.722  1.00  0.00     0.074 A 
ATOM     39  C   UNL A   1      37.952  33.339  32.549  1.00  0.00     0.049 A 
ATOM     40  N   UNL A   1      39.116  30.921  31.189  1.00  0.00    -0.248 NA
ATOM     41  C   UNL A   1      37.651  31.276  29.406  1.00  0.00     0.031 C 
ATOM     42  C   UNL A   1      37.388  34.472  33.288  1.00  0.00     0.029 A 
ATOM     43  N   UNL A   1      38.958  32.882  33.364  1.00  0.00    -0.354 N 
ATOM     44  C   UNL A   1      39.305  29.931  30.235  1.00  0.00     0.074 A 
ATOM     45  C   UNL A   1      38.335  30.163  29.186  1.00  0.00     0.031 C 
ATOM     46  C   UNL A   1      38.068  34.632  34.434  1.00  0.00     0.029 A 
ATOM     47  C   UNL A   1      39.090  33.595  34.532  1.00  0.00     0.049 A 
ATOM     48  H   UNL A   1      39.531  32.115  33.135  1.00  0.00     0.167 HD
ATOM     49  C   UNL A   1      40.220  28.933  30.219  1.00  0.00     0.037 A 
ATOM     50  C   UNL A   1      39.934  33.427  35.568  1.00  0.00     0.037 A 
ATOM     51  C   UNL A   1      41.203  28.716  31.246  1.00  0.00     0.049 A 
ATOM     52  C   UNL A   1      40.935  32.305  35.527  1.00  0.00     0.074 A 
ATOM     53  C   UNL A   1      42.198  27.754  31.299  1.00  0.00     0.029 A 
ATOM     54  N   UNL A   1      41.320  29.477  32.399  1.00  0.00    -0.354 N 
ATOM     55  N   UNL A   1      41.133  31.408  34.593  1.00  0.00    -0.248 NA
ATOM     56  C   UNL A   1      41.832  32.176  36.685  1.00  0.00     0.031 C 
ATOM     57  C   UNL A   1      42.900  27.917  32.498  1.00  0.00     0.029 A 
ATOM     58  C   UNL A   1      42.366  29.002  33.173  1.00  0.00     0.049 A 
ATOM     59  H   UNL A   1      40.746  30.241  32.632  1.00  0.00     0.167 HD
ATOM     60  C   UNL A   1      42.195  30.629  35.033  1.00  0.00     0.074 A 
ATOM     61  C   UNL A   1      42.608  31.168  36.312  1.00  0.00     0.031 C 
ATOM     62  C   UNL A   1      42.777  29.563  34.434  1.00  0.00     0.037 A 
BRANCH  49  63
ATOM     63  C   UNL A   1      40.214  28.008  29.038  1.00  0.00     0.057 A 
ATOM     64  C   UNL A   1      40.946  28.296  27.879  1.00  0.00     0.134 A 
ATOM     65  C   UNL A   1      39.509  26.799  29.074  1.00  0.00     0.134 A 
ATOM     66  F   UNL A   1      41.631  29.445  27.777  1.00  0.00    -0.206 F 
ATOM     67  C   UNL A   1      40.962  27.424  26.789  1.00  0.00     0.040 A 
ATOM     68  C   UNL A   1      39.537  25.906  28.001  1.00  0.00     0.040 A 
ATOM     69  F   UNL A   1      38.791  26.460  30.156  1.00  0.00    -0.206 F 
ATOM     70  C   UNL A   1      40.261  26.221  26.853  1.00  0.00     0.006 A 
ENDBRANCH  49  63
BRANCH  50  71
ATOM     71  C   UNL A   1      39.891  34.349  36.731  1.00  0.00     0.057 A 
ATOM     72  C   UNL A   1      39.147  34.030  37.874  1.00  0.00     0.134 A 
ATOM     73  C   UNL A   1      40.554  35.582  36.717  1.00  0.00     0.134 A 
ATOM     74  F   UNL A   1      38.472  32.873  37.939  1.00  0.00    -0.206 F 
ATOM     75  C   UNL A   1      39.042  34.915  38.949  1.00  0.00     0.040 A 
ATOM     76  C   UNL A   1      40.478  36.465  37.795  1.00  0.00     0.040 A 
ATOM     77  F   UNL A   1      41.288  35.943  35.654  1.00  0.00    -0.206 F 
ATOM     78  C   UNL A   1      39.711  36.136  38.911  1.00  0.00     0.006 A 
ENDBRANCH  50  71
BRANCH  62  79
ATOM     79  C   UNL A   1      43.948  28.938  35.130  1.00  0.00     0.057 A 
ATOM     80  C   UNL A   1      43.788  27.907  36.064  1.00  0.00     0.134 A 
ATOM     81  C   UNL A   1      45.253  29.350  34.834  1.00  0.00     0.134 A 
ATOM     82  F   UNL A   1      42.562  27.478  36.400  1.00  0.00    -0.206 F 
ATOM     83  C   UNL A   1      44.887  27.322  36.695  1.00  0.00     0.040 A 
ATOM     84  C   UNL A   1      46.360  28.756  35.441  1.00  0.00     0.040 A 
ATOM     85  F   UNL A   1      45.474  30.328  33.942  1.00  0.00    -0.206 F 
ATOM     86  C   UNL A   1      46.178  27.742  36.379  1.00  0.00     0.006 A 
ENDBRANCH  62  79
ENDBRANCH  36  37
ENDBRANCH  28  31
ENDBRANCH  26  27
ENDBRANCH  25  26
ENDBRANCH   1  25
TORSDOF 13
ENDMDL
MODEL 3
REMARK VINA RESULT:     -12.5      4.607     10.090
REMARK SMILES CC(=O)Nc1cccc(-c2ccc(F)c(C(=O)NCCCCNC(=O)c3ccc(-c4c5nc(c(-c6c(F)cccc6F)c6ccc([nH]6)c(-c6c(F)cccc6F)c6nc(c(-c7c(F)cccc7F)c7ccc4[nH]7)C=C6)C=C5)cc3)c2)c1
REMARK SMILES IDX 20 1 19 2 18 3 16 4 17 5 15 7 10 8 11 9 80 10 12 11 13 12
REMARK SMILES IDX 14 13 9 14 5 15 6 16 81 17 7 18 8 19 4 20 1 21 2 22 3 23
REMARK SMILES IDX 21 25 22 26 23 27 24 28 25 30 26 31 27 32 79 33 28 34 78 35
REMARK SMILES IDX 29 36 30 37 31 38 72 39 32 40 77 41 71 42 73 43 33 44 76 45
REMARK SMILES IDX 70 46 69 47 34 49 60 50 43 51 59 52 44 53 47 54 58 55 74 56
REMARK SMILES IDX 45 57 46 58 57 60 75 61 48 62 35 63 36 64 41 65 37 66 38 67
REMARK SMILES IDX 40 68 42 69 39 70 61 71 62 72 67 73 63 74 64 75 66 76 68 77
REMARK SMILES IDX 65 78 49 79 50 80 55 81 51 82 52 83 54 84 56 85 53 86
REMARK H PARENT 18 6 4 24 23 29 73 48 47 59
REMARK Flexibility Score: inf
ROOT
ATOM      1  C   UNL A   1      36.978  20.822  24.668  1.00  0.00     0.023 C 
ENDROOT
BRANCH   1   2
ATOM      2  C   UNL A   1      36.772  21.878  25.745  1.00  0.00     0.116 C 
BRANCH   2   3
ATOM      3  N   UNL A   1      35.541  21.753  26.514  1.00  0.00    -0.352 N 
ATOM      4  C   UNL A   1      34.242  22.137  26.231  1.00  0.00     0.254 C 
ATOM      5  O   UNL A   1      33.363  21.846  27.038  1.00  0.00    -0.269 OA
ATOM      6  H   UNL A   1      35.654  21.319  27.391  1.00  0.00     0.163 HD
BRANCH   4   7
ATOM      7  C   UNL A   1      33.901  22.901  25.005  1.00  0.00     0.076 A 
ATOM      8  C   UNL A   1      33.360  25.044  23.956  1.00  0.00    -0.017 A 
ATOM      9  C   UNL A   1      32.893  24.354  22.830  1.00  0.00     0.012 A 
ATOM     10  C   UNL A   1      33.973  24.296  24.976  1.00  0.00     0.025 A 
ATOM     11  C   UNL A   1      32.968  22.959  22.771  1.00  0.00     0.041 A 
ATOM     12  C   UNL A   1      33.434  22.238  23.872  1.00  0.00     0.135 A 
ATOM     13  F   UNL A   1      33.372  20.901  23.819  1.00  0.00    -0.206 F 
BRANCH   8  14
ATOM     14  C   UNL A   1      33.065  26.470  24.204  1.00  0.00    -0.016 A 
ATOM     15  C   UNL A   1      32.137  28.595  23.410  1.00  0.00     0.041 A 
ATOM     16  C   UNL A   1      32.910  29.274  24.355  1.00  0.00     0.026 A 
ATOM     17  C   UNL A   1      32.222  27.200  23.345  1.00  0.00     0.034 A 
ATOM     18  C   UNL A   1      33.709  28.571  25.255  1.00  0.00     0.003 A 
ATOM     19  C   UNL A   1      33.783  27.180  25.181  1.00  0.00     0.009 A 
BRANCH  15  20
ATOM     20  N   UNL A   1      31.392  29.375  22.512  1.00  0.00    -0.326 N 
ATOM     21  C   UNL A   1      29.061  28.636  23.007  1.00  0.00     0.114 C 
ATOM     22  C   UNL A   1      30.071  29.371  22.170  1.00  0.00     0.221 C 
ATOM     23  O   UNL A   1      29.710  30.027  21.190  1.00  0.00    -0.275 OA
ATOM     24  H   UNL A   1      31.924  30.055  22.037  1.00  0.00     0.169 HD
ENDBRANCH  15  20
ENDBRANCH   8  14
ENDBRANCH   4   7
ENDBRANCH   2   3
ENDBRANCH   1   2
BRANCH   1  25
ATOM     25  C   UNL A   1      37.953  19.697  24.987  1.00  0.00     0.023 C 
BRANCH  25  26
ATOM     26  C   UNL A   1      39.181  20.076  25.806  1.00  0.00     0.116 C 
BRANCH  26  27
ATOM     27  N   UNL A   1      40.215  19.052  25.837  1.00  0.00    -0.352 N 
ATOM     28  C   UNL A   1      41.559  19.158  26.122  1.00  0.00     0.251 C 
ATOM     29  H   UNL A   1      39.907  18.143  25.619  1.00  0.00     0.163 HD
ATOM     30  O   UNL A   1      42.286  18.178  26.023  1.00  0.00    -0.269 OA
BRANCH  28  31
ATOM     31  C   UNL A   1      42.138  20.468  26.498  1.00  0.00     0.039 A 
ATOM     32  C   UNL A   1      42.601  21.311  25.484  1.00  0.00     0.014 A 
ATOM     33  C   UNL A   1      42.200  20.879  27.831  1.00  0.00     0.014 A 
ATOM     34  C   UNL A   1      43.026  22.605  25.797  1.00  0.00     0.010 A 
ATOM     35  C   UNL A   1      42.546  22.194  28.133  1.00  0.00     0.010 A 
ATOM     36  C   UNL A   1      42.950  23.075  27.118  1.00  0.00    -0.014 A 
BRANCH  36  37
ATOM     37  C   UNL A   1      43.269  24.487  27.458  1.00  0.00     0.031 A 
ATOM     38  C   UNL A   1      44.698  24.953  27.490  1.00  0.00     0.074 A 
ATOM     39  C   UNL A   1      42.277  25.329  27.810  1.00  0.00     0.049 A 
ATOM     40  N   UNL A   1      45.182  26.112  27.857  1.00  0.00    -0.248 NA
ATOM     41  C   UNL A   1      45.721  23.978  27.077  1.00  0.00     0.031 C 
ATOM     42  C   UNL A   1      40.853  24.991  27.865  1.00  0.00     0.029 A 
ATOM     43  N   UNL A   1      42.319  26.645  28.201  1.00  0.00    -0.354 N 
ATOM     44  C   UNL A   1      46.560  26.002  27.734  1.00  0.00     0.074 A 
ATOM     45  C   UNL A   1      46.841  24.648  27.307  1.00  0.00     0.031 C 
ATOM     46  C   UNL A   1      40.157  26.075  28.245  1.00  0.00     0.029 A 
ATOM     47  C   UNL A   1      41.084  27.173  28.497  1.00  0.00     0.049 A 
ATOM     48  H   UNL A   1      43.154  27.163  28.264  1.00  0.00     0.167 HD
ATOM     49  C   UNL A   1      47.507  26.950  27.932  1.00  0.00     0.037 A 
ATOM     50  C   UNL A   1      40.740  28.401  28.930  1.00  0.00     0.037 A 
ATOM     51  C   UNL A   1      47.230  28.304  28.329  1.00  0.00     0.049 A 
ATOM     52  C   UNL A   1      41.814  29.431  29.149  1.00  0.00     0.074 A 
ATOM     53  C   UNL A   1      48.120  29.348  28.518  1.00  0.00     0.029 A 
ATOM     54  N   UNL A   1      45.964  28.805  28.593  1.00  0.00    -0.354 N 
ATOM     55  N   UNL A   1      43.108  29.326  28.979  1.00  0.00    -0.248 NA
ATOM     56  C   UNL A   1      41.375  30.755  29.618  1.00  0.00     0.031 C 
ATOM     57  C   UNL A   1      47.395  30.474  28.922  1.00  0.00     0.029 A 
ATOM     58  C   UNL A   1      46.051  30.141  28.949  1.00  0.00     0.049 A 
ATOM     59  H   UNL A   1      45.129  28.289  28.534  1.00  0.00     0.167 HD
ATOM     60  C   UNL A   1      43.636  30.573  29.288  1.00  0.00     0.074 A 
ATOM     61  C   UNL A   1      42.519  31.423  29.643  1.00  0.00     0.031 C 
ATOM     62  C   UNL A   1      44.928  30.978  29.279  1.00  0.00     0.037 A 
BRANCH  49  63
ATOM     63  C   UNL A   1      48.936  26.558  27.701  1.00  0.00     0.057 A 
ATOM     64  C   UNL A   1      49.755  26.121  28.750  1.00  0.00     0.134 A 
ATOM     65  C   UNL A   1      49.487  26.573  26.414  1.00  0.00     0.134 A 
ATOM     66  F   UNL A   1      49.291  26.096  30.009  1.00  0.00    -0.206 F 
ATOM     67  C   UNL A   1      51.077  25.731  28.532  1.00  0.00     0.040 A 
ATOM     68  C   UNL A   1      50.801  26.162  26.179  1.00  0.00     0.040 A 
ATOM     69  F   UNL A   1      48.756  26.976  25.364  1.00  0.00    -0.206 F 
ATOM     70  C   UNL A   1      51.601  25.744  27.240  1.00  0.00     0.006 A 
ENDBRANCH  49  63
BRANCH  50  71
ATOM     71  C   UNL A   1      39.316  28.741  29.172  1.00  0.00     0.057 A 
ATOM     72  C   UNL A   1      38.526  29.293  28.156  1.00  0.00     0.134 A 
ATOM     73  C   UNL A   1      38.720  28.562  30.426  1.00  0.00     0.134 A 
ATOM     74  F   UNL A   1      39.045  29.508  26.939  1.00  0.00    -0.206 F 
ATOM     75  C   UNL A   1      37.204  29.680  28.386  1.00  0.00     0.040 A 
ATOM     76  C   UNL A   1      37.392  28.922  30.663  1.00  0.00     0.040 A 
ATOM     77  F   UNL A   1      39.422  28.034  31.439  1.00  0.00    -0.206 F 
ATOM     78  C   UNL A   1      36.634  29.493  29.642  1.00  0.00     0.006 A 
ENDBRANCH  50  71
BRANCH  62  79
ATOM     79  C   UNL A   1      45.200  32.413  29.619  1.00  0.00     0.057 A 
ATOM     80  C   UNL A   1      45.178  33.419  28.646  1.00  0.00     0.134 A 
ATOM     81  C   UNL A   1      45.452  32.794  30.943  1.00  0.00     0.134 A 
ATOM     82  F   UNL A   1      44.958  33.116  27.358  1.00  0.00    -0.206 F 
ATOM     83  C   UNL A   1      45.419  34.755  28.976  1.00  0.00     0.040 A 
ATOM     84  C   UNL A   1      45.669  34.128  31.288  1.00  0.00     0.040 A 
ATOM     85  F   UNL A   1      45.479  31.877  31.923  1.00  0.00    -0.206 F 
ATOM     86  C   UNL A   1      45.658  35.112  30.302  1.00  0.00     0.006 A 
ENDBRANCH  62  79
ENDBRANCH  36  37
ENDBRANCH  28  31
ENDBRANCH  26  27
ENDBRANCH  25  26
ENDBRANCH   1  25
TORSDOF 13
ENDMDL
