MODEL 1
REMARK VINA RESULT:     -11.1      0.000      0.000
REMARK SMILES CC(C)[NH2+][C@]1(C(=O)NCCCCNC(=O)c2ccc(-c3c4nc(c(-c5c(F)cccc5F)c5ccc([nH]5)c(-c5c(F)cccc5F)c5nc(c(-c6c(F)cccc6F)c6ccc3[nH]6)C=C5)C=C4)cc2)CC[C@H]([N@H+](C)C2CCCC2)C1
REMARK SMILES IDX 10 1 9 2 8 3 6 4 7 5 5 7 70 8 80 9 71 10 72 11 4 12 2 15
REMARK SMILES IDX 1 16 3 17 73 18 74 19 75 21 76 22 79 23 77 24 78 25 11 26
REMARK SMILES IDX 12 27 13 28 14 29 15 31 16 32 17 33 69 34 18 35 68 36 19 37
REMARK SMILES IDX 20 38 21 39 62 40 22 41 67 42 61 43 63 44 23 45 66 46 60 47
REMARK SMILES IDX 59 48 24 50 50 51 33 52 49 53 34 54 37 55 48 56 64 57 35 58
REMARK SMILES IDX 36 59 47 61 65 62 38 63 25 64 26 65 31 66 27 67 28 68 30 69
REMARK SMILES IDX 32 70 29 71 51 72 52 73 57 74 53 75 54 76 56 77 58 78 55 79
REMARK SMILES IDX 39 80 40 81 45 82 41 83 42 84 44 85 46 86 43 87
REMARK H PARENT 8 6 4 13 4 14 73 20 13 30 63 49 37 60
REMARK Flexibility Score: inf
ROOT
ATOM      1  C   UNL A   1      37.079  22.330  24.430  1.00  0.00     0.023 C 
ENDROOT
BRANCH   1   2
ATOM      2  C   UNL A   1      36.948  23.458  25.451  1.00  0.00     0.116 C 
BRANCH   2   3
ATOM      3  N   UNL A   1      35.816  23.344  26.356  1.00  0.00    -0.351 N 
ATOM      4  C   UNL A   1      34.469  23.425  26.392  1.00  0.00     0.281 C 
ATOM      5  O   UNL A   1      34.048  22.815  27.396  1.00  0.00    -0.268 OA
ATOM      6  H   UNL A   1      36.149  23.135  27.260  1.00  0.00     0.163 HD
BRANCH   4   7
ATOM      7  C   UNL A   1      33.460  24.281  25.554  1.00  0.00     0.181 C 
ATOM      8  C   UNL A   1      32.254  24.650  26.507  1.00  0.00     0.085 C 
ATOM      9  C   UNL A   1      33.990  25.715  25.310  1.00  0.00     0.144 C 
ATOM     10  C   UNL A   1      31.774  26.061  26.150  1.00  0.00     0.072 C 
ATOM     11  C   UNL A   1      32.736  26.616  25.099  1.00  0.00     0.191 C 
BRANCH   7  12
ATOM     12  N   UNL A   1      32.740  23.680  24.408  1.00  0.00    -0.331 N 
ATOM     13  H   UNL A   1      31.928  23.211  24.810  1.00  0.00     0.347 HD
ATOM     14  H   UNL A   1      32.638  24.495  23.803  1.00  0.00     0.347 HD
BRANCH  12  15
ATOM     15  C   UNL A   1      33.317  22.731  23.481  1.00  0.00     0.176 C 
ATOM     16  C   UNL A   1      32.559  21.398  23.582  1.00  0.00     0.075 C 
ATOM     17  C   UNL A   1      33.281  23.186  22.029  1.00  0.00     0.075 C 
ENDBRANCH  12  15
ENDBRANCH   7  12
BRANCH  11  18
ATOM     18  N   UNL A   1      32.376  26.602  23.651  1.00  0.00    -0.332 N 
ATOM     19  C   UNL A   1      33.652  26.703  22.903  1.00  0.00     0.333 C 
ATOM     20  H   UNL A   1      31.862  25.732  23.506  1.00  0.00     0.348 HD
BRANCH  18  21
ATOM     21  C   UNL A   1      31.399  27.600  23.146  1.00  0.00     0.184 C 
ATOM     22  C   UNL A   1      29.932  27.101  23.220  1.00  0.00     0.065 C 
ATOM     23  C   UNL A   1      31.250  28.885  23.986  1.00  0.00     0.065 C 
ATOM     24  C   UNL A   1      29.043  28.341  23.174  1.00  0.00     0.006 C 
ATOM     25  C   UNL A   1      29.944  29.514  23.524  1.00  0.00     0.006 C 
ENDBRANCH  18  21
ENDBRANCH  11  18
ENDBRANCH   4   7
ENDBRANCH   2   3
ENDBRANCH   1   2
BRANCH   1  26
ATOM     26  C   UNL A   1      37.563  21.013  25.041  1.00  0.00     0.023 C 
BRANCH  26  27
ATOM     27  C   UNL A   1      38.907  21.064  25.761  1.00  0.00     0.116 C 
BRANCH  27  28
ATOM     28  N   UNL A   1      39.718  19.863  25.638  1.00  0.00    -0.352 N 
ATOM     29  C   UNL A   1      41.049  19.729  26.001  1.00  0.00     0.251 C 
ATOM     30  H   UNL A   1      39.279  19.067  25.258  1.00  0.00     0.163 HD
ATOM     31  O   UNL A   1      41.664  18.698  25.825  1.00  0.00    -0.269 OA
BRANCH  29  32
ATOM     32  C   UNL A   1      41.717  20.923  26.570  1.00  0.00     0.039 A 
ATOM     33  C   UNL A   1      42.264  21.869  25.701  1.00  0.00     0.014 A 
ATOM     34  C   UNL A   1      41.633  21.173  27.942  1.00  0.00     0.014 A 
ATOM     35  C   UNL A   1      42.640  23.118  26.201  1.00  0.00     0.010 A 
ATOM     36  C   UNL A   1      41.940  22.443  28.421  1.00  0.00     0.010 A 
ATOM     37  C   UNL A   1      42.431  23.432  27.554  1.00  0.00    -0.014 A 
BRANCH  37  38
ATOM     38  C   UNL A   1      42.699  24.795  28.082  1.00  0.00     0.031 A 
ATOM     39  C   UNL A   1      44.086  25.169  28.523  1.00  0.00     0.074 A 
ATOM     40  C   UNL A   1      41.682  25.666  28.247  1.00  0.00     0.049 A 
ATOM     41  N   UNL A   1      44.506  26.270  29.090  1.00  0.00    -0.248 NA
ATOM     42  C   UNL A   1      45.132  24.151  28.337  1.00  0.00     0.031 C 
ATOM     43  C   UNL A   1      40.278  25.406  27.921  1.00  0.00     0.029 A 
ATOM     44  N   UNL A   1      41.673  26.947  28.742  1.00  0.00    -0.354 N 
ATOM     45  C   UNL A   1      45.856  26.067  29.350  1.00  0.00     0.074 A 
ATOM     46  C   UNL A   1      46.170  24.719  28.929  1.00  0.00     0.031 C 
ATOM     47  C   UNL A   1      39.551  26.501  28.200  1.00  0.00     0.029 A 
ATOM     48  C   UNL A   1      40.428  27.530  28.749  1.00  0.00     0.049 A 
ATOM     49  H   UNL A   1      42.484  27.405  29.062  1.00  0.00     0.167 HD
ATOM     50  C   UNL A   1      46.760  26.933  29.867  1.00  0.00     0.037 A 
ATOM     51  C   UNL A   1      40.040  28.755  29.152  1.00  0.00     0.037 A 
ATOM     52  C   UNL A   1      46.456  28.288  30.242  1.00  0.00     0.049 A 
ATOM     53  C   UNL A   1      41.068  29.712  29.690  1.00  0.00     0.074 A 
ATOM     54  C   UNL A   1      47.316  29.268  30.704  1.00  0.00     0.029 A 
ATOM     55  N   UNL A   1      45.192  28.854  30.193  1.00  0.00    -0.354 N 
ATOM     56  N   UNL A   1      42.355  29.532  29.859  1.00  0.00    -0.248 NA
ATOM     57  C   UNL A   1      40.591  31.045  30.085  1.00  0.00     0.031 C 
ATOM     58  C   UNL A   1      46.566  30.421  30.962  1.00  0.00     0.029 A 
ATOM     59  C   UNL A   1      45.246  30.168  30.626  1.00  0.00     0.049 A 
ATOM     60  H   UNL A   1      44.376  28.391  29.894  1.00  0.00     0.167 HD
ATOM     61  C   UNL A   1      42.846  30.734  30.352  1.00  0.00     0.074 A 
ATOM     62  C   UNL A   1      41.721  31.639  30.445  1.00  0.00     0.031 C 
ATOM     63  C   UNL A   1      44.116  31.058  30.698  1.00  0.00     0.037 A 
BRANCH  50  64
ATOM     64  C   UNL A   1      48.164  26.437  30.040  1.00  0.00     0.057 A 
ATOM     65  C   UNL A   1      48.582  25.807  31.221  1.00  0.00     0.134 A 
ATOM     66  C   UNL A   1      49.107  26.580  29.015  1.00  0.00     0.134 A 
ATOM     67  F   UNL A   1      47.732  25.653  32.246  1.00  0.00    -0.206 F 
ATOM     68  C   UNL A   1      49.897  25.370  31.388  1.00  0.00     0.040 A 
ATOM     69  C   UNL A   1      50.417  26.121  29.160  1.00  0.00     0.040 A 
ATOM     70  F   UNL A   1      48.771  27.168  27.857  1.00  0.00    -0.206 F 
ATOM     71  C   UNL A   1      50.817  25.521  30.353  1.00  0.00     0.006 A 
ENDBRANCH  50  64
BRANCH  51  72
ATOM     72  C   UNL A   1      38.620  29.168  29.026  1.00  0.00     0.057 A 
ATOM     73  C   UNL A   1      37.753  29.100  30.124  1.00  0.00     0.134 A 
ATOM     74  C   UNL A   1      38.090  29.625  27.815  1.00  0.00     0.134 A 
ATOM     75  F   UNL A   1      38.197  28.651  31.307  1.00  0.00    -0.206 F 
ATOM     76  C   UNL A   1      36.406  29.452  30.017  1.00  0.00     0.040 A 
ATOM     77  C   UNL A   1      36.751  30.002  27.698  1.00  0.00     0.040 A 
ATOM     78  F   UNL A   1      38.871  29.721  26.728  1.00  0.00    -0.206 F 
ATOM     79  C   UNL A   1      35.903  29.908  28.800  1.00  0.00     0.006 A 
ENDBRANCH  51  72
BRANCH  63  80
ATOM     80  C   UNL A   1      44.361  32.459  31.172  1.00  0.00     0.057 A 
ATOM     81  C   UNL A   1      44.325  32.794  32.531  1.00  0.00     0.134 A 
ATOM     82  C   UNL A   1      44.686  33.472  30.262  1.00  0.00     0.134 A 
ATOM     83  F   UNL A   1      44.008  31.870  33.451  1.00  0.00    -0.206 F 
ATOM     84  C   UNL A   1      44.588  34.094  32.967  1.00  0.00     0.040 A 
ATOM     85  C   UNL A   1      44.972  34.769  30.687  1.00  0.00     0.040 A 
ATOM     86  F   UNL A   1      44.745  33.213  28.947  1.00  0.00    -0.206 F 
ATOM     87  C   UNL A   1      44.920  35.084  32.043  1.00  0.00     0.006 A 
ENDBRANCH  63  80
ENDBRANCH  37  38
ENDBRANCH  29  32
ENDBRANCH  27  28
ENDBRANCH  26  27
ENDBRANCH   1  26
TORSDOF 15
ENDMDL
MODEL 2
REMARK VINA RESULT:     -10.9      1.261      1.968
REMARK SMILES CC(C)[NH2+][C@]1(C(=O)NCCCCNC(=O)c2ccc(-c3c4nc(c(-c5c(F)cccc5F)c5ccc([nH]5)c(-c5c(F)cccc5F)c5nc(c(-c6c(F)cccc6F)c6ccc3[nH]6)C=C5)C=C4)cc2)CC[C@H]([N@H+](C)C2CCCC2)C1
REMARK SMILES IDX 10 1 9 2 8 3 6 4 7 5 5 7 70 8 80 9 71 10 72 11 4 12 2 15
REMARK SMILES IDX 1 16 3 17 73 18 74 19 75 21 76 22 79 23 77 24 78 25 11 26
REMARK SMILES IDX 12 27 13 28 14 29 15 31 16 32 17 33 69 34 18 35 68 36 19 37
REMARK SMILES IDX 20 38 21 39 62 40 22 41 67 42 61 43 63 44 23 45 66 46 60 47
REMARK SMILES IDX 59 48 24 50 50 51 33 52 49 53 34 54 37 55 48 56 64 57 35 58
REMARK SMILES IDX 36 59 47 61 65 62 38 63 25 64 26 65 31 66 27 67 28 68 30 69
REMARK SMILES IDX 32 70 29 71 51 72 52 73 57 74 53 75 54 76 56 77 58 78 55 79
REMARK SMILES IDX 39 80 40 81 45 82 41 83 42 84 44 85 46 86 43 87
REMARK H PARENT 8 6 4 13 4 14 73 20 13 30 63 49 37 60
REMARK Flexibility Score: inf
ROOT
ATOM      1  C   UNL A   1      37.211  21.860  24.636  1.00  0.00     0.023 C 
ENDROOT
BRANCH   1   2
ATOM      2  C   UNL A   1      36.905  22.743  25.845  1.00  0.00     0.116 C 
BRANCH   2   3
ATOM      3  N   UNL A   1      35.717  22.371  26.597  1.00  0.00    -0.351 N 
ATOM      4  C   UNL A   1      34.369  22.396  26.539  1.00  0.00     0.281 C 
ATOM      5  O   UNL A   1      33.908  21.543  27.325  1.00  0.00    -0.268 OA
ATOM      6  H   UNL A   1      35.994  21.955  27.446  1.00  0.00     0.163 HD
BRANCH   4   7
ATOM      7  C   UNL A   1      33.380  23.400  25.855  1.00  0.00     0.181 C 
ATOM      8  C   UNL A   1      32.178  23.630  26.855  1.00  0.00     0.085 C 
ATOM      9  C   UNL A   1      33.939  24.843  25.852  1.00  0.00     0.144 C 
ATOM     10  C   UNL A   1      31.727  25.090  26.737  1.00  0.00     0.072 C 
ATOM     11  C   UNL A   1      32.704  25.792  25.793  1.00  0.00     0.191 C 
BRANCH   7  12
ATOM     12  N   UNL A   1      32.652  23.012  24.624  1.00  0.00    -0.331 N 
ATOM     13  H   UNL A   1      31.843  22.478  24.942  1.00  0.00     0.347 HD
ATOM     14  H   UNL A   1      32.547  23.921  24.175  1.00  0.00     0.347 HD
BRANCH  12  15
ATOM     15  C   UNL A   1      33.223  22.243  23.540  1.00  0.00     0.176 C 
ATOM     16  C   UNL A   1      32.495  20.894  23.436  1.00  0.00     0.075 C 
ATOM     17  C   UNL A   1      33.137  22.931  22.185  1.00  0.00     0.075 C 
ENDBRANCH  12  15
ENDBRANCH   7  12
BRANCH  11  18
ATOM     18  N   UNL A   1      32.349  26.026  24.363  1.00  0.00    -0.332 N 
ATOM     19  C   UNL A   1      33.574  26.543  23.708  1.00  0.00     0.333 C 
ATOM     20  H   UNL A   1      32.023  25.124  24.012  1.00  0.00     0.348 HD
BRANCH  18  21
ATOM     21  C   UNL A   1      31.186  26.893  24.046  1.00  0.00     0.184 C 
ATOM     22  C   UNL A   1      31.357  28.346  24.562  1.00  0.00     0.065 C 
ATOM     23  C   UNL A   1      30.960  27.204  22.552  1.00  0.00     0.065 C 
ATOM     24  C   UNL A   1      30.393  29.215  23.759  1.00  0.00     0.006 C 
ATOM     25  C   UNL A   1      30.022  28.401  22.530  1.00  0.00     0.006 C 
ENDBRANCH  18  21
ENDBRANCH  11  18
ENDBRANCH   4   7
ENDBRANCH   2   3
ENDBRANCH   1   2
BRANCH   1  26
ATOM     26  C   UNL A   1      37.862  20.526  25.010  1.00  0.00     0.023 C 
BRANCH  26  27
ATOM     27  C   UNL A   1      39.195  20.616  25.746  1.00  0.00     0.116 C 
BRANCH  27  28
ATOM     28  N   UNL A   1      39.963  19.383  25.782  1.00  0.00    -0.352 N 
ATOM     29  C   UNL A   1      41.300  19.256  26.126  1.00  0.00     0.251 C 
ATOM     30  H   UNL A   1      39.487  18.555  25.539  1.00  0.00     0.163 HD
ATOM     31  O   UNL A   1      41.877  18.189  26.090  1.00  0.00    -0.269 OA
BRANCH  29  32
ATOM     32  C   UNL A   1      42.024  20.497  26.491  1.00  0.00     0.039 A 
ATOM     33  C   UNL A   1      42.463  21.347  25.473  1.00  0.00     0.014 A 
ATOM     34  C   UNL A   1      42.097  20.885  27.830  1.00  0.00     0.014 A 
ATOM     35  C   UNL A   1      42.888  22.637  25.798  1.00  0.00     0.010 A 
ATOM     36  C   UNL A   1      42.452  22.194  28.141  1.00  0.00     0.010 A 
ATOM     37  C   UNL A   1      42.834  23.088  27.127  1.00  0.00    -0.014 A 
BRANCH  37  38
ATOM     38  C   UNL A   1      43.154  24.495  27.480  1.00  0.00     0.031 A 
ATOM     39  C   UNL A   1      44.585  24.956  27.499  1.00  0.00     0.074 A 
ATOM     40  C   UNL A   1      42.172  25.333  27.868  1.00  0.00     0.049 A 
ATOM     41  N   UNL A   1      45.078  26.112  27.863  1.00  0.00    -0.248 NA
ATOM     42  C   UNL A   1      45.599  23.971  27.092  1.00  0.00     0.031 C 
ATOM     43  C   UNL A   1      40.750  24.993  27.957  1.00  0.00     0.029 A 
ATOM     44  N   UNL A   1      42.222  26.645  28.270  1.00  0.00    -0.354 N 
ATOM     45  C   UNL A   1      46.456  25.983  27.752  1.00  0.00     0.074 A 
ATOM     46  C   UNL A   1      46.724  24.622  27.340  1.00  0.00     0.031 C 
ATOM     47  C   UNL A   1      40.063  26.075  28.361  1.00  0.00     0.029 A 
ATOM     48  C   UNL A   1      40.994  27.175  28.587  1.00  0.00     0.049 A 
ATOM     49  H   UNL A   1      43.060  27.158  28.328  1.00  0.00     0.167 HD
ATOM     50  C   UNL A   1      47.414  26.921  27.948  1.00  0.00     0.037 A 
ATOM     51  C   UNL A   1      40.658  28.410  29.009  1.00  0.00     0.037 A 
ATOM     52  C   UNL A   1      47.145  28.286  28.313  1.00  0.00     0.049 A 
ATOM     53  C   UNL A   1      41.735  29.444  29.185  1.00  0.00     0.074 A 
ATOM     54  C   UNL A   1      48.038  29.331  28.462  1.00  0.00     0.029 A 
ATOM     55  N   UNL A   1      45.883  28.795  28.581  1.00  0.00    -0.354 N 
ATOM     56  N   UNL A   1      43.028  29.330  29.003  1.00  0.00    -0.248 NA
ATOM     57  C   UNL A   1      41.306  30.782  29.618  1.00  0.00     0.031 C 
ATOM     58  C   UNL A   1      47.319  30.468  28.849  1.00  0.00     0.029 A 
ATOM     59  C   UNL A   1      45.976  30.137  28.905  1.00  0.00     0.049 A 
ATOM     60  H   UNL A   1      45.046  28.278  28.547  1.00  0.00     0.167 HD
ATOM     61  C   UNL A   1      43.563  30.583  29.270  1.00  0.00     0.074 A 
ATOM     62  C   UNL A   1      42.453  31.447  29.617  1.00  0.00     0.031 C 
ATOM     63  C   UNL A   1      44.857  30.984  29.234  1.00  0.00     0.037 A 
BRANCH  50  64
ATOM     64  C   UNL A   1      48.839  26.496  27.756  1.00  0.00     0.057 A 
ATOM     65  C   UNL A   1      49.620  26.032  28.825  1.00  0.00     0.134 A 
ATOM     66  C   UNL A   1      49.437  26.542  26.491  1.00  0.00     0.134 A 
ATOM     67  F   UNL A   1      49.111  25.977  30.064  1.00  0.00    -0.206 F 
ATOM     68  C   UNL A   1      50.953  25.661  28.647  1.00  0.00     0.040 A 
ATOM     69  C   UNL A   1      50.762  26.149  26.296  1.00  0.00     0.040 A 
ATOM     70  F   UNL A   1      48.745  26.972  25.425  1.00  0.00    -0.206 F 
ATOM     71  C   UNL A   1      51.526  25.715  27.378  1.00  0.00     0.006 A 
ENDBRANCH  50  64
BRANCH  51  72
ATOM     72  C   UNL A   1      39.235  28.755  29.255  1.00  0.00     0.057 A 
ATOM     73  C   UNL A   1      38.437  29.279  28.231  1.00  0.00     0.134 A 
ATOM     74  C   UNL A   1      38.642  28.586  30.511  1.00  0.00     0.134 A 
ATOM     75  F   UNL A   1      38.954  29.483  27.010  1.00  0.00    -0.206 F 
ATOM     76  C   UNL A   1      37.107  29.641  28.451  1.00  0.00     0.040 A 
ATOM     77  C   UNL A   1      37.307  28.923  30.740  1.00  0.00     0.040 A 
ATOM     78  F   UNL A   1      39.352  28.081  31.531  1.00  0.00    -0.206 F 
ATOM     79  C   UNL A   1      36.538  29.459  29.710  1.00  0.00     0.006 A 
ENDBRANCH  51  72
BRANCH  63  80
ATOM     80  C   UNL A   1      45.139  32.424  29.539  1.00  0.00     0.057 A 
ATOM     81  C   UNL A   1      45.139  33.403  28.539  1.00  0.00     0.134 A 
ATOM     82  C   UNL A   1      45.363  32.842  30.857  1.00  0.00     0.134 A 
ATOM     83  F   UNL A   1      44.943  33.063  27.255  1.00  0.00    -0.206 F 
ATOM     84  C   UNL A   1      45.370  34.747  28.836  1.00  0.00     0.040 A 
ATOM     85  C   UNL A   1      45.572  34.185  31.170  1.00  0.00     0.040 A 
ATOM     86  F   UNL A   1      45.368  31.953  31.862  1.00  0.00    -0.206 F 
ATOM     87  C   UNL A   1      45.580  35.142  30.156  1.00  0.00     0.006 A 
ENDBRANCH  63  80
ENDBRANCH  37  38
ENDBRANCH  29  32
ENDBRANCH  27  28
ENDBRANCH  26  27
ENDBRANCH   1  26
TORSDOF 15
ENDMDL
MODEL 3
REMARK VINA RESULT:     -10.9      1.056      6.413
REMARK SMILES CC(C)[NH2+][C@]1(C(=O)NCCCCNC(=O)c2ccc(-c3c4nc(c(-c5c(F)cccc5F)c5ccc([nH]5)c(-c5c(F)cccc5F)c5nc(c(-c6c(F)cccc6F)c6ccc3[nH]6)C=C5)C=C4)cc2)CC[C@H]([N@H+](C)C2CCCC2)C1
REMARK SMILES IDX 10 1 9 2 8 3 6 4 7 5 5 7 70 8 80 9 71 10 72 11 4 12 2 15
REMARK SMILES IDX 1 16 3 17 73 18 74 19 75 21 76 22 79 23 77 24 78 25 11 26
REMARK SMILES IDX 12 27 13 28 14 29 15 31 16 32 17 33 69 34 18 35 68 36 19 37
REMARK SMILES IDX 20 38 21 39 62 40 22 41 67 42 61 43 63 44 23 45 66 46 60 47
REMARK SMILES IDX 59 48 24 50 50 51 33 52 49 53 34 54 37 55 48 56 64 57 35 58
REMARK SMILES IDX 36 59 47 61 65 62 38 63 25 64 26 65 31 66 27 67 28 68 30 69
REMARK SMILES IDX 32 70 29 71 51 72 52 73 57 74 53 75 54 76 56 77 58 78 55 79
REMARK SMILES IDX 39 80 40 81 45 82 41 83 42 84 44 85 46 86 43 87
REMARK H PARENT 8 6 4 13 4 14 73 20 13 30 63 49 37 60
REMARK Flexibility Score: inf
ROOT
ATOM      1  C   UNL A   1      36.377  21.466  25.607  1.00  0.00     0.023 C 
ENDROOT
BRANCH   1   2
ATOM      2  C   UNL A   1      35.561  20.295  25.064  1.00  0.00     0.116 C 
BRANCH   2   3
ATOM      3  N   UNL A   1      34.138  20.345  25.357  1.00  0.00    -0.351 N 
ATOM      4  C   UNL A   1      33.032  21.088  25.140  1.00  0.00     0.281 C 
ATOM      5  O   UNL A   1      32.020  20.379  25.315  1.00  0.00    -0.268 OA
ATOM      6  H   UNL A   1      33.896  19.563  25.906  1.00  0.00     0.163 HD
BRANCH   4   7
ATOM      7  C   UNL A   1      32.843  22.630  24.935  1.00  0.00     0.181 C 
ATOM      8  C   UNL A   1      33.628  23.358  26.098  1.00  0.00     0.085 C 
ATOM      9  C   UNL A   1      33.680  23.156  23.745  1.00  0.00     0.144 C 
ATOM     10  C   UNL A   1      34.231  24.649  25.535  1.00  0.00     0.072 C 
ATOM     11  C   UNL A   1      33.950  24.664  24.031  1.00  0.00     0.191 C 
BRANCH   7  12
ATOM     12  N   UNL A   1      31.502  23.243  25.073  1.00  0.00    -0.331 N 
ATOM     13  H   UNL A   1      31.506  24.052  24.451  1.00  0.00     0.347 HD
ATOM     14  H   UNL A   1      30.907  22.435  24.892  1.00  0.00     0.347 HD
BRANCH  12  15
ATOM     15  C   UNL A   1      30.938  23.716  26.319  1.00  0.00     0.176 C 
ATOM     16  C   UNL A   1      30.233  25.060  26.079  1.00  0.00     0.075 C 
ATOM     17  C   UNL A   1      29.931  22.760  26.942  1.00  0.00     0.075 C 
ENDBRANCH  12  15
ENDBRANCH   7  12
BRANCH  11  18
ATOM     18  N   UNL A   1      32.822  25.466  23.474  1.00  0.00    -0.332 N 
ATOM     19  C   UNL A   1      33.073  25.581  22.017  1.00  0.00     0.333 C 
ATOM     20  H   UNL A   1      31.975  24.956  23.724  1.00  0.00     0.348 HD
BRANCH  18  21
ATOM     21  C   UNL A   1      32.536  26.801  24.058  1.00  0.00     0.184 C 
ATOM     22  C   UNL A   1      33.671  27.827  23.807  1.00  0.00     0.065 C 
ATOM     23  C   UNL A   1      31.371  27.584  23.417  1.00  0.00     0.065 C 
ATOM     24  C   UNL A   1      33.059  29.214  23.981  1.00  0.00     0.006 C 
ATOM     25  C   UNL A   1      31.554  29.021  23.879  1.00  0.00     0.006 C 
ENDBRANCH  18  21
ENDBRANCH  11  18
ENDBRANCH   4   7
ENDBRANCH   2   3
ENDBRANCH   1   2
BRANCH   1  26
ATOM     26  C   UNL A   1      37.777  21.565  24.994  1.00  0.00     0.023 C 
BRANCH  26  27
ATOM     27  C   UNL A   1      38.943  21.356  25.954  1.00  0.00     0.116 C 
BRANCH  27  28
ATOM     28  N   UNL A   1      39.679  20.116  25.769  1.00  0.00    -0.352 N 
ATOM     29  C   UNL A   1      41.019  19.903  26.055  1.00  0.00     0.251 C 
ATOM     30  H   UNL A   1      39.176  19.351  25.404  1.00  0.00     0.163 HD
ATOM     31  O   UNL A   1      41.566  18.843  25.831  1.00  0.00    -0.269 OA
BRANCH  29  32
ATOM     32  C   UNL A   1      41.782  21.050  26.602  1.00  0.00     0.039 A 
ATOM     33  C   UNL A   1      42.265  22.020  25.723  1.00  0.00     0.014 A 
ATOM     34  C   UNL A   1      41.851  21.237  27.985  1.00  0.00     0.014 A 
ATOM     35  C   UNL A   1      42.733  23.233  26.234  1.00  0.00     0.010 A 
ATOM     36  C   UNL A   1      42.249  22.473  28.485  1.00  0.00     0.010 A 
ATOM     37  C   UNL A   1      42.678  23.489  27.614  1.00  0.00    -0.014 A 
BRANCH  37  38
ATOM     38  C   UNL A   1      43.044  24.817  28.170  1.00  0.00     0.031 A 
ATOM     39  C   UNL A   1      41.978  25.850  28.407  1.00  0.00     0.074 A 
ATOM     40  C   UNL A   1      44.340  25.126  28.380  1.00  0.00     0.049 A 
ATOM     41  N   UNL A   1      42.101  27.091  28.801  1.00  0.00    -0.248 NA
ATOM     42  C   UNL A   1      40.593  25.442  28.124  1.00  0.00     0.031 C 
ATOM     43  C   UNL A   1      45.477  24.238  28.129  1.00  0.00     0.029 A 
ATOM     44  N   UNL A   1      44.920  26.281  28.845  1.00  0.00    -0.354 N 
ATOM     45  C   UNL A   1      40.816  27.617  28.789  1.00  0.00     0.074 A 
ATOM     46  C   UNL A   1      39.937  26.578  28.298  1.00  0.00     0.031 C 
ATOM     47  C   UNL A   1      46.613  24.871  28.467  1.00  0.00     0.029 A 
ATOM     48  C   UNL A   1      46.291  26.217  28.931  1.00  0.00     0.049 A 
ATOM     49  H   UNL A   1      44.402  27.081  29.092  1.00  0.00     0.167 HD
ATOM     50  C   UNL A   1      40.398  28.845  29.179  1.00  0.00     0.037 A 
ATOM     51  C   UNL A   1      47.184  27.138  29.340  1.00  0.00     0.037 A 
ATOM     52  C   UNL A   1      41.266  29.862  29.711  1.00  0.00     0.049 A 
ATOM     53  C   UNL A   1      46.694  28.483  29.801  1.00  0.00     0.074 A 
ATOM     54  C   UNL A   1      40.931  31.110  30.203  1.00  0.00     0.029 A 
ATOM     55  N   UNL A   1      42.643  29.742  29.823  1.00  0.00    -0.354 N 
ATOM     56  N   UNL A   1      45.466  28.940  29.856  1.00  0.00    -0.248 NA
ATOM     57  C   UNL A   1      47.711  29.437  30.265  1.00  0.00     0.031 C 
ATOM     58  C   UNL A   1      42.111  31.758  30.589  1.00  0.00     0.029 A 
ATOM     59  C   UNL A   1      43.174  30.898  30.368  1.00  0.00     0.049 A 
ATOM     60  H   UNL A   1      43.165  28.951  29.555  1.00  0.00     0.167 HD
ATOM     61  C   UNL A   1      45.560  30.221  30.385  1.00  0.00     0.074 A 
ATOM     62  C   UNL A   1      46.964  30.464  30.645  1.00  0.00     0.031 C 
ATOM     63  C   UNL A   1      44.573  31.116  30.633  1.00  0.00     0.037 A 
BRANCH  50  64
ATOM     64  C   UNL A   1      38.934  29.144  29.053  1.00  0.00     0.057 A 
ATOM     65  C   UNL A   1      38.071  29.077  30.156  1.00  0.00     0.134 A 
ATOM     66  C   UNL A   1      38.381  29.513  27.821  1.00  0.00     0.134 A 
ATOM     67  F   UNL A   1      38.536  28.716  31.361  1.00  0.00    -0.206 F 
ATOM     68  C   UNL A   1      36.705  29.332  30.030  1.00  0.00     0.040 A 
ATOM     69  C   UNL A   1      37.021  29.796  27.689  1.00  0.00     0.040 A 
ATOM     70  F   UNL A   1      39.152  29.601  26.727  1.00  0.00    -0.206 F 
ATOM     71  C   UNL A   1      36.177  29.697  28.794  1.00  0.00     0.006 A 
ENDBRANCH  50  64
BRANCH  51  72
ATOM     72  C   UNL A   1      48.632  26.813  29.374  1.00  0.00     0.057 A 
ATOM     73  C   UNL A   1      49.207  26.222  30.506  1.00  0.00     0.134 A 
ATOM     74  C   UNL A   1      49.476  27.092  28.294  1.00  0.00     0.134 A 
ATOM     75  F   UNL A   1      48.453  25.948  31.580  1.00  0.00    -0.206 F 
ATOM     76  C   UNL A   1      50.572  25.939  30.571  1.00  0.00     0.040 A 
ATOM     77  C   UNL A   1      50.840  26.795  28.336  1.00  0.00     0.040 A 
ATOM     78  F   UNL A   1      48.985  27.651  27.178  1.00  0.00    -0.206 F 
ATOM     79  C   UNL A   1      51.392  26.223  29.480  1.00  0.00     0.006 A 
ENDBRANCH  51  72
BRANCH  63  80
ATOM     80  C   UNL A   1      44.971  32.424  31.248  1.00  0.00     0.057 A 
ATOM     81  C   UNL A   1      45.280  33.542  30.465  1.00  0.00     0.134 A 
ATOM     82  C   UNL A   1      44.995  32.577  32.639  1.00  0.00     0.134 A 
ATOM     83  F   UNL A   1      45.285  33.455  29.126  1.00  0.00    -0.206 F 
ATOM     84  C   UNL A   1      45.617  34.766  31.047  1.00  0.00     0.040 A 
ATOM     85  C   UNL A   1      45.309  33.801  33.232  1.00  0.00     0.040 A 
ATOM     86  F   UNL A   1      44.702  31.545  33.444  1.00  0.00    -0.206 F 
ATOM     87  C   UNL A   1      45.625  34.899  32.434  1.00  0.00     0.006 A 
ENDBRANCH  63  80
ENDBRANCH  37  38
ENDBRANCH  29  32
ENDBRANCH  27  28
ENDBRANCH  26  27
ENDBRANCH   1  26
TORSDOF 15
ENDMDL
