MODEL 1
REMARK VINA RESULT:     -11.5      0.000      0.000
REMARK SMILES C[C@@H]1[C@H](C(=O)NCCCCNC(=O)c2ccc(-c3c4nc(c(-c5c(F)cccc5F)c5ccc([nH]5)c(-c5c(F)cccc5F)c5nc(c(-c6c(F)cccc6F)c6ccc3[nH]6)C=C5)C=C4)cc2)CCN1C(=O)COc1ccccc1O
REMARK SMILES IDX 7 1 6 2 4 3 5 4 3 6 1 7 2 8 70 9 68 10 69 11 71 12 72 13
REMARK SMILES IDX 73 14 74 15 75 16 76 17 80 18 77 19 79 20 78 21 81 22 8 24
REMARK SMILES IDX 9 25 10 26 11 27 12 28 13 30 14 31 15 32 67 33 16 34 66 35
REMARK SMILES IDX 17 36 18 37 19 38 60 39 20 40 65 41 59 42 61 43 21 44 64 45
REMARK SMILES IDX 58 46 57 47 22 49 48 50 31 51 47 52 32 53 35 54 46 55 62 56
REMARK SMILES IDX 33 57 34 58 45 60 63 61 36 62 23 63 24 64 29 65 25 66 26 67
REMARK SMILES IDX 28 68 30 69 27 70 49 71 50 72 55 73 51 74 52 75 54 76 56 77
REMARK SMILES IDX 53 78 37 79 38 80 43 81 39 82 40 83 42 84 44 85 41 86
REMARK H PARENT 6 5 81 23 11 29 61 48 35 59
REMARK Flexibility Score: inf
ROOT
ATOM      1  C   UNL A   1      32.669  29.819  26.678  1.00  0.00     0.116 C 
ENDROOT
BRANCH   1   2
ATOM      2  N   UNL A   1      31.996  28.618  27.135  1.00  0.00    -0.356 N 
ATOM      3  C   UNL A   1      31.422  27.599  26.445  1.00  0.00     0.225 C 
ATOM      4  O   UNL A   1      30.839  26.732  27.104  1.00  0.00    -0.275 OA
ATOM      5  H   UNL A   1      31.950  28.525  28.113  1.00  0.00     0.163 HD
BRANCH   3   6
ATOM      6  C   UNL A   1      31.463  27.496  24.928  1.00  0.00     0.102 C 
ATOM      7  C   UNL A   1      33.795  26.324  25.161  1.00  0.00     0.032 C 
ATOM      8  C   UNL A   1      32.764  27.005  24.269  1.00  0.00     0.094 C 
ATOM      9  N   UNL A   1      32.325  26.128  23.169  1.00  0.00    -0.336 N 
ATOM     10  C   UNL A   1      30.302  26.720  24.308  1.00  0.00     0.037 C 
ATOM     11  C   UNL A   1      30.889  25.922  23.161  1.00  0.00     0.121 C 
BRANCH   9  12
ATOM     12  C   UNL A   1      33.091  25.462  22.221  1.00  0.00     0.260 C 
ATOM     13  O   UNL A   1      33.684  26.087  21.338  1.00  0.00    -0.271 OA
BRANCH  12  14
ATOM     14  C   UNL A   1      33.222  23.932  22.293  1.00  0.00     0.329 C 
BRANCH  14  15
ATOM     15  O   UNL A   1      33.201  23.321  23.572  1.00  0.00    -0.480 OA
BRANCH  15  16
ATOM     16  C   UNL A   1      34.343  22.690  23.970  1.00  0.00     0.161 A 
ATOM     17  C   UNL A   1      35.511  23.143  23.354  1.00  0.00     0.050 A 
ATOM     18  C   UNL A   1      34.410  21.590  24.827  1.00  0.00     0.157 A 
ATOM     19  C   UNL A   1      36.738  22.537  23.632  1.00  0.00     0.004 A 
ATOM     20  C   UNL A   1      35.635  21.000  25.130  1.00  0.00     0.050 A 
ATOM     21  C   UNL A   1      36.800  21.471  24.528  1.00  0.00     0.004 A 
BRANCH  18  22
ATOM     22  O   UNL A   1      33.315  20.971  25.352  1.00  0.00    -0.504 OA
ATOM     23  H   UNL A   1      32.477  21.079  24.946  1.00  0.00     0.293 HD
ENDBRANCH  18  22
ENDBRANCH  15  16
ENDBRANCH  14  15
ENDBRANCH  12  14
ENDBRANCH   9  12
ENDBRANCH   3   6
ENDBRANCH   1   2
BRANCH   1  24
ATOM     24  C   UNL A   1      31.684  30.835  26.100  1.00  0.00     0.023 C 
BRANCH  24  25
ATOM     25  C   UNL A   1      31.464  32.078  26.950  1.00  0.00     0.023 C 
BRANCH  25  26
ATOM     26  C   UNL A   1      32.710  32.915  27.169  1.00  0.00     0.116 C 
BRANCH  26  27
ATOM     27  N   UNL A   1      32.415  34.267  27.626  1.00  0.00    -0.352 N 
ATOM     28  C   UNL A   1      33.025  34.991  28.624  1.00  0.00     0.251 C 
ATOM     29  H   UNL A   1      31.680  34.724  27.157  1.00  0.00     0.163 HD
ATOM     30  O   UNL A   1      32.576  36.069  28.981  1.00  0.00    -0.269 OA
BRANCH  28  31
ATOM     31  C   UNL A   1      34.219  34.422  29.279  1.00  0.00     0.039 A 
ATOM     32  C   UNL A   1      34.059  33.647  30.430  1.00  0.00     0.014 A 
ATOM     33  C   UNL A   1      35.481  34.601  28.708  1.00  0.00     0.014 A 
ATOM     34  C   UNL A   1      35.166  32.990  30.969  1.00  0.00     0.010 A 
ATOM     35  C   UNL A   1      36.555  33.865  29.183  1.00  0.00     0.010 A 
ATOM     36  C   UNL A   1      36.413  33.065  30.327  1.00  0.00    -0.014 A 
BRANCH  36  37
ATOM     37  C   UNL A   1      37.603  32.355  30.851  1.00  0.00     0.031 A 
ATOM     38  C   UNL A   1      38.275  32.866  32.096  1.00  0.00     0.074 A 
ATOM     39  C   UNL A   1      38.122  31.315  30.172  1.00  0.00     0.049 A 
ATOM     40  N   UNL A   1      39.386  32.469  32.659  1.00  0.00    -0.248 NA
ATOM     41  C   UNL A   1      37.634  34.007  32.771  1.00  0.00     0.031 C 
ATOM     42  C   UNL A   1      37.594  30.766  28.921  1.00  0.00     0.029 A 
ATOM     43  N   UNL A   1      39.222  30.540  30.436  1.00  0.00    -0.354 N 
ATOM     44  C   UNL A   1      39.589  33.329  33.730  1.00  0.00     0.074 A 
ATOM     45  C   UNL A   1      38.525  34.306  33.702  1.00  0.00     0.031 C 
ATOM     46  C   UNL A   1      38.353  29.724  28.543  1.00  0.00     0.029 A 
ATOM     47  C   UNL A   1      39.438  29.554  29.505  1.00  0.00     0.049 A 
ATOM     48  H   UNL A   1      39.802  30.678  31.220  1.00  0.00     0.167 HD
ATOM     49  C   UNL A   1      40.559  33.290  34.675  1.00  0.00     0.037 A 
ATOM     50  C   UNL A   1      40.404  28.618  29.440  1.00  0.00     0.037 A 
ATOM     51  C   UNL A   1      41.584  32.284  34.728  1.00  0.00     0.049 A 
ATOM     52  C   UNL A   1      41.448  28.570  30.521  1.00  0.00     0.074 A 
ATOM     53  C   UNL A   1      42.576  32.112  35.676  1.00  0.00     0.029 A 
ATOM     54  N   UNL A   1      41.738  31.270  33.794  1.00  0.00    -0.354 N 
ATOM     55  N   UNL A   1      41.596  29.353  31.561  1.00  0.00    -0.248 NA
ATOM     56  C   UNL A   1      42.451  27.502  30.423  1.00  0.00     0.031 C 
ATOM     57  C   UNL A   1      43.348  31.007  35.301  1.00  0.00     0.029 A 
ATOM     58  C   UNL A   1      42.813  30.471  34.141  1.00  0.00     0.049 A 
ATOM     59  H   UNL A   1      41.168  31.139  33.002  1.00  0.00     0.167 HD
ATOM     60  C   UNL A   1      42.688  28.854  32.260  1.00  0.00     0.074 A 
ATOM     61  C   UNL A   1      43.158  27.697  31.528  1.00  0.00     0.031 C 
ATOM     62  C   UNL A   1      43.251  29.313  33.404  1.00  0.00     0.037 A 
BRANCH  49  63
ATOM     63  C   UNL A   1      40.536  34.360  35.726  1.00  0.00     0.057 A 
ATOM     64  C   UNL A   1      39.843  34.195  36.933  1.00  0.00     0.134 A 
ATOM     65  C   UNL A   1      41.215  35.569  35.531  1.00  0.00     0.134 A 
ATOM     66  F   UNL A   1      39.155  33.068  37.173  1.00  0.00    -0.206 F 
ATOM     67  C   UNL A   1      39.795  35.207  37.893  1.00  0.00     0.040 A 
ATOM     68  C   UNL A   1      41.201  36.576  36.498  1.00  0.00     0.040 A 
ATOM     69  F   UNL A   1      41.901  35.791  34.401  1.00  0.00    -0.206 F 
ATOM     70  C   UNL A   1      40.481  36.401  37.679  1.00  0.00     0.006 A 
ENDBRANCH  49  63
BRANCH  50  71
ATOM     71  C   UNL A   1      40.402  27.622  28.339  1.00  0.00     0.057 A 
ATOM     72  C   UNL A   1      39.724  26.405  28.475  1.00  0.00     0.134 A 
ATOM     73  C   UNL A   1      41.071  27.858  27.133  1.00  0.00     0.134 A 
ATOM     74  F   UNL A   1      39.078  26.117  29.615  1.00  0.00    -0.206 F 
ATOM     75  C   UNL A   1      39.727  25.448  27.460  1.00  0.00     0.040 A 
ATOM     76  C   UNL A   1      41.063  26.918  26.099  1.00  0.00     0.040 A 
ATOM     77  F   UNL A   1      41.729  29.009  26.936  1.00  0.00    -0.206 F 
ATOM     78  C   UNL A   1      40.395  25.706  26.265  1.00  0.00     0.006 A 
ENDBRANCH  50  71
BRANCH  62  79
ATOM     79  C   UNL A   1      44.405  28.533  33.958  1.00  0.00     0.057 A 
ATOM     80  C   UNL A   1      45.732  28.857  33.649  1.00  0.00     0.134 A 
ATOM     81  C   UNL A   1      44.185  27.474  34.848  1.00  0.00     0.134 A 
ATOM     82  F   UNL A   1      46.007  29.854  32.795  1.00  0.00    -0.206 F 
ATOM     83  C   UNL A   1      46.800  28.140  34.191  1.00  0.00     0.040 A 
ATOM     84  C   UNL A   1      45.244  26.766  35.415  1.00  0.00     0.040 A 
ATOM     85  F   UNL A   1      42.937  27.121  35.190  1.00  0.00    -0.206 F 
ATOM     86  C   UNL A   1      46.557  27.095  35.082  1.00  0.00     0.006 A 
ENDBRANCH  62  79
ENDBRANCH  36  37
ENDBRANCH  28  31
ENDBRANCH  26  27
ENDBRANCH  25  26
ENDBRANCH  24  25
ENDBRANCH   1  24
TORSDOF 16
ENDMDL
MODEL 2
REMARK VINA RESULT:     -11.5      4.634     10.030
REMARK SMILES C[C@@H]1[C@H](C(=O)NCCCCNC(=O)c2ccc(-c3c4nc(c(-c5c(F)cccc5F)c5ccc([nH]5)c(-c5c(F)cccc5F)c5nc(c(-c6c(F)cccc6F)c6ccc3[nH]6)C=C5)C=C4)cc2)CCN1C(=O)COc1ccccc1O
REMARK SMILES IDX 7 1 6 2 4 3 5 4 3 6 1 7 2 8 70 9 68 10 69 11 71 12 72 13
REMARK SMILES IDX 73 14 74 15 75 16 76 17 80 18 77 19 79 20 78 21 81 22 8 24
REMARK SMILES IDX 9 25 10 26 11 27 12 28 13 30 14 31 15 32 67 33 16 34 66 35
REMARK SMILES IDX 17 36 18 37 19 38 60 39 20 40 65 41 59 42 61 43 21 44 64 45
REMARK SMILES IDX 58 46 57 47 22 49 48 50 31 51 47 52 32 53 35 54 46 55 62 56
REMARK SMILES IDX 33 57 34 58 45 60 63 61 36 62 23 63 24 64 29 65 25 66 26 67
REMARK SMILES IDX 28 68 30 69 27 70 49 71 50 72 55 73 51 74 52 75 54 76 56 77
REMARK SMILES IDX 53 78 37 79 38 80 43 81 39 82 40 83 42 84 44 85 41 86
REMARK H PARENT 6 5 81 23 11 29 61 48 35 59
REMARK Flexibility Score: inf
ROOT
ATOM      1  C   UNL A   1      36.925  21.969  25.247  1.00  0.00     0.116 C 
ENDROOT
BRANCH   1   2
ATOM      2  N   UNL A   1      36.439  22.755  24.128  1.00  0.00    -0.356 N 
ATOM      3  C   UNL A   1      35.178  22.999  23.689  1.00  0.00     0.225 C 
ATOM      4  O   UNL A   1      35.062  23.647  22.644  1.00  0.00    -0.275 OA
ATOM      5  H   UNL A   1      37.147  23.186  23.596  1.00  0.00     0.163 HD
BRANCH   3   6
ATOM      6  C   UNL A   1      33.936  22.510  24.417  1.00  0.00     0.102 C 
ATOM      7  C   UNL A   1      34.052  24.677  25.886  1.00  0.00     0.032 C 
ATOM      8  C   UNL A   1      33.470  23.287  25.661  1.00  0.00     0.094 C 
ATOM      9  N   UNL A   1      32.000  23.315  25.563  1.00  0.00    -0.336 N 
ATOM     10  C   UNL A   1      32.718  22.285  23.523  1.00  0.00     0.037 C 
ATOM     11  C   UNL A   1      31.515  22.750  24.318  1.00  0.00     0.121 C 
BRANCH   9  12
ATOM     12  C   UNL A   1      31.073  23.846  26.452  1.00  0.00     0.260 C 
ATOM     13  O   UNL A   1      30.814  23.269  27.511  1.00  0.00    -0.271 OA
BRANCH  12  14
ATOM     14  C   UNL A   1      30.387  25.180  26.121  1.00  0.00     0.329 C 
BRANCH  14  15
ATOM     15  O   UNL A   1      30.953  25.986  25.101  1.00  0.00    -0.480 OA
BRANCH  15  16
ATOM     16  C   UNL A   1      31.255  27.275  25.433  1.00  0.00     0.161 A 
ATOM     17  C   UNL A   1      31.507  27.489  26.789  1.00  0.00     0.050 A 
ATOM     18  C   UNL A   1      31.217  28.370  24.568  1.00  0.00     0.157 A 
ATOM     19  C   UNL A   1      31.769  28.775  27.265  1.00  0.00     0.004 A 
ATOM     20  C   UNL A   1      31.505  29.650  25.032  1.00  0.00     0.050 A 
ATOM     21  C   UNL A   1      31.778  29.854  26.383  1.00  0.00     0.004 A 
BRANCH  18  22
ATOM     22  O   UNL A   1      30.824  28.291  23.265  1.00  0.00    -0.504 OA
ATOM     23  H   UNL A   1      30.814  27.463  22.828  1.00  0.00     0.293 HD
ENDBRANCH  18  22
ENDBRANCH  15  16
ENDBRANCH  14  15
ENDBRANCH  12  14
ENDBRANCH   9  12
ENDBRANCH   3   6
ENDBRANCH   1   2
BRANCH   1  24
ATOM     24  C   UNL A   1      36.761  20.470  24.999  1.00  0.00     0.023 C 
BRANCH  24  25
ATOM     25  C   UNL A   1      38.058  19.706  24.780  1.00  0.00     0.023 C 
BRANCH  25  26
ATOM     26  C   UNL A   1      39.165  20.055  25.757  1.00  0.00     0.116 C 
BRANCH  26  27
ATOM     27  N   UNL A   1      40.183  19.019  25.861  1.00  0.00    -0.352 N 
ATOM     28  C   UNL A   1      41.531  19.156  26.097  1.00  0.00     0.251 C 
ATOM     29  H   UNL A   1      39.862  18.095  25.747  1.00  0.00     0.163 HD
ATOM     30  O   UNL A   1      42.281  18.195  26.024  1.00  0.00    -0.269 OA
BRANCH  28  31
ATOM     31  C   UNL A   1      42.059  20.498  26.409  1.00  0.00     0.039 A 
ATOM     32  C   UNL A   1      42.391  21.359  25.361  1.00  0.00     0.014 A 
ATOM     33  C   UNL A   1      42.154  20.919  27.737  1.00  0.00     0.014 A 
ATOM     34  C   UNL A   1      42.753  22.675  25.649  1.00  0.00     0.010 A 
ATOM     35  C   UNL A   1      42.413  22.252  28.013  1.00  0.00     0.010 A 
ATOM     36  C   UNL A   1      42.730  23.140  26.974  1.00  0.00    -0.014 A 
BRANCH  36  37
ATOM     37  C   UNL A   1      43.076  24.540  27.315  1.00  0.00     0.031 A 
ATOM     38  C   UNL A   1      44.513  24.980  27.245  1.00  0.00     0.074 A 
ATOM     39  C   UNL A   1      42.125  25.382  27.761  1.00  0.00     0.049 A 
ATOM     40  N   UNL A   1      45.050  26.116  27.606  1.00  0.00    -0.248 NA
ATOM     41  C   UNL A   1      45.482  23.990  26.744  1.00  0.00     0.031 C 
ATOM     42  C   UNL A   1      40.708  25.053  27.928  1.00  0.00     0.029 A 
ATOM     43  N   UNL A   1      42.214  26.689  28.167  1.00  0.00    -0.354 N 
ATOM     44  C   UNL A   1      46.415  25.964  27.405  1.00  0.00     0.074 A 
ATOM     45  C   UNL A   1      46.633  24.609  26.952  1.00  0.00     0.031 C 
ATOM     46  C   UNL A   1      40.055  26.139  28.374  1.00  0.00     0.029 A 
ATOM     47  C   UNL A   1      41.011  27.227  28.555  1.00  0.00     0.049 A 
ATOM     48  H   UNL A   1      43.059  27.193  28.179  1.00  0.00     0.167 HD
ATOM     49  C   UNL A   1      47.400  26.882  27.553  1.00  0.00     0.037 A 
ATOM     50  C   UNL A   1      40.717  28.462  29.003  1.00  0.00     0.037 A 
ATOM     51  C   UNL A   1      47.171  28.243  27.953  1.00  0.00     0.049 A 
ATOM     52  C   UNL A   1      41.821  29.476  29.123  1.00  0.00     0.074 A 
ATOM     53  C   UNL A   1      48.085  29.274  28.073  1.00  0.00     0.029 A 
ATOM     54  N   UNL A   1      45.930  28.765  28.288  1.00  0.00    -0.354 N 
ATOM     55  N   UNL A   1      43.100  29.339  28.874  1.00  0.00    -0.248 NA
ATOM     56  C   UNL A   1      41.437  30.820  29.576  1.00  0.00     0.031 C 
ATOM     57  C   UNL A   1      47.401  30.414  28.506  1.00  0.00     0.029 A 
ATOM     58  C   UNL A   1      46.056  30.102  28.619  1.00  0.00     0.049 A 
ATOM     59  H   UNL A   1      45.086  28.259  28.290  1.00  0.00     0.167 HD
ATOM     60  C   UNL A   1      43.670  30.584  29.109  1.00  0.00     0.074 A 
ATOM     61  C   UNL A   1      42.594  31.466  29.512  1.00  0.00     0.031 C 
ATOM     62  C   UNL A   1      44.966  30.964  29.000  1.00  0.00     0.037 A 
BRANCH  49  63
ATOM     63  C   UNL A   1      48.803  26.436  27.265  1.00  0.00     0.057 A 
ATOM     64  C   UNL A   1      49.647  25.954  28.274  1.00  0.00     0.134 A 
ATOM     65  C   UNL A   1      49.316  26.486  25.963  1.00  0.00     0.134 A 
ATOM     66  F   UNL A   1      49.223  25.899  29.547  1.00  0.00    -0.206 F 
ATOM     67  C   UNL A   1      50.963  25.572  28.007  1.00  0.00     0.040 A 
ATOM     68  C   UNL A   1      50.620  26.078  25.678  1.00  0.00     0.040 A 
ATOM     69  F   UNL A   1      48.561  26.932  24.949  1.00  0.00    -0.206 F 
ATOM     70  C   UNL A   1      51.451  25.629  26.703  1.00  0.00     0.006 A 
ENDBRANCH  49  63
BRANCH  50  71
ATOM     71  C   UNL A   1      39.314  28.822  29.326  1.00  0.00     0.057 A 
ATOM     72  C   UNL A   1      38.472  29.371  28.352  1.00  0.00     0.134 A 
ATOM     73  C   UNL A   1      38.781  28.630  30.606  1.00  0.00     0.134 A 
ATOM     74  F   UNL A   1      38.932  29.593  27.111  1.00  0.00    -0.206 F 
ATOM     75  C   UNL A   1      37.157  29.734  28.641  1.00  0.00     0.040 A 
ATOM     76  C   UNL A   1      37.459  28.969  30.904  1.00  0.00     0.040 A 
ATOM     77  F   UNL A   1      39.533  28.099  31.580  1.00  0.00    -0.206 F 
ATOM     78  C   UNL A   1      36.645  29.529  29.921  1.00  0.00     0.006 A 
ENDBRANCH  50  71
BRANCH  62  79
ATOM     79  C   UNL A   1      45.282  32.403  29.275  1.00  0.00     0.057 A 
ATOM     80  C   UNL A   1      45.674  32.845  30.544  1.00  0.00     0.134 A 
ATOM     81  C   UNL A   1      45.234  33.349  28.243  1.00  0.00     0.134 A 
ATOM     82  F   UNL A   1      45.727  31.988  31.575  1.00  0.00    -0.206 F 
ATOM     83  C   UNL A   1      45.991  34.183  30.782  1.00  0.00     0.040 A 
ATOM     84  C   UNL A   1      45.571  34.685  28.463  1.00  0.00     0.040 A 
ATOM     85  F   UNL A   1      44.874  32.986  27.003  1.00  0.00    -0.206 F 
ATOM     86  C   UNL A   1      45.946  35.106  29.737  1.00  0.00     0.006 A 
ENDBRANCH  62  79
ENDBRANCH  36  37
ENDBRANCH  28  31
ENDBRANCH  26  27
ENDBRANCH  25  26
ENDBRANCH  24  25
ENDBRANCH   1  24
TORSDOF 16
ENDMDL
MODEL 3
REMARK VINA RESULT:     -11.5      1.416      2.527
REMARK SMILES C[C@@H]1[C@H](C(=O)NCCCCNC(=O)c2ccc(-c3c4nc(c(-c5c(F)cccc5F)c5ccc([nH]5)c(-c5c(F)cccc5F)c5nc(c(-c6c(F)cccc6F)c6ccc3[nH]6)C=C5)C=C4)cc2)CCN1C(=O)COc1ccccc1O
REMARK SMILES IDX 7 1 6 2 4 3 5 4 3 6 1 7 2 8 70 9 68 10 69 11 71 12 72 13
REMARK SMILES IDX 73 14 74 15 75 16 76 17 80 18 77 19 79 20 78 21 81 22 8 24
REMARK SMILES IDX 9 25 10 26 11 27 12 28 13 30 14 31 15 32 67 33 16 34 66 35
REMARK SMILES IDX 17 36 18 37 19 38 60 39 20 40 65 41 59 42 61 43 21 44 64 45
REMARK SMILES IDX 58 46 57 47 22 49 48 50 31 51 47 52 32 53 35 54 46 55 62 56
REMARK SMILES IDX 33 57 34 58 45 60 63 61 36 62 23 63 24 64 29 65 25 66 26 67
REMARK SMILES IDX 28 68 30 69 27 70 49 71 50 72 55 73 51 74 52 75 54 76 56 77
REMARK SMILES IDX 53 78 37 79 38 80 43 81 39 82 40 83 42 84 44 85 41 86
REMARK H PARENT 6 5 81 23 11 29 61 48 35 59
REMARK Flexibility Score: inf
ROOT
ATOM      1  C   UNL A   1      31.103  29.993  25.232  1.00  0.00     0.116 C 
ENDROOT
BRANCH   1   2
ATOM      2  N   UNL A   1      32.015  29.402  24.270  1.00  0.00    -0.356 N 
ATOM      3  C   UNL A   1      32.742  28.256  24.318  1.00  0.00     0.225 C 
ATOM      4  O   UNL A   1      33.509  28.039  23.375  1.00  0.00    -0.275 OA
ATOM      5  H   UNL A   1      32.123  29.920  23.440  1.00  0.00     0.163 HD
BRANCH   3   6
ATOM      6  C   UNL A   1      32.651  27.262  25.464  1.00  0.00     0.102 C 
ATOM      7  C   UNL A   1      30.592  26.187  24.251  1.00  0.00     0.032 C 
ATOM      8  C   UNL A   1      31.436  26.318  25.513  1.00  0.00     0.094 C 
ATOM      9  N   UNL A   1      31.980  25.020  25.947  1.00  0.00    -0.336 N 
ATOM     10  C   UNL A   1      33.906  26.419  25.680  1.00  0.00     0.037 C 
ATOM     11  C   UNL A   1      33.428  25.028  26.046  1.00  0.00     0.121 C 
BRANCH   9  12
ATOM     12  C   UNL A   1      31.309  23.831  26.205  1.00  0.00     0.260 C 
ATOM     13  O   UNL A   1      30.521  23.744  27.150  1.00  0.00    -0.271 OA
BRANCH  12  14
ATOM     14  C   UNL A   1      31.532  22.622  25.282  1.00  0.00     0.329 C 
BRANCH  14  15
ATOM     15  O   UNL A   1      32.333  21.555  25.763  1.00  0.00    -0.480 OA
BRANCH  15  16
ATOM     16  C   UNL A   1      32.461  20.469  24.948  1.00  0.00     0.161 A 
ATOM     17  C   UNL A   1      32.206  20.713  23.597  1.00  0.00     0.050 A 
ATOM     18  C   UNL A   1      32.706  19.160  25.367  1.00  0.00     0.157 A 
ATOM     19  C   UNL A   1      32.245  19.669  22.671  1.00  0.00     0.004 A 
ATOM     20  C   UNL A   1      32.774  18.120  24.444  1.00  0.00     0.050 A 
ATOM     21  C   UNL A   1      32.540  18.374  23.094  1.00  0.00     0.004 A 
BRANCH  18  22
ATOM     22  O   UNL A   1      32.808  18.791  26.675  1.00  0.00    -0.504 OA
ATOM     23  H   UNL A   1      32.390  19.302  27.340  1.00  0.00     0.293 HD
ENDBRANCH  18  22
ENDBRANCH  15  16
ENDBRANCH  14  15
ENDBRANCH  12  14
ENDBRANCH   9  12
ENDBRANCH   3   6
ENDBRANCH   1   2
BRANCH   1  24
ATOM     24  C   UNL A   1      31.845  30.550  26.447  1.00  0.00     0.023 C 
BRANCH  24  25
ATOM     25  C   UNL A   1      31.544  32.004  26.777  1.00  0.00     0.023 C 
BRANCH  25  26
ATOM     26  C   UNL A   1      32.763  32.830  27.144  1.00  0.00     0.116 C 
BRANCH  26  27
ATOM     27  N   UNL A   1      32.425  34.157  27.640  1.00  0.00    -0.352 N 
ATOM     28  C   UNL A   1      33.011  34.871  28.659  1.00  0.00     0.251 C 
ATOM     29  H   UNL A   1      31.675  34.604  27.184  1.00  0.00     0.163 HD
ATOM     30  O   UNL A   1      32.527  35.923  29.047  1.00  0.00    -0.269 OA
BRANCH  28  31
ATOM     31  C   UNL A   1      34.222  34.321  29.299  1.00  0.00     0.039 A 
ATOM     32  C   UNL A   1      34.091  33.548  30.454  1.00  0.00     0.014 A 
ATOM     33  C   UNL A   1      35.473  34.517  28.709  1.00  0.00     0.014 A 
ATOM     34  C   UNL A   1      35.214  32.910  30.979  1.00  0.00     0.010 A 
ATOM     35  C   UNL A   1      36.564  33.799  29.171  1.00  0.00     0.010 A 
ATOM     36  C   UNL A   1      36.451  33.001  30.319  1.00  0.00    -0.014 A 
BRANCH  36  37
ATOM     37  C   UNL A   1      37.659  32.310  30.828  1.00  0.00     0.031 A 
ATOM     38  C   UNL A   1      38.358  32.851  32.045  1.00  0.00     0.074 A 
ATOM     39  C   UNL A   1      38.169  31.259  30.158  1.00  0.00     0.049 A 
ATOM     40  N   UNL A   1      39.485  32.474  32.589  1.00  0.00    -0.248 NA
ATOM     41  C   UNL A   1      37.724  34.002  32.711  1.00  0.00     0.031 C 
ATOM     42  C   UNL A   1      37.614  30.681  28.932  1.00  0.00     0.029 A 
ATOM     43  N   UNL A   1      39.281  30.499  30.411  1.00  0.00    -0.354 N 
ATOM     44  C   UNL A   1      39.708  33.358  33.636  1.00  0.00     0.074 A 
ATOM     45  C   UNL A   1      38.636  34.327  33.613  1.00  0.00     0.031 C 
ATOM     46  C   UNL A   1      38.371  29.637  28.557  1.00  0.00     0.029 A 
ATOM     47  C   UNL A   1      39.481  29.495  29.494  1.00  0.00     0.049 A 
ATOM     48  H   UNL A   1      39.879  30.656  31.176  1.00  0.00     0.167 HD
ATOM     49  C   UNL A   1      40.701  33.345  34.557  1.00  0.00     0.037 A 
ATOM     50  C   UNL A   1      40.451  28.564  29.425  1.00  0.00     0.037 A 
ATOM     51  C   UNL A   1      41.735  32.348  34.605  1.00  0.00     0.049 A 
ATOM     52  C   UNL A   1      41.522  28.546  30.480  1.00  0.00     0.074 A 
ATOM     53  C   UNL A   1      42.751  32.202  35.532  1.00  0.00     0.029 A 
ATOM     54  N   UNL A   1      41.874  31.316  33.689  1.00  0.00    -0.354 N 
ATOM     55  N   UNL A   1      41.690  29.351  31.501  1.00  0.00    -0.248 NA
ATOM     56  C   UNL A   1      42.531  27.483  30.380  1.00  0.00     0.031 C 
ATOM     57  C   UNL A   1      43.522  31.095  35.160  1.00  0.00     0.029 A 
ATOM     58  C   UNL A   1      42.963  30.531  34.025  1.00  0.00     0.049 A 
ATOM     59  H   UNL A   1      41.285  31.164  32.914  1.00  0.00     0.167 HD
ATOM     60  C   UNL A   1      42.803  28.875  32.182  1.00  0.00     0.074 A 
ATOM     61  C   UNL A   1      43.264  27.705  31.463  1.00  0.00     0.031 C 
ATOM     62  C   UNL A   1      43.390  29.361  33.302  1.00  0.00     0.037 A 
BRANCH  49  63
ATOM     63  C   UNL A   1      40.696  34.437  35.586  1.00  0.00     0.057 A 
ATOM     64  C   UNL A   1      41.393  35.637  35.392  1.00  0.00     0.134 A 
ATOM     65  C   UNL A   1      39.986  34.288  36.783  1.00  0.00     0.134 A 
ATOM     66  F   UNL A   1      42.110  35.835  34.275  1.00  0.00    -0.206 F 
ATOM     67  C   UNL A   1      41.413  36.636  36.368  1.00  0.00     0.040 A 
ATOM     68  C   UNL A   1      39.973  35.292  37.752  1.00  0.00     0.040 A 
ATOM     69  F   UNL A   1      39.294  33.166  37.031  1.00  0.00    -0.206 F 
ATOM     70  C   UNL A   1      40.697  36.467  37.551  1.00  0.00     0.006 A 
ENDBRANCH  49  63
BRANCH  50  71
ATOM     71  C   UNL A   1      40.430  27.545  28.346  1.00  0.00     0.057 A 
ATOM     72  C   UNL A   1      41.105  27.765  27.139  1.00  0.00     0.134 A 
ATOM     73  C   UNL A   1      39.740  26.336  28.489  1.00  0.00     0.134 A 
ATOM     74  F   UNL A   1      41.770  28.913  26.938  1.00  0.00    -0.206 F 
ATOM     75  C   UNL A   1      41.080  26.828  26.106  1.00  0.00     0.040 A 
ATOM     76  C   UNL A   1      39.725  25.380  27.471  1.00  0.00     0.040 A 
ATOM     77  F   UNL A   1      39.082  26.062  29.624  1.00  0.00    -0.206 F 
ATOM     78  C   UNL A   1      40.391  25.629  26.272  1.00  0.00     0.006 A 
ENDBRANCH  50  71
BRANCH  62  79
ATOM     79  C   UNL A   1      44.564  28.601  33.843  1.00  0.00     0.057 A 
ATOM     80  C   UNL A   1      44.406  27.536  34.739  1.00  0.00     0.134 A 
ATOM     81  C   UNL A   1      45.864  28.914  33.427  1.00  0.00     0.134 A 
ATOM     82  F   UNL A   1      43.187  27.197  35.183  1.00  0.00    -0.206 F 
ATOM     83  C   UNL A   1      45.505  26.820  35.216  1.00  0.00     0.040 A 
ATOM     84  C   UNL A   1      46.968  28.190  33.879  1.00  0.00     0.040 A 
ATOM     85  F   UNL A   1      46.080  29.917  32.564  1.00  0.00    -0.206 F 
ATOM     86  C   UNL A   1      46.789  27.142  34.781  1.00  0.00     0.006 A 
ENDBRANCH  62  79
ENDBRANCH  36  37
ENDBRANCH  28  31
ENDBRANCH  26  27
ENDBRANCH  25  26
ENDBRANCH  24  25
ENDBRANCH   1  24
TORSDOF 16
ENDMDL
