MODEL 1
REMARK VINA RESULT:     -11.7      0.000      0.000
REMARK SMILES COCC[C@@]1(C(=O)NCCCCNC(=O)c2ccc(-c3c4nc(c(-c5c(F)cccc5F)c5ccc([nH]5)c(-c5c(F)cccc5F)c5nc(c(-c6c(F)cccc6F)c6ccc3[nH]6)C=C5)C=C4)cc2)CCCN(C(=O)NCc2ccc(OC)cc2)C1
REMARK SMILES IDX 9 1 8 2 6 3 7 4 5 6 70 7 86 8 71 9 73 10 72 11 4 12 3 13
REMARK SMILES IDX 2 14 1 15 74 16 75 17 76 18 77 20 78 21 79 22 85 23 80 24
REMARK SMILES IDX 84 25 81 26 82 27 83 28 10 29 11 30 12 31 13 32 14 33 15 35
REMARK SMILES IDX 16 36 17 37 69 38 18 39 68 40 19 41 20 42 21 43 62 44 22 45
REMARK SMILES IDX 67 46 61 47 63 48 23 49 66 50 60 51 59 52 24 54 50 55 33 56
REMARK SMILES IDX 49 57 34 58 37 59 48 60 64 61 35 62 36 63 47 65 65 66 38 67
REMARK SMILES IDX 25 68 26 69 31 70 27 71 28 72 30 73 32 74 29 75 51 76 52 77
REMARK SMILES IDX 57 78 53 79 54 80 56 81 58 82 55 83 39 84 40 85 45 86 41 87
REMARK SMILES IDX 42 88 44 89 46 90 43 91
REMARK H PARENT 8 5 76 19 13 34 63 53 37 64
REMARK Flexibility Score: inf
ROOT
ATOM      1  C   UNL A   1      32.588  29.552  25.629  1.00  0.00     0.116 C 
ENDROOT
BRANCH   1   2
ATOM      2  N   UNL A   1      33.041  29.370  24.271  1.00  0.00    -0.356 N 
ATOM      3  C   UNL A   1      32.546  28.756  23.174  1.00  0.00     0.228 C 
ATOM      4  O   UNL A   1      33.367  28.689  22.248  1.00  0.00    -0.274 OA
ATOM      5  H   UNL A   1      33.914  29.793  24.105  1.00  0.00     0.163 HD
BRANCH   3   6
ATOM      6  C   UNL A   1      31.076  28.326  22.937  1.00  0.00     0.069 C 
ATOM      7  C   UNL A   1      30.201  27.778  24.089  1.00  0.00     0.021 C 
ATOM      8  C   UNL A   1      31.137  27.185  21.880  1.00  0.00     0.138 C 
ATOM      9  C   UNL A   1      30.670  26.424  24.647  1.00  0.00     0.023 C 
ATOM     10  N   UNL A   1      31.743  25.994  22.485  1.00  0.00    -0.324 N 
ATOM     11  C   UNL A   1      30.932  25.403  23.540  1.00  0.00     0.121 C 
BRANCH   6  12
ATOM     12  C   UNL A   1      30.375  29.554  22.277  1.00  0.00     0.047 C 
BRANCH  12  13
ATOM     13  C   UNL A   1      28.841  29.509  22.297  1.00  0.00     0.161 C 
BRANCH  13  14
ATOM     14  O   UNL A   1      28.265  30.017  21.093  1.00  0.00    -0.385 OA
ATOM     15  C   UNL A   1      28.169  31.438  21.059  1.00  0.00     0.194 C 
ENDBRANCH  13  14
ENDBRANCH  12  13
ENDBRANCH   6  12
BRANCH  10  16
ATOM     16  C   UNL A   1      32.953  25.597  21.999  1.00  0.00     0.317 C 
ATOM     17  O   UNL A   1      33.223  25.649  20.794  1.00  0.00    -0.249 OA
ATOM     18  N   UNL A   1      33.957  25.187  22.783  1.00  0.00    -0.334 N 
ATOM     19  H   UNL A   1      34.744  24.916  22.256  1.00  0.00     0.165 HD
BRANCH  18  20
ATOM     20  C   UNL A   1      34.186  25.039  24.200  1.00  0.00     0.153 C 
BRANCH  20  21
ATOM     21  C   UNL A   1      35.284  24.047  24.501  1.00  0.00    -0.028 A 
ATOM     22  C   UNL A   1      35.711  23.114  23.544  1.00  0.00     0.009 A 
ATOM     23  C   UNL A   1      35.941  24.077  25.738  1.00  0.00     0.009 A 
ATOM     24  C   UNL A   1      36.736  22.215  23.831  1.00  0.00     0.047 A 
ATOM     25  C   UNL A   1      36.975  23.175  26.023  1.00  0.00     0.047 A 
ATOM     26  C   UNL A   1      37.373  22.238  25.070  1.00  0.00     0.118 A 
BRANCH  26  27
ATOM     27  O   UNL A   1      38.357  21.301  25.216  1.00  0.00    -0.497 OA
ATOM     28  C   UNL A   1      39.417  21.615  26.108  1.00  0.00     0.278 C 
ENDBRANCH  26  27
ENDBRANCH  20  21
ENDBRANCH  18  20
ENDBRANCH  10  16
ENDBRANCH   3   6
ENDBRANCH   1   2
BRANCH   1  29
ATOM     29  C   UNL A   1      31.635  30.744  25.710  1.00  0.00     0.023 C 
BRANCH  29  30
ATOM     30  C   UNL A   1      31.672  31.491  27.039  1.00  0.00     0.023 C 
BRANCH  30  31
ATOM     31  C   UNL A   1      32.858  32.429  27.206  1.00  0.00     0.116 C 
BRANCH  31  32
ATOM     32  N   UNL A   1      32.475  33.771  27.626  1.00  0.00    -0.352 N 
ATOM     33  C   UNL A   1      33.103  34.580  28.541  1.00  0.00     0.251 C 
ATOM     34  H   UNL A   1      31.670  34.143  27.200  1.00  0.00     0.163 HD
ATOM     35  O   UNL A   1      32.612  35.652  28.878  1.00  0.00    -0.269 OA
BRANCH  33  36
ATOM     36  C   UNL A   1      34.362  34.106  29.139  1.00  0.00     0.039 A 
ATOM     37  C   UNL A   1      34.317  33.408  30.346  1.00  0.00     0.014 A 
ATOM     38  C   UNL A   1      35.565  34.273  28.447  1.00  0.00     0.014 A 
ATOM     39  C   UNL A   1      35.480  32.814  30.832  1.00  0.00     0.010 A 
ATOM     40  C   UNL A   1      36.701  33.610  28.889  1.00  0.00     0.010 A 
ATOM     41  C   UNL A   1      36.670  32.882  30.087  1.00  0.00    -0.014 A 
BRANCH  41  42
ATOM     42  C   UNL A   1      37.905  32.212  30.556  1.00  0.00     0.031 A 
ATOM     43  C   UNL A   1      38.678  32.797  31.703  1.00  0.00     0.074 A 
ATOM     44  C   UNL A   1      38.362  31.125  29.907  1.00  0.00     0.049 A 
ATOM     45  N   UNL A   1      39.810  32.401  32.225  1.00  0.00    -0.248 NA
ATOM     46  C   UNL A   1      38.123  34.012  32.322  1.00  0.00     0.031 C 
ATOM     47  C   UNL A   1      37.734  30.505  28.737  1.00  0.00     0.029 A 
ATOM     48  N   UNL A   1      39.470  30.350  30.137  1.00  0.00    -0.354 N 
ATOM     49  C   UNL A   1      40.111  33.329  33.214  1.00  0.00     0.074 A 
ATOM     50  C   UNL A   1      39.077  34.338  33.180  1.00  0.00     0.031 C 
ATOM     51  C   UNL A   1      38.450  29.430  28.372  1.00  0.00     0.029 A 
ATOM     52  C   UNL A   1      39.599  29.298  29.263  1.00  0.00     0.049 A 
ATOM     53  H   UNL A   1      40.112  30.529  30.861  1.00  0.00     0.167 HD
ATOM     54  C   UNL A   1      41.141  33.323  34.090  1.00  0.00     0.037 A 
ATOM     55  C   UNL A   1      40.536  28.335  29.196  1.00  0.00     0.037 A 
ATOM     56  C   UNL A   1      42.142  32.293  34.147  1.00  0.00     0.049 A 
ATOM     57  C   UNL A   1      41.645  28.325  30.209  1.00  0.00     0.074 A 
ATOM     58  C   UNL A   1      43.191  32.156  35.038  1.00  0.00     0.029 A 
ATOM     59  N   UNL A   1      42.211  31.217  33.275  1.00  0.00    -0.354 N 
ATOM     60  N   UNL A   1      41.879  29.168  31.187  1.00  0.00    -0.248 NA
ATOM     61  C   UNL A   1      42.614  27.223  30.121  1.00  0.00     0.031 C 
ATOM     62  C   UNL A   1      43.912  31.009  34.689  1.00  0.00     0.029 A 
ATOM     63  C   UNL A   1      43.288  30.413  33.604  1.00  0.00     0.049 A 
ATOM     64  H   UNL A   1      41.586  31.050  32.534  1.00  0.00     0.167 HD
ATOM     65  C   UNL A   1      43.001  28.684  31.846  1.00  0.00     0.074 A 
ATOM     66  C   UNL A   1      43.394  27.467  31.164  1.00  0.00     0.031 C 
ATOM     67  C   UNL A   1      43.649  29.198  32.919  1.00  0.00     0.037 A 
BRANCH  54  68
ATOM     68  C   UNL A   1      41.219  34.460  35.065  1.00  0.00     0.057 A 
ATOM     69  C   UNL A   1      40.579  34.407  36.312  1.00  0.00     0.134 A 
ATOM     70  C   UNL A   1      41.946  35.618  34.762  1.00  0.00     0.134 A 
ATOM     71  F   UNL A   1      39.850  33.335  36.656  1.00  0.00    -0.206 F 
ATOM     72  C   UNL A   1      40.635  35.476  37.207  1.00  0.00     0.040 A 
ATOM     73  C   UNL A   1      42.032  36.682  35.661  1.00  0.00     0.040 A 
ATOM     74  F   UNL A   1      42.585  35.732  33.587  1.00  0.00    -0.206 F 
ATOM     75  C   UNL A   1      41.369  36.616  36.885  1.00  0.00     0.006 A 
ENDBRANCH  54  68
BRANCH  55  76
ATOM     76  C   UNL A   1      40.439  27.273  28.165  1.00  0.00     0.057 A 
ATOM     77  C   UNL A   1      41.081  27.413  26.928  1.00  0.00     0.134 A 
ATOM     78  C   UNL A   1      39.709  26.099  28.384  1.00  0.00     0.134 A 
ATOM     79  F   UNL A   1      41.783  28.521  26.653  1.00  0.00    -0.206 F 
ATOM     80  C   UNL A   1      40.982  26.434  25.937  1.00  0.00     0.040 A 
ATOM     81  C   UNL A   1      39.619  25.103  27.410  1.00  0.00     0.040 A 
ATOM     82  F   UNL A   1      39.081  25.901  29.553  1.00  0.00    -0.206 F 
ATOM     83  C   UNL A   1      40.251  25.273  26.180  1.00  0.00     0.006 A 
ENDBRANCH  55  76
BRANCH  67  84
ATOM     84  C   UNL A   1      44.822  28.426  33.444  1.00  0.00     0.057 A 
ATOM     85  C   UNL A   1      46.127  28.682  33.009  1.00  0.00     0.134 A 
ATOM     86  C   UNL A   1      44.644  27.443  34.424  1.00  0.00     0.134 A 
ATOM     87  F   UNL A   1      46.361  29.604  32.063  1.00  0.00    -0.206 F 
ATOM     88  C   UNL A   1      47.216  27.970  33.518  1.00  0.00     0.040 A 
ATOM     89  C   UNL A   1      45.724  26.741  34.957  1.00  0.00     0.040 A 
ATOM     90  F   UNL A   1      43.416  27.157  34.887  1.00  0.00    -0.206 F 
ATOM     91  C   UNL A   1      47.015  27.001  34.500  1.00  0.00     0.006 A 
ENDBRANCH  67  84
ENDBRANCH  41  42
ENDBRANCH  33  36
ENDBRANCH  31  32
ENDBRANCH  30  31
ENDBRANCH  29  30
ENDBRANCH   1  29
TORSDOF 18
ENDMDL
MODEL 2
REMARK VINA RESULT:     -11.6      0.502      6.137
REMARK SMILES COCC[C@@]1(C(=O)NCCCCNC(=O)c2ccc(-c3c4nc(c(-c5c(F)cccc5F)c5ccc([nH]5)c(-c5c(F)cccc5F)c5nc(c(-c6c(F)cccc6F)c6ccc3[nH]6)C=C5)C=C4)cc2)CCCN(C(=O)NCc2ccc(OC)cc2)C1
REMARK SMILES IDX 9 1 8 2 6 3 7 4 5 6 70 7 86 8 71 9 73 10 72 11 4 12 3 13
REMARK SMILES IDX 2 14 1 15 74 16 75 17 76 18 77 20 78 21 79 22 85 23 80 24
REMARK SMILES IDX 84 25 81 26 82 27 83 28 10 29 11 30 12 31 13 32 14 33 15 35
REMARK SMILES IDX 16 36 17 37 69 38 18 39 68 40 19 41 20 42 21 43 62 44 22 45
REMARK SMILES IDX 67 46 61 47 63 48 23 49 66 50 60 51 59 52 24 54 50 55 33 56
REMARK SMILES IDX 49 57 34 58 37 59 48 60 64 61 35 62 36 63 47 65 65 66 38 67
REMARK SMILES IDX 25 68 26 69 31 70 27 71 28 72 30 73 32 74 29 75 51 76 52 77
REMARK SMILES IDX 57 78 53 79 54 80 56 81 58 82 55 83 39 84 40 85 45 86 41 87
REMARK SMILES IDX 42 88 44 89 46 90 43 91
REMARK H PARENT 8 5 76 19 13 34 63 53 37 64
REMARK Flexibility Score: inf
ROOT
ATOM      1  C   UNL A   1      32.677  29.237  25.751  1.00  0.00     0.116 C 
ENDROOT
BRANCH   1   2
ATOM      2  N   UNL A   1      33.166  29.000  24.414  1.00  0.00    -0.356 N 
ATOM      3  C   UNL A   1      32.669  28.408  23.306  1.00  0.00     0.228 C 
ATOM      4  O   UNL A   1      33.517  28.265  22.415  1.00  0.00    -0.274 OA
ATOM      5  H   UNL A   1      34.075  29.353  24.277  1.00  0.00     0.163 HD
BRANCH   3   6
ATOM      6  C   UNL A   1      31.181  28.087  23.017  1.00  0.00     0.069 C 
ATOM      7  C   UNL A   1      30.249  27.524  24.116  1.00  0.00     0.021 C 
ATOM      8  C   UNL A   1      31.194  27.013  21.889  1.00  0.00     0.138 C 
ATOM      9  C   UNL A   1      30.621  26.111  24.593  1.00  0.00     0.023 C 
ATOM     10  N   UNL A   1      31.712  25.751  22.428  1.00  0.00    -0.324 N 
ATOM     11  C   UNL A   1      30.844  25.147  23.428  1.00  0.00     0.121 C 
BRANCH   6  12
ATOM     12  C   UNL A   1      30.571  29.396  22.425  1.00  0.00     0.047 C 
BRANCH  12  13
ATOM     13  C   UNL A   1      29.039  29.416  22.347  1.00  0.00     0.161 C 
BRANCH  13  14
ATOM     14  O   UNL A   1      28.561  30.066  21.168  1.00  0.00    -0.385 OA
ATOM     15  C   UNL A   1      28.411  31.475  21.311  1.00  0.00     0.194 C 
ENDBRANCH  13  14
ENDBRANCH  12  13
ENDBRANCH   6  12
BRANCH  10  16
ATOM     16  C   UNL A   1      32.905  25.310  21.937  1.00  0.00     0.317 C 
ATOM     17  O   UNL A   1      33.139  25.268  20.726  1.00  0.00    -0.249 OA
ATOM     18  N   UNL A   1      33.931  24.954  22.721  1.00  0.00    -0.334 N 
ATOM     19  H   UNL A   1      34.701  24.639  22.194  1.00  0.00     0.165 HD
BRANCH  18  20
ATOM     20  C   UNL A   1      34.201  24.914  24.139  1.00  0.00     0.153 C 
BRANCH  20  21
ATOM     21  C   UNL A   1      35.333  23.975  24.477  1.00  0.00    -0.028 A 
ATOM     22  C   UNL A   1      35.776  23.002  23.567  1.00  0.00     0.009 A 
ATOM     23  C   UNL A   1      36.007  24.096  25.700  1.00  0.00     0.009 A 
ATOM     24  C   UNL A   1      36.834  22.153  23.889  1.00  0.00     0.047 A 
ATOM     25  C   UNL A   1      37.072  23.243  26.019  1.00  0.00     0.047 A 
ATOM     26  C   UNL A   1      37.487  22.267  25.115  1.00  0.00     0.118 A 
BRANCH  26  27
ATOM     27  O   UNL A   1      38.502  21.370  25.297  1.00  0.00    -0.497 OA
ATOM     28  C   UNL A   1      39.502  21.716  26.245  1.00  0.00     0.278 C 
ENDBRANCH  26  27
ENDBRANCH  20  21
ENDBRANCH  18  20
ENDBRANCH  10  16
ENDBRANCH   3   6
ENDBRANCH   1   2
BRANCH   1  29
ATOM     29  C   UNL A   1      31.784  30.477  25.770  1.00  0.00     0.023 C 
BRANCH  29  30
ATOM     30  C   UNL A   1      31.793  31.239  27.091  1.00  0.00     0.023 C 
BRANCH  30  31
ATOM     31  C   UNL A   1      32.955  32.206  27.257  1.00  0.00     0.116 C 
BRANCH  31  32
ATOM     32  N   UNL A   1      32.532  33.573  27.532  1.00  0.00    -0.352 N 
ATOM     33  C   UNL A   1      33.098  34.473  28.401  1.00  0.00     0.251 C 
ATOM     34  H   UNL A   1      31.747  33.891  27.031  1.00  0.00     0.163 HD
ATOM     35  O   UNL A   1      32.575  35.562  28.612  1.00  0.00    -0.269 OA
BRANCH  33  36
ATOM     36  C   UNL A   1      34.328  34.078  29.107  1.00  0.00     0.039 A 
ATOM     37  C   UNL A   1      34.225  33.316  30.272  1.00  0.00     0.014 A 
ATOM     38  C   UNL A   1      35.574  34.384  28.554  1.00  0.00     0.014 A 
ATOM     39  C   UNL A   1      35.382  32.800  30.850  1.00  0.00     0.010 A 
ATOM     40  C   UNL A   1      36.716  33.799  29.083  1.00  0.00     0.010 A 
ATOM     41  C   UNL A   1      36.630  33.008  30.239  1.00  0.00    -0.014 A 
BRANCH  41  42
ATOM     42  C   UNL A   1      37.868  32.424  30.805  1.00  0.00     0.031 A 
ATOM     43  C   UNL A   1      38.458  31.190  30.184  1.00  0.00     0.074 A 
ATOM     44  C   UNL A   1      38.414  32.961  31.912  1.00  0.00     0.049 A 
ATOM     45  N   UNL A   1      39.497  30.491  30.561  1.00  0.00    -0.248 NA
ATOM     46  C   UNL A   1      37.767  30.650  29.002  1.00  0.00     0.031 C 
ATOM     47  C   UNL A   1      37.892  34.118  32.643  1.00  0.00     0.029 A 
ATOM     48  N   UNL A   1      39.531  32.598  32.620  1.00  0.00    -0.354 N 
ATOM     49  C   UNL A   1      39.567  29.419  29.680  1.00  0.00     0.074 A 
ATOM     50  C   UNL A   1      38.435  29.527  28.788  1.00  0.00     0.031 C 
ATOM     51  C   UNL A   1      38.703  34.387  33.678  1.00  0.00     0.029 A 
ATOM     52  C   UNL A   1      39.787  33.409  33.700  1.00  0.00     0.049 A 
ATOM     53  H   UNL A   1      40.097  31.831  32.378  1.00  0.00     0.167 HD
ATOM     54  C   UNL A   1      40.507  28.450  29.603  1.00  0.00     0.037 A 
ATOM     55  C   UNL A   1      40.788  33.368  34.598  1.00  0.00     0.037 A 
ATOM     56  C   UNL A   1      41.654  28.373  30.467  1.00  0.00     0.049 A 
ATOM     57  C   UNL A   1      41.844  32.308  34.464  1.00  0.00     0.074 A 
ATOM     58  C   UNL A   1      42.701  27.471  30.433  1.00  0.00     0.029 A 
ATOM     59  N   UNL A   1      41.905  29.242  31.518  1.00  0.00    -0.354 N 
ATOM     60  N   UNL A   1      41.940  31.343  33.582  1.00  0.00    -0.248 NA
ATOM     61  C   UNL A   1      42.941  32.339  35.443  1.00  0.00     0.031 C 
ATOM     62  C   UNL A   1      43.575  27.778  31.482  1.00  0.00     0.029 A 
ATOM     63  C   UNL A   1      43.089  28.894  32.144  1.00  0.00     0.049 A 
ATOM     64  H   UNL A   1      41.327  29.995  31.779  1.00  0.00     0.167 HD
ATOM     65  C   UNL A   1      43.118  30.671  33.878  1.00  0.00     0.074 A 
ATOM     66  C   UNL A   1      43.709  31.347  35.016  1.00  0.00     0.031 C 
ATOM     67  C   UNL A   1      43.663  29.592  33.266  1.00  0.00     0.037 A 
BRANCH  54  68
ATOM     68  C   UNL A   1      40.335  27.409  28.537  1.00  0.00     0.057 A 
ATOM     69  C   UNL A   1      40.949  27.531  27.283  1.00  0.00     0.134 A 
ATOM     70  C   UNL A   1      39.555  26.269  28.767  1.00  0.00     0.134 A 
ATOM     71  F   UNL A   1      41.694  28.609  26.993  1.00  0.00    -0.206 F 
ATOM     72  C   UNL A   1      40.768  26.572  26.285  1.00  0.00     0.040 A 
ATOM     73  C   UNL A   1      39.389  25.290  27.786  1.00  0.00     0.040 A 
ATOM     74  F   UNL A   1      38.942  26.089  29.946  1.00  0.00    -0.206 F 
ATOM     75  C   UNL A   1      39.991  25.444  26.539  1.00  0.00     0.006 A 
ENDBRANCH  54  68
BRANCH  55  76
ATOM     76  C   UNL A   1      40.867  34.389  35.671  1.00  0.00     0.057 A 
ATOM     77  C   UNL A   1      40.272  34.167  36.919  1.00  0.00     0.134 A 
ATOM     78  C   UNL A   1      41.532  35.605  35.481  1.00  0.00     0.134 A 
ATOM     79  F   UNL A   1      39.607  33.026  37.156  1.00  0.00    -0.206 F 
ATOM     80  C   UNL A   1      40.316  35.125  37.933  1.00  0.00     0.040 A 
ATOM     81  C   UNL A   1      41.603  36.564  36.493  1.00  0.00     0.040 A 
ATOM     82  F   UNL A   1      42.133  35.873  34.311  1.00  0.00    -0.206 F 
ATOM     83  C   UNL A   1      40.987  36.328  37.721  1.00  0.00     0.006 A 
ENDBRANCH  55  76
BRANCH  67  84
ATOM     84  C   UNL A   1      44.981  29.104  33.788  1.00  0.00     0.057 A 
ATOM     85  C   UNL A   1      45.062  28.121  34.781  1.00  0.00     0.134 A 
ATOM     86  C   UNL A   1      46.181  29.597  33.261  1.00  0.00     0.134 A 
ATOM     87  F   UNL A   1      43.948  27.618  35.333  1.00  0.00    -0.206 F 
ATOM     88  C   UNL A   1      46.294  27.658  35.247  1.00  0.00     0.040 A 
ATOM     89  C   UNL A   1      47.417  29.127  33.701  1.00  0.00     0.040 A 
ATOM     90  F   UNL A   1      46.169  30.535  32.301  1.00  0.00    -0.206 F 
ATOM     91  C   UNL A   1      47.476  28.158  34.702  1.00  0.00     0.006 A 
ENDBRANCH  67  84
ENDBRANCH  41  42
ENDBRANCH  33  36
ENDBRANCH  31  32
ENDBRANCH  30  31
ENDBRANCH  29  30
ENDBRANCH   1  29
TORSDOF 18
ENDMDL
MODEL 3
REMARK VINA RESULT:     -11.5      3.865      9.325
REMARK SMILES COCC[C@@]1(C(=O)NCCCCNC(=O)c2ccc(-c3c4nc(c(-c5c(F)cccc5F)c5ccc([nH]5)c(-c5c(F)cccc5F)c5nc(c(-c6c(F)cccc6F)c6ccc3[nH]6)C=C5)C=C4)cc2)CCCN(C(=O)NCc2ccc(OC)cc2)C1
REMARK SMILES IDX 9 1 8 2 6 3 7 4 5 6 70 7 86 8 71 9 73 10 72 11 4 12 3 13
REMARK SMILES IDX 2 14 1 15 74 16 75 17 76 18 77 20 78 21 79 22 85 23 80 24
REMARK SMILES IDX 84 25 81 26 82 27 83 28 10 29 11 30 12 31 13 32 14 33 15 35
REMARK SMILES IDX 16 36 17 37 69 38 18 39 68 40 19 41 20 42 21 43 62 44 22 45
REMARK SMILES IDX 67 46 61 47 63 48 23 49 66 50 60 51 59 52 24 54 50 55 33 56
REMARK SMILES IDX 49 57 34 58 37 59 48 60 64 61 35 62 36 63 47 65 65 66 38 67
REMARK SMILES IDX 25 68 26 69 31 70 27 71 28 72 30 73 32 74 29 75 51 76 52 77
REMARK SMILES IDX 57 78 53 79 54 80 56 81 58 82 55 83 39 84 40 85 45 86 41 87
REMARK SMILES IDX 42 88 44 89 46 90 43 91
REMARK H PARENT 8 5 76 19 13 34 63 53 37 64
REMARK Flexibility Score: inf
ROOT
ATOM      1  C   UNL A   1      36.066  22.949  24.478  1.00  0.00     0.116 C 
ENDROOT
BRANCH   1   2
ATOM      2  N   UNL A   1      35.326  22.586  25.662  1.00  0.00    -0.356 N 
ATOM      3  C   UNL A   1      34.093  22.090  25.902  1.00  0.00     0.228 C 
ATOM      4  O   UNL A   1      33.796  22.100  27.105  1.00  0.00    -0.274 OA
ATOM      5  H   UNL A   1      35.841  22.733  26.488  1.00  0.00     0.163 HD
BRANCH   3   6
ATOM      6  C   UNL A   1      33.161  21.389  24.882  1.00  0.00     0.069 C 
ATOM      7  C   UNL A   1      33.138  21.807  23.392  1.00  0.00     0.021 C 
ATOM      8  C   UNL A   1      31.713  21.622  25.404  1.00  0.00     0.138 C 
ATOM      9  C   UNL A   1      32.597  23.225  23.145  1.00  0.00     0.023 C 
ATOM     10  N   UNL A   1      31.367  23.040  25.257  1.00  0.00    -0.324 N 
ATOM     11  C   UNL A   1      31.276  23.475  23.871  1.00  0.00     0.121 C 
BRANCH   6  12
ATOM     12  C   UNL A   1      33.473  19.864  24.999  1.00  0.00     0.047 C 
BRANCH  12  13
ATOM     13  C   UNL A   1      32.458  18.943  24.309  1.00  0.00     0.161 C 
BRANCH  13  14
ATOM     14  O   UNL A   1      31.993  17.902  25.169  1.00  0.00    -0.385 OA
ATOM     15  C   UNL A   1      33.012  16.989  25.566  1.00  0.00     0.194 C 
ENDBRANCH  13  14
ENDBRANCH  12  13
ENDBRANCH   6  12
BRANCH  10  16
ATOM     16  C   UNL A   1      31.176  23.755  26.402  1.00  0.00     0.317 C 
ATOM     17  O   UNL A   1      30.376  23.396  27.272  1.00  0.00    -0.249 OA
ATOM     18  N   UNL A   1      31.879  24.854  26.704  1.00  0.00    -0.334 N 
ATOM     19  H   UNL A   1      31.587  25.250  27.557  1.00  0.00     0.165 HD
BRANCH  18  20
ATOM     20  C   UNL A   1      32.953  25.608  26.103  1.00  0.00     0.153 C 
BRANCH  20  21
ATOM     21  C   UNL A   1      32.892  27.072  26.461  1.00  0.00    -0.028 A 
ATOM     22  C   UNL A   1      31.720  27.655  26.967  1.00  0.00     0.009 A 
ATOM     23  C   UNL A   1      34.035  27.875  26.344  1.00  0.00     0.009 A 
ATOM     24  C   UNL A   1      31.685  29.007  27.308  1.00  0.00     0.047 A 
ATOM     25  C   UNL A   1      33.998  29.232  26.690  1.00  0.00     0.047 A 
ATOM     26  C   UNL A   1      32.820  29.803  27.171  1.00  0.00     0.118 A 
BRANCH  26  27
ATOM     27  O   UNL A   1      32.641  31.107  27.539  1.00  0.00    -0.497 OA
ATOM     28  C   UNL A   1      33.793  31.939  27.536  1.00  0.00     0.278 C 
ENDBRANCH  26  27
ENDBRANCH  20  21
ENDBRANCH  18  20
ENDBRANCH  10  16
ENDBRANCH   3   6
ENDBRANCH   1   2
BRANCH   1  29
ATOM     29  C   UNL A   1      36.825  21.736  23.941  1.00  0.00     0.023 C 
BRANCH  29  30
ATOM     30  C   UNL A   1      37.233  20.726  25.008  1.00  0.00     0.023 C 
BRANCH  30  31
ATOM     31  C   UNL A   1      38.566  21.016  25.680  1.00  0.00     0.116 C 
BRANCH  31  32
ATOM     32  N   UNL A   1      39.481  19.882  25.657  1.00  0.00    -0.352 N 
ATOM     33  C   UNL A   1      40.809  19.863  26.005  1.00  0.00     0.251 C 
ATOM     34  H   UNL A   1      39.100  19.026  25.359  1.00  0.00     0.163 HD
ATOM     35  O   UNL A   1      41.491  18.857  25.839  1.00  0.00    -0.269 OA
BRANCH  33  36
ATOM     36  C   UNL A   1      41.405  21.097  26.543  1.00  0.00     0.039 A 
ATOM     37  C   UNL A   1      41.918  22.044  25.656  1.00  0.00     0.014 A 
ATOM     38  C   UNL A   1      41.360  21.347  27.918  1.00  0.00     0.014 A 
ATOM     39  C   UNL A   1      42.328  23.281  26.146  1.00  0.00     0.010 A 
ATOM     40  C   UNL A   1      41.690  22.608  28.391  1.00  0.00     0.010 A 
ATOM     41  C   UNL A   1      42.184  23.583  27.511  1.00  0.00    -0.014 A 
BRANCH  41  42
ATOM     42  C   UNL A   1      42.563  24.911  28.046  1.00  0.00     0.031 A 
ATOM     43  C   UNL A   1      44.012  25.237  28.266  1.00  0.00     0.074 A 
ATOM     44  C   UNL A   1      41.603  25.789  28.396  1.00  0.00     0.049 A 
ATOM     45  N   UNL A   1      44.549  26.314  28.779  1.00  0.00    -0.248 NA
ATOM     46  C   UNL A   1      44.987  24.198  27.894  1.00  0.00     0.031 C 
ATOM     47  C   UNL A   1      40.161  25.559  28.291  1.00  0.00     0.029 A 
ATOM     48  N   UNL A   1      41.700  27.054  28.917  1.00  0.00    -0.354 N 
ATOM     49  C   UNL A   1      45.916  26.071  28.812  1.00  0.00     0.074 A 
ATOM     50  C   UNL A   1      46.122  24.726  28.324  1.00  0.00     0.031 C 
ATOM     51  C   UNL A   1      39.509  26.656  28.707  1.00  0.00     0.029 A 
ATOM     52  C   UNL A   1      40.484  27.657  29.129  1.00  0.00     0.049 A 
ATOM     53  H   UNL A   1      42.559  27.490  29.118  1.00  0.00     0.167 HD
ATOM     54  C   UNL A   1      46.912  26.907  29.187  1.00  0.00     0.037 A 
ATOM     55  C   UNL A   1      40.194  28.882  29.605  1.00  0.00     0.037 A 
ATOM     56  C   UNL A   1      46.704  28.258  29.629  1.00  0.00     0.049 A 
ATOM     57  C   UNL A   1      41.320  29.806  29.972  1.00  0.00     0.074 A 
ATOM     58  C   UNL A   1      47.647  29.210  29.970  1.00  0.00     0.029 A 
ATOM     59  N   UNL A   1      45.459  28.850  29.786  1.00  0.00    -0.354 N 
ATOM     60  N   UNL A   1      42.613  29.592  29.931  1.00  0.00    -0.248 NA
ATOM     61  C   UNL A   1      40.948  31.150  30.441  1.00  0.00     0.031 C 
ATOM     62  C   UNL A   1      46.972  30.373  30.358  1.00  0.00     0.029 A 
ATOM     63  C   UNL A   1      45.610  30.154  30.222  1.00  0.00     0.049 A 
ATOM     64  H   UNL A   1      44.598  28.408  29.610  1.00  0.00     0.167 HD
ATOM     65  C   UNL A   1      43.209  30.778  30.337  1.00  0.00     0.074 A 
ATOM     66  C   UNL A   1      42.136  31.713  30.610  1.00  0.00     0.031 C 
ATOM     67  C   UNL A   1      44.525  31.069  30.473  1.00  0.00     0.037 A 
BRANCH  54  68
ATOM     68  C   UNL A   1      48.314  26.378  29.115  1.00  0.00     0.057 A 
ATOM     69  C   UNL A   1      48.912  25.725  30.202  1.00  0.00     0.134 A 
ATOM     70  C   UNL A   1      49.074  26.516  27.947  1.00  0.00     0.134 A 
ATOM     71  F   UNL A   1      48.244  25.578  31.357  1.00  0.00    -0.206 F 
ATOM     72  C   UNL A   1      50.224  25.255  30.141  1.00  0.00     0.040 A 
ATOM     73  C   UNL A   1      50.378  26.025  27.864  1.00  0.00     0.040 A 
ATOM     74  F   UNL A   1      48.562  27.129  26.869  1.00  0.00    -0.206 F 
ATOM     75  C   UNL A   1      50.959  25.399  28.966  1.00  0.00     0.006 A 
ENDBRANCH  54  68
BRANCH  55  76
ATOM     76  C   UNL A   1      38.782  29.323  29.714  1.00  0.00     0.057 A 
ATOM     77  C   UNL A   1      38.091  29.223  30.928  1.00  0.00     0.134 A 
ATOM     78  C   UNL A   1      38.090  29.850  28.619  1.00  0.00     0.134 A 
ATOM     79  F   UNL A   1      38.696  28.712  32.010  1.00  0.00    -0.206 F 
ATOM     80  C   UNL A   1      36.755  29.611  31.043  1.00  0.00     0.040 A 
ATOM     81  C   UNL A   1      36.760  30.262  28.725  1.00  0.00     0.040 A 
ATOM     82  F   UNL A   1      38.701  29.982  27.431  1.00  0.00    -0.206 F 
ATOM     83  C   UNL A   1      36.087  30.136  29.939  1.00  0.00     0.006 A 
ENDBRANCH  55  76
BRANCH  67  84
ATOM     84  C   UNL A   1      44.877  32.464  30.896  1.00  0.00     0.057 A 
ATOM     85  C   UNL A   1      45.047  33.496  29.967  1.00  0.00     0.134 A 
ATOM     86  C   UNL A   1      45.006  32.782  32.254  1.00  0.00     0.134 A 
ATOM     87  F   UNL A   1      44.948  33.250  28.652  1.00  0.00    -0.206 F 
ATOM     88  C   UNL A   1      45.356  34.796  30.372  1.00  0.00     0.040 A 
ATOM     89  C   UNL A   1      45.292  34.081  32.673  1.00  0.00     0.040 A 
ATOM     90  F   UNL A   1      44.846  31.838  33.194  1.00  0.00    -0.206 F 
ATOM     91  C   UNL A   1      45.473  35.092  31.729  1.00  0.00     0.006 A 
ENDBRANCH  67  84
ENDBRANCH  41  42
ENDBRANCH  33  36
ENDBRANCH  31  32
ENDBRANCH  30  31
ENDBRANCH  29  30
ENDBRANCH   1  29
TORSDOF 18
ENDMDL
