MODEL 1
REMARK VINA RESULT:     -12.9      0.000      0.000
REMARK SMILES Cc1ccc(OCC(=O)NNC(=O)[C@H]2CCCC[C@@H]2C(=O)NCCCCNC(=O)c2ccc(-c3c4nc(c(-c5c(F)cccc5F)c5ccc([nH]5)c(-c5c(F)cccc5F)c5nc(c(-c6c(F)cccc6F)c6ccc3[nH]6)C=C5)C=C4)cc2)cc1
REMARK SMILES IDX 23 1 22 2 20 3 21 4 19 6 14 7 15 8 16 9 18 10 17 11 12 12
REMARK SMILES IDX 11 13 13 15 10 16 8 17 9 18 7 20 6 21 5 22 1 23 2 24 3 25
REMARK SMILES IDX 85 26 4 27 84 28 24 29 25 30 26 31 27 32 28 33 29 35 30 36
REMARK SMILES IDX 31 37 83 38 32 39 82 40 33 41 34 42 35 43 76 44 36 45 81 46
REMARK SMILES IDX 75 47 77 48 37 49 80 50 74 51 73 52 38 54 64 55 47 56 63 57
REMARK SMILES IDX 48 58 51 59 62 60 78 61 49 62 50 63 61 65 79 66 52 67 39 68
REMARK SMILES IDX 40 69 45 70 41 71 42 72 44 73 46 74 43 75 65 76 66 77 71 78
REMARK SMILES IDX 67 79 68 80 70 81 72 82 69 83 53 84 54 85 59 86 55 87 56 88
REMARK SMILES IDX 58 89 60 90 57 91
REMARK H PARENT 22 5 11 14 10 19 27 34 77 53 51 64
REMARK Flexibility Score: inf
ROOT
ATOM      1  C   UNL A   1      32.538  29.949  25.528  1.00  0.00     0.116 C 
ENDROOT
BRANCH   1   2
ATOM      2  N   UNL A   1      31.304  29.969  24.756  1.00  0.00    -0.356 N 
ATOM      3  C   UNL A   1      30.691  29.122  23.895  1.00  0.00     0.223 C 
ATOM      4  O   UNL A   1      29.545  29.469  23.568  1.00  0.00    -0.275 OA
ATOM      5  H   UNL A   1      30.792  30.800  24.891  1.00  0.00     0.163 HD
BRANCH   3   6
ATOM      6  C   UNL A   1      31.298  27.873  23.224  1.00  0.00     0.091 C 
ATOM      7  C   UNL A   1      31.078  26.642  24.155  1.00  0.00     0.092 C 
ATOM      8  C   UNL A   1      32.105  26.646  25.310  1.00  0.00     0.014 C 
ATOM      9  C   UNL A   1      33.558  26.763  24.846  1.00  0.00     0.001 C 
ATOM     10  C   UNL A   1      32.742  27.872  22.728  1.00  0.00     0.014 C 
ATOM     11  C   UNL A   1      33.760  27.908  23.864  1.00  0.00     0.001 C 
BRANCH   7  12
ATOM     12  C   UNL A   1      31.116  25.314  23.390  1.00  0.00     0.242 C 
ATOM     13  N   UNL A   1      30.626  24.175  23.971  1.00  0.00    -0.267 N 
ATOM     14  H   UNL A   1      30.608  23.360  23.418  1.00  0.00     0.191 HD
ATOM     15  O   UNL A   1      31.586  25.212  22.256  1.00  0.00    -0.273 OA
BRANCH  13  16
ATOM     16  N   UNL A   1      30.152  24.069  25.269  1.00  0.00    -0.265 N 
ATOM     17  C   UNL A   1      30.794  23.344  26.249  1.00  0.00     0.276 C 
ATOM     18  O   UNL A   1      30.354  23.348  27.400  1.00  0.00    -0.269 OA
ATOM     19  H   UNL A   1      29.317  24.534  25.503  1.00  0.00     0.191 HD
BRANCH  17  20
ATOM     20  C   UNL A   1      32.079  22.590  25.885  1.00  0.00     0.331 C 
BRANCH  20  21
ATOM     21  O   UNL A   1      33.156  23.395  25.429  1.00  0.00    -0.484 OA
BRANCH  21  22
ATOM     22  C   UNL A   1      34.415  22.861  25.475  1.00  0.00     0.120 A 
ATOM     23  C   UNL A   1      38.541  21.598  25.628  1.00  0.00     0.044 C 
ATOM     24  C   UNL A   1      37.107  22.034  25.575  1.00  0.00    -0.051 A 
ATOM     25  C   UNL A   1      36.773  23.382  25.736  1.00  0.00     0.007 A 
ATOM     26  C   UNL A   1      36.082  21.104  25.379  1.00  0.00     0.007 A 
ATOM     27  C   UNL A   1      35.437  23.790  25.683  1.00  0.00     0.047 A 
ATOM     28  C   UNL A   1      34.744  21.514  25.330  1.00  0.00     0.047 A 
ENDBRANCH  21  22
ENDBRANCH  20  21
ENDBRANCH  17  20
ENDBRANCH  13  16
ENDBRANCH   7  12
ENDBRANCH   3   6
ENDBRANCH   1   2
BRANCH   1  29
ATOM     29  C   UNL A   1      32.342  30.273  27.011  1.00  0.00     0.023 C 
BRANCH  29  30
ATOM     30  C   UNL A   1      33.183  31.429  27.554  1.00  0.00     0.023 C 
BRANCH  30  31
ATOM     31  C   UNL A   1      34.681  31.156  27.636  1.00  0.00     0.116 C 
BRANCH  31  32
ATOM     32  N   UNL A   1      35.384  31.812  28.730  1.00  0.00    -0.352 N 
ATOM     33  C   UNL A   1      36.446  31.348  29.501  1.00  0.00     0.251 C 
ATOM     34  H   UNL A   1      35.061  32.713  28.959  1.00  0.00     0.163 HD
ATOM     35  O   UNL A   1      36.879  32.025  30.412  1.00  0.00    -0.269 OA
BRANCH  33  36
ATOM     36  C   UNL A   1      37.138  30.083  29.119  1.00  0.00     0.039 A 
ATOM     37  C   UNL A   1      37.321  29.111  30.108  1.00  0.00     0.014 A 
ATOM     38  C   UNL A   1      37.771  29.943  27.888  1.00  0.00     0.014 A 
ATOM     39  C   UNL A   1      38.339  28.169  29.964  1.00  0.00     0.010 A 
ATOM     40  C   UNL A   1      38.847  29.083  27.782  1.00  0.00     0.010 A 
ATOM     41  C   UNL A   1      39.175  28.247  28.850  1.00  0.00    -0.014 A 
BRANCH  41  42
ATOM     42  C   UNL A   1      40.477  27.594  28.790  1.00  0.00     0.031 A 
ATOM     43  C   UNL A   1      40.595  26.158  28.478  1.00  0.00     0.074 A 
ATOM     44  C   UNL A   1      41.599  28.328  28.971  1.00  0.00     0.049 A 
ATOM     45  N   UNL A   1      41.533  25.397  28.934  1.00  0.00    -0.248 NA
ATOM     46  C   UNL A   1      39.639  25.456  27.632  1.00  0.00     0.031 C 
ATOM     47  C   UNL A   1      42.978  27.906  28.745  1.00  0.00     0.029 A 
ATOM     48  N   UNL A   1      41.713  29.571  29.607  1.00  0.00    -0.354 N 
ATOM     49  C   UNL A   1      41.478  24.210  28.240  1.00  0.00     0.074 A 
ATOM     50  C   UNL A   1      40.241  24.271  27.494  1.00  0.00     0.031 C 
ATOM     51  C   UNL A   1      43.792  28.687  29.473  1.00  0.00     0.029 A 
ATOM     52  C   UNL A   1      42.953  29.553  30.282  1.00  0.00     0.049 A 
ATOM     53  H   UNL A   1      41.061  30.308  29.588  1.00  0.00     0.167 HD
ATOM     54  C   UNL A   1      42.551  23.368  28.250  1.00  0.00     0.037 A 
ATOM     55  C   UNL A   1      43.025  29.675  31.638  1.00  0.00     0.037 A 
ATOM     56  C   UNL A   1      43.646  23.910  29.050  1.00  0.00     0.049 A 
ATOM     57  C   UNL A   1      43.656  28.490  32.331  1.00  0.00     0.074 A 
ATOM     58  C   UNL A   1      44.790  24.612  28.701  1.00  0.00     0.029 A 
ATOM     59  N   UNL A   1      43.510  24.041  30.427  1.00  0.00    -0.354 N 
ATOM     60  N   UNL A   1      43.828  27.326  31.768  1.00  0.00    -0.248 NA
ATOM     61  C   UNL A   1      44.110  28.507  33.719  1.00  0.00     0.031 C 
ATOM     62  C   UNL A   1      45.323  25.199  29.871  1.00  0.00     0.029 A 
ATOM     63  C   UNL A   1      44.512  24.846  30.935  1.00  0.00     0.049 A 
ATOM     64  H   UNL A   1      42.799  23.621  30.964  1.00  0.00     0.167 HD
ATOM     65  C   UNL A   1      44.362  26.448  32.678  1.00  0.00     0.074 A 
ATOM     66  C   UNL A   1      44.547  27.245  33.876  1.00  0.00     0.031 C 
ATOM     67  C   UNL A   1      44.590  25.139  32.358  1.00  0.00     0.037 A 
BRANCH  54  68
ATOM     68  C   UNL A   1      42.715  22.228  27.269  1.00  0.00     0.057 A 
ATOM     69  C   UNL A   1      41.954  21.047  27.383  1.00  0.00     0.134 A 
ATOM     70  C   UNL A   1      43.644  22.217  26.215  1.00  0.00     0.134 A 
ATOM     71  F   UNL A   1      40.935  20.942  28.244  1.00  0.00    -0.206 F 
ATOM     72  C   UNL A   1      42.202  19.902  26.615  1.00  0.00     0.040 A 
ATOM     73  C   UNL A   1      43.940  21.064  25.474  1.00  0.00     0.040 A 
ATOM     74  F   UNL A   1      44.274  23.335  25.832  1.00  0.00    -0.206 F 
ATOM     75  C   UNL A   1      43.231  19.891  25.687  1.00  0.00     0.006 A 
ENDBRANCH  54  68
BRANCH  55  76
ATOM     76  C   UNL A   1      41.952  30.531  32.204  1.00  0.00     0.057 A 
ATOM     77  C   UNL A   1      42.108  31.928  32.142  1.00  0.00     0.134 A 
ATOM     78  C   UNL A   1      40.664  30.044  32.434  1.00  0.00     0.134 A 
ATOM     79  F   UNL A   1      43.319  32.462  31.919  1.00  0.00    -0.206 F 
ATOM     80  C   UNL A   1      41.015  32.797  32.191  1.00  0.00     0.040 A 
ATOM     81  C   UNL A   1      39.562  30.906  32.495  1.00  0.00     0.040 A 
ATOM     82  F   UNL A   1      40.432  28.725  32.483  1.00  0.00    -0.206 F 
ATOM     83  C   UNL A   1      39.732  32.281  32.333  1.00  0.00     0.006 A 
ENDBRANCH  55  76
BRANCH  67  84
ATOM     84  C   UNL A   1      44.993  24.027  33.301  1.00  0.00     0.057 A 
ATOM     85  C   UNL A   1      44.193  22.921  33.620  1.00  0.00     0.134 A 
ATOM     86  C   UNL A   1      46.308  23.979  33.825  1.00  0.00     0.134 A 
ATOM     87  F   UNL A   1      42.966  22.770  33.108  1.00  0.00    -0.206 F 
ATOM     88  C   UNL A   1      44.645  21.876  34.441  1.00  0.00     0.040 A 
ATOM     89  C   UNL A   1      46.786  22.917  34.598  1.00  0.00     0.040 A 
ATOM     90  F   UNL A   1      47.199  24.954  33.592  1.00  0.00    -0.206 F 
ATOM     91  C   UNL A   1      45.948  21.864  34.922  1.00  0.00     0.006 A 
ENDBRANCH  67  84
ENDBRANCH  41  42
ENDBRANCH  33  36
ENDBRANCH  31  32
ENDBRANCH  30  31
ENDBRANCH  29  30
ENDBRANCH   1  29
TORSDOF 16
ENDMDL
MODEL 2
REMARK VINA RESULT:     -12.7      1.859      2.932
REMARK SMILES Cc1ccc(OCC(=O)NNC(=O)[C@H]2CCCC[C@@H]2C(=O)NCCCCNC(=O)c2ccc(-c3c4nc(c(-c5c(F)cccc5F)c5ccc([nH]5)c(-c5c(F)cccc5F)c5nc(c(-c6c(F)cccc6F)c6ccc3[nH]6)C=C5)C=C4)cc2)cc1
REMARK SMILES IDX 23 1 22 2 20 3 21 4 19 6 14 7 15 8 16 9 18 10 17 11 12 12
REMARK SMILES IDX 11 13 13 15 10 16 8 17 9 18 7 20 6 21 5 22 1 23 2 24 3 25
REMARK SMILES IDX 85 26 4 27 84 28 24 29 25 30 26 31 27 32 28 33 29 35 30 36
REMARK SMILES IDX 31 37 83 38 32 39 82 40 33 41 34 42 35 43 76 44 36 45 81 46
REMARK SMILES IDX 75 47 77 48 37 49 80 50 74 51 73 52 38 54 64 55 47 56 63 57
REMARK SMILES IDX 48 58 51 59 62 60 78 61 49 62 50 63 61 65 79 66 52 67 39 68
REMARK SMILES IDX 40 69 45 70 41 71 42 72 44 73 46 74 43 75 65 76 66 77 71 78
REMARK SMILES IDX 67 79 68 80 70 81 72 82 69 83 53 84 54 85 59 86 55 87 56 88
REMARK SMILES IDX 58 89 60 90 57 91
REMARK H PARENT 22 5 11 14 10 19 27 34 77 53 51 64
REMARK Flexibility Score: inf
ROOT
ATOM      1  C   UNL A   1      33.231  28.720  25.056  1.00  0.00     0.116 C 
ENDROOT
BRANCH   1   2
ATOM      2  N   UNL A   1      33.650  27.632  24.185  1.00  0.00    -0.356 N 
ATOM      3  C   UNL A   1      33.631  26.279  24.254  1.00  0.00     0.223 C 
ATOM      4  O   UNL A   1      33.955  25.710  23.200  1.00  0.00    -0.275 OA
ATOM      5  H   UNL A   1      34.043  27.958  23.343  1.00  0.00     0.163 HD
BRANCH   3   6
ATOM      6  C   UNL A   1      33.361  25.413  25.501  1.00  0.00     0.091 C 
ATOM      7  C   UNL A   1      32.987  23.970  25.042  1.00  0.00     0.092 C 
ATOM      8  C   UNL A   1      31.519  23.917  24.563  1.00  0.00     0.014 C 
ATOM      9  C   UNL A   1      30.517  24.476  25.575  1.00  0.00     0.001 C 
ATOM     10  C   UNL A   1      32.375  25.866  26.574  1.00  0.00     0.014 C 
ATOM     11  C   UNL A   1      30.926  25.846  26.095  1.00  0.00     0.001 C 
BRANCH   7  12
ATOM     12  C   UNL A   1      33.248  22.922  26.131  1.00  0.00     0.242 C 
ATOM     13  N   UNL A   1      34.528  22.517  26.398  1.00  0.00    -0.267 N 
ATOM     14  H   UNL A   1      34.655  21.894  27.150  1.00  0.00     0.191 HD
ATOM     15  O   UNL A   1      32.344  22.404  26.788  1.00  0.00    -0.273 OA
BRANCH  13  16
ATOM     16  N   UNL A   1      35.662  22.907  25.702  1.00  0.00    -0.265 N 
ATOM     17  C   UNL A   1      36.449  22.029  24.992  1.00  0.00     0.276 C 
ATOM     18  O   UNL A   1      37.405  22.453  24.339  1.00  0.00    -0.269 OA
ATOM     19  H   UNL A   1      35.916  23.858  25.716  1.00  0.00     0.191 HD
BRANCH  17  20
ATOM     20  C   UNL A   1      36.078  20.540  24.991  1.00  0.00     0.331 C 
BRANCH  20  21
ATOM     21  O   UNL A   1      34.736  20.242  24.636  1.00  0.00    -0.484 OA
BRANCH  21  22
ATOM     22  C   UNL A   1      34.312  18.949  24.778  1.00  0.00     0.120 A 
ATOM     23  C   UNL A   1      32.598  15.035  25.404  1.00  0.00     0.044 C 
ATOM     24  C   UNL A   1      33.196  16.393  25.186  1.00  0.00    -0.051 A 
ATOM     25  C   UNL A   1      32.434  17.544  25.408  1.00  0.00     0.007 A 
ATOM     26  C   UNL A   1      34.515  16.534  24.743  1.00  0.00     0.007 A 
ATOM     27  C   UNL A   1      32.991  18.811  25.209  1.00  0.00     0.047 A 
ATOM     28  C   UNL A   1      35.069  17.803  24.539  1.00  0.00     0.047 A 
ENDBRANCH  21  22
ENDBRANCH  20  21
ENDBRANCH  17  20
ENDBRANCH  13  16
ENDBRANCH   7  12
ENDBRANCH   3   6
ENDBRANCH   1   2
BRANCH   1  29
ATOM     29  C   UNL A   1      34.232  29.038  26.169  1.00  0.00     0.023 C 
BRANCH  29  30
ATOM     30  C   UNL A   1      34.079  30.410  26.828  1.00  0.00     0.023 C 
BRANCH  30  31
ATOM     31  C   UNL A   1      34.252  30.423  28.343  1.00  0.00     0.116 C 
BRANCH  31  32
ATOM     32  N   UNL A   1      35.223  31.378  28.860  1.00  0.00    -0.352 N 
ATOM     33  C   UNL A   1      36.561  31.186  29.191  1.00  0.00     0.251 C 
ATOM     34  H   UNL A   1      34.883  32.292  28.995  1.00  0.00     0.163 HD
ATOM     35  O   UNL A   1      37.211  32.102  29.657  1.00  0.00    -0.269 OA
BRANCH  33  36
ATOM     36  C   UNL A   1      37.229  29.898  28.846  1.00  0.00     0.039 A 
ATOM     37  C   UNL A   1      37.395  28.953  29.864  1.00  0.00     0.014 A 
ATOM     38  C   UNL A   1      37.857  29.710  27.619  1.00  0.00     0.014 A 
ATOM     39  C   UNL A   1      38.396  27.988  29.747  1.00  0.00     0.010 A 
ATOM     40  C   UNL A   1      38.917  28.828  27.538  1.00  0.00     0.010 A 
ATOM     41  C   UNL A   1      39.232  28.017  28.630  1.00  0.00    -0.014 A 
BRANCH  41  42
ATOM     42  C   UNL A   1      40.521  27.339  28.588  1.00  0.00     0.031 A 
ATOM     43  C   UNL A   1      40.612  25.894  28.312  1.00  0.00     0.074 A 
ATOM     44  C   UNL A   1      41.656  28.056  28.754  1.00  0.00     0.049 A 
ATOM     45  N   UNL A   1      41.535  25.127  28.788  1.00  0.00    -0.248 NA
ATOM     46  C   UNL A   1      39.645  25.190  27.481  1.00  0.00     0.031 C 
ATOM     47  C   UNL A   1      43.027  27.603  28.541  1.00  0.00     0.029 A 
ATOM     48  N   UNL A   1      41.793  29.312  29.361  1.00  0.00    -0.354 N 
ATOM     49  C   UNL A   1      41.459  23.924  28.122  1.00  0.00     0.074 A 
ATOM     50  C   UNL A   1      40.224  23.990  27.372  1.00  0.00     0.031 C 
ATOM     51  C   UNL A   1      43.855  28.386  29.252  1.00  0.00     0.029 A 
ATOM     52  C   UNL A   1      43.031  29.286  30.038  1.00  0.00     0.049 A 
ATOM     53  H   UNL A   1      41.155  30.060  29.322  1.00  0.00     0.167 HD
ATOM     54  C   UNL A   1      42.516  23.063  28.155  1.00  0.00     0.037 A 
ATOM     55  C   UNL A   1      43.103  29.440  31.391  1.00  0.00     0.037 A 
ATOM     56  C   UNL A   1      43.620  23.603  28.944  1.00  0.00     0.049 A 
ATOM     57  C   UNL A   1      43.710  28.261  32.114  1.00  0.00     0.074 A 
ATOM     58  C   UNL A   1      44.777  24.275  28.581  1.00  0.00     0.029 A 
ATOM     59  N   UNL A   1      43.484  23.771  30.317  1.00  0.00    -0.354 N 
ATOM     60  N   UNL A   1      43.862  27.081  31.579  1.00  0.00    -0.248 NA
ATOM     61  C   UNL A   1      44.162  28.303  33.502  1.00  0.00     0.031 C 
ATOM     62  C   UNL A   1      45.319  24.881  29.737  1.00  0.00     0.029 A 
ATOM     63  C   UNL A   1      44.500  24.568  30.808  1.00  0.00     0.049 A 
ATOM     64  H   UNL A   1      42.765  23.376  30.862  1.00  0.00     0.167 HD
ATOM     65  C   UNL A   1      44.378  26.215  32.511  1.00  0.00     0.074 A 
ATOM     66  C   UNL A   1      44.575  27.037  33.690  1.00  0.00     0.031 C 
ATOM     67  C   UNL A   1      44.581  24.894  32.223  1.00  0.00     0.037 A 
BRANCH  54  68
ATOM     68  C   UNL A   1      42.660  21.897  27.202  1.00  0.00     0.057 A 
ATOM     69  C   UNL A   1      41.904  20.719  27.365  1.00  0.00     0.134 A 
ATOM     70  C   UNL A   1      43.566  21.858  26.129  1.00  0.00     0.134 A 
ATOM     71  F   UNL A   1      40.904  20.636  28.251  1.00  0.00    -0.206 F 
ATOM     72  C   UNL A   1      42.136  19.554  26.623  1.00  0.00     0.040 A 
ATOM     73  C   UNL A   1      43.847  20.685  25.413  1.00  0.00     0.040 A 
ATOM     74  F   UNL A   1      44.186  22.966  25.701  1.00  0.00    -0.206 F 
ATOM     75  C   UNL A   1      43.145  19.518  25.673  1.00  0.00     0.006 A 
ENDBRANCH  54  68
BRANCH  55  76
ATOM     76  C   UNL A   1      42.046  30.330  31.934  1.00  0.00     0.057 A 
ATOM     77  C   UNL A   1      42.228  31.722  31.841  1.00  0.00     0.134 A 
ATOM     78  C   UNL A   1      40.747  29.873  32.171  1.00  0.00     0.134 A 
ATOM     79  F   UNL A   1      43.451  32.227  31.609  1.00  0.00    -0.206 F 
ATOM     80  C   UNL A   1      41.152  32.612  31.866  1.00  0.00     0.040 A 
ATOM     81  C   UNL A   1      39.662  30.757  32.208  1.00  0.00     0.040 A 
ATOM     82  F   UNL A   1      40.490  28.560  32.249  1.00  0.00    -0.206 F 
ATOM     83  C   UNL A   1      39.859  32.125  32.016  1.00  0.00     0.006 A 
ENDBRANCH  55  76
BRANCH  67  84
ATOM     84  C   UNL A   1      44.962  23.798  33.194  1.00  0.00     0.057 A 
ATOM     85  C   UNL A   1      46.237  23.634  33.753  1.00  0.00     0.134 A 
ATOM     86  C   UNL A   1      43.971  22.929  33.713  1.00  0.00     0.134 A 
ATOM     87  F   UNL A   1      47.250  24.453  33.446  1.00  0.00    -0.206 F 
ATOM     88  C   UNL A   1      46.518  22.647  34.711  1.00  0.00     0.040 A 
ATOM     89  C   UNL A   1      44.228  21.980  34.706  1.00  0.00     0.040 A 
ATOM     90  F   UNL A   1      42.698  22.977  33.293  1.00  0.00    -0.206 F 
ATOM     91  C   UNL A   1      45.512  21.825  35.200  1.00  0.00     0.006 A 
ENDBRANCH  67  84
ENDBRANCH  41  42
ENDBRANCH  33  36
ENDBRANCH  31  32
ENDBRANCH  30  31
ENDBRANCH  29  30
ENDBRANCH   1  29
TORSDOF 16
ENDMDL
MODEL 3
REMARK VINA RESULT:     -12.6      1.389      2.261
REMARK SMILES Cc1ccc(OCC(=O)NNC(=O)[C@H]2CCCC[C@@H]2C(=O)NCCCCNC(=O)c2ccc(-c3c4nc(c(-c5c(F)cccc5F)c5ccc([nH]5)c(-c5c(F)cccc5F)c5nc(c(-c6c(F)cccc6F)c6ccc3[nH]6)C=C5)C=C4)cc2)cc1
REMARK SMILES IDX 23 1 22 2 20 3 21 4 19 6 14 7 15 8 16 9 18 10 17 11 12 12
REMARK SMILES IDX 11 13 13 15 10 16 8 17 9 18 7 20 6 21 5 22 1 23 2 24 3 25
REMARK SMILES IDX 85 26 4 27 84 28 24 29 25 30 26 31 27 32 28 33 29 35 30 36
REMARK SMILES IDX 31 37 83 38 32 39 82 40 33 41 34 42 35 43 76 44 36 45 81 46
REMARK SMILES IDX 75 47 77 48 37 49 80 50 74 51 73 52 38 54 64 55 47 56 63 57
REMARK SMILES IDX 48 58 51 59 62 60 78 61 49 62 50 63 61 65 79 66 52 67 39 68
REMARK SMILES IDX 40 69 45 70 41 71 42 72 44 73 46 74 43 75 65 76 66 77 71 78
REMARK SMILES IDX 67 79 68 80 70 81 72 82 69 83 53 84 54 85 59 86 55 87 56 88
REMARK SMILES IDX 58 89 60 90 57 91
REMARK H PARENT 22 5 11 14 10 19 27 34 77 53 51 64
REMARK Flexibility Score: inf
ROOT
ATOM      1  C   UNL A   1      32.093  29.743  24.839  1.00  0.00     0.116 C 
ENDROOT
BRANCH   1   2
ATOM      2  N   UNL A   1      31.108  29.447  23.809  1.00  0.00    -0.356 N 
ATOM      3  C   UNL A   1      31.010  28.549  22.798  1.00  0.00     0.223 C 
ATOM      4  O   UNL A   1      29.905  28.537  22.234  1.00  0.00    -0.275 OA
ATOM      5  H   UNL A   1      30.326  30.043  23.857  1.00  0.00     0.163 HD
BRANCH   3   6
ATOM      6  C   UNL A   1      32.132  27.653  22.234  1.00  0.00     0.091 C 
ATOM      7  C   UNL A   1      31.940  26.204  22.777  1.00  0.00     0.092 C 
ATOM      8  C   UNL A   1      32.449  26.098  24.232  1.00  0.00     0.014 C 
ATOM      9  C   UNL A   1      33.881  26.600  24.425  1.00  0.00     0.001 C 
ATOM     10  C   UNL A   1      33.599  28.049  22.376  1.00  0.00     0.014 C 
ATOM     11  C   UNL A   1      34.098  27.977  23.816  1.00  0.00     0.001 C 
BRANCH   7  12
ATOM     12  C   UNL A   1      32.607  25.151  21.883  1.00  0.00     0.242 C 
ATOM     13  N   UNL A   1      32.294  23.826  22.035  1.00  0.00    -0.267 N 
ATOM     14  H   UNL A   1      32.694  23.194  21.396  1.00  0.00     0.191 HD
ATOM     15  O   UNL A   1      33.439  25.439  21.022  1.00  0.00    -0.273 OA
BRANCH  13  16
ATOM     16  N   UNL A   1      31.462  23.299  23.011  1.00  0.00    -0.265 N 
ATOM     17  C   UNL A   1      31.929  22.605  24.105  1.00  0.00     0.276 C 
ATOM     18  O   UNL A   1      31.139  22.222  24.970  1.00  0.00    -0.269 OA
ATOM     19  H   UNL A   1      30.491  23.427  22.917  1.00  0.00     0.191 HD
BRANCH  17  20
ATOM     20  C   UNL A   1      33.440  22.375  24.241  1.00  0.00     0.331 C 
BRANCH  20  21
ATOM     21  O   UNL A   1      34.088  23.131  25.253  1.00  0.00    -0.484 OA
BRANCH  21  22
ATOM     22  C   UNL A   1      35.428  22.927  25.441  1.00  0.00     0.120 A 
ATOM     23  C   UNL A   1      39.569  21.844  26.006  1.00  0.00     0.044 C 
ATOM     24  C   UNL A   1      38.132  22.223  25.811  1.00  0.00    -0.051 A 
ATOM     25  C   UNL A   1      37.184  21.250  25.475  1.00  0.00     0.007 A 
ATOM     26  C   UNL A   1      37.715  23.551  25.943  1.00  0.00     0.007 A 
ATOM     27  C   UNL A   1      35.843  21.601  25.296  1.00  0.00     0.047 A 
ATOM     28  C   UNL A   1      36.373  23.901  25.759  1.00  0.00     0.047 A 
ENDBRANCH  21  22
ENDBRANCH  20  21
ENDBRANCH  17  20
ENDBRANCH  13  16
ENDBRANCH   7  12
ENDBRANCH   3   6
ENDBRANCH   1   2
BRANCH   1  29
ATOM     29  C   UNL A   1      31.681  29.275  26.237  1.00  0.00     0.023 C 
BRANCH  29  30
ATOM     30  C   UNL A   1      32.272  30.070  27.403  1.00  0.00     0.023 C 
BRANCH  30  31
ATOM     31  C   UNL A   1      33.725  30.495  27.225  1.00  0.00     0.116 C 
BRANCH  31  32
ATOM     32  N   UNL A   1      34.243  31.413  28.230  1.00  0.00    -0.352 N 
ATOM     33  C   UNL A   1      35.359  31.285  29.051  1.00  0.00     0.251 C 
ATOM     34  H   UNL A   1      33.729  32.245  28.345  1.00  0.00     0.163 HD
ATOM     35  O   UNL A   1      35.614  32.145  29.872  1.00  0.00    -0.269 OA
BRANCH  33  36
ATOM     36  C   UNL A   1      36.315  30.163  28.828  1.00  0.00     0.039 A 
ATOM     37  C   UNL A   1      36.623  29.338  29.916  1.00  0.00     0.014 A 
ATOM     38  C   UNL A   1      37.044  30.050  27.648  1.00  0.00     0.014 A 
ATOM     39  C   UNL A   1      37.817  28.617  29.913  1.00  0.00     0.010 A 
ATOM     40  C   UNL A   1      38.275  29.425  27.679  1.00  0.00     0.010 A 
ATOM     41  C   UNL A   1      38.693  28.769  28.839  1.00  0.00    -0.014 A 
BRANCH  41  42
ATOM     42  C   UNL A   1      40.100  28.396  28.905  1.00  0.00     0.031 A 
ATOM     43  C   UNL A   1      40.565  27.089  28.404  1.00  0.00     0.074 A 
ATOM     44  C   UNL A   1      41.002  29.281  29.385  1.00  0.00     0.049 A 
ATOM     45  N   UNL A   1      41.573  26.448  28.893  1.00  0.00    -0.248 NA
ATOM     46  C   UNL A   1      39.908  26.388  27.310  1.00  0.00     0.031 C 
ATOM     47  C   UNL A   1      42.457  29.176  29.339  1.00  0.00     0.029 A 
ATOM     48  N   UNL A   1      40.758  30.386  30.213  1.00  0.00    -0.354 N 
ATOM     49  C   UNL A   1      41.871  25.420  28.028  1.00  0.00     0.074 A 
ATOM     50  C   UNL A   1      40.764  25.383  27.098  1.00  0.00     0.031 C 
ATOM     51  C   UNL A   1      42.976  29.949  30.306  1.00  0.00     0.029 A 
ATOM     52  C   UNL A   1      41.868  30.478  31.080  1.00  0.00     0.049 A 
ATOM     53  H   UNL A   1      39.972  30.977  30.194  1.00  0.00     0.167 HD
ATOM     54  C   UNL A   1      43.088  24.809  28.095  1.00  0.00     0.037 A 
ATOM     55  C   UNL A   1      41.725  30.360  32.431  1.00  0.00     0.037 A 
ATOM     56  C   UNL A   1      43.921  25.390  29.145  1.00  0.00     0.049 A 
ATOM     57  C   UNL A   1      42.494  29.209  33.034  1.00  0.00     0.074 A 
ATOM     58  C   UNL A   1      44.923  26.347  29.108  1.00  0.00     0.029 A 
ATOM     59  N   UNL A   1      43.571  25.239  30.481  1.00  0.00    -0.354 N 
ATOM     60  N   UNL A   1      42.989  28.222  32.340  1.00  0.00    -0.248 NA
ATOM     61  C   UNL A   1      42.739  29.056  34.466  1.00  0.00     0.031 C 
ATOM     62  C   UNL A   1      45.151  26.800  30.428  1.00  0.00     0.029 A 
ATOM     63  C   UNL A   1      44.297  26.110  31.270  1.00  0.00     0.049 A 
ATOM     64  H   UNL A   1      42.901  24.601  30.817  1.00  0.00     0.167 HD
ATOM     65  C   UNL A   1      43.569  27.308  33.184  1.00  0.00     0.074 A 
ATOM     66  C   UNL A   1      43.411  27.892  34.503  1.00  0.00     0.031 C 
ATOM     67  C   UNL A   1      44.114  26.147  32.713  1.00  0.00     0.037 A 
BRANCH  54  68
ATOM     68  C   UNL A   1      43.626  23.920  26.996  1.00  0.00     0.057 A 
ATOM     69  C   UNL A   1      44.381  24.449  25.929  1.00  0.00     0.134 A 
ATOM     70  C   UNL A   1      43.393  22.538  26.908  1.00  0.00     0.134 A 
ATOM     71  F   UNL A   1      44.808  25.718  25.924  1.00  0.00    -0.206 F 
ATOM     72  C   UNL A   1      44.739  23.699  24.801  1.00  0.00     0.040 A 
ATOM     73  C   UNL A   1      43.698  21.785  25.764  1.00  0.00     0.040 A 
ATOM     74  F   UNL A   1      42.898  21.849  27.944  1.00  0.00    -0.206 F 
ATOM     75  C   UNL A   1      44.356  22.371  24.693  1.00  0.00     0.006 A 
ENDBRANCH  54  68
BRANCH  55  76
ATOM     76  C   UNL A   1      40.426  30.880  32.927  1.00  0.00     0.057 A 
ATOM     77  C   UNL A   1      39.400  29.961  33.213  1.00  0.00     0.134 A 
ATOM     78  C   UNL A   1      40.306  32.159  33.478  1.00  0.00     0.134 A 
ATOM     79  F   UNL A   1      39.457  28.713  32.719  1.00  0.00    -0.206 F 
ATOM     80  C   UNL A   1      38.363  30.261  34.098  1.00  0.00     0.040 A 
ATOM     81  C   UNL A   1      39.264  32.474  34.359  1.00  0.00     0.040 A 
ATOM     82  F   UNL A   1      41.254  33.083  33.271  1.00  0.00    -0.206 F 
ATOM     83  C   UNL A   1      38.314  31.513  34.702  1.00  0.00     0.006 A 
ENDBRANCH  55  76
BRANCH  67  84
ATOM     84  C   UNL A   1      44.613  24.977  33.532  1.00  0.00     0.057 A 
ATOM     85  C   UNL A   1      45.949  24.556  33.592  1.00  0.00     0.134 A 
ATOM     86  C   UNL A   1      43.740  24.306  34.423  1.00  0.00     0.134 A 
ATOM     87  F   UNL A   1      46.912  25.169  32.891  1.00  0.00    -0.206 F 
ATOM     88  C   UNL A   1      46.374  23.513  34.429  1.00  0.00     0.040 A 
ATOM     89  C   UNL A   1      44.163  23.304  35.300  1.00  0.00     0.040 A 
ATOM     90  F   UNL A   1      42.436  24.610  34.498  1.00  0.00    -0.206 F 
ATOM     91  C   UNL A   1      45.484  22.891  35.296  1.00  0.00     0.006 A 
ENDBRANCH  67  84
ENDBRANCH  41  42
ENDBRANCH  33  36
ENDBRANCH  31  32
ENDBRANCH  30  31
ENDBRANCH  29  30
ENDBRANCH   1  29
TORSDOF 16
ENDMDL
