MODEL 1
REMARK VINA RESULT:     -13.4      0.000      0.000
REMARK SMILES O=C(C[C@H]1C(=O)N[NH+]=C2c3ccc(F)cc3N=CN21)NCCCCNC(=O)c1ccc(-c2c3nc(c(-c4c(F)cccc4F)c4ccc([nH]4)c(-c4c(F)cccc4F)c4nc(c(-c5c(F)cccc5F)c5ccc2[nH]5)C=C4)C=C3)cc1
REMARK SMILES IDX 23 1 22 2 21 3 20 4 1 5 2 6 3 8 4 9 5 10 19 11 6 12 7 13
REMARK SMILES IDX 9 14 18 15 8 16 10 18 17 19 11 21 16 22 12 23 15 24 13 25
REMARK SMILES IDX 14 26 24 27 25 28 26 29 27 31 28 32 29 33 81 34 30 35 80 36
REMARK SMILES IDX 31 37 32 38 33 39 74 40 34 41 79 42 73 43 75 44 35 45 78 46
REMARK SMILES IDX 72 47 71 48 36 50 62 51 45 52 61 53 46 54 49 55 60 56 76 57
REMARK SMILES IDX 47 58 48 59 59 61 77 62 50 63 37 64 38 65 43 66 39 67 40 68
REMARK SMILES IDX 42 69 44 70 41 71 63 72 64 73 69 74 65 75 66 76 68 77 70 78
REMARK SMILES IDX 67 79 51 80 52 81 57 82 53 83 54 84 56 85 58 86 55 87
REMARK H PARENT 20 7 7 17 8 20 25 30 75 49 49 60
REMARK Flexibility Score: inf
ROOT
ATOM      1  C   UNL A   1      31.500  32.083  26.638  1.00  0.00     0.023 C 
ENDROOT
BRANCH   1   2
ATOM      2  C   UNL A   1      31.771  30.625  26.256  1.00  0.00     0.023 C 
BRANCH   2   3
ATOM      3  C   UNL A   1      32.801  29.901  27.125  1.00  0.00     0.116 C 
BRANCH   3   4
ATOM      4  N   UNL A   1      33.191  28.626  26.560  1.00  0.00    -0.356 N 
ATOM      5  O   UNL A   1      31.550  27.388  27.568  1.00  0.00    -0.275 OA
ATOM      6  C   UNL A   1      32.524  27.457  26.827  1.00  0.00     0.224 C 
ATOM      7  H   UNL A   1      33.969  28.596  25.957  1.00  0.00     0.163 HD
BRANCH   6   8
ATOM      8  C   UNL A   1      33.075  26.228  26.126  1.00  0.00     0.160 C 
BRANCH   8   9
ATOM      9  C   UNL A   1      31.994  25.581  25.244  1.00  0.00     0.284 C 
ATOM     10  C   UNL A   1      31.010  24.853  26.169  1.00  0.00     0.300 C 
ATOM     11  N   UNL A   1      31.316  26.565  24.376  1.00  0.00    -0.203 N 
ATOM     12  O   UNL A   1      31.388  24.122  27.090  1.00  0.00    -0.267 OA
ATOM     13  N   UNL A   1      29.675  25.001  25.936  1.00  0.00    -0.193 N 
ATOM     14  C   UNL A   1      29.929  26.626  24.381  1.00  0.00     0.309 C 
ATOM     15  C   UNL A   1      32.052  27.327  23.490  1.00  0.00     0.317 C 
ATOM     16  N   UNL A   1      29.125  25.887  25.084  1.00  0.00    -0.169 N 
ATOM     17  H   UNL A   1      29.063  24.412  26.433  1.00  0.00     0.216 HD
ATOM     18  C   UNL A   1      29.319  27.667  23.504  1.00  0.00     0.092 A 
ATOM     19  N   UNL A   1      31.590  28.239  22.697  1.00  0.00    -0.216 NA
ATOM     20  H   UNL A   1      28.149  25.971  24.996  1.00  0.00     0.340 HD
ATOM     21  C   UNL A   1      27.937  27.894  23.495  1.00  0.00     0.022 A 
ATOM     22  C   UNL A   1      30.196  28.462  22.743  1.00  0.00     0.085 A 
ATOM     23  C   UNL A   1      27.424  28.953  22.752  1.00  0.00     0.040 A 
ATOM     24  C   UNL A   1      29.663  29.519  22.005  1.00  0.00     0.068 A 
ATOM     25  C   UNL A   1      28.291  29.762  22.025  1.00  0.00     0.125 A 
ATOM     26  F   UNL A   1      27.796  30.800  21.338  1.00  0.00    -0.207 F 
ENDBRANCH   8   9
ENDBRANCH   6   8
ENDBRANCH   3   4
ENDBRANCH   2   3
ENDBRANCH   1   2
BRANCH   1  27
ATOM     27  C   UNL A   1      32.663  32.819  27.295  1.00  0.00     0.116 C 
BRANCH  27  28
ATOM     28  N   UNL A   1      32.354  34.203  27.626  1.00  0.00    -0.352 N 
ATOM     29  C   UNL A   1      32.964  35.052  28.527  1.00  0.00     0.251 C 
ATOM     30  H   UNL A   1      31.596  34.592  27.132  1.00  0.00     0.163 HD
ATOM     31  O   UNL A   1      32.487  36.154  28.752  1.00  0.00    -0.269 OA
BRANCH  29  32
ATOM     32  C   UNL A   1      34.174  34.607  29.261  1.00  0.00     0.039 A 
ATOM     33  C   UNL A   1      35.441  34.690  28.683  1.00  0.00     0.014 A 
ATOM     34  C   UNL A   1      34.028  34.068  30.543  1.00  0.00     0.014 A 
ATOM     35  C   UNL A   1      36.521  34.061  29.296  1.00  0.00     0.010 A 
ATOM     36  C   UNL A   1      35.135  33.511  31.196  1.00  0.00     0.010 A 
ATOM     37  C   UNL A   1      36.378  33.444  30.549  1.00  0.00    -0.014 A 
BRANCH  37  38
ATOM     38  C   UNL A   1      37.525  32.699  31.136  1.00  0.00     0.031 A 
ATOM     39  C   UNL A   1      38.050  33.051  32.506  1.00  0.00     0.074 A 
ATOM     40  C   UNL A   1      38.058  31.658  30.465  1.00  0.00     0.049 A 
ATOM     41  N   UNL A   1      39.018  32.491  33.190  1.00  0.00    -0.248 NA
ATOM     42  C   UNL A   1      37.411  34.180  33.199  1.00  0.00     0.031 C 
ATOM     43  C   UNL A   1      37.639  31.202  29.138  1.00  0.00     0.029 A 
ATOM     44  N   UNL A   1      39.050  30.778  30.819  1.00  0.00    -0.354 N 
ATOM     45  C   UNL A   1      39.117  33.211  34.375  1.00  0.00     0.074 A 
ATOM     46  C   UNL A   1      38.129  34.264  34.311  1.00  0.00     0.031 C 
ATOM     47  C   UNL A   1      38.333  30.101  28.812  1.00  0.00     0.029 A 
ATOM     48  C   UNL A   1      39.285  29.806  29.877  1.00  0.00     0.049 A 
ATOM     49  H   UNL A   1      39.547  30.839  31.667  1.00  0.00     0.167 HD
ATOM     50  C   UNL A   1      39.945  33.006  35.428  1.00  0.00     0.037 A 
ATOM     51  C   UNL A   1      40.177  28.798  29.865  1.00  0.00     0.037 A 
ATOM     52  C   UNL A   1      40.907  31.938  35.515  1.00  0.00     0.049 A 
ATOM     53  C   UNL A   1      41.112  28.626  31.029  1.00  0.00     0.074 A 
ATOM     54  C   UNL A   1      41.754  31.623  36.565  1.00  0.00     0.029 A 
ATOM     55  N   UNL A   1      41.151  31.010  34.515  1.00  0.00    -0.354 N 
ATOM     56  N   UNL A   1      41.166  29.294  32.155  1.00  0.00    -0.248 NA
ATOM     57  C   UNL A   1      42.120  27.563  30.911  1.00  0.00     0.031 C 
ATOM     58  C   UNL A   1      42.540  30.531  36.184  1.00  0.00     0.029 A 
ATOM     59  C   UNL A   1      42.154  30.140  34.913  1.00  0.00     0.049 A 
ATOM     60  H   UNL A   1      40.682  30.974  33.650  1.00  0.00     0.167 HD
ATOM     61  C   UNL A   1      42.195  28.718  32.887  1.00  0.00     0.074 A 
ATOM     62  C   UNL A   1      42.725  27.634  32.087  1.00  0.00     0.031 C 
ATOM     63  C   UNL A   1      42.665  29.060  34.111  1.00  0.00     0.037 A 
BRANCH  50  64
ATOM     64  C   UNL A   1      39.863  33.966  36.579  1.00  0.00     0.057 A 
ATOM     65  C   UNL A   1      39.049  33.683  37.684  1.00  0.00     0.134 A 
ATOM     66  C   UNL A   1      40.535  35.194  36.570  1.00  0.00     0.134 A 
ATOM     67  F   UNL A   1      38.371  32.527  37.751  1.00  0.00    -0.206 F 
ATOM     68  C   UNL A   1      38.901  34.589  38.734  1.00  0.00     0.040 A 
ATOM     69  C   UNL A   1      40.412  36.101  37.624  1.00  0.00     0.040 A 
ATOM     70  F   UNL A   1      41.339  35.521  35.546  1.00  0.00    -0.206 F 
ATOM     71  C   UNL A   1      39.587  35.803  38.707  1.00  0.00     0.006 A 
ENDBRANCH  50  64
BRANCH  51  72
ATOM     72  C   UNL A   1      40.250  27.871  28.708  1.00  0.00     0.057 A 
ATOM     73  C   UNL A   1      40.999  28.188  27.567  1.00  0.00     0.134 A 
ATOM     74  C   UNL A   1      39.615  26.624  28.739  1.00  0.00     0.134 A 
ATOM     75  F   UNL A   1      41.630  29.367  27.476  1.00  0.00    -0.206 F 
ATOM     76  C   UNL A   1      41.114  27.297  26.500  1.00  0.00     0.040 A 
ATOM     77  C   UNL A   1      39.746  25.713  27.690  1.00  0.00     0.040 A 
ATOM     78  F   UNL A   1      38.903  26.256  29.814  1.00  0.00    -0.206 F 
ATOM     79  C   UNL A   1      40.496  26.051  26.565  1.00  0.00     0.006 A 
ENDBRANCH  51  72
BRANCH  63  80
ATOM     80  C   UNL A   1      43.783  28.229  34.667  1.00  0.00     0.057 A 
ATOM     81  C   UNL A   1      43.511  27.071  35.406  1.00  0.00     0.134 A 
ATOM     82  C   UNL A   1      45.126  28.576  34.475  1.00  0.00     0.134 A 
ATOM     83  F   UNL A   1      42.246  26.686  35.631  1.00  0.00    -0.206 F 
ATOM     84  C   UNL A   1      44.538  26.285  35.932  1.00  0.00     0.040 A 
ATOM     85  C   UNL A   1      46.161  27.785  34.974  1.00  0.00     0.040 A 
ATOM     86  F   UNL A   1      45.451  29.665  33.761  1.00  0.00    -0.206 F 
ATOM     87  C   UNL A   1      45.868  26.637  35.709  1.00  0.00     0.006 A 
ENDBRANCH  63  80
ENDBRANCH  37  38
ENDBRANCH  29  32
ENDBRANCH  27  28
ENDBRANCH   1  27
TORSDOF 12
ENDMDL
MODEL 2
REMARK VINA RESULT:     -13.4      0.247      1.609
REMARK SMILES O=C(C[C@H]1C(=O)N[NH+]=C2c3ccc(F)cc3N=CN21)NCCCCNC(=O)c1ccc(-c2c3nc(c(-c4c(F)cccc4F)c4ccc([nH]4)c(-c4c(F)cccc4F)c4nc(c(-c5c(F)cccc5F)c5ccc2[nH]5)C=C4)C=C3)cc1
REMARK SMILES IDX 23 1 22 2 21 3 20 4 1 5 2 6 3 8 4 9 5 10 19 11 6 12 7 13
REMARK SMILES IDX 9 14 18 15 8 16 10 18 17 19 11 21 16 22 12 23 15 24 13 25
REMARK SMILES IDX 14 26 24 27 25 28 26 29 27 31 28 32 29 33 81 34 30 35 80 36
REMARK SMILES IDX 31 37 32 38 33 39 74 40 34 41 79 42 73 43 75 44 35 45 78 46
REMARK SMILES IDX 72 47 71 48 36 50 62 51 45 52 61 53 46 54 49 55 60 56 76 57
REMARK SMILES IDX 47 58 48 59 59 61 77 62 50 63 37 64 38 65 43 66 39 67 40 68
REMARK SMILES IDX 42 69 44 70 41 71 63 72 64 73 69 74 65 75 66 76 68 77 70 78
REMARK SMILES IDX 67 79 51 80 52 81 57 82 53 83 54 84 56 85 58 86 55 87
REMARK H PARENT 20 7 7 17 8 20 25 30 75 49 49 60
REMARK Flexibility Score: inf
ROOT
ATOM      1  C   UNL A   1      31.518  32.049  26.611  1.00  0.00     0.023 C 
ENDROOT
BRANCH   1   2
ATOM      2  C   UNL A   1      31.791  30.571  26.310  1.00  0.00     0.023 C 
BRANCH   2   3
ATOM      3  C   UNL A   1      32.929  29.939  27.115  1.00  0.00     0.116 C 
BRANCH   3   4
ATOM      4  N   UNL A   1      33.310  28.643  26.593  1.00  0.00    -0.356 N 
ATOM      5  O   UNL A   1      31.599  27.466  27.559  1.00  0.00    -0.275 OA
ATOM      6  C   UNL A   1      32.604  27.496  26.857  1.00  0.00     0.224 C 
ATOM      7  H   UNL A   1      34.111  28.582  26.023  1.00  0.00     0.163 HD
BRANCH   6   8
ATOM      8  C   UNL A   1      33.154  26.240  26.206  1.00  0.00     0.160 C 
BRANCH   8   9
ATOM      9  C   UNL A   1      32.076  25.568  25.337  1.00  0.00     0.284 C 
ATOM     10  C   UNL A   1      31.101  24.847  26.277  1.00  0.00     0.300 C 
ATOM     11  N   UNL A   1      31.387  26.532  24.455  1.00  0.00    -0.203 N 
ATOM     12  O   UNL A   1      31.488  24.135  27.209  1.00  0.00    -0.267 OA
ATOM     13  N   UNL A   1      29.764  24.980  26.045  1.00  0.00    -0.193 N 
ATOM     14  C   UNL A   1      29.999  26.580  24.463  1.00  0.00     0.309 C 
ATOM     15  C   UNL A   1      32.114  27.286  23.555  1.00  0.00     0.317 C 
ATOM     16  N   UNL A   1      29.204  25.846  25.180  1.00  0.00    -0.169 N 
ATOM     17  H   UNL A   1      29.159  24.393  26.553  1.00  0.00     0.216 HD
ATOM     18  C   UNL A   1      29.378  27.602  23.570  1.00  0.00     0.092 A 
ATOM     19  N   UNL A   1      31.641  28.181  22.748  1.00  0.00    -0.216 NA
ATOM     20  H   UNL A   1      28.227  25.920  25.093  1.00  0.00     0.340 HD
ATOM     21  C   UNL A   1      27.994  27.816  23.562  1.00  0.00     0.022 A 
ATOM     22  C   UNL A   1      30.245  28.392  22.794  1.00  0.00     0.085 A 
ATOM     23  C   UNL A   1      27.469  28.858  22.802  1.00  0.00     0.040 A 
ATOM     24  C   UNL A   1      29.700  29.432  22.040  1.00  0.00     0.068 A 
ATOM     25  C   UNL A   1      28.327  29.663  22.060  1.00  0.00     0.125 A 
ATOM     26  F   UNL A   1      27.821  30.685  21.358  1.00  0.00    -0.207 F 
ENDBRANCH   8   9
ENDBRANCH   6   8
ENDBRANCH   3   4
ENDBRANCH   2   3
ENDBRANCH   1   2
BRANCH   1  27
ATOM     27  C   UNL A   1      32.637  32.791  27.333  1.00  0.00     0.116 C 
BRANCH  27  28
ATOM     28  N   UNL A   1      32.311  34.181  27.623  1.00  0.00    -0.352 N 
ATOM     29  C   UNL A   1      32.908  35.062  28.501  1.00  0.00     0.251 C 
ATOM     30  H   UNL A   1      31.551  34.546  27.116  1.00  0.00     0.163 HD
ATOM     31  O   UNL A   1      32.418  36.164  28.693  1.00  0.00    -0.269 OA
BRANCH  29  32
ATOM     32  C   UNL A   1      34.121  34.653  29.251  1.00  0.00     0.039 A 
ATOM     33  C   UNL A   1      35.392  34.765  28.686  1.00  0.00     0.014 A 
ATOM     34  C   UNL A   1      33.975  34.118  30.535  1.00  0.00     0.014 A 
ATOM     35  C   UNL A   1      36.481  34.168  29.315  1.00  0.00     0.010 A 
ATOM     36  C   UNL A   1      35.088  33.593  31.203  1.00  0.00     0.010 A 
ATOM     37  C   UNL A   1      36.340  33.555  30.570  1.00  0.00    -0.014 A 
BRANCH  37  38
ATOM     38  C   UNL A   1      37.499  32.843  31.173  1.00  0.00     0.031 A 
ATOM     39  C   UNL A   1      38.027  33.245  32.529  1.00  0.00     0.074 A 
ATOM     40  C   UNL A   1      38.042  31.788  30.534  1.00  0.00     0.049 A 
ATOM     41  N   UNL A   1      39.006  32.719  33.225  1.00  0.00    -0.248 NA
ATOM     42  C   UNL A   1      37.378  34.388  33.189  1.00  0.00     0.031 C 
ATOM     43  C   UNL A   1      37.621  31.285  29.224  1.00  0.00     0.029 A 
ATOM     44  N   UNL A   1      39.047  30.932  30.909  1.00  0.00    -0.354 N 
ATOM     45  C   UNL A   1      39.102  33.478  34.385  1.00  0.00     0.074 A 
ATOM     46  C   UNL A   1      38.101  34.516  34.293  1.00  0.00     0.031 C 
ATOM     47  C   UNL A   1      38.328  30.183  28.929  1.00  0.00     0.029 A 
ATOM     48  C   UNL A   1      39.289  29.933  29.997  1.00  0.00     0.049 A 
ATOM     49  H   UNL A   1      39.547  31.026  31.752  1.00  0.00     0.167 HD
ATOM     50  C   UNL A   1      39.938  33.317  35.440  1.00  0.00     0.037 A 
ATOM     51  C   UNL A   1      40.193  28.936  30.013  1.00  0.00     0.037 A 
ATOM     52  C   UNL A   1      40.914  32.264  35.556  1.00  0.00     0.049 A 
ATOM     53  C   UNL A   1      41.137  28.814  31.176  1.00  0.00     0.074 A 
ATOM     54  C   UNL A   1      41.770  31.994  36.610  1.00  0.00     0.029 A 
ATOM     55  N   UNL A   1      41.164  31.308  34.584  1.00  0.00    -0.354 N 
ATOM     56  N   UNL A   1      41.188  29.518  32.280  1.00  0.00    -0.248 NA
ATOM     57  C   UNL A   1      42.157  27.759  31.087  1.00  0.00     0.031 C 
ATOM     58  C   UNL A   1      42.568  30.899  36.259  1.00  0.00     0.029 A 
ATOM     59  C   UNL A   1      42.180  30.464  35.004  1.00  0.00     0.049 A 
ATOM     60  H   UNL A   1      40.691  31.239  33.724  1.00  0.00     0.167 HD
ATOM     61  C   UNL A   1      42.229  28.978  33.024  1.00  0.00     0.074 A 
ATOM     62  C   UNL A   1      42.767  27.875  32.256  1.00  0.00     0.031 C 
ATOM     63  C   UNL A   1      42.700  29.365  34.233  1.00  0.00     0.037 A 
BRANCH  50  64
ATOM     64  C   UNL A   1      39.850  34.312  36.560  1.00  0.00     0.057 A 
ATOM     65  C   UNL A   1      40.597  35.497  36.519  1.00  0.00     0.134 A 
ATOM     66  C   UNL A   1      39.079  34.075  37.704  1.00  0.00     0.134 A 
ATOM     67  F   UNL A   1      41.363  35.782  35.455  1.00  0.00    -0.206 F 
ATOM     68  C   UNL A   1      40.586  36.405  37.578  1.00  0.00     0.040 A 
ATOM     69  C   UNL A   1      39.042  34.986  38.761  1.00  0.00     0.040 A 
ATOM     70  F   UNL A   1      38.332  32.964  37.802  1.00  0.00    -0.206 F 
ATOM     71  C   UNL A   1      39.804  36.152  38.703  1.00  0.00     0.006 A 
ENDBRANCH  50  64
BRANCH  51  72
ATOM     72  C   UNL A   1      40.272  27.974  28.885  1.00  0.00     0.057 A 
ATOM     73  C   UNL A   1      39.578  26.758  28.914  1.00  0.00     0.134 A 
ATOM     74  C   UNL A   1      41.001  28.275  27.729  1.00  0.00     0.134 A 
ATOM     75  F   UNL A   1      38.861  26.413  29.994  1.00  0.00    -0.206 F 
ATOM     76  C   UNL A   1      39.605  25.876  27.834  1.00  0.00     0.040 A 
ATOM     77  C   UNL A   1      41.015  27.414  26.630  1.00  0.00     0.040 A 
ATOM     78  F   UNL A   1      41.668  29.435  27.634  1.00  0.00    -0.206 F 
ATOM     79  C   UNL A   1      40.317  26.209  26.684  1.00  0.00     0.006 A 
ENDBRANCH  51  72
BRANCH  63  80
ATOM     80  C   UNL A   1      43.831  28.565  34.810  1.00  0.00     0.057 A 
ATOM     81  C   UNL A   1      45.160  28.943  34.583  1.00  0.00     0.134 A 
ATOM     82  C   UNL A   1      43.604  27.421  35.585  1.00  0.00     0.134 A 
ATOM     83  F   UNL A   1      45.445  30.025  33.844  1.00  0.00    -0.206 F 
ATOM     84  C   UNL A   1      46.225  28.211  35.111  1.00  0.00     0.040 A 
ATOM     85  C   UNL A   1      44.661  26.696  36.139  1.00  0.00     0.040 A 
ATOM     86  F   UNL A   1      42.353  27.018  35.852  1.00  0.00    -0.206 F 
ATOM     87  C   UNL A   1      45.976  27.089  35.899  1.00  0.00     0.006 A 
ENDBRANCH  63  80
ENDBRANCH  37  38
ENDBRANCH  29  32
ENDBRANCH  27  28
ENDBRANCH   1  27
TORSDOF 12
ENDMDL
MODEL 3
REMARK VINA RESULT:     -13.3      0.385      6.094
REMARK SMILES O=C(C[C@H]1C(=O)N[NH+]=C2c3ccc(F)cc3N=CN21)NCCCCNC(=O)c1ccc(-c2c3nc(c(-c4c(F)cccc4F)c4ccc([nH]4)c(-c4c(F)cccc4F)c4nc(c(-c5c(F)cccc5F)c5ccc2[nH]5)C=C4)C=C3)cc1
REMARK SMILES IDX 23 1 22 2 21 3 20 4 1 5 2 6 3 8 4 9 5 10 19 11 6 12 7 13
REMARK SMILES IDX 9 14 18 15 8 16 10 18 17 19 11 21 16 22 12 23 15 24 13 25
REMARK SMILES IDX 14 26 24 27 25 28 26 29 27 31 28 32 29 33 81 34 30 35 80 36
REMARK SMILES IDX 31 37 32 38 33 39 74 40 34 41 79 42 73 43 75 44 35 45 78 46
REMARK SMILES IDX 72 47 71 48 36 50 62 51 45 52 61 53 46 54 49 55 60 56 76 57
REMARK SMILES IDX 47 58 48 59 59 61 77 62 50 63 37 64 38 65 43 66 39 67 40 68
REMARK SMILES IDX 42 69 44 70 41 71 63 72 64 73 69 74 65 75 66 76 68 77 70 78
REMARK SMILES IDX 67 79 51 80 52 81 57 82 53 83 54 84 56 85 58 86 55 87
REMARK H PARENT 20 7 7 17 8 20 25 30 75 49 49 60
REMARK Flexibility Score: inf
ROOT
ATOM      1  C   UNL A   1      31.519  32.084  26.631  1.00  0.00     0.023 C 
ENDROOT
BRANCH   1   2
ATOM      2  C   UNL A   1      31.778  30.612  26.294  1.00  0.00     0.023 C 
BRANCH   2   3
ATOM      3  C   UNL A   1      32.871  29.934  27.122  1.00  0.00     0.116 C 
BRANCH   3   4
ATOM      4  N   UNL A   1      33.250  28.647  26.575  1.00  0.00    -0.356 N 
ATOM      5  O   UNL A   1      31.522  27.459  27.495  1.00  0.00    -0.275 OA
ATOM      6  C   UNL A   1      32.534  27.499  26.804  1.00  0.00     0.224 C 
ATOM      7  H   UNL A   1      34.057  28.594  26.012  1.00  0.00     0.163 HD
BRANCH   6   8
ATOM      8  C   UNL A   1      33.083  26.254  26.130  1.00  0.00     0.160 C 
BRANCH   8   9
ATOM      9  C   UNL A   1      32.006  25.603  25.245  1.00  0.00     0.284 C 
ATOM     10  C   UNL A   1      31.025  24.869  26.168  1.00  0.00     0.300 C 
ATOM     11  N   UNL A   1      31.324  26.585  24.377  1.00  0.00    -0.203 N 
ATOM     12  O   UNL A   1      31.405  24.138  27.089  1.00  0.00    -0.267 OA
ATOM     13  N   UNL A   1      29.689  25.010  25.934  1.00  0.00    -0.193 N 
ATOM     14  C   UNL A   1      29.937  26.638  24.381  1.00  0.00     0.309 C 
ATOM     15  C   UNL A   1      32.058  27.351  23.494  1.00  0.00     0.317 C 
ATOM     16  N   UNL A   1      29.136  25.894  25.082  1.00  0.00    -0.169 N 
ATOM     17  H   UNL A   1      29.079  24.417  26.429  1.00  0.00     0.216 HD
ATOM     18  C   UNL A   1      29.323  27.677  23.504  1.00  0.00     0.092 A 
ATOM     19  N   UNL A   1      31.591  28.263  22.702  1.00  0.00    -0.216 NA
ATOM     20  H   UNL A   1      28.159  25.974  24.992  1.00  0.00     0.340 HD
ATOM     21  C   UNL A   1      27.939  27.897  23.494  1.00  0.00     0.022 A 
ATOM     22  C   UNL A   1      30.197  28.478  22.746  1.00  0.00     0.085 A 
ATOM     23  C   UNL A   1      27.422  28.955  22.751  1.00  0.00     0.040 A 
ATOM     24  C   UNL A   1      29.659  29.533  22.008  1.00  0.00     0.068 A 
ATOM     25  C   UNL A   1      28.286  29.769  22.027  1.00  0.00     0.125 A 
ATOM     26  F   UNL A   1      27.787  30.806  21.341  1.00  0.00    -0.207 F 
ENDBRANCH   8   9
ENDBRANCH   6   8
ENDBRANCH   3   4
ENDBRANCH   2   3
ENDBRANCH   1   2
BRANCH   1  27
ATOM     27  C   UNL A   1      32.656  32.805  27.347  1.00  0.00     0.116 C 
BRANCH  27  28
ATOM     28  N   UNL A   1      32.359  34.202  27.635  1.00  0.00    -0.352 N 
ATOM     29  C   UNL A   1      32.940  35.056  28.550  1.00  0.00     0.251 C 
ATOM     30  H   UNL A   1      31.636  34.595  27.095  1.00  0.00     0.163 HD
ATOM     31  O   UNL A   1      32.475  36.172  28.729  1.00  0.00    -0.269 OA
BRANCH  29  32
ATOM     32  C   UNL A   1      34.101  34.603  29.353  1.00  0.00     0.039 A 
ATOM     33  C   UNL A   1      35.384  34.556  28.807  1.00  0.00     0.014 A 
ATOM     34  C   UNL A   1      33.891  34.188  30.672  1.00  0.00     0.014 A 
ATOM     35  C   UNL A   1      36.407  33.918  29.502  1.00  0.00     0.010 A 
ATOM     36  C   UNL A   1      34.944  33.622  31.401  1.00  0.00     0.010 A 
ATOM     37  C   UNL A   1      36.195  33.422  30.799  1.00  0.00    -0.014 A 
BRANCH  37  38
ATOM     38  C   UNL A   1      37.278  32.661  31.479  1.00  0.00     0.031 A 
ATOM     39  C   UNL A   1      37.997  31.543  30.764  1.00  0.00     0.074 A 
ATOM     40  C   UNL A   1      37.664  33.014  32.722  1.00  0.00     0.049 A 
ATOM     41  N   UNL A   1      38.986  30.793  31.186  1.00  0.00    -0.248 NA
ATOM     42  C   UNL A   1      37.549  31.221  29.401  1.00  0.00     0.031 C 
ATOM     43  C   UNL A   1      37.062  34.082  33.523  1.00  0.00     0.029 A 
ATOM     44  N   UNL A   1      38.670  32.530  33.519  1.00  0.00    -0.354 N 
ATOM     45  C   UNL A   1      39.259  29.902  30.155  1.00  0.00     0.074 A 
ATOM     46  C   UNL A   1      38.317  30.185  29.095  1.00  0.00     0.031 C 
ATOM     47  C   UNL A   1      37.741  34.203  34.674  1.00  0.00     0.029 A 
ATOM     48  C   UNL A   1      38.787  33.188  34.719  1.00  0.00     0.049 A 
ATOM     49  H   UNL A   1      39.253  31.781  33.255  1.00  0.00     0.167 HD
ATOM     50  C   UNL A   1      40.215  28.943  30.089  1.00  0.00     0.037 A 
ATOM     51  C   UNL A   1      39.633  32.988  35.747  1.00  0.00     0.037 A 
ATOM     52  C   UNL A   1      41.179  28.679  31.125  1.00  0.00     0.049 A 
ATOM     53  C   UNL A   1      40.651  31.886  35.661  1.00  0.00     0.074 A 
ATOM     54  C   UNL A   1      42.216  27.760  31.125  1.00  0.00     0.029 A 
ATOM     55  N   UNL A   1      41.226  29.332  32.347  1.00  0.00    -0.354 N 
ATOM     56  N   UNL A   1      40.917  31.079  34.664  1.00  0.00    -0.248 NA
ATOM     57  C   UNL A   1      41.482  31.663  36.853  1.00  0.00     0.031 C 
ATOM     58  C   UNL A   1      42.864  27.828  32.363  1.00  0.00     0.029 A 
ATOM     59  C   UNL A   1      42.256  28.817  33.117  1.00  0.00     0.049 A 
ATOM     60  H   UNL A   1      40.617  30.053  32.626  1.00  0.00     0.167 HD
ATOM     61  C   UNL A   1      41.957  30.269  35.100  1.00  0.00     0.074 A 
ATOM     62  C   UNL A   1      42.289  30.697  36.443  1.00  0.00     0.031 C 
ATOM     63  C   UNL A   1      42.580  29.258  34.449  1.00  0.00     0.037 A 
BRANCH  50  64
ATOM     64  C   UNL A   1      40.265  28.090  28.855  1.00  0.00     0.057 A 
ATOM     65  C   UNL A   1      39.615  26.849  28.822  1.00  0.00     0.134 A 
ATOM     66  C   UNL A   1      41.003  28.462  27.725  1.00  0.00     0.134 A 
ATOM     67  F   UNL A   1      38.897  26.429  29.875  1.00  0.00    -0.206 F 
ATOM     68  C   UNL A   1      39.704  26.007  27.714  1.00  0.00     0.040 A 
ATOM     69  C   UNL A   1      41.082  27.638  26.601  1.00  0.00     0.040 A 
ATOM     70  F   UNL A   1      41.640  29.643  27.689  1.00  0.00    -0.206 F 
ATOM     71  C   UNL A   1      40.438  26.402  26.597  1.00  0.00     0.006 A 
ENDBRANCH  50  64
BRANCH  51  72
ATOM     72  C   UNL A   1      39.552  33.835  36.964  1.00  0.00     0.057 A 
ATOM     73  C   UNL A   1      40.216  35.065  37.040  1.00  0.00     0.134 A 
ATOM     74  C   UNL A   1      38.764  33.455  38.057  1.00  0.00     0.134 A 
ATOM     75  F   UNL A   1      40.986  35.484  36.026  1.00  0.00    -0.206 F 
ATOM     76  C   UNL A   1      40.099  35.889  38.160  1.00  0.00     0.040 A 
ATOM     77  C   UNL A   1      38.616  34.282  39.171  1.00  0.00     0.040 A 
ATOM     78  F   UNL A   1      38.087  32.298  38.031  1.00  0.00    -0.206 F 
ATOM     79  C   UNL A   1      39.288  35.502  39.225  1.00  0.00     0.006 A 
ENDBRANCH  51  72
BRANCH  63  80
ATOM     80  C   UNL A   1      43.703  28.573  35.171  1.00  0.00     0.057 A 
ATOM     81  C   UNL A   1      43.454  27.463  35.987  1.00  0.00     0.134 A 
ATOM     82  C   UNL A   1      45.028  29.015  35.062  1.00  0.00     0.134 A 
ATOM     83  F   UNL A   1      42.207  26.994  36.139  1.00  0.00    -0.206 F 
ATOM     84  C   UNL A   1      44.486  26.813  36.666  1.00  0.00     0.040 A 
ATOM     85  C   UNL A   1      46.070  28.358  35.716  1.00  0.00     0.040 A 
ATOM     86  F   UNL A   1      45.332  30.063  34.282  1.00  0.00    -0.206 F 
ATOM     87  C   UNL A   1      45.799  27.255  36.525  1.00  0.00     0.006 A 
ENDBRANCH  63  80
ENDBRANCH  37  38
ENDBRANCH  29  32
ENDBRANCH  27  28
ENDBRANCH   1  27
TORSDOF 12
ENDMDL
