MODEL 1
REMARK VINA RESULT:     -11.7      0.000      0.000
REMARK SMILES C[C@H](NC(=O)N1CC[C@@H](C(=O)NCCCCNC(=O)c2ccc(-c3c4nc(c(-c5c(F)cccc5F)c5ccc([nH]5)c(-c5c(F)cccc5F)c5nc(c(-c6c(F)cccc6F)c6ccc3[nH]6)C=C5)C=C4)cc2)[C@H]1C)c1ccc(Cl)cc1
REMARK SMILES IDX 14 1 13 2 12 3 10 4 11 5 9 7 6 8 7 9 74 10 8 11 75 12 4 13
REMARK SMILES IDX 3 14 5 16 2 17 1 18 76 19 77 20 82 21 78 22 81 23 79 24
REMARK SMILES IDX 80 25 15 26 16 27 17 28 18 29 19 31 20 32 21 33 73 34 22 35
REMARK SMILES IDX 72 36 23 37 24 38 25 39 66 40 26 41 71 42 65 43 67 44 27 45
REMARK SMILES IDX 70 46 64 47 63 48 28 50 54 51 37 52 53 53 38 54 41 55 52 56
REMARK SMILES IDX 68 57 39 58 40 59 51 61 69 62 42 63 29 64 30 65 35 66 31 67
REMARK SMILES IDX 32 68 34 69 36 70 33 71 55 72 56 73 61 74 57 75 58 76 60 77
REMARK SMILES IDX 62 78 59 79 43 80 44 81 49 82 45 83 46 84 48 85 50 86 47 87
REMARK H PARENT 12 6 3 15 17 30 67 49 41 60
REMARK Flexibility Score: inf
ROOT
ATOM      1  C   UNL A   1      39.036  22.738  26.109  1.00  0.00     0.023 C 
ENDROOT
BRANCH   1   2
ATOM      2  C   UNL A   1      37.784  23.601  25.975  1.00  0.00     0.116 C 
BRANCH   2   3
ATOM      3  N   UNL A   1      37.216  23.555  24.644  1.00  0.00    -0.356 N 
ATOM      4  C   UNL A   1      35.975  23.205  24.217  1.00  0.00     0.225 C 
ATOM      5  O   UNL A   1      35.774  23.252  22.999  1.00  0.00    -0.275 OA
ATOM      6  H   UNL A   1      37.834  23.823  23.926  1.00  0.00     0.163 HD
BRANCH   4   7
ATOM      7  C   UNL A   1      34.855  22.758  25.150  1.00  0.00     0.102 C 
ATOM      8  N   UNL A   1      32.553  23.488  25.339  1.00  0.00    -0.321 N 
ATOM      9  C   UNL A   1      32.555  22.053  25.056  1.00  0.00     0.122 C 
ATOM     10  C   UNL A   1      33.927  23.837  25.744  1.00  0.00     0.096 C 
ATOM     11  C   UNL A   1      33.945  21.676  24.579  1.00  0.00     0.037 C 
ATOM     12  C   UNL A   1      34.318  25.272  25.462  1.00  0.00     0.032 C 
BRANCH   8  13
ATOM     13  C   UNL A   1      31.533  23.859  26.182  1.00  0.00     0.318 C 
ATOM     14  N   UNL A   1      30.791  24.954  25.970  1.00  0.00    -0.331 N 
ATOM     15  H   UNL A   1      30.070  24.990  26.638  1.00  0.00     0.165 HD
ATOM     16  O   UNL A   1      31.220  23.168  27.155  1.00  0.00    -0.249 OA
BRANCH  14  17
ATOM     17  C   UNL A   1      30.685  26.112  25.088  1.00  0.00     0.111 C 
ATOM     18  C   UNL A   1      29.393  26.257  24.296  1.00  0.00     0.036 C 
BRANCH  17  19
ATOM     19  C   UNL A   1      31.159  27.439  25.649  1.00  0.00    -0.026 A 
ATOM     20  C   UNL A   1      31.303  28.577  24.845  1.00  0.00     0.007 A 
ATOM     21  C   UNL A   1      31.598  27.504  26.984  1.00  0.00     0.007 A 
ATOM     22  C   UNL A   1      31.906  29.735  25.349  1.00  0.00     0.021 A 
ATOM     23  C   UNL A   1      32.195  28.661  27.492  1.00  0.00     0.021 A 
ATOM     24  C   UNL A   1      32.357  29.768  26.667  1.00  0.00     0.041 A 
ATOM     25  Cl  UNL A   1      33.133  31.177  27.277  1.00  0.00    -0.084 Cl
ENDBRANCH  17  19
ENDBRANCH  14  17
ENDBRANCH   8  13
ENDBRANCH   4   7
ENDBRANCH   2   3
ENDBRANCH   1   2
BRANCH   1  26
ATOM     26  C   UNL A   1      38.942  21.343  25.514  1.00  0.00     0.023 C 
BRANCH  26  27
ATOM     27  C   UNL A   1      39.326  20.214  26.455  1.00  0.00     0.116 C 
BRANCH  27  28
ATOM     28  N   UNL A   1      40.419  19.390  25.965  1.00  0.00    -0.352 N 
ATOM     29  C   UNL A   1      41.772  19.672  25.915  1.00  0.00     0.251 C 
ATOM     30  H   UNL A   1      40.158  18.505  25.621  1.00  0.00     0.163 HD
ATOM     31  O   UNL A   1      42.548  18.895  25.394  1.00  0.00    -0.269 OA
BRANCH  29  32
ATOM     32  C   UNL A   1      42.247  20.959  26.465  1.00  0.00     0.039 A 
ATOM     33  C   UNL A   1      42.640  21.967  25.583  1.00  0.00     0.014 A 
ATOM     34  C   UNL A   1      42.224  21.190  27.840  1.00  0.00     0.014 A 
ATOM     35  C   UNL A   1      42.923  23.242  26.080  1.00  0.00     0.010 A 
ATOM     36  C   UNL A   1      42.400  22.479  28.320  1.00  0.00     0.010 A 
ATOM     37  C   UNL A   1      42.756  23.519  27.446  1.00  0.00    -0.014 A 
BRANCH  37  38
ATOM     38  C   UNL A   1      42.971  24.878  28.002  1.00  0.00     0.031 A 
ATOM     39  C   UNL A   1      44.350  25.286  28.445  1.00  0.00     0.074 A 
ATOM     40  C   UNL A   1      41.925  25.707  28.190  1.00  0.00     0.049 A 
ATOM     41  N   UNL A   1      44.732  26.367  29.077  1.00  0.00    -0.248 NA
ATOM     42  C   UNL A   1      45.438  24.330  28.183  1.00  0.00     0.031 C 
ATOM     43  C   UNL A   1      40.530  25.407  27.859  1.00  0.00     0.029 A 
ATOM     44  N   UNL A   1      41.873  26.971  28.722  1.00  0.00    -0.354 N 
ATOM     45  C   UNL A   1      46.090  26.201  29.314  1.00  0.00     0.074 A 
ATOM     46  C   UNL A   1      46.455  24.895  28.815  1.00  0.00     0.031 C 
ATOM     47  C   UNL A   1      39.766  26.469  28.166  1.00  0.00     0.029 A 
ATOM     48  C   UNL A   1      40.608  27.508  28.749  1.00  0.00     0.049 A 
ATOM     49  H   UNL A   1      42.668  27.450  29.051  1.00  0.00     0.167 HD
ATOM     50  C   UNL A   1      46.965  27.073  29.868  1.00  0.00     0.037 A 
ATOM     51  C   UNL A   1      40.180  28.703  29.197  1.00  0.00     0.037 A 
ATOM     52  C   UNL A   1      46.613  28.395  30.309  1.00  0.00     0.049 A 
ATOM     53  C   UNL A   1      41.179  29.669  29.773  1.00  0.00     0.074 A 
ATOM     54  C   UNL A   1      47.436  29.380  30.825  1.00  0.00     0.029 A 
ATOM     55  N   UNL A   1      45.331  28.920  30.269  1.00  0.00    -0.354 N 
ATOM     56  N   UNL A   1      42.471  29.522  29.940  1.00  0.00    -0.248 NA
ATOM     57  C   UNL A   1      40.662  30.972  30.216  1.00  0.00     0.031 C 
ATOM     58  C   UNL A   1      46.645  30.497  31.118  1.00  0.00     0.029 A 
ATOM     59  C   UNL A   1      45.338  30.217  30.754  1.00  0.00     0.049 A 
ATOM     60  H   UNL A   1      44.533  28.442  29.945  1.00  0.00     0.167 HD
ATOM     61  C   UNL A   1      42.924  30.719  30.477  1.00  0.00     0.074 A 
ATOM     62  C   UNL A   1      41.772  31.588  30.597  1.00  0.00     0.031 C 
ATOM     63  C   UNL A   1      44.182  31.069  30.840  1.00  0.00     0.037 A 
BRANCH  50  64
ATOM     64  C   UNL A   1      48.391  26.627  30.001  1.00  0.00     0.057 A 
ATOM     65  C   UNL A   1      49.343  26.898  29.009  1.00  0.00     0.134 A 
ATOM     66  C   UNL A   1      48.824  25.936  31.140  1.00  0.00     0.134 A 
ATOM     67  F   UNL A   1      48.989  27.541  27.886  1.00  0.00    -0.206 F 
ATOM     68  C   UNL A   1      50.666  26.473  29.130  1.00  0.00     0.040 A 
ATOM     69  C   UNL A   1      50.151  25.531  31.285  1.00  0.00     0.040 A 
ATOM     70  F   UNL A   1      47.965  25.647  32.129  1.00  0.00    -0.206 F 
ATOM     71  C   UNL A   1      51.075  25.793  30.276  1.00  0.00     0.006 A 
ENDBRANCH  50  64
BRANCH  51  72
ATOM     72  C   UNL A   1      38.747  29.076  29.088  1.00  0.00     0.057 A 
ATOM     73  C   UNL A   1      38.215  29.537  27.877  1.00  0.00     0.134 A 
ATOM     74  C   UNL A   1      37.882  29.007  30.186  1.00  0.00     0.134 A 
ATOM     75  F   UNL A   1      39.000  29.643  26.794  1.00  0.00    -0.206 F 
ATOM     76  C   UNL A   1      36.883  29.938  27.767  1.00  0.00     0.040 A 
ATOM     77  C   UNL A   1      36.541  29.383  30.084  1.00  0.00     0.040 A 
ATOM     78  F   UNL A   1      38.327  28.567  31.371  1.00  0.00    -0.206 F 
ATOM     79  C   UNL A   1      36.041  29.859  28.874  1.00  0.00     0.006 A 
ENDBRANCH  51  72
BRANCH  63  80
ATOM     80  C   UNL A   1      44.384  32.461  31.357  1.00  0.00     0.057 A 
ATOM     81  C   UNL A   1      44.319  32.759  32.722  1.00  0.00     0.134 A 
ATOM     82  C   UNL A   1      44.691  33.506  30.476  1.00  0.00     0.134 A 
ATOM     83  F   UNL A   1      44.015  31.803  33.613  1.00  0.00    -0.206 F 
ATOM     84  C   UNL A   1      44.537  34.054  33.195  1.00  0.00     0.040 A 
ATOM     85  C   UNL A   1      44.934  34.799  30.938  1.00  0.00     0.040 A 
ATOM     86  F   UNL A   1      44.776  33.283  29.156  1.00  0.00    -0.206 F 
ATOM     87  C   UNL A   1      44.853  35.077  32.301  1.00  0.00     0.006 A 
ENDBRANCH  63  80
ENDBRANCH  37  38
ENDBRANCH  29  32
ENDBRANCH  27  28
ENDBRANCH  26  27
ENDBRANCH   1  26
TORSDOF 14
ENDMDL
MODEL 2
REMARK VINA RESULT:     -11.7      1.673      2.177
REMARK SMILES C[C@H](NC(=O)N1CC[C@@H](C(=O)NCCCCNC(=O)c2ccc(-c3c4nc(c(-c5c(F)cccc5F)c5ccc([nH]5)c(-c5c(F)cccc5F)c5nc(c(-c6c(F)cccc6F)c6ccc3[nH]6)C=C5)C=C4)cc2)[C@H]1C)c1ccc(Cl)cc1
REMARK SMILES IDX 14 1 13 2 12 3 10 4 11 5 9 7 6 8 7 9 74 10 8 11 75 12 4 13
REMARK SMILES IDX 3 14 5 16 2 17 1 18 76 19 77 20 82 21 78 22 81 23 79 24
REMARK SMILES IDX 80 25 15 26 16 27 17 28 18 29 19 31 20 32 21 33 73 34 22 35
REMARK SMILES IDX 72 36 23 37 24 38 25 39 66 40 26 41 71 42 65 43 67 44 27 45
REMARK SMILES IDX 70 46 64 47 63 48 28 50 54 51 37 52 53 53 38 54 41 55 52 56
REMARK SMILES IDX 68 57 39 58 40 59 51 61 69 62 42 63 29 64 30 65 35 66 31 67
REMARK SMILES IDX 32 68 34 69 36 70 33 71 55 72 56 73 61 74 57 75 58 76 60 77
REMARK SMILES IDX 62 78 59 79 43 80 44 81 49 82 45 83 46 84 48 85 50 86 47 87
REMARK H PARENT 12 6 3 15 17 30 67 49 41 60
REMARK Flexibility Score: inf
ROOT
ATOM      1  C   UNL A   1      37.087  20.473  25.116  1.00  0.00     0.023 C 
ENDROOT
BRANCH   1   2
ATOM      2  C   UNL A   1      37.381  21.949  24.860  1.00  0.00     0.116 C 
BRANCH   2   3
ATOM      3  N   UNL A   1      36.651  22.473  23.725  1.00  0.00    -0.356 N 
ATOM      4  C   UNL A   1      35.335  22.769  23.572  1.00  0.00     0.225 C 
ATOM      5  O   UNL A   1      34.987  23.200  22.467  1.00  0.00    -0.275 OA
ATOM      6  H   UNL A   1      37.203  22.645  22.927  1.00  0.00     0.163 HD
BRANCH   4   7
ATOM      7  C   UNL A   1      34.294  22.586  24.671  1.00  0.00     0.102 C 
ATOM      8  N   UNL A   1      32.411  23.962  25.327  1.00  0.00    -0.321 N 
ATOM      9  C   UNL A   1      31.905  22.636  24.969  1.00  0.00     0.122 C 
ATOM     10  C   UNL A   1      33.870  23.824  25.487  1.00  0.00     0.096 C 
ATOM     11  C   UNL A   1      33.006  21.907  24.221  1.00  0.00     0.037 C 
ATOM     12  C   UNL A   1      34.652  25.092  25.218  1.00  0.00     0.032 C 
BRANCH   8  13
ATOM     13  C   UNL A   1      31.713  24.531  26.365  1.00  0.00     0.318 C 
ATOM     14  N   UNL A   1      31.338  25.817  26.356  1.00  0.00    -0.331 N 
ATOM     15  H   UNL A   1      30.783  25.998  27.148  1.00  0.00     0.165 HD
ATOM     16  O   UNL A   1      31.355  23.865  27.340  1.00  0.00    -0.249 OA
BRANCH  14  17
ATOM     17  C   UNL A   1      31.469  27.042  25.574  1.00  0.00     0.111 C 
ATOM     18  C   UNL A   1      30.256  27.472  24.760  1.00  0.00     0.036 C 
BRANCH  17  19
ATOM     19  C   UNL A   1      32.138  28.218  26.259  1.00  0.00    -0.026 A 
ATOM     20  C   UNL A   1      31.631  29.520  26.165  1.00  0.00     0.007 A 
ATOM     21  C   UNL A   1      33.378  28.027  26.897  1.00  0.00     0.007 A 
ATOM     22  C   UNL A   1      32.362  30.608  26.658  1.00  0.00     0.021 A 
ATOM     23  C   UNL A   1      34.106  29.110  27.397  1.00  0.00     0.021 A 
ATOM     24  C   UNL A   1      33.599  30.398  27.264  1.00  0.00     0.041 A 
ATOM     25  Cl  UNL A   1      34.516  31.736  27.837  1.00  0.00    -0.084 Cl
ENDBRANCH  17  19
ENDBRANCH  14  17
ENDBRANCH   8  13
ENDBRANCH   4   7
ENDBRANCH   2   3
ENDBRANCH   1   2
BRANCH   1  26
ATOM     26  C   UNL A   1      38.267  19.528  24.955  1.00  0.00     0.023 C 
BRANCH  26  27
ATOM     27  C   UNL A   1      39.510  19.910  25.739  1.00  0.00     0.116 C 
BRANCH  27  28
ATOM     28  N   UNL A   1      40.501  18.849  25.819  1.00  0.00    -0.352 N 
ATOM     29  C   UNL A   1      41.851  18.934  26.104  1.00  0.00     0.251 C 
ATOM     30  H   UNL A   1      40.161  17.941  25.647  1.00  0.00     0.163 HD
ATOM     31  O   UNL A   1      42.560  17.948  26.051  1.00  0.00    -0.269 OA
BRANCH  29  32
ATOM     32  C   UNL A   1      42.423  20.258  26.429  1.00  0.00     0.039 A 
ATOM     33  C   UNL A   1      43.004  21.012  25.408  1.00  0.00     0.014 A 
ATOM     34  C   UNL A   1      42.312  20.778  27.718  1.00  0.00     0.014 A 
ATOM     35  C   UNL A   1      43.388  22.331  25.663  1.00  0.00     0.010 A 
ATOM     36  C   UNL A   1      42.593  22.118  27.943  1.00  0.00     0.010 A 
ATOM     37  C   UNL A   1      43.139  22.909  26.919  1.00  0.00    -0.014 A 
BRANCH  37  38
ATOM     38  C   UNL A   1      43.462  24.328  27.207  1.00  0.00     0.031 A 
ATOM     39  C   UNL A   1      44.888  24.798  27.104  1.00  0.00     0.074 A 
ATOM     40  C   UNL A   1      42.501  25.166  27.641  1.00  0.00     0.049 A 
ATOM     41  N   UNL A   1      45.407  25.952  27.438  1.00  0.00    -0.248 NA
ATOM     42  C   UNL A   1      45.870  23.823  26.600  1.00  0.00     0.031 C 
ATOM     43  C   UNL A   1      41.092  24.818  27.842  1.00  0.00     0.029 A 
ATOM     44  N   UNL A   1      42.569  26.487  28.009  1.00  0.00    -0.354 N 
ATOM     45  C   UNL A   1      46.772  25.826  27.217  1.00  0.00     0.074 A 
ATOM     46  C   UNL A   1      47.011  24.470  26.779  1.00  0.00     0.031 C 
ATOM     47  C   UNL A   1      40.425  25.905  28.265  1.00  0.00     0.029 A 
ATOM     48  C   UNL A   1      41.362  27.015  28.402  1.00  0.00     0.049 A 
ATOM     49  H   UNL A   1      43.404  27.009  27.990  1.00  0.00     0.167 HD
ATOM     50  C   UNL A   1      47.739  26.767  27.335  1.00  0.00     0.037 A 
ATOM     51  C   UNL A   1      41.052  28.254  28.827  1.00  0.00     0.037 A 
ATOM     52  C   UNL A   1      47.491  28.131  27.713  1.00  0.00     0.049 A 
ATOM     53  C   UNL A   1      42.138  29.292  28.913  1.00  0.00     0.074 A 
ATOM     54  C   UNL A   1      48.390  29.179  27.800  1.00  0.00     0.029 A 
ATOM     55  N   UNL A   1      46.246  28.639  28.051  1.00  0.00    -0.354 N 
ATOM     56  N   UNL A   1      43.416  29.175  28.647  1.00  0.00    -0.248 NA
ATOM     57  C   UNL A   1      41.737  30.636  29.350  1.00  0.00     0.031 C 
ATOM     58  C   UNL A   1      47.690  30.318  28.213  1.00  0.00     0.029 A 
ATOM     59  C   UNL A   1      46.352  29.986  28.350  1.00  0.00     0.049 A 
ATOM     60  H   UNL A   1      45.410  28.118  28.075  1.00  0.00     0.167 HD
ATOM     61  C   UNL A   1      43.965  30.433  28.854  1.00  0.00     0.074 A 
ATOM     62  C   UNL A   1      42.879  31.302  29.257  1.00  0.00     0.031 C 
ATOM     63  C   UNL A   1      45.253  30.834  28.725  1.00  0.00     0.037 A 
BRANCH  50  64
ATOM     64  C   UNL A   1      49.146  26.350  27.027  1.00  0.00     0.057 A 
ATOM     65  C   UNL A   1      50.008  25.875  28.025  1.00  0.00     0.134 A 
ATOM     66  C   UNL A   1      49.642  26.405  25.718  1.00  0.00     0.134 A 
ATOM     67  F   UNL A   1      49.600  25.813  29.302  1.00  0.00    -0.206 F 
ATOM     68  C   UNL A   1      51.320  25.498  27.738  1.00  0.00     0.040 A 
ATOM     69  C   UNL A   1      50.944  26.004  25.415  1.00  0.00     0.040 A 
ATOM     70  F   UNL A   1      48.869  26.848  24.715  1.00  0.00    -0.206 F 
ATOM     71  C   UNL A   1      51.789  25.555  26.427  1.00  0.00     0.006 A 
ENDBRANCH  50  64
BRANCH  51  72
ATOM     72  C   UNL A   1      39.649  28.601  29.169  1.00  0.00     0.057 A 
ATOM     73  C   UNL A   1      38.795  29.164  28.213  1.00  0.00     0.134 A 
ATOM     74  C   UNL A   1      39.135  28.403  30.456  1.00  0.00     0.134 A 
ATOM     75  F   UNL A   1      39.238  29.394  26.967  1.00  0.00    -0.206 F 
ATOM     76  C   UNL A   1      37.489  29.542  28.528  1.00  0.00     0.040 A 
ATOM     77  C   UNL A   1      37.823  28.755  30.779  1.00  0.00     0.040 A 
ATOM     78  F   UNL A   1      39.899  27.861  31.414  1.00  0.00    -0.206 F 
ATOM     79  C   UNL A   1      36.999  29.334  29.815  1.00  0.00     0.006 A 
ENDBRANCH  51  72
BRANCH  63  80
ATOM     80  C   UNL A   1      45.548  32.282  28.977  1.00  0.00     0.057 A 
ATOM     81  C   UNL A   1      45.934  32.748  30.238  1.00  0.00     0.134 A 
ATOM     82  C   UNL A   1      45.487  33.210  27.930  1.00  0.00     0.134 A 
ATOM     83  F   UNL A   1      45.998  31.909  31.283  1.00  0.00    -0.206 F 
ATOM     84  C   UNL A   1      46.235  34.094  30.455  1.00  0.00     0.040 A 
ATOM     85  C   UNL A   1      45.807  34.553  28.129  1.00  0.00     0.040 A 
ATOM     86  F   UNL A   1      45.131  32.824  26.695  1.00  0.00    -0.206 F 
ATOM     87  C   UNL A   1      46.179  34.998  29.395  1.00  0.00     0.006 A 
ENDBRANCH  63  80
ENDBRANCH  37  38
ENDBRANCH  29  32
ENDBRANCH  27  28
ENDBRANCH  26  27
ENDBRANCH   1  26
TORSDOF 14
ENDMDL
MODEL 3
REMARK VINA RESULT:     -11.3      4.006      8.015
REMARK SMILES C[C@H](NC(=O)N1CC[C@@H](C(=O)NCCCCNC(=O)c2ccc(-c3c4nc(c(-c5c(F)cccc5F)c5ccc([nH]5)c(-c5c(F)cccc5F)c5nc(c(-c6c(F)cccc6F)c6ccc3[nH]6)C=C5)C=C4)cc2)[C@H]1C)c1ccc(Cl)cc1
REMARK SMILES IDX 14 1 13 2 12 3 10 4 11 5 9 7 6 8 7 9 74 10 8 11 75 12 4 13
REMARK SMILES IDX 3 14 5 16 2 17 1 18 76 19 77 20 82 21 78 22 81 23 79 24
REMARK SMILES IDX 80 25 15 26 16 27 17 28 18 29 19 31 20 32 21 33 73 34 22 35
REMARK SMILES IDX 72 36 23 37 24 38 25 39 66 40 26 41 71 42 65 43 67 44 27 45
REMARK SMILES IDX 70 46 64 47 63 48 28 50 54 51 37 52 53 53 38 54 41 55 52 56
REMARK SMILES IDX 68 57 39 58 40 59 51 61 69 62 42 63 29 64 30 65 35 66 31 67
REMARK SMILES IDX 32 68 34 69 36 70 33 71 55 72 56 73 61 74 57 75 58 76 60 77
REMARK SMILES IDX 62 78 59 79 43 80 44 81 49 82 45 83 46 84 48 85 50 86 47 87
REMARK H PARENT 12 6 3 15 17 30 67 49 41 60
REMARK Flexibility Score: inf
ROOT
ATOM      1  C   UNL A   1      36.379  23.736  24.725  1.00  0.00     0.023 C 
ENDROOT
BRANCH   1   2
ATOM      2  C   UNL A   1      35.530  22.811  23.858  1.00  0.00     0.116 C 
BRANCH   2   3
ATOM      3  N   UNL A   1      35.604  21.428  24.281  1.00  0.00    -0.356 N 
ATOM      4  C   UNL A   1      34.664  20.608  24.817  1.00  0.00     0.225 C 
ATOM      5  O   UNL A   1      35.022  19.459  25.095  1.00  0.00    -0.275 OA
ATOM      6  H   UNL A   1      36.488  21.010  24.158  1.00  0.00     0.163 HD
BRANCH   4   7
ATOM      7  C   UNL A   1      33.228  21.038  25.094  1.00  0.00     0.102 C 
ATOM      8  N   UNL A   1      32.311  23.165  25.804  1.00  0.00    -0.321 N 
ATOM      9  C   UNL A   1      31.695  22.807  24.526  1.00  0.00     0.122 C 
ATOM     10  C   UNL A   1      32.961  21.944  26.313  1.00  0.00     0.096 C 
ATOM     11  C   UNL A   1      32.519  21.690  23.912  1.00  0.00     0.037 C 
ATOM     12  C   UNL A   1      34.146  22.197  27.221  1.00  0.00     0.032 C 
BRANCH   8  13
ATOM     13  C   UNL A   1      31.441  23.816  26.645  1.00  0.00     0.318 C 
ATOM     14  N   UNL A   1      31.088  25.096  26.461  1.00  0.00    -0.331 N 
ATOM     15  H   UNL A   1      30.400  25.339  27.121  1.00  0.00     0.165 HD
ATOM     16  O   UNL A   1      30.904  23.233  27.590  1.00  0.00    -0.249 OA
BRANCH  14  17
ATOM     17  C   UNL A   1      31.374  26.252  25.617  1.00  0.00     0.111 C 
ATOM     18  C   UNL A   1      30.233  26.768  24.750  1.00  0.00     0.036 C 
BRANCH  17  19
ATOM     19  C   UNL A   1      32.158  27.381  26.255  1.00  0.00    -0.026 A 
ATOM     20  C   UNL A   1      31.529  28.491  26.833  1.00  0.00     0.007 A 
ATOM     21  C   UNL A   1      33.562  27.390  26.148  1.00  0.00     0.007 A 
ATOM     22  C   UNL A   1      32.277  29.596  27.255  1.00  0.00     0.021 A 
ATOM     23  C   UNL A   1      34.312  28.489  26.574  1.00  0.00     0.021 A 
ATOM     24  C   UNL A   1      33.663  29.594  27.115  1.00  0.00     0.041 A 
ATOM     25  Cl  UNL A   1      34.580  30.966  27.598  1.00  0.00    -0.084 Cl
ENDBRANCH  17  19
ENDBRANCH  14  17
ENDBRANCH   8  13
ENDBRANCH   4   7
ENDBRANCH   2   3
ENDBRANCH   1   2
BRANCH   1  26
ATOM     26  C   UNL A   1      37.447  23.056  25.567  1.00  0.00     0.023 C 
BRANCH  26  27
ATOM     27  C   UNL A   1      38.309  23.993  26.394  1.00  0.00     0.116 C 
BRANCH  27  28
ATOM     28  N   UNL A   1      39.722  23.944  26.051  1.00  0.00    -0.352 N 
ATOM     29  C   UNL A   1      40.751  24.765  26.472  1.00  0.00     0.251 C 
ATOM     30  H   UNL A   1      39.981  23.223  25.433  1.00  0.00     0.163 HD
ATOM     31  O   UNL A   1      41.873  24.634  26.021  1.00  0.00    -0.269 OA
BRANCH  29  32
ATOM     32  C   UNL A   1      40.450  25.836  27.445  1.00  0.00     0.039 A 
ATOM     33  C   UNL A   1      39.543  25.577  28.475  1.00  0.00     0.014 A 
ATOM     34  C   UNL A   1      41.123  27.056  27.383  1.00  0.00     0.014 A 
ATOM     35  C   UNL A   1      39.383  26.514  29.499  1.00  0.00     0.010 A 
ATOM     36  C   UNL A   1      41.044  27.936  28.453  1.00  0.00     0.010 A 
ATOM     37  C   UNL A   1      40.169  27.678  29.521  1.00  0.00    -0.014 A 
BRANCH  37  38
ATOM     38  C   UNL A   1      40.085  28.660  30.630  1.00  0.00     0.031 A 
ATOM     39  C   UNL A   1      39.074  29.773  30.556  1.00  0.00     0.074 A 
ATOM     40  C   UNL A   1      40.963  28.608  31.649  1.00  0.00     0.049 A 
ATOM     41  N   UNL A   1      38.922  30.808  31.342  1.00  0.00    -0.248 NA
ATOM     42  C   UNL A   1      38.139  29.742  29.419  1.00  0.00     0.031 C 
ATOM     43  C   UNL A   1      42.029  27.616  31.806  1.00  0.00     0.029 A 
ATOM     44  N   UNL A   1      41.107  29.423  32.745  1.00  0.00    -0.354 N 
ATOM     45  C   UNL A   1      37.902  31.562  30.776  1.00  0.00     0.074 A 
ATOM     46  C   UNL A   1      37.512  30.901  29.551  1.00  0.00     0.031 C 
ATOM     47  C   UNL A   1      42.696  27.862  32.947  1.00  0.00     0.029 A 
ATOM     48  C   UNL A   1      42.131  29.047  33.582  1.00  0.00     0.049 A 
ATOM     49  H   UNL A   1      40.530  30.201  32.916  1.00  0.00     0.167 HD
ATOM     50  C   UNL A   1      37.316  32.686  31.251  1.00  0.00     0.037 A 
ATOM     51  C   UNL A   1      42.564  29.603  34.729  1.00  0.00     0.037 A 
ATOM     52  C   UNL A   1      37.664  33.308  32.499  1.00  0.00     0.049 A 
ATOM     53  C   UNL A   1      41.872  30.830  35.255  1.00  0.00     0.074 A 
ATOM     54  C   UNL A   1      37.089  34.412  33.102  1.00  0.00     0.029 A 
ATOM     55  N   UNL A   1      38.670  32.865  33.343  1.00  0.00    -0.354 N 
ATOM     56  N   UNL A   1      40.871  31.501  34.738  1.00  0.00    -0.248 NA
ATOM     57  C   UNL A   1      42.363  31.374  36.529  1.00  0.00     0.031 C 
ATOM     58  C   UNL A   1      37.765  34.651  34.304  1.00  0.00     0.029 A 
ATOM     59  C   UNL A   1      38.736  33.676  34.463  1.00  0.00     0.049 A 
ATOM     60  H   UNL A   1      39.253  32.090  33.171  1.00  0.00     0.167 HD
ATOM     61  C   UNL A   1      40.594  32.523  35.635  1.00  0.00     0.074 A 
ATOM     62  C   UNL A   1      41.524  32.379  36.736  1.00  0.00     0.031 C 
ATOM     63  C   UNL A   1      39.655  33.497  35.555  1.00  0.00     0.037 A 
BRANCH  50  64
ATOM     64  C   UNL A   1      36.224  33.295  30.424  1.00  0.00     0.057 A 
ATOM     65  C   UNL A   1      36.504  34.057  29.280  1.00  0.00     0.134 A 
ATOM     66  C   UNL A   1      34.878  33.106  30.759  1.00  0.00     0.134 A 
ATOM     67  F   UNL A   1      37.774  34.290  28.914  1.00  0.00    -0.206 F 
ATOM     68  C   UNL A   1      35.487  34.632  28.518  1.00  0.00     0.040 A 
ATOM     69  C   UNL A   1      33.851  33.653  29.988  1.00  0.00     0.040 A 
ATOM     70  F   UNL A   1      34.539  32.385  31.839  1.00  0.00    -0.206 F 
ATOM     71  C   UNL A   1      34.154  34.424  28.868  1.00  0.00     0.006 A 
ENDBRANCH  50  64
BRANCH  51  72
ATOM     72  C   UNL A   1      43.685  28.987  35.485  1.00  0.00     0.057 A 
ATOM     73  C   UNL A   1      43.447  27.988  36.436  1.00  0.00     0.134 A 
ATOM     74  C   UNL A   1      45.011  29.394  35.295  1.00  0.00     0.134 A 
ATOM     75  F   UNL A   1      42.194  27.570  36.674  1.00  0.00    -0.206 F 
ATOM     76  C   UNL A   1      44.481  27.433  37.191  1.00  0.00     0.040 A 
ATOM     77  C   UNL A   1      46.058  28.830  36.027  1.00  0.00     0.040 A 
ATOM     78  F   UNL A   1      45.307  30.340  34.394  1.00  0.00    -0.206 F 
ATOM     79  C   UNL A   1      45.793  27.853  36.984  1.00  0.00     0.006 A 
ENDBRANCH  51  72
BRANCH  63  80
ATOM     80  C   UNL A   1      39.558  34.451  36.707  1.00  0.00     0.057 A 
ATOM     81  C   UNL A   1      38.854  34.130  37.873  1.00  0.00     0.134 A 
ATOM     82  C   UNL A   1      40.216  35.687  36.663  1.00  0.00     0.134 A 
ATOM     83  F   UNL A   1      38.193  32.967  37.971  1.00  0.00    -0.206 F 
ATOM     84  C   UNL A   1      38.794  35.014  38.952  1.00  0.00     0.040 A 
ATOM     85  C   UNL A   1      40.182  36.568  37.743  1.00  0.00     0.040 A 
ATOM     86  F   UNL A   1      40.914  36.049  35.575  1.00  0.00    -0.206 F 
ATOM     87  C   UNL A   1      39.466  36.234  38.890  1.00  0.00     0.006 A 
ENDBRANCH  63  80
ENDBRANCH  37  38
ENDBRANCH  29  32
ENDBRANCH  27  28
ENDBRANCH  26  27
ENDBRANCH   1  26
TORSDOF 14
ENDMDL
