MODEL 1
REMARK VINA RESULT:     -11.8      0.000      0.000
REMARK SMILES COc1ccc(N2C[C@@H](C)Cn3c2nc2c3c(=O)n(CC(=O)NCCCCNC(=O)c3ccc(-c4c5nc(c(-c6c(F)cccc6F)c6ccc([nH]6)c(-c6c(F)cccc6F)c6nc(c(-c7c(F)cccc7F)c7ccc4[nH]7)C=C6)C=C5)cc3)c(=O)n2C)cc1
REMARK SMILES IDX 25 1 24 2 23 3 21 4 22 5 20 7 19 8 7 9 8 10 13 11 9 12 12 13
REMARK SMILES IDX 14 14 11 15 10 16 16 17 15 18 17 19 87 20 18 21 85 22 88 23
REMARK SMILES IDX 86 24 6 25 3 26 4 27 90 28 5 29 89 30 2 31 1 32 26 33 27 34
REMARK SMILES IDX 28 35 29 36 30 38 31 39 32 40 84 41 33 42 83 43 34 44 35 45
REMARK SMILES IDX 36 46 77 47 37 48 82 49 76 50 78 51 38 52 81 53 75 54 74 55
REMARK SMILES IDX 39 57 65 58 48 59 64 60 49 61 52 62 63 63 79 64 50 65 51 66
REMARK SMILES IDX 62 68 80 69 53 70 40 71 41 72 46 73 42 74 43 75 45 76 47 77
REMARK SMILES IDX 44 78 66 79 67 80 72 81 68 82 69 83 71 84 73 85 70 86 54 87
REMARK SMILES IDX 55 88 60 89 56 90 57 91 59 92 61 93 58 94
REMARK H PARENT 23 6 28 37 78 56 52 67
REMARK Flexibility Score: inf
ROOT
ATOM      1  C   UNL A   1      38.240  33.938  32.060  1.00  0.00     0.023 C 
ENDROOT
BRANCH   1   2
ATOM      2  C   UNL A   1      37.096  34.949  32.018  1.00  0.00     0.116 C 
BRANCH   2   3
ATOM      3  N   UNL A   1      35.800  34.306  32.112  1.00  0.00    -0.355 N 
ATOM      4  C   UNL A   1      35.044  33.702  31.152  1.00  0.00     0.240 C 
ATOM      5  O   UNL A   1      34.106  33.000  31.544  1.00  0.00    -0.273 OA
ATOM      6  H   UNL A   1      35.403  34.306  33.013  1.00  0.00     0.163 HD
BRANCH   4   7
ATOM      7  C   UNL A   1      35.402  33.775  29.663  1.00  0.00     0.230 C 
BRANCH   7   8
ATOM      8  N   UNL A   1      35.279  32.494  28.974  1.00  0.00    -0.249 N 
ATOM      9  N   UNL A   1      32.839  28.545  25.474  1.00  0.00    -0.312 N 
ATOM     10  C   UNL A   1      31.439  28.937  25.247  1.00  0.00     0.131 C 
ATOM     11  C   UNL A   1      33.583  29.265  26.360  1.00  0.00     0.212 A 
ATOM     12  C   UNL A   1      31.376  30.447  25.001  1.00  0.00     0.026 C 
ATOM     13  N   UNL A   1      33.149  30.528  26.719  1.00  0.00    -0.304 N 
ATOM     14  N   UNL A   1      34.748  29.008  26.932  1.00  0.00    -0.194 NA
ATOM     15  C   UNL A   1      31.946  31.166  26.225  1.00  0.00     0.131 C 
ATOM     16  C   UNL A   1      29.957  30.917  24.700  1.00  0.00     0.011 C 
ATOM     17  C   UNL A   1      34.058  31.055  27.582  1.00  0.00     0.154 A 
ATOM     18  C   UNL A   1      35.027  30.111  27.687  1.00  0.00     0.170 A 
ATOM     19  C   UNL A   1      34.090  32.300  28.263  1.00  0.00     0.283 A 
ATOM     20  N   UNL A   1      36.129  30.309  28.488  1.00  0.00    -0.279 N 
ATOM     21  O   UNL A   1      33.171  33.101  28.225  1.00  0.00    -0.267 OA
ATOM     22  C   UNL A   1      36.258  31.509  29.191  1.00  0.00     0.332 A 
ATOM     23  C   UNL A   1      37.138  29.272  28.610  1.00  0.00     0.157 C 
ATOM     24  O   UNL A   1      37.194  31.703  29.972  1.00  0.00    -0.247 OA
BRANCH   9  25
ATOM     25  C   UNL A   1      33.257  27.364  24.836  1.00  0.00     0.044 A 
ATOM     26  C   UNL A   1      34.007  24.988  23.496  1.00  0.00     0.119 A 
ATOM     27  C   UNL A   1      33.654  26.120  22.770  1.00  0.00     0.048 A 
ATOM     28  C   UNL A   1      34.027  25.047  24.890  1.00  0.00     0.048 A 
ATOM     29  C   UNL A   1      33.272  27.289  23.432  1.00  0.00     0.030 A 
ATOM     30  C   UNL A   1      33.667  26.233  25.550  1.00  0.00     0.030 A 
BRANCH  26  31
ATOM     31  O   UNL A   1      34.379  23.905  22.749  1.00  0.00    -0.497 OA
ATOM     32  C   UNL A   1      34.944  22.828  23.489  1.00  0.00     0.278 C 
ENDBRANCH  26  31
ENDBRANCH   9  25
ENDBRANCH   7   8
ENDBRANCH   4   7
ENDBRANCH   2   3
ENDBRANCH   1   2
BRANCH   1  33
ATOM     33  C   UNL A   1      39.412  34.246  31.106  1.00  0.00     0.023 C 
BRANCH  33  34
ATOM     34  C   UNL A   1      40.793  34.407  31.768  1.00  0.00     0.116 C 
BRANCH  34  35
ATOM     35  N   UNL A   1      41.785  33.582  31.106  1.00  0.00    -0.352 N 
ATOM     36  C   UNL A   1      42.537  33.779  29.980  1.00  0.00     0.251 C 
ATOM     37  H   UNL A   1      41.949  32.718  31.550  1.00  0.00     0.163 HD
ATOM     38  O   UNL A   1      43.090  32.797  29.483  1.00  0.00    -0.269 OA
BRANCH  36  39
ATOM     39  C   UNL A   1      42.732  35.100  29.342  1.00  0.00     0.039 A 
ATOM     40  C   UNL A   1      43.694  35.946  29.914  1.00  0.00     0.014 A 
ATOM     41  C   UNL A   1      41.895  35.597  28.338  1.00  0.00     0.014 A 
ATOM     42  C   UNL A   1      43.830  37.265  29.484  1.00  0.00     0.010 A 
ATOM     43  C   UNL A   1      42.035  36.925  27.904  1.00  0.00     0.010 A 
ATOM     44  C   UNL A   1      43.004  37.766  28.470  1.00  0.00    -0.014 A 
BRANCH  44  45
ATOM     45  C   UNL A   1      43.302  39.124  27.961  1.00  0.00     0.031 A 
ATOM     46  C   UNL A   1      43.111  40.227  28.951  1.00  0.00     0.074 A 
ATOM     47  C   UNL A   1      44.129  39.344  26.914  1.00  0.00     0.049 A 
ATOM     48  N   UNL A   1      44.011  40.552  29.834  1.00  0.00    -0.248 NA
ATOM     49  C   UNL A   1      41.809  40.853  29.181  1.00  0.00     0.031 C 
ATOM     50  C   UNL A   1      45.340  38.554  26.659  1.00  0.00     0.029 A 
ATOM     51  N   UNL A   1      44.230  40.410  26.045  1.00  0.00    -0.354 N 
ATOM     52  C   UNL A   1      43.403  41.381  30.760  1.00  0.00     0.074 A 
ATOM     53  C   UNL A   1      42.038  41.546  30.309  1.00  0.00     0.031 C 
ATOM     54  C   UNL A   1      46.141  39.252  25.827  1.00  0.00     0.029 A 
ATOM     55  C   UNL A   1      45.452  40.460  25.373  1.00  0.00     0.049 A 
ATOM     56  H   UNL A   1      43.512  41.070  25.911  1.00  0.00     0.167 HD
ATOM     57  C   UNL A   1      44.055  41.876  31.845  1.00  0.00     0.037 A 
ATOM     58  C   UNL A   1      46.091  41.608  25.010  1.00  0.00     0.037 A 
ATOM     59  C   UNL A   1      45.437  41.516  31.955  1.00  0.00     0.049 A 
ATOM     60  C   UNL A   1      46.523  42.141  26.350  1.00  0.00     0.074 A 
ATOM     61  C   UNL A   1      46.198  40.575  32.611  1.00  0.00     0.029 A 
ATOM     62  N   UNL A   1      46.341  42.230  31.205  1.00  0.00    -0.354 N 
ATOM     63  N   UNL A   1      47.546  41.729  27.045  1.00  0.00    -0.248 NA
ATOM     64  C   UNL A   1      45.550  42.936  27.104  1.00  0.00     0.031 C 
ATOM     65  C   UNL A   1      47.410  40.474  31.856  1.00  0.00     0.029 A 
ATOM     66  C   UNL A   1      47.281  41.335  30.766  1.00  0.00     0.049 A 
ATOM     67  H   UNL A   1      46.318  43.196  31.018  1.00  0.00     0.167 HD
ATOM     68  C   UNL A   1      47.214  41.979  28.378  1.00  0.00     0.074 A 
ATOM     69  C   UNL A   1      45.990  42.755  28.341  1.00  0.00     0.031 C 
ATOM     70  C   UNL A   1      47.838  41.381  29.435  1.00  0.00     0.037 A 
BRANCH  57  71
ATOM     71  C   UNL A   1      43.510  42.858  32.801  1.00  0.00     0.057 A 
ATOM     72  C   UNL A   1      42.816  42.375  33.919  1.00  0.00     0.134 A 
ATOM     73  C   UNL A   1      43.420  44.221  32.516  1.00  0.00     0.134 A 
ATOM     74  F   UNL A   1      42.862  41.067  34.226  1.00  0.00    -0.206 F 
ATOM     75  C   UNL A   1      42.012  43.203  34.697  1.00  0.00     0.040 A 
ATOM     76  C   UNL A   1      42.625  45.067  33.296  1.00  0.00     0.040 A 
ATOM     77  F   UNL A   1      44.047  44.739  31.450  1.00  0.00    -0.206 F 
ATOM     78  C   UNL A   1      41.903  44.553  34.376  1.00  0.00     0.006 A 
ENDBRANCH  57  71
BRANCH  58  79
ATOM     79  C   UNL A   1      45.439  42.455  23.961  1.00  0.00     0.057 A 
ATOM     80  C   UNL A   1      46.172  42.778  22.803  1.00  0.00     0.134 A 
ATOM     81  C   UNL A   1      44.152  43.007  24.032  1.00  0.00     0.134 A 
ATOM     82  F   UNL A   1      47.459  42.413  22.690  1.00  0.00    -0.206 F 
ATOM     83  C   UNL A   1      45.619  43.491  21.735  1.00  0.00     0.040 A 
ATOM     84  C   UNL A   1      43.574  43.700  22.959  1.00  0.00     0.040 A 
ATOM     85  F   UNL A   1      43.405  42.900  25.137  1.00  0.00    -0.206 F 
ATOM     86  C   UNL A   1      44.302  43.927  21.797  1.00  0.00     0.006 A 
ENDBRANCH  58  79
BRANCH  70  87
ATOM     87  C   UNL A   1      49.005  40.522  29.087  1.00  0.00     0.057 A 
ATOM     88  C   UNL A   1      50.297  41.052  29.042  1.00  0.00     0.134 A 
ATOM     89  C   UNL A   1      48.856  39.156  28.811  1.00  0.00     0.134 A 
ATOM     90  F   UNL A   1      50.510  42.352  29.304  1.00  0.00    -0.206 F 
ATOM     91  C   UNL A   1      51.402  40.252  28.749  1.00  0.00     0.040 A 
ATOM     92  C   UNL A   1      49.955  38.339  28.544  1.00  0.00     0.040 A 
ATOM     93  F   UNL A   1      47.643  38.577  28.812  1.00  0.00    -0.206 F 
ATOM     94  C   UNL A   1      51.234  38.889  28.511  1.00  0.00     0.006 A 
ENDBRANCH  70  87
ENDBRANCH  44  45
ENDBRANCH  36  39
ENDBRANCH  34  35
ENDBRANCH  33  34
ENDBRANCH   1  33
TORSDOF 14
ENDMDL
MODEL 2
REMARK VINA RESULT:     -11.8      6.729     12.875
REMARK SMILES COc1ccc(N2C[C@@H](C)Cn3c2nc2c3c(=O)n(CC(=O)NCCCCNC(=O)c3ccc(-c4c5nc(c(-c6c(F)cccc6F)c6ccc([nH]6)c(-c6c(F)cccc6F)c6nc(c(-c7c(F)cccc7F)c7ccc4[nH]7)C=C6)C=C5)cc3)c(=O)n2C)cc1
REMARK SMILES IDX 25 1 24 2 23 3 21 4 22 5 20 7 19 8 7 9 8 10 13 11 9 12 12 13
REMARK SMILES IDX 14 14 11 15 10 16 16 17 15 18 17 19 87 20 18 21 85 22 88 23
REMARK SMILES IDX 86 24 6 25 3 26 4 27 90 28 5 29 89 30 2 31 1 32 26 33 27 34
REMARK SMILES IDX 28 35 29 36 30 38 31 39 32 40 84 41 33 42 83 43 34 44 35 45
REMARK SMILES IDX 36 46 77 47 37 48 82 49 76 50 78 51 38 52 81 53 75 54 74 55
REMARK SMILES IDX 39 57 65 58 48 59 64 60 49 61 52 62 63 63 79 64 50 65 51 66
REMARK SMILES IDX 62 68 80 69 53 70 40 71 41 72 46 73 42 74 43 75 45 76 47 77
REMARK SMILES IDX 44 78 66 79 67 80 72 81 68 82 69 83 71 84 73 85 70 86 54 87
REMARK SMILES IDX 55 88 60 89 56 90 57 91 59 92 61 93 58 94
REMARK H PARENT 23 6 28 37 78 56 52 67
REMARK Flexibility Score: inf
ROOT
ATOM      1  C   UNL A   1      47.031  33.955  26.250  1.00  0.00     0.023 C 
ENDROOT
BRANCH   1   2
ATOM      2  C   UNL A   1      46.266  32.673  26.570  1.00  0.00     0.116 C 
BRANCH   2   3
ATOM      3  N   UNL A   1      46.216  32.413  27.995  1.00  0.00    -0.355 N 
ATOM      4  C   UNL A   1      46.884  31.494  28.748  1.00  0.00     0.240 C 
ATOM      5  O   UNL A   1      46.863  31.658  29.973  1.00  0.00    -0.273 OA
ATOM      6  H   UNL A   1      45.600  32.992  28.500  1.00  0.00     0.163 HD
BRANCH   4   7
ATOM      7  C   UNL A   1      47.732  30.382  28.120  1.00  0.00     0.230 C 
BRANCH   7   8
ATOM      8  N   UNL A   1      46.962  29.191  27.774  1.00  0.00    -0.249 N 
ATOM      9  N   UNL A   1      43.985  24.300  28.780  1.00  0.00    -0.312 N 
ATOM     10  C   UNL A   1      44.289  23.853  30.148  1.00  0.00     0.131 C 
ATOM     11  C   UNL A   1      44.660  25.372  28.279  1.00  0.00     0.212 A 
ATOM     12  C   UNL A   1      44.277  25.064  31.085  1.00  0.00     0.026 C 
ATOM     13  N   UNL A   1      45.305  26.221  29.160  1.00  0.00    -0.304 N 
ATOM     14  N   UNL A   1      44.775  25.831  27.043  1.00  0.00    -0.194 NA
ATOM     15  C   UNL A   1      45.325  26.067  30.600  1.00  0.00     0.131 C 
ATOM     16  C   UNL A   1      44.528  24.666  32.535  1.00  0.00     0.011 C 
ATOM     17  C   UNL A   1      45.878  27.220  28.437  1.00  0.00     0.154 A 
ATOM     18  C   UNL A   1      45.531  26.963  27.151  1.00  0.00     0.170 A 
ATOM     19  C   UNL A   1      46.667  28.331  28.837  1.00  0.00     0.283 A 
ATOM     20  N   UNL A   1      45.941  27.786  26.126  1.00  0.00    -0.279 N 
ATOM     21  O   UNL A   1      47.041  28.500  29.985  1.00  0.00    -0.267 OA
ATOM     22  C   UNL A   1      46.712  28.913  26.419  1.00  0.00     0.332 A 
ATOM     23  C   UNL A   1      45.585  27.473  24.753  1.00  0.00     0.157 C 
ATOM     24  O   UNL A   1      47.157  29.641  25.527  1.00  0.00    -0.247 OA
BRANCH   9  25
ATOM     25  C   UNL A   1      43.096  23.489  28.052  1.00  0.00     0.044 A 
ATOM     26  C   UNL A   1      41.321  21.782  26.660  1.00  0.00     0.119 A 
ATOM     27  C   UNL A   1      41.108  22.070  28.004  1.00  0.00     0.048 A 
ATOM     28  C   UNL A   1      42.394  22.375  25.995  1.00  0.00     0.048 A 
ATOM     29  C   UNL A   1      41.991  22.903  28.694  1.00  0.00     0.030 A 
ATOM     30  C   UNL A   1      43.265  23.233  26.687  1.00  0.00     0.030 A 
BRANCH  26  31
ATOM     31  O   UNL A   1      40.387  20.969  26.080  1.00  0.00    -0.497 OA
ATOM     32  C   UNL A   1      40.687  19.579  26.126  1.00  0.00     0.278 C 
ENDBRANCH  26  31
ENDBRANCH   9  25
ENDBRANCH   7   8
ENDBRANCH   4   7
ENDBRANCH   2   3
ENDBRANCH   1   2
BRANCH   1  33
ATOM     33  C   UNL A   1      46.160  35.119  25.735  1.00  0.00     0.023 C 
BRANCH  33  34
ATOM     34  C   UNL A   1      46.036  36.333  26.675  1.00  0.00     0.116 C 
BRANCH  34  35
ATOM     35  N   UNL A   1      44.725  36.943  26.564  1.00  0.00    -0.352 N 
ATOM     36  C   UNL A   1      43.493  36.554  27.014  1.00  0.00     0.251 C 
ATOM     37  H   UNL A   1      44.720  37.797  26.074  1.00  0.00     0.163 HD
ATOM     38  O   UNL A   1      42.506  37.114  26.534  1.00  0.00    -0.269 OA
BRANCH  36  39
ATOM     39  C   UNL A   1      43.285  35.516  28.049  1.00  0.00     0.039 A 
ATOM     40  C   UNL A   1      41.968  35.076  28.250  1.00  0.00     0.014 A 
ATOM     41  C   UNL A   1      44.287  35.102  28.931  1.00  0.00     0.014 A 
ATOM     42  C   UNL A   1      41.654  34.226  29.310  1.00  0.00     0.010 A 
ATOM     43  C   UNL A   1      43.971  34.243  29.996  1.00  0.00     0.010 A 
ATOM     44  C   UNL A   1      42.655  33.797  30.190  1.00  0.00    -0.014 A 
BRANCH  44  45
ATOM     45  C   UNL A   1      42.280  32.780  31.199  1.00  0.00     0.031 A 
ATOM     46  C   UNL A   1      40.860  32.841  31.662  1.00  0.00     0.074 A 
ATOM     47  C   UNL A   1      42.945  31.611  31.337  1.00  0.00     0.049 A 
ATOM     48  N   UNL A   1      39.876  32.296  31.005  1.00  0.00    -0.248 NA
ATOM     49  C   UNL A   1      40.426  33.730  32.739  1.00  0.00     0.031 C 
ATOM     50  C   UNL A   1      43.500  30.857  30.206  1.00  0.00     0.029 A 
ATOM     51  N   UNL A   1      43.048  30.744  32.405  1.00  0.00    -0.354 N 
ATOM     52  C   UNL A   1      38.699  32.792  31.536  1.00  0.00     0.074 A 
ATOM     53  C   UNL A   1      39.090  33.672  32.616  1.00  0.00     0.031 C 
ATOM     54  C   UNL A   1      43.721  29.586  30.603  1.00  0.00     0.029 A 
ATOM     55  C   UNL A   1      43.468  29.466  32.040  1.00  0.00     0.049 A 
ATOM     56  H   UNL A   1      42.845  31.003  33.333  1.00  0.00     0.167 HD
ATOM     57  C   UNL A   1      37.474  32.454  31.053  1.00  0.00     0.037 A 
ATOM     58  C   UNL A   1      43.064  28.313  32.645  1.00  0.00     0.037 A 
ATOM     59  C   UNL A   1      37.471  31.515  29.973  1.00  0.00     0.049 A 
ATOM     60  C   UNL A   1      41.627  28.237  32.204  1.00  0.00     0.074 A 
ATOM     61  C   UNL A   1      37.400  31.539  28.597  1.00  0.00     0.029 A 
ATOM     62  N   UNL A   1      37.607  30.184  30.288  1.00  0.00    -0.354 N 
ATOM     63  N   UNL A   1      41.203  27.835  31.038  1.00  0.00    -0.248 NA
ATOM     64  C   UNL A   1      40.640  28.982  32.990  1.00  0.00     0.031 C 
ATOM     65  C   UNL A   1      37.976  30.301  28.167  1.00  0.00     0.029 A 
ATOM     66  C   UNL A   1      38.394  29.627  29.314  1.00  0.00     0.049 A 
ATOM     67  H   UNL A   1      37.216  29.720  31.063  1.00  0.00     0.167 HD
ATOM     68  C   UNL A   1      39.995  28.505  30.830  1.00  0.00     0.074 A 
ATOM     69  C   UNL A   1      39.690  29.165  32.085  1.00  0.00     0.031 C 
ATOM     70  C   UNL A   1      39.414  28.647  29.603  1.00  0.00     0.037 A 
BRANCH  57  71
ATOM     71  C   UNL A   1      36.179  32.845  31.644  1.00  0.00     0.057 A 
ATOM     72  C   UNL A   1      35.423  33.825  30.986  1.00  0.00     0.134 A 
ATOM     73  C   UNL A   1      35.802  32.490  32.939  1.00  0.00     0.134 A 
ATOM     74  F   UNL A   1      35.755  34.209  29.742  1.00  0.00    -0.206 F 
ATOM     75  C   UNL A   1      34.362  34.474  31.612  1.00  0.00     0.040 A 
ATOM     76  C   UNL A   1      34.731  33.125  33.576  1.00  0.00     0.040 A 
ATOM     77  F   UNL A   1      36.498  31.571  33.626  1.00  0.00    -0.206 F 
ATOM     78  C   UNL A   1      34.023  34.134  32.918  1.00  0.00     0.006 A 
ENDBRANCH  57  71
BRANCH  58  79
ATOM     79  C   UNL A   1      43.501  28.091  34.060  1.00  0.00     0.057 A 
ATOM     80  C   UNL A   1      44.723  28.647  34.483  1.00  0.00     0.134 A 
ATOM     81  C   UNL A   1      42.818  27.334  35.024  1.00  0.00     0.134 A 
ATOM     82  F   UNL A   1      45.521  29.279  33.608  1.00  0.00    -0.206 F 
ATOM     83  C   UNL A   1      45.172  28.564  35.805  1.00  0.00     0.040 A 
ATOM     84  C   UNL A   1      43.241  27.265  36.358  1.00  0.00     0.040 A 
ATOM     85  F   UNL A   1      41.721  26.633  34.713  1.00  0.00    -0.206 F 
ATOM     86  C   UNL A   1      44.412  27.898  36.757  1.00  0.00     0.006 A 
ENDBRANCH  58  79
BRANCH  70  87
ATOM     87  C   UNL A   1      40.088  27.923  28.488  1.00  0.00     0.057 A 
ATOM     88  C   UNL A   1      39.793  26.583  28.222  1.00  0.00     0.134 A 
ATOM     89  C   UNL A   1      41.021  28.558  27.658  1.00  0.00     0.134 A 
ATOM     90  F   UNL A   1      38.901  25.919  28.975  1.00  0.00    -0.206 F 
ATOM     91  C   UNL A   1      40.392  25.903  27.161  1.00  0.00     0.040 A 
ATOM     92  C   UNL A   1      41.607  27.898  26.577  1.00  0.00     0.040 A 
ATOM     93  F   UNL A   1      41.374  29.838  27.864  1.00  0.00    -0.206 F 
ATOM     94  C   UNL A   1      41.293  26.564  26.327  1.00  0.00     0.006 A 
ENDBRANCH  70  87
ENDBRANCH  44  45
ENDBRANCH  36  39
ENDBRANCH  34  35
ENDBRANCH  33  34
ENDBRANCH   1  33
TORSDOF 14
ENDMDL
MODEL 3
REMARK VINA RESULT:     -11.7      6.649     12.031
REMARK SMILES COc1ccc(N2C[C@@H](C)Cn3c2nc2c3c(=O)n(CC(=O)NCCCCNC(=O)c3ccc(-c4c5nc(c(-c6c(F)cccc6F)c6ccc([nH]6)c(-c6c(F)cccc6F)c6nc(c(-c7c(F)cccc7F)c7ccc4[nH]7)C=C6)C=C5)cc3)c(=O)n2C)cc1
REMARK SMILES IDX 25 1 24 2 23 3 21 4 22 5 20 7 19 8 7 9 8 10 13 11 9 12 12 13
REMARK SMILES IDX 14 14 11 15 10 16 16 17 15 18 17 19 87 20 18 21 85 22 88 23
REMARK SMILES IDX 86 24 6 25 3 26 4 27 90 28 5 29 89 30 2 31 1 32 26 33 27 34
REMARK SMILES IDX 28 35 29 36 30 38 31 39 32 40 84 41 33 42 83 43 34 44 35 45
REMARK SMILES IDX 36 46 77 47 37 48 82 49 76 50 78 51 38 52 81 53 75 54 74 55
REMARK SMILES IDX 39 57 65 58 48 59 64 60 49 61 52 62 63 63 79 64 50 65 51 66
REMARK SMILES IDX 62 68 80 69 53 70 40 71 41 72 46 73 42 74 43 75 45 76 47 77
REMARK SMILES IDX 44 78 66 79 67 80 72 81 68 82 69 83 71 84 73 85 70 86 54 87
REMARK SMILES IDX 55 88 60 89 56 90 57 91 59 92 61 93 58 94
REMARK H PARENT 23 6 28 37 78 56 52 67
REMARK Flexibility Score: inf
ROOT
ATOM      1  C   UNL A   1      47.577  34.017  27.578  1.00  0.00     0.023 C 
ENDROOT
BRANCH   1   2
ATOM      2  C   UNL A   1      48.091  32.579  27.588  1.00  0.00     0.116 C 
BRANCH   2   3
ATOM      3  N   UNL A   1      47.519  31.791  26.514  1.00  0.00    -0.355 N 
ATOM      4  C   UNL A   1      46.701  30.702  26.557  1.00  0.00     0.240 C 
ATOM      5  O   UNL A   1      46.143  30.384  25.502  1.00  0.00    -0.273 OA
ATOM      6  H   UNL A   1      47.761  32.091  25.607  1.00  0.00     0.163 HD
BRANCH   4   7
ATOM      7  C   UNL A   1      46.378  29.974  27.868  1.00  0.00     0.230 C 
BRANCH   7   8
ATOM      8  N   UNL A   1      46.056  28.562  27.682  1.00  0.00    -0.249 N 
ATOM      9  N   UNL A   1      42.606  23.911  27.170  1.00  0.00    -0.312 N 
ATOM     10  C   UNL A   1      41.275  24.271  27.683  1.00  0.00     0.131 C 
ATOM     11  C   UNL A   1      43.619  24.815  27.293  1.00  0.00     0.212 A 
ATOM     12  C   UNL A   1      40.903  25.666  27.175  1.00  0.00     0.026 C 
ATOM     13  N   UNL A   1      43.301  26.140  27.532  1.00  0.00    -0.304 N 
ATOM     14  N   UNL A   1      44.928  24.683  27.155  1.00  0.00    -0.194 NA
ATOM     15  C   UNL A   1      41.956  26.662  27.665  1.00  0.00     0.131 C 
ATOM     16  C   UNL A   1      39.506  26.082  27.622  1.00  0.00     0.011 C 
ATOM     17  C   UNL A   1      44.461  26.846  27.589  1.00  0.00     0.154 A 
ATOM     18  C   UNL A   1      45.437  25.936  27.346  1.00  0.00     0.170 A 
ATOM     19  C   UNL A   1      44.707  28.225  27.827  1.00  0.00     0.283 A 
ATOM     20  N   UNL A   1      46.763  26.303  27.322  1.00  0.00    -0.279 N 
ATOM     21  O   UNL A   1      43.827  29.013  28.127  1.00  0.00    -0.267 OA
ATOM     22  C   UNL A   1      47.107  27.640  27.534  1.00  0.00     0.332 A 
ATOM     23  C   UNL A   1      47.793  25.305  27.093  1.00  0.00     0.157 C 
ATOM     24  O   UNL A   1      48.286  28.004  27.587  1.00  0.00    -0.247 OA
BRANCH   9  25
ATOM     25  C   UNL A   1      42.749  22.594  26.700  1.00  0.00     0.044 A 
ATOM     26  C   UNL A   1      43.063  19.913  25.853  1.00  0.00     0.119 A 
ATOM     27  C   UNL A   1      42.223  20.218  26.918  1.00  0.00     0.048 A 
ATOM     28  C   UNL A   1      43.717  20.945  25.181  1.00  0.00     0.048 A 
ATOM     29  C   UNL A   1      42.077  21.540  27.344  1.00  0.00     0.030 A 
ATOM     30  C   UNL A   1      43.548  22.276  25.596  1.00  0.00     0.030 A 
BRANCH  26  31
ATOM     31  O   UNL A   1      43.119  18.591  25.510  1.00  0.00    -0.497 OA
ATOM     32  C   UNL A   1      42.976  17.681  26.595  1.00  0.00     0.278 C 
ENDBRANCH  26  31
ENDBRANCH   9  25
ENDBRANCH   7   8
ENDBRANCH   4   7
ENDBRANCH   2   3
ENDBRANCH   1   2
BRANCH   1  33
ATOM     33  C   UNL A   1      47.803  34.777  26.255  1.00  0.00     0.023 C 
BRANCH  33  34
ATOM     34  C   UNL A   1      46.629  35.649  25.771  1.00  0.00     0.116 C 
BRANCH  34  35
ATOM     35  N   UNL A   1      45.763  34.904  24.879  1.00  0.00    -0.352 N 
ATOM     36  C   UNL A   1      44.728  34.042  25.116  1.00  0.00     0.251 C 
ATOM     37  H   UNL A   1      45.955  35.044  23.923  1.00  0.00     0.163 HD
ATOM     38  O   UNL A   1      44.353  33.328  24.184  1.00  0.00    -0.269 OA
BRANCH  36  39
ATOM     39  C   UNL A   1      44.031  33.931  26.418  1.00  0.00     0.039 A 
ATOM     40  C   UNL A   1      43.358  35.073  26.876  1.00  0.00     0.014 A 
ATOM     41  C   UNL A   1      44.165  32.829  27.267  1.00  0.00     0.014 A 
ATOM     42  C   UNL A   1      42.816  35.115  28.160  1.00  0.00     0.010 A 
ATOM     43  C   UNL A   1      43.615  32.870  28.559  1.00  0.00     0.010 A 
ATOM     44  C   UNL A   1      42.934  34.009  29.012  1.00  0.00    -0.014 A 
BRANCH  44  45
ATOM     45  C   UNL A   1      42.208  34.066  30.301  1.00  0.00     0.031 A 
ATOM     46  C   UNL A   1      40.747  33.763  30.218  1.00  0.00     0.074 A 
ATOM     47  C   UNL A   1      42.825  33.902  31.493  1.00  0.00     0.049 A 
ATOM     48  N   UNL A   1      40.273  32.550  30.206  1.00  0.00    -0.248 NA
ATOM     49  C   UNL A   1      39.755  34.785  29.882  1.00  0.00     0.031 C 
ATOM     50  C   UNL A   1      43.935  32.966  31.707  1.00  0.00     0.029 A 
ATOM     51  N   UNL A   1      42.468  34.301  32.764  1.00  0.00    -0.354 N 
ATOM     52  C   UNL A   1      38.946  32.628  29.822  1.00  0.00     0.074 A 
ATOM     53  C   UNL A   1      38.667  34.035  29.640  1.00  0.00     0.031 C 
ATOM     54  C   UNL A   1      44.051  32.731  33.031  1.00  0.00     0.029 A 
ATOM     55  C   UNL A   1      43.133  33.600  33.770  1.00  0.00     0.049 A 
ATOM     56  H   UNL A   1      41.809  35.010  32.943  1.00  0.00     0.167 HD
ATOM     57  C   UNL A   1      38.158  31.530  29.670  1.00  0.00     0.037 A 
ATOM     58  C   UNL A   1      42.594  33.281  34.980  1.00  0.00     0.037 A 
ATOM     59  C   UNL A   1      38.780  30.275  29.972  1.00  0.00     0.049 A 
ATOM     60  C   UNL A   1      41.578  32.243  34.585  1.00  0.00     0.074 A 
ATOM     61  C   UNL A   1      39.396  29.250  29.289  1.00  0.00     0.029 A 
ATOM     62  N   UNL A   1      38.868  29.912  31.294  1.00  0.00    -0.354 N 
ATOM     63  N   UNL A   1      41.826  30.993  34.308  1.00  0.00    -0.248 NA
ATOM     64  C   UNL A   1      40.266  32.720  34.140  1.00  0.00     0.031 C 
ATOM     65  C   UNL A   1      40.223  28.595  30.256  1.00  0.00     0.029 A 
ATOM     66  C   UNL A   1      40.082  29.297  31.453  1.00  0.00     0.049 A 
ATOM     67  H   UNL A   1      38.190  30.063  31.992  1.00  0.00     0.167 HD
ATOM     68  C   UNL A   1      40.822  30.604  33.419  1.00  0.00     0.074 A 
ATOM     69  C   UNL A   1      39.876  31.701  33.387  1.00  0.00     0.031 C 
ATOM     70  C   UNL A   1      40.913  29.504  32.615  1.00  0.00     0.037 A 
BRANCH  57  71
ATOM     71  C   UNL A   1      36.711  31.543  29.385  1.00  0.00     0.057 A 
ATOM     72  C   UNL A   1      36.283  31.108  28.123  1.00  0.00     0.134 A 
ATOM     73  C   UNL A   1      35.787  32.206  30.194  1.00  0.00     0.134 A 
ATOM     74  F   UNL A   1      37.141  30.476  27.303  1.00  0.00    -0.206 F 
ATOM     75  C   UNL A   1      35.000  31.370  27.654  1.00  0.00     0.040 A 
ATOM     76  C   UNL A   1      34.490  32.466  29.740  1.00  0.00     0.040 A 
ATOM     77  F   UNL A   1      36.142  32.661  31.405  1.00  0.00    -0.206 F 
ATOM     78  C   UNL A   1      34.102  32.066  28.459  1.00  0.00     0.006 A 
ENDBRANCH  57  71
BRANCH  58  79
ATOM     79  C   UNL A   1      42.293  34.410  35.917  1.00  0.00     0.057 A 
ATOM     80  C   UNL A   1      42.910  34.419  37.183  1.00  0.00     0.134 A 
ATOM     81  C   UNL A   1      41.406  35.468  35.672  1.00  0.00     0.134 A 
ATOM     82  F   UNL A   1      43.674  33.387  37.572  1.00  0.00    -0.206 F 
ATOM     83  C   UNL A   1      42.754  35.472  38.089  1.00  0.00     0.040 A 
ATOM     84  C   UNL A   1      41.262  36.544  36.558  1.00  0.00     0.040 A 
ATOM     85  F   UNL A   1      40.646  35.503  34.570  1.00  0.00    -0.206 F 
ATOM     86  C   UNL A   1      41.953  36.558  37.764  1.00  0.00     0.006 A 
ENDBRANCH  58  79
BRANCH  70  87
ATOM     87  C   UNL A   1      42.115  28.650  32.832  1.00  0.00     0.057 A 
ATOM     88  C   UNL A   1      43.289  28.869  32.107  1.00  0.00     0.134 A 
ATOM     89  C   UNL A   1      42.121  27.614  33.776  1.00  0.00     0.134 A 
ATOM     90  F   UNL A   1      43.353  29.852  31.193  1.00  0.00    -0.206 F 
ATOM     91  C   UNL A   1      44.432  28.098  32.322  1.00  0.00     0.040 A 
ATOM     92  C   UNL A   1      43.265  26.854  34.020  1.00  0.00     0.040 A 
ATOM     93  F   UNL A   1      41.023  27.326  34.495  1.00  0.00    -0.206 F 
ATOM     94  C   UNL A   1      44.426  27.095  33.290  1.00  0.00     0.006 A 
ENDBRANCH  70  87
ENDBRANCH  44  45
ENDBRANCH  36  39
ENDBRANCH  34  35
ENDBRANCH  33  34
ENDBRANCH   1  33
TORSDOF 14
ENDMDL
