MODEL 1
REMARK VINA RESULT:     -12.9      0.000      0.000
REMARK SMILES CC[C@@H](C)[C@@H](NC(=O)CCn1ccc2ccc(Br)cc21)C(=O)NCCCCNC(=O)c1ccc(-c2c3nc(c(-c4c(F)cccc4F)c4ccc([nH]4)c(-c4c(F)cccc4F)c4nc(c(-c5c(F)cccc5F)c5ccc2[nH]5)C=C4)C=C3)cc1
REMARK SMILES IDX 24 1 23 2 21 3 22 4 5 6 3 7 4 8 2 9 1 10 6 11 7 12 8 14 9 15
REMARK SMILES IDX 10 16 11 17 12 18 20 19 13 20 14 21 19 22 15 23 17 24 16 25
REMARK SMILES IDX 18 26 25 27 26 28 27 29 28 30 29 31 30 33 31 34 32 35 84 36
REMARK SMILES IDX 33 37 83 38 34 39 35 40 36 41 77 42 37 43 82 44 76 45 78 46
REMARK SMILES IDX 38 47 81 48 75 49 74 50 39 52 65 53 48 54 64 55 49 56 52 57
REMARK SMILES IDX 63 58 79 59 50 60 51 61 62 63 80 64 53 65 40 66 41 67 46 68
REMARK SMILES IDX 42 69 43 70 45 71 47 72 44 73 66 74 67 75 72 76 68 77 69 78
REMARK SMILES IDX 71 79 73 80 70 81 54 82 55 83 60 84 56 85 57 86 59 87 61 88
REMARK SMILES IDX 58 89
REMARK H PARENT 23 5 6 13 28 32 78 51 52 62
REMARK Flexibility Score: inf
ROOT
ATOM      1  C   UNL A   1      31.788  27.282  25.969  1.00  0.00     0.116 C 
ENDROOT
BRANCH   1   2
ATOM      2  N   UNL A   1      32.268  27.922  24.743  1.00  0.00    -0.354 N 
ATOM      3  C   UNL A   1      32.009  27.873  23.350  1.00  0.00     0.242 C 
ATOM      4  O   UNL A   1      32.453  28.624  22.479  1.00  0.00    -0.273 OA
ATOM      5  H   UNL A   1      32.974  28.577  24.946  1.00  0.00     0.163 HD
BRANCH   3   6
ATOM      6  C   UNL A   1      30.969  26.966  22.868  1.00  0.00     0.174 C 
BRANCH   6   7
ATOM      7  C   UNL A   1      29.786  27.913  23.323  1.00  0.00     0.018 C 
ATOM      8  C   UNL A   1      28.601  27.011  23.853  1.00  0.00     0.010 C 
BRANCH   7   9
ATOM      9  C   UNL A   1      29.190  28.979  22.411  1.00  0.00     0.002 C 
ATOM     10  C   UNL A   1      29.171  30.324  23.173  1.00  0.00     0.004 C 
ENDBRANCH   7   9
ENDBRANCH   6   7
BRANCH   6  11
ATOM     11  N   UNL A   1      31.797  26.738  21.654  1.00  0.00    -0.344 N 
ATOM     12  C   UNL A   1      32.538  25.570  21.271  1.00  0.00     0.222 C 
ATOM     13  H   UNL A   1      31.844  27.494  21.025  1.00  0.00     0.164 HD
ATOM     14  O   UNL A   1      33.008  25.632  20.122  1.00  0.00    -0.275 OA
BRANCH  12  15
ATOM     15  C   UNL A   1      32.863  24.132  22.182  1.00  0.00     0.122 C 
BRANCH  15  16
ATOM     16  C   UNL A   1      33.304  23.719  23.810  1.00  0.00     0.132 C 
BRANCH  16  17
ATOM     17  N   UNL A   1      34.222  22.633  24.329  1.00  0.00    -0.347 N 
ATOM     18  C   UNL A   1      33.937  21.516  25.111  1.00  0.00     0.087 A 
ATOM     19  C   UNL A   1      35.598  22.651  24.627  1.00  0.00     0.049 A 
ATOM     20  C   UNL A   1      34.767  20.539  24.626  1.00  0.00     0.028 A 
ATOM     21  C   UNL A   1      35.950  21.277  24.724  1.00  0.00    -0.000 A 
ATOM     22  C   UNL A   1      36.494  23.638  25.054  1.00  0.00     0.042 A 
ATOM     23  C   UNL A   1      37.195  20.851  25.195  1.00  0.00     0.011 A 
ATOM     24  C   UNL A   1      37.671  23.168  25.682  1.00  0.00     0.020 A 
ATOM     25  C   UNL A   1      38.020  21.814  25.750  1.00  0.00     0.016 A 
ATOM     26  Br  UNL A   1      38.778  24.397  26.609  1.00  0.00    -0.051 Br
ENDBRANCH  16  17
ENDBRANCH  15  16
ENDBRANCH  12  15
ENDBRANCH   6  11
ENDBRANCH   3   6
ENDBRANCH   1   2
BRANCH   1  27
ATOM     27  C   UNL A   1      32.137  28.152  27.201  1.00  0.00     0.023 C 
BRANCH  27  28
ATOM     28  C   UNL A   1      32.056  29.699  27.090  1.00  0.00     0.023 C 
BRANCH  28  29
ATOM     29  C   UNL A   1      33.350  30.465  26.816  1.00  0.00     0.116 C 
BRANCH  29  30
ATOM     30  N   UNL A   1      33.689  31.420  27.847  1.00  0.00    -0.352 N 
ATOM     31  C   UNL A   1      34.767  31.680  28.641  1.00  0.00     0.251 C 
ATOM     32  H   UNL A   1      32.948  32.044  28.022  1.00  0.00     0.163 HD
ATOM     33  O   UNL A   1      34.627  32.643  29.410  1.00  0.00    -0.269 OA
BRANCH  31  34
ATOM     34  C   UNL A   1      36.041  30.911  28.711  1.00  0.00     0.039 A 
ATOM     35  C   UNL A   1      36.208  29.541  28.506  1.00  0.00     0.014 A 
ATOM     36  C   UNL A   1      37.186  31.682  28.995  1.00  0.00     0.014 A 
ATOM     37  C   UNL A   1      37.465  28.947  28.693  1.00  0.00     0.010 A 
ATOM     38  C   UNL A   1      38.439  31.102  29.148  1.00  0.00     0.010 A 
ATOM     39  C   UNL A   1      38.571  29.720  29.062  1.00  0.00    -0.014 A 
BRANCH  39  40
ATOM     40  C   UNL A   1      39.862  29.068  29.305  1.00  0.00     0.031 A 
ATOM     41  C   UNL A   1      40.280  28.925  30.734  1.00  0.00     0.074 A 
ATOM     42  C   UNL A   1      40.578  28.477  28.323  1.00  0.00     0.049 A 
ATOM     43  N   UNL A   1      41.360  29.354  31.308  1.00  0.00    -0.248 NA
ATOM     44  C   UNL A   1      39.343  28.263  31.654  1.00  0.00     0.031 C 
ATOM     45  C   UNL A   1      40.192  28.256  26.925  1.00  0.00     0.029 A 
ATOM     46  N   UNL A   1      41.786  27.848  28.403  1.00  0.00    -0.354 N 
ATOM     47  C   UNL A   1      41.319  28.883  32.624  1.00  0.00     0.074 A 
ATOM     48  C   UNL A   1      40.008  28.317  32.809  1.00  0.00     0.031 C 
ATOM     49  C   UNL A   1      41.030  27.358  26.363  1.00  0.00     0.029 A 
ATOM     50  C   UNL A   1      42.089  27.051  27.307  1.00  0.00     0.049 A 
ATOM     51  H   UNL A   1      42.392  27.951  29.171  1.00  0.00     0.167 HD
ATOM     52  C   UNL A   1      42.429  28.826  33.412  1.00  0.00     0.037 A 
ATOM     53  C   UNL A   1      43.103  26.157  27.202  1.00  0.00     0.037 A 
ATOM     54  C   UNL A   1      43.477  29.680  32.923  1.00  0.00     0.049 A 
ATOM     55  C   UNL A   1      44.110  26.488  28.237  1.00  0.00     0.074 A 
ATOM     56  C   UNL A   1      43.612  31.038  32.705  1.00  0.00     0.029 A 
ATOM     57  N   UNL A   1      44.539  29.103  32.271  1.00  0.00    -0.354 N 
ATOM     58  N   UNL A   1      44.855  27.557  28.212  1.00  0.00    -0.248 NA
ATOM     59  C   UNL A   1      43.980  25.846  29.535  1.00  0.00     0.031 C 
ATOM     60  C   UNL A   1      44.416  31.143  31.531  1.00  0.00     0.029 A 
ATOM     61  C   UNL A   1      44.749  29.846  31.140  1.00  0.00     0.049 A 
ATOM     62  H   UNL A   1      45.047  28.311  32.560  1.00  0.00     0.167 HD
ATOM     63  C   UNL A   1      44.934  27.962  29.537  1.00  0.00     0.074 A 
ATOM     64  C   UNL A   1      44.453  26.823  30.313  1.00  0.00     0.031 C 
ATOM     65  C   UNL A   1      45.114  29.275  29.867  1.00  0.00     0.037 A 
BRANCH  52  66
ATOM     66  C   UNL A   1      42.702  27.748  34.436  1.00  0.00     0.057 A 
ATOM     67  C   UNL A   1      42.334  27.847  35.792  1.00  0.00     0.134 A 
ATOM     68  C   UNL A   1      43.045  26.451  34.005  1.00  0.00     0.134 A 
ATOM     69  F   UNL A   1      41.921  28.996  36.339  1.00  0.00    -0.206 F 
ATOM     70  C   UNL A   1      42.270  26.739  36.643  1.00  0.00     0.040 A 
ATOM     71  C   UNL A   1      42.936  25.328  34.836  1.00  0.00     0.040 A 
ATOM     72  F   UNL A   1      43.413  26.220  32.735  1.00  0.00    -0.206 F 
ATOM     73  C   UNL A   1      42.535  25.468  36.157  1.00  0.00     0.006 A 
ENDBRANCH  52  66
BRANCH  53  74
ATOM     74  C   UNL A   1      43.106  24.870  26.469  1.00  0.00     0.057 A 
ATOM     75  C   UNL A   1      42.480  23.729  27.000  1.00  0.00     0.134 A 
ATOM     76  C   UNL A   1      43.931  24.656  25.356  1.00  0.00     0.134 A 
ATOM     77  F   UNL A   1      41.741  23.802  28.117  1.00  0.00    -0.206 F 
ATOM     78  C   UNL A   1      42.660  22.451  26.462  1.00  0.00     0.040 A 
ATOM     79  C   UNL A   1      44.127  23.379  24.810  1.00  0.00     0.040 A 
ATOM     80  F   UNL A   1      44.611  25.672  24.808  1.00  0.00    -0.206 F 
ATOM     81  C   UNL A   1      43.495  22.271  25.368  1.00  0.00     0.006 A 
ENDBRANCH  53  74
BRANCH  65  82
ATOM     82  C   UNL A   1      45.443  30.238  28.760  1.00  0.00     0.057 A 
ATOM     83  C   UNL A   1      46.762  30.677  28.608  1.00  0.00     0.134 A 
ATOM     84  C   UNL A   1      44.475  30.848  27.949  1.00  0.00     0.134 A 
ATOM     85  F   UNL A   1      47.733  30.187  29.394  1.00  0.00    -0.206 F 
ATOM     86  C   UNL A   1      47.106  31.663  27.679  1.00  0.00     0.040 A 
ATOM     87  C   UNL A   1      44.809  31.809  26.993  1.00  0.00     0.040 A 
ATOM     88  F   UNL A   1      43.173  30.573  28.099  1.00  0.00    -0.206 F 
ATOM     89  C   UNL A   1      46.130  32.224  26.859  1.00  0.00     0.006 A 
ENDBRANCH  65  82
ENDBRANCH  39  40
ENDBRANCH  31  34
ENDBRANCH  29  30
ENDBRANCH  28  29
ENDBRANCH  27  28
ENDBRANCH   1  27
TORSDOF 17
ENDMDL
MODEL 2
REMARK VINA RESULT:     -12.8      2.885      8.128
REMARK SMILES CC[C@@H](C)[C@@H](NC(=O)CCn1ccc2ccc(Br)cc21)C(=O)NCCCCNC(=O)c1ccc(-c2c3nc(c(-c4c(F)cccc4F)c4ccc([nH]4)c(-c4c(F)cccc4F)c4nc(c(-c5c(F)cccc5F)c5ccc2[nH]5)C=C4)C=C3)cc1
REMARK SMILES IDX 24 1 23 2 21 3 22 4 5 6 3 7 4 8 2 9 1 10 6 11 7 12 8 14 9 15
REMARK SMILES IDX 10 16 11 17 12 18 20 19 13 20 14 21 19 22 15 23 17 24 16 25
REMARK SMILES IDX 18 26 25 27 26 28 27 29 28 30 29 31 30 33 31 34 32 35 84 36
REMARK SMILES IDX 33 37 83 38 34 39 35 40 36 41 77 42 37 43 82 44 76 45 78 46
REMARK SMILES IDX 38 47 81 48 75 49 74 50 39 52 65 53 48 54 64 55 49 56 52 57
REMARK SMILES IDX 63 58 79 59 50 60 51 61 62 63 80 64 53 65 40 66 41 67 46 68
REMARK SMILES IDX 42 69 43 70 45 71 47 72 44 73 66 74 67 75 72 76 68 77 69 78
REMARK SMILES IDX 71 79 73 80 70 81 54 82 55 83 60 84 56 85 57 86 59 87 61 88
REMARK SMILES IDX 58 89
REMARK H PARENT 23 5 6 13 28 32 78 51 52 62
REMARK Flexibility Score: inf
ROOT
ATOM      1  C   UNL A   1      37.329  23.872  26.111  1.00  0.00     0.116 C 
ENDROOT
BRANCH   1   2
ATOM      2  N   UNL A   1      36.406  22.778  26.416  1.00  0.00    -0.354 N 
ATOM      3  C   UNL A   1      35.057  22.424  26.155  1.00  0.00     0.242 C 
ATOM      4  O   UNL A   1      34.502  21.352  26.404  1.00  0.00    -0.273 OA
ATOM      5  H   UNL A   1      36.850  22.088  26.958  1.00  0.00     0.163 HD
BRANCH   3   6
ATOM      6  C   UNL A   1      34.248  23.328  25.340  1.00  0.00     0.174 C 
BRANCH   6   7
ATOM      7  C   UNL A   1      34.377  22.438  24.037  1.00  0.00     0.018 C 
ATOM      8  C   UNL A   1      35.516  23.049  23.127  1.00  0.00     0.010 C 
BRANCH   7   9
ATOM      9  C   UNL A   1      33.187  22.114  23.142  1.00  0.00     0.002 C 
ATOM     10  C   UNL A   1      32.499  20.839  23.681  1.00  0.00     0.004 C 
ENDBRANCH   7   9
ENDBRANCH   6   7
BRANCH   6  11
ATOM     11  N   UNL A   1      33.322  23.465  26.496  1.00  0.00    -0.344 N 
ATOM     12  C   UNL A   1      31.893  23.586  26.500  1.00  0.00     0.222 C 
ATOM     13  H   UNL A   1      33.751  23.475  27.382  1.00  0.00     0.164 HD
ATOM     14  O   UNL A   1      31.391  23.532  27.636  1.00  0.00    -0.275 OA
BRANCH  12  15
ATOM     15  C   UNL A   1      30.808  23.804  25.166  1.00  0.00     0.122 C 
BRANCH  15  16
ATOM     16  C   UNL A   1      30.692  24.819  23.762  1.00  0.00     0.132 C 
BRANCH  16  17
ATOM     17  N   UNL A   1      30.719  26.328  23.641  1.00  0.00    -0.347 N 
ATOM     18  C   UNL A   1      30.861  27.135  22.516  1.00  0.00     0.087 A 
ATOM     19  C   UNL A   1      31.107  27.321  24.562  1.00  0.00     0.049 A 
ATOM     20  C   UNL A   1      30.049  28.211  22.762  1.00  0.00     0.028 A 
ATOM     21  C   UNL A   1      30.580  28.523  24.016  1.00  0.00    -0.000 A 
ATOM     22  C   UNL A   1      32.021  27.372  25.621  1.00  0.00     0.042 A 
ATOM     23  C   UNL A   1      30.902  29.785  24.525  1.00  0.00     0.011 A 
ATOM     24  C   UNL A   1      32.454  28.664  25.997  1.00  0.00     0.020 A 
ATOM     25  C   UNL A   1      31.911  29.842  25.471  1.00  0.00     0.016 A 
ATOM     26  Br  UNL A   1      33.939  28.838  27.164  1.00  0.00    -0.051 Br
ENDBRANCH  16  17
ENDBRANCH  15  16
ENDBRANCH  12  15
ENDBRANCH   6  11
ENDBRANCH   3   6
ENDBRANCH   1   2
BRANCH   1  27
ATOM     27  C   UNL A   1      38.790  23.426  26.362  1.00  0.00     0.023 C 
BRANCH  27  28
ATOM     28  C   UNL A   1      39.172  21.931  26.192  1.00  0.00     0.023 C 
BRANCH  28  29
ATOM     29  C   UNL A   1      40.589  21.506  26.575  1.00  0.00     0.116 C 
BRANCH  29  30
ATOM     30  N   UNL A   1      41.601  21.948  25.642  1.00  0.00    -0.352 N 
ATOM     31  C   UNL A   1      42.393  23.047  25.486  1.00  0.00     0.251 C 
ATOM     32  H   UNL A   1      41.759  21.282  24.935  1.00  0.00     0.163 HD
ATOM     33  O   UNL A   1      43.160  23.003  24.513  1.00  0.00    -0.269 OA
BRANCH  31  34
ATOM     34  C   UNL A   1      42.390  24.286  26.314  1.00  0.00     0.039 A 
ATOM     35  C   UNL A   1      42.931  24.444  27.591  1.00  0.00     0.014 A 
ATOM     36  C   UNL A   1      41.789  25.406  25.707  1.00  0.00     0.014 A 
ATOM     37  C   UNL A   1      42.772  25.655  28.280  1.00  0.00     0.010 A 
ATOM     38  C   UNL A   1      41.659  26.618  26.374  1.00  0.00     0.010 A 
ATOM     39  C   UNL A   1      42.094  26.727  27.690  1.00  0.00    -0.014 A 
BRANCH  39  40
ATOM     40  C   UNL A   1      41.892  27.964  28.452  1.00  0.00     0.031 A 
ATOM     41  C   UNL A   1      42.939  29.021  28.301  1.00  0.00     0.074 A 
ATOM     42  C   UNL A   1      40.754  28.226  29.132  1.00  0.00     0.049 A 
ATOM     43  N   UNL A   1      43.658  29.586  29.220  1.00  0.00    -0.248 NA
ATOM     44  C   UNL A   1      43.266  29.466  26.937  1.00  0.00     0.031 C 
ATOM     45  C   UNL A   1      39.510  27.449  29.151  1.00  0.00     0.029 A 
ATOM     46  N   UNL A   1      40.436  29.320  29.883  1.00  0.00    -0.354 N 
ATOM     47  C   UNL A   1      44.416  30.569  28.577  1.00  0.00     0.074 A 
ATOM     48  C   UNL A   1      44.217  30.373  27.164  1.00  0.00     0.031 C 
ATOM     49  C   UNL A   1      38.518  28.201  29.678  1.00  0.00     0.029 A 
ATOM     50  C   UNL A   1      39.082  29.448  30.162  1.00  0.00     0.049 A 
ATOM     51  H   UNL A   1      41.109  29.963  30.202  1.00  0.00     0.167 HD
ATOM     52  C   UNL A   1      45.008  31.592  29.256  1.00  0.00     0.037 A 
ATOM     53  C   UNL A   1      38.456  30.525  30.697  1.00  0.00     0.037 A 
ATOM     54  C   UNL A   1      45.140  31.298  30.657  1.00  0.00     0.049 A 
ATOM     55  C   UNL A   1      39.480  31.359  31.368  1.00  0.00     0.074 A 
ATOM     56  C   UNL A   1      45.793  30.332  31.397  1.00  0.00     0.029 A 
ATOM     57  N   UNL A   1      44.274  31.901  31.535  1.00  0.00    -0.354 N 
ATOM     58  N   UNL A   1      40.112  31.005  32.452  1.00  0.00    -0.248 NA
ATOM     59  C   UNL A   1      40.120  32.404  30.585  1.00  0.00     0.031 C 
ATOM     60  C   UNL A   1      44.926  30.065  32.498  1.00  0.00     0.029 A 
ATOM     61  C   UNL A   1      43.827  30.916  32.376  1.00  0.00     0.049 A 
ATOM     62  H   UNL A   1      44.022  32.852  31.554  1.00  0.00     0.167 HD
ATOM     63  C   UNL A   1      41.410  31.459  32.268  1.00  0.00     0.074 A 
ATOM     64  C   UNL A   1      41.332  32.389  31.144  1.00  0.00     0.031 C 
ATOM     65  C   UNL A   1      42.470  30.830  32.855  1.00  0.00     0.037 A 
BRANCH  52  66
ATOM     66  C   UNL A   1      45.165  32.998  28.725  1.00  0.00     0.057 A 
ATOM     67  C   UNL A   1      44.093  33.898  28.563  1.00  0.00     0.134 A 
ATOM     68  C   UNL A   1      46.447  33.583  28.675  1.00  0.00     0.134 A 
ATOM     69  F   UNL A   1      42.816  33.511  28.647  1.00  0.00    -0.206 F 
ATOM     70  C   UNL A   1      44.277  35.276  28.410  1.00  0.00     0.040 A 
ATOM     71  C   UNL A   1      46.639  34.967  28.572  1.00  0.00     0.040 A 
ATOM     72  F   UNL A   1      47.552  32.836  28.816  1.00  0.00    -0.206 F 
ATOM     73  C   UNL A   1      45.550  35.821  28.452  1.00  0.00     0.006 A 
ENDBRANCH  52  66
BRANCH  53  74
ATOM     74  C   UNL A   1      37.092  31.020  30.403  1.00  0.00     0.057 A 
ATOM     75  C   UNL A   1      36.705  31.356  29.093  1.00  0.00     0.134 A 
ATOM     76  C   UNL A   1      36.215  31.418  31.421  1.00  0.00     0.134 A 
ATOM     77  F   UNL A   1      37.510  31.104  28.049  1.00  0.00    -0.206 F 
ATOM     78  C   UNL A   1      35.521  32.042  28.808  1.00  0.00     0.040 A 
ATOM     79  C   UNL A   1      35.027  32.114  31.152  1.00  0.00     0.040 A 
ATOM     80  F   UNL A   1      36.517  31.189  32.707  1.00  0.00    -0.206 F 
ATOM     81  C   UNL A   1      34.681  32.434  29.842  1.00  0.00     0.006 A 
ENDBRANCH  53  74
BRANCH  65  82
ATOM     82  C   UNL A   1      42.177  29.771  33.880  1.00  0.00     0.057 A 
ATOM     83  C   UNL A   1      42.284  30.087  35.238  1.00  0.00     0.134 A 
ATOM     84  C   UNL A   1      41.944  28.425  33.560  1.00  0.00     0.134 A 
ATOM     85  F   UNL A   1      42.571  31.341  35.620  1.00  0.00    -0.206 F 
ATOM     86  C   UNL A   1      42.145  29.115  36.233  1.00  0.00     0.040 A 
ATOM     87  C   UNL A   1      41.770  27.450  34.544  1.00  0.00     0.040 A 
ATOM     88  F   UNL A   1      41.936  28.008  32.288  1.00  0.00    -0.206 F 
ATOM     89  C   UNL A   1      41.875  27.794  35.887  1.00  0.00     0.006 A 
ENDBRANCH  65  82
ENDBRANCH  39  40
ENDBRANCH  31  34
ENDBRANCH  29  30
ENDBRANCH  28  29
ENDBRANCH  27  28
ENDBRANCH   1  27
TORSDOF 17
ENDMDL
MODEL 3
REMARK VINA RESULT:     -12.5      1.325      1.740
REMARK SMILES CC[C@@H](C)[C@@H](NC(=O)CCn1ccc2ccc(Br)cc21)C(=O)NCCCCNC(=O)c1ccc(-c2c3nc(c(-c4c(F)cccc4F)c4ccc([nH]4)c(-c4c(F)cccc4F)c4nc(c(-c5c(F)cccc5F)c5ccc2[nH]5)C=C4)C=C3)cc1
REMARK SMILES IDX 24 1 23 2 21 3 22 4 5 6 3 7 4 8 2 9 1 10 6 11 7 12 8 14 9 15
REMARK SMILES IDX 10 16 11 17 12 18 20 19 13 20 14 21 19 22 15 23 17 24 16 25
REMARK SMILES IDX 18 26 25 27 26 28 27 29 28 30 29 31 30 33 31 34 32 35 84 36
REMARK SMILES IDX 33 37 83 38 34 39 35 40 36 41 77 42 37 43 82 44 76 45 78 46
REMARK SMILES IDX 38 47 81 48 75 49 74 50 39 52 65 53 48 54 64 55 49 56 52 57
REMARK SMILES IDX 63 58 79 59 50 60 51 61 62 63 80 64 53 65 40 66 41 67 46 68
REMARK SMILES IDX 42 69 43 70 45 71 47 72 44 73 66 74 67 75 72 76 68 77 69 78
REMARK SMILES IDX 71 79 73 80 70 81 54 82 55 83 60 84 56 85 57 86 59 87 61 88
REMARK SMILES IDX 58 89
REMARK H PARENT 23 5 6 13 28 32 78 51 52 62
REMARK Flexibility Score: inf
ROOT
ATOM      1  C   UNL A   1      33.309  27.370  26.185  1.00  0.00     0.116 C 
ENDROOT
BRANCH   1   2
ATOM      2  N   UNL A   1      33.409  27.235  24.731  1.00  0.00    -0.354 N 
ATOM      3  C   UNL A   1      32.545  27.207  23.607  1.00  0.00     0.242 C 
ATOM      4  O   UNL A   1      32.864  27.219  22.417  1.00  0.00    -0.273 OA
ATOM      5  H   UNL A   1      34.348  27.135  24.454  1.00  0.00     0.163 HD
BRANCH   3   6
ATOM      6  C   UNL A   1      31.109  27.365  23.831  1.00  0.00     0.174 C 
BRANCH   6   7
ATOM      7  C   UNL A   1      31.094  28.875  23.358  1.00  0.00     0.018 C 
ATOM      8  C   UNL A   1      30.877  29.793  24.626  1.00  0.00     0.010 C 
BRANCH   7   9
ATOM      9  C   UNL A   1      30.176  29.380  22.252  1.00  0.00     0.002 C 
ATOM     10  C   UNL A   1      28.739  29.479  22.813  1.00  0.00     0.004 C 
ENDBRANCH   7   9
ENDBRANCH   6   7
BRANCH   6  11
ATOM     11  N   UNL A   1      30.916  26.017  23.231  1.00  0.00    -0.344 N 
ATOM     12  C   UNL A   1      30.847  24.740  23.882  1.00  0.00     0.222 C 
ATOM     13  H   UNL A   1      30.823  25.999  22.252  1.00  0.00     0.164 HD
ATOM     14  O   UNL A   1      30.526  23.810  23.122  1.00  0.00    -0.275 OA
BRANCH  12  15
ATOM     15  C   UNL A   1      31.157  24.336  25.539  1.00  0.00     0.122 C 
BRANCH  15  16
ATOM     16  C   UNL A   1      32.472  23.700  26.477  1.00  0.00     0.132 C 
BRANCH  16  17
ATOM     17  N   UNL A   1      33.474  22.614  26.147  1.00  0.00    -0.347 N 
ATOM     18  C   UNL A   1      33.535  21.290  26.574  1.00  0.00     0.087 A 
ATOM     19  C   UNL A   1      34.830  22.691  25.774  1.00  0.00     0.049 A 
ATOM     20  C   UNL A   1      33.996  20.600  25.484  1.00  0.00     0.028 A 
ATOM     21  C   UNL A   1      35.121  21.399  25.260  1.00  0.00    -0.000 A 
ATOM     22  C   UNL A   1      35.867  23.594  26.034  1.00  0.00     0.042 A 
ATOM     23  C   UNL A   1      36.421  20.988  24.950  1.00  0.00     0.011 A 
ATOM     24  C   UNL A   1      37.177  23.088  25.871  1.00  0.00     0.020 A 
ATOM     25  C   UNL A   1      37.454  21.822  25.341  1.00  0.00     0.016 A 
ATOM     26  Br  UNL A   1      38.645  24.093  26.528  1.00  0.00    -0.051 Br
ENDBRANCH  16  17
ENDBRANCH  15  16
ENDBRANCH  12  15
ENDBRANCH   6  11
ENDBRANCH   3   6
ENDBRANCH   1   2
BRANCH   1  27
ATOM     27  C   UNL A   1      34.158  28.569  26.672  1.00  0.00     0.023 C 
BRANCH  27  28
ATOM     28  C   UNL A   1      33.447  29.871  27.133  1.00  0.00     0.023 C 
BRANCH  28  29
ATOM     29  C   UNL A   1      34.306  31.114  27.357  1.00  0.00     0.116 C 
BRANCH  29  30
ATOM     30  N   UNL A   1      34.218  31.647  28.698  1.00  0.00    -0.352 N 
ATOM     31  C   UNL A   1      35.031  31.724  29.790  1.00  0.00     0.251 C 
ATOM     32  H   UNL A   1      33.341  32.062  28.867  1.00  0.00     0.163 HD
ATOM     33  O   UNL A   1      34.537  32.302  30.769  1.00  0.00    -0.269 OA
BRANCH  31  34
ATOM     34  C   UNL A   1      36.399  31.151  29.937  1.00  0.00     0.039 A 
ATOM     35  C   UNL A   1      37.603  31.854  29.991  1.00  0.00     0.014 A 
ATOM     36  C   UNL A   1      36.446  29.748  30.056  1.00  0.00     0.014 A 
ATOM     37  C   UNL A   1      38.823  31.163  30.046  1.00  0.00     0.010 A 
ATOM     38  C   UNL A   1      37.651  29.061  30.143  1.00  0.00     0.010 A 
ATOM     39  C   UNL A   1      38.848  29.765  30.073  1.00  0.00    -0.014 A 
BRANCH  39  40
ATOM     40  C   UNL A   1      40.137  29.064  30.075  1.00  0.00     0.031 A 
ATOM     41  C   UNL A   1      40.824  28.930  31.396  1.00  0.00     0.074 A 
ATOM     42  C   UNL A   1      40.622  28.424  28.987  1.00  0.00     0.049 A 
ATOM     43  N   UNL A   1      42.012  29.324  31.735  1.00  0.00    -0.248 NA
ATOM     44  C   UNL A   1      40.064  28.325  32.501  1.00  0.00     0.031 C 
ATOM     45  C   UNL A   1      39.957  28.194  27.700  1.00  0.00     0.029 A 
ATOM     46  N   UNL A   1      41.797  27.746  28.844  1.00  0.00    -0.354 N 
ATOM     47  C   UNL A   1      42.215  28.880  33.044  1.00  0.00     0.074 A 
ATOM     48  C   UNL A   1      40.946  28.374  33.500  1.00  0.00     0.031 C 
ATOM     49  C   UNL A   1      40.633  27.250  27.007  1.00  0.00     0.029 A 
ATOM     50  C   UNL A   1      41.846  26.917  27.732  1.00  0.00     0.049 A 
ATOM     51  H   UNL A   1      42.546  27.838  29.475  1.00  0.00     0.167 HD
ATOM     52  C   UNL A   1      43.456  28.791  33.599  1.00  0.00     0.037 A 
ATOM     53  C   UNL A   1      42.785  25.979  27.453  1.00  0.00     0.037 A 
ATOM     54  C   UNL A   1      44.417  29.591  32.890  1.00  0.00     0.049 A 
ATOM     55  C   UNL A   1      43.989  26.287  28.259  1.00  0.00     0.074 A 
ATOM     56  C   UNL A   1      44.557  30.937  32.614  1.00  0.00     0.029 A 
ATOM     57  N   UNL A   1      45.307  28.958  32.058  1.00  0.00    -0.354 N 
ATOM     58  N   UNL A   1      44.754  27.323  28.059  1.00  0.00    -0.248 NA
ATOM     59  C   UNL A   1      44.095  25.675  29.574  1.00  0.00     0.031 C 
ATOM     60  C   UNL A   1      45.116  30.986  31.301  1.00  0.00     0.029 A 
ATOM     61  C   UNL A   1      45.316  29.669  30.887  1.00  0.00     0.049 A 
ATOM     62  H   UNL A   1      45.832  28.150  32.262  1.00  0.00     0.167 HD
ATOM     63  C   UNL A   1      45.109  27.749  29.331  1.00  0.00     0.074 A 
ATOM     64  C   UNL A   1      44.749  26.646  30.217  1.00  0.00     0.031 C 
ATOM     65  C   UNL A   1      45.399  29.059  29.584  1.00  0.00     0.037 A 
BRANCH  52  66
ATOM     66  C   UNL A   1      43.885  27.722  34.578  1.00  0.00     0.057 A 
ATOM     67  C   UNL A   1      44.024  26.362  34.239  1.00  0.00     0.134 A 
ATOM     68  C   UNL A   1      44.484  28.097  35.798  1.00  0.00     0.134 A 
ATOM     69  F   UNL A   1      43.567  25.862  33.085  1.00  0.00    -0.206 F 
ATOM     70  C   UNL A   1      44.739  25.454  35.026  1.00  0.00     0.040 A 
ATOM     71  C   UNL A   1      45.244  27.206  36.567  1.00  0.00     0.040 A 
ATOM     72  F   UNL A   1      44.425  29.364  36.235  1.00  0.00    -0.206 F 
ATOM     73  C   UNL A   1      45.385  25.882  36.176  1.00  0.00     0.006 A 
ENDBRANCH  52  66
BRANCH  53  74
ATOM     74  C   UNL A   1      42.594  24.679  26.768  1.00  0.00     0.057 A 
ATOM     75  C   UNL A   1      42.101  23.558  27.460  1.00  0.00     0.134 A 
ATOM     76  C   UNL A   1      43.122  24.431  25.494  1.00  0.00     0.134 A 
ATOM     77  F   UNL A   1      41.655  23.664  28.720  1.00  0.00    -0.206 F 
ATOM     78  C   UNL A   1      42.129  22.268  26.921  1.00  0.00     0.040 A 
ATOM     79  C   UNL A   1      43.164  23.142  24.944  1.00  0.00     0.040 A 
ATOM     80  F   UNL A   1      43.661  25.425  24.776  1.00  0.00    -0.206 F 
ATOM     81  C   UNL A   1      42.672  22.054  25.662  1.00  0.00     0.006 A 
ENDBRANCH  53  74
BRANCH  65  82
ATOM     82  C   UNL A   1      45.539  29.986  28.408  1.00  0.00     0.057 A 
ATOM     83  C   UNL A   1      46.817  30.317  27.947  1.00  0.00     0.134 A 
ATOM     84  C   UNL A   1      44.460  30.667  27.825  1.00  0.00     0.134 A 
ATOM     85  F   UNL A   1      47.903  29.754  28.502  1.00  0.00    -0.206 F 
ATOM     86  C   UNL A   1      47.014  31.266  26.941  1.00  0.00     0.040 A 
ATOM     87  C   UNL A   1      44.639  31.594  26.796  1.00  0.00     0.040 A 
ATOM     88  F   UNL A   1      43.211  30.500  28.275  1.00  0.00    -0.206 F 
ATOM     89  C   UNL A   1      45.922  31.899  26.353  1.00  0.00     0.006 A 
ENDBRANCH  65  82
ENDBRANCH  39  40
ENDBRANCH  31  34
ENDBRANCH  29  30
ENDBRANCH  28  29
ENDBRANCH  27  28
ENDBRANCH   1  27
TORSDOF 17
ENDMDL
