MODEL 1
REMARK VINA RESULT:     -12.0      0.000      0.000
REMARK SMILES O=C(CSc1ccc2ccccc2n1)NCc1ccc(C(=O)NCCCCNC(=O)c2ccc(-c3c4nc(c(-c5c(F)cccc5F)c5ccc([nH]5)c(-c5c(F)cccc5F)c5nc(c(-c6c(F)cccc6F)c6ccc3[nH]6)C=C5)C=C4)cc2)cc1
REMARK SMILES IDX 24 1 23 2 21 3 22 4 20 6 17 7 18 8 86 9 19 10 85 11 16 12
REMARK SMILES IDX 15 13 1 14 2 15 3 17 4 18 5 19 6 20 14 21 7 22 13 23 8 24
REMARK SMILES IDX 12 25 9 26 11 27 10 28 25 29 26 30 27 31 28 32 29 33 30 35
REMARK SMILES IDX 31 36 32 37 84 38 33 39 83 40 34 41 35 42 36 43 77 44 37 45
REMARK SMILES IDX 82 46 76 47 78 48 38 49 81 50 75 51 74 52 39 54 65 55 48 56
REMARK SMILES IDX 64 57 49 58 52 59 63 60 79 61 50 62 51 63 62 65 80 66 53 67
REMARK SMILES IDX 40 68 41 69 46 70 42 71 43 72 45 73 47 74 44 75 66 76 67 77
REMARK SMILES IDX 72 78 68 79 69 80 71 81 73 82 70 83 54 84 55 85 60 86 56 87
REMARK SMILES IDX 57 88 59 89 61 90 58 91
REMARK H PARENT 23 5 15 16 28 34 78 53 52 64
REMARK Flexibility Score: inf
ROOT
ATOM      1  C   UNL A   1      31.402  29.403  25.131  1.00  0.00     0.116 C 
ENDROOT
BRANCH   1   2
ATOM      2  N   UNL A   1      30.795  29.647  23.837  1.00  0.00    -0.352 N 
ATOM      3  C   UNL A   1      30.710  28.869  22.709  1.00  0.00     0.251 C 
ATOM      4  O   UNL A   1      30.066  29.310  21.756  1.00  0.00    -0.269 OA
ATOM      5  H   UNL A   1      30.365  30.529  23.752  1.00  0.00     0.163 HD
BRANCH   3   6
ATOM      6  C   UNL A   1      31.317  27.512  22.606  1.00  0.00     0.039 A 
ATOM      7  C   UNL A   1      32.604  25.005  22.337  1.00  0.00    -0.029 A 
ATOM      8  C   UNL A   1      33.263  26.185  21.977  1.00  0.00     0.006 A 
ATOM      9  C   UNL A   1      31.301  25.097  22.843  1.00  0.00     0.006 A 
ATOM     10  C   UNL A   1      32.625  27.425  22.109  1.00  0.00     0.014 A 
ATOM     11  C   UNL A   1      30.681  26.338  23.009  1.00  0.00     0.014 A 
BRANCH   7  12
ATOM     12  C   UNL A   1      33.261  23.659  22.146  1.00  0.00     0.151 C 
BRANCH  12  13
ATOM     13  N   UNL A   1      33.075  22.813  23.305  1.00  0.00    -0.351 N 
ATOM     14  O   UNL A   1      31.954  21.139  22.209  1.00  0.00    -0.274 OA
ATOM     15  C   UNL A   1      32.411  21.611  23.248  1.00  0.00     0.230 C 
ATOM     16  H   UNL A   1      33.438  23.112  24.171  1.00  0.00     0.163 HD
BRANCH  15  17
ATOM     17  C   UNL A   1      32.168  20.945  24.588  1.00  0.00     0.176 C 
BRANCH  17  18
ATOM     18  S   UNL A   1      33.126  19.418  24.803  1.00  0.00    -0.096 SA
BRANCH  18  19
ATOM     19  C   UNL A   1      34.792  20.027  24.972  1.00  0.00     0.097 A 
ATOM     20  C   UNL A   1      35.921  19.246  24.777  1.00  0.00     0.036 A 
ATOM     21  N   UNL A   1      34.864  21.323  25.350  1.00  0.00    -0.241 NA
ATOM     22  C   UNL A   1      37.175  19.824  24.965  1.00  0.00     0.013 A 
ATOM     23  C   UNL A   1      36.072  21.875  25.554  1.00  0.00     0.072 A 
ATOM     24  C   UNL A   1      37.271  21.159  25.369  1.00  0.00     0.000 A 
ATOM     25  C   UNL A   1      36.158  23.197  25.970  1.00  0.00     0.029 A 
ATOM     26  C   UNL A   1      38.512  21.778  25.596  1.00  0.00     0.010 A 
ATOM     27  C   UNL A   1      37.389  23.816  26.205  1.00  0.00     0.002 A 
ATOM     28  C   UNL A   1      38.568  23.104  26.016  1.00  0.00     0.001 A 
ENDBRANCH  18  19
ENDBRANCH  17  18
ENDBRANCH  15  17
ENDBRANCH  12  13
ENDBRANCH   7  12
ENDBRANCH   3   6
ENDBRANCH   1   2
BRANCH   1  29
ATOM     29  C   UNL A   1      32.913  29.653  25.081  1.00  0.00     0.023 C 
BRANCH  29  30
ATOM     30  C   UNL A   1      33.753  28.586  25.785  1.00  0.00     0.023 C 
BRANCH  30  31
ATOM     31  C   UNL A   1      33.778  28.697  27.305  1.00  0.00     0.116 C 
BRANCH  31  32
ATOM     32  N   UNL A   1      33.754  30.070  27.783  1.00  0.00    -0.352 N 
ATOM     33  C   UNL A   1      34.775  30.777  28.380  1.00  0.00     0.251 C 
ATOM     34  H   UNL A   1      32.905  30.555  27.667  1.00  0.00     0.163 HD
ATOM     35  O   UNL A   1      34.589  31.900  28.821  1.00  0.00    -0.269 OA
BRANCH  33  36
ATOM     36  C   UNL A   1      36.093  30.126  28.519  1.00  0.00     0.039 A 
ATOM     37  C   UNL A   1      36.994  30.194  27.454  1.00  0.00     0.014 A 
ATOM     38  C   UNL A   1      36.453  29.515  29.722  1.00  0.00     0.014 A 
ATOM     39  C   UNL A   1      38.294  29.713  27.623  1.00  0.00     0.010 A 
ATOM     40  C   UNL A   1      37.763  29.092  29.908  1.00  0.00     0.010 A 
ATOM     41  C   UNL A   1      38.698  29.196  28.864  1.00  0.00    -0.014 A 
BRANCH  41  42
ATOM     42  C   UNL A   1      40.092  28.759  29.112  1.00  0.00     0.031 A 
ATOM     43  C   UNL A   1      41.085  29.731  29.678  1.00  0.00     0.074 A 
ATOM     44  C   UNL A   1      40.486  27.529  28.729  1.00  0.00     0.049 A 
ATOM     45  N   UNL A   1      42.381  29.610  29.807  1.00  0.00    -0.248 NA
ATOM     46  C   UNL A   1      40.551  31.027  30.129  1.00  0.00     0.031 C 
ATOM     47  C   UNL A   1      39.622  26.506  28.137  1.00  0.00     0.029 A 
ATOM     48  N   UNL A   1      41.726  26.942  28.755  1.00  0.00    -0.354 N 
ATOM     49  C   UNL A   1      42.820  30.821  30.324  1.00  0.00     0.074 A 
ATOM     50  C   UNL A   1      41.660  31.675  30.454  1.00  0.00     0.031 C 
ATOM     51  C   UNL A   1      40.356  25.416  27.862  1.00  0.00     0.029 A 
ATOM     52  C   UNL A   1      41.748  25.678  28.216  1.00  0.00     0.049 A 
ATOM     53  H   UNL A   1      42.524  27.383  29.127  1.00  0.00     0.167 HD
ATOM     54  C   UNL A   1      44.077  31.182  30.673  1.00  0.00     0.037 A 
ATOM     55  C   UNL A   1      42.778  24.835  28.014  1.00  0.00     0.037 A 
ATOM     56  C   UNL A   1      45.222  30.317  30.576  1.00  0.00     0.049 A 
ATOM     57  C   UNL A   1      44.164  25.259  28.412  1.00  0.00     0.074 A 
ATOM     58  C   UNL A   1      46.528  30.568  30.960  1.00  0.00     0.029 A 
ATOM     59  N   UNL A   1      45.196  29.029  30.064  1.00  0.00    -0.354 N 
ATOM     60  N   UNL A   1      44.562  26.390  28.942  1.00  0.00    -0.248 NA
ATOM     61  C   UNL A   1      45.246  24.289  28.183  1.00  0.00     0.031 C 
ATOM     62  C   UNL A   1      47.298  29.442  30.651  1.00  0.00     0.029 A 
ATOM     63  C   UNL A   1      46.464  28.477  30.109  1.00  0.00     0.049 A 
ATOM     64  H   UNL A   1      44.393  28.574  29.717  1.00  0.00     0.167 HD
ATOM     65  C   UNL A   1      45.929  26.258  29.139  1.00  0.00     0.074 A 
ATOM     66  C   UNL A   1      46.296  24.936  28.674  1.00  0.00     0.031 C 
ATOM     67  C   UNL A   1      46.804  27.152  29.662  1.00  0.00     0.037 A 
BRANCH  54  68
ATOM     68  C   UNL A   1      44.277  32.574  31.192  1.00  0.00     0.057 A 
ATOM     69  C   UNL A   1      44.560  33.646  30.337  1.00  0.00     0.134 A 
ATOM     70  C   UNL A   1      44.154  32.850  32.559  1.00  0.00     0.134 A 
ATOM     71  F   UNL A   1      44.704  33.443  29.018  1.00  0.00    -0.206 F 
ATOM     72  C   UNL A   1      44.741  34.940  30.826  1.00  0.00     0.040 A 
ATOM     73  C   UNL A   1      44.308  34.145  33.057  1.00  0.00     0.040 A 
ATOM     74  F   UNL A   1      43.879  31.870  33.432  1.00  0.00    -0.206 F 
ATOM     75  C   UNL A   1      44.608  35.193  32.189  1.00  0.00     0.006 A 
ENDBRANCH  54  68
BRANCH  55  76
ATOM     76  C   UNL A   1      42.537  23.500  27.414  1.00  0.00     0.057 A 
ATOM     77  C   UNL A   1      42.182  22.407  28.213  1.00  0.00     0.134 A 
ATOM     78  C   UNL A   1      42.657  23.281  26.037  1.00  0.00     0.134 A 
ATOM     79  F   UNL A   1      42.070  22.553  29.542  1.00  0.00    -0.206 F 
ATOM     80  C   UNL A   1      41.967  21.141  27.668  1.00  0.00     0.040 A 
ATOM     81  C   UNL A   1      42.425  22.024  25.475  1.00  0.00     0.040 A 
ATOM     82  F   UNL A   1      42.988  24.289  25.217  1.00  0.00    -0.206 F 
ATOM     83  C   UNL A   1      42.085  20.949  26.293  1.00  0.00     0.006 A 
ENDBRANCH  55  76
BRANCH  67  84
ATOM     84  C   UNL A   1      48.230  26.718  29.805  1.00  0.00     0.057 A 
ATOM     85  C   UNL A   1      48.674  26.001  30.921  1.00  0.00     0.134 A 
ATOM     86  C   UNL A   1      49.152  26.963  28.779  1.00  0.00     0.134 A 
ATOM     87  F   UNL A   1      47.841  25.746  31.942  1.00  0.00    -0.206 F 
ATOM     88  C   UNL A   1      49.991  25.548  31.017  1.00  0.00     0.040 A 
ATOM     89  C   UNL A   1      50.465  26.497  28.854  1.00  0.00     0.040 A 
ATOM     90  F   UNL A   1      48.785  27.638  27.680  1.00  0.00    -0.206 F 
ATOM     91  C   UNL A   1      50.887  25.788  29.977  1.00  0.00     0.006 A 
ENDBRANCH  67  84
ENDBRANCH  41  42
ENDBRANCH  33  36
ENDBRANCH  31  32
ENDBRANCH  30  31
ENDBRANCH  29  30
ENDBRANCH   1  29
TORSDOF 16
ENDMDL
MODEL 2
REMARK VINA RESULT:     -11.8      2.400      7.480
REMARK SMILES O=C(CSc1ccc2ccccc2n1)NCc1ccc(C(=O)NCCCCNC(=O)c2ccc(-c3c4nc(c(-c5c(F)cccc5F)c5ccc([nH]5)c(-c5c(F)cccc5F)c5nc(c(-c6c(F)cccc6F)c6ccc3[nH]6)C=C5)C=C4)cc2)cc1
REMARK SMILES IDX 24 1 23 2 21 3 22 4 20 6 17 7 18 8 86 9 19 10 85 11 16 12
REMARK SMILES IDX 15 13 1 14 2 15 3 17 4 18 5 19 6 20 14 21 7 22 13 23 8 24
REMARK SMILES IDX 12 25 9 26 11 27 10 28 25 29 26 30 27 31 28 32 29 33 30 35
REMARK SMILES IDX 31 36 32 37 84 38 33 39 83 40 34 41 35 42 36 43 77 44 37 45
REMARK SMILES IDX 82 46 76 47 78 48 38 49 81 50 75 51 74 52 39 54 65 55 48 56
REMARK SMILES IDX 64 57 49 58 52 59 63 60 79 61 50 62 51 63 62 65 80 66 53 67
REMARK SMILES IDX 40 68 41 69 46 70 42 71 43 72 45 73 47 74 44 75 66 76 67 77
REMARK SMILES IDX 72 78 68 79 69 80 71 81 73 82 70 83 54 84 55 85 60 86 56 87
REMARK SMILES IDX 57 88 59 89 61 90 58 91
REMARK H PARENT 23 5 15 16 28 34 78 53 52 64
REMARK Flexibility Score: inf
ROOT
ATOM      1  C   UNL A   1      35.534  21.795  26.065  1.00  0.00     0.116 C 
ENDROOT
BRANCH   1   2
ATOM      2  N   UNL A   1      34.569  20.743  25.813  1.00  0.00    -0.352 N 
ATOM      3  C   UNL A   1      33.202  20.770  25.685  1.00  0.00     0.251 C 
ATOM      4  O   UNL A   1      32.631  19.716  25.402  1.00  0.00    -0.269 OA
ATOM      5  H   UNL A   1      34.964  19.846  25.716  1.00  0.00     0.163 HD
BRANCH   3   6
ATOM      6  C   UNL A   1      32.394  22.015  25.826  1.00  0.00     0.039 A 
ATOM      7  C   UNL A   1      30.806  24.355  25.935  1.00  0.00    -0.029 A 
ATOM      8  C   UNL A   1      30.763  23.517  24.816  1.00  0.00     0.006 A 
ATOM      9  C   UNL A   1      31.643  24.000  27.001  1.00  0.00     0.006 A 
ATOM     10  C   UNL A   1      31.549  22.360  24.762  1.00  0.00     0.014 A 
ATOM     11  C   UNL A   1      32.399  22.826  26.960  1.00  0.00     0.014 A 
BRANCH   7  12
ATOM     12  C   UNL A   1      30.005  25.634  25.980  1.00  0.00     0.151 C 
BRANCH  12  13
ATOM     13  N   UNL A   1      30.821  26.779  25.640  1.00  0.00    -0.351 N 
ATOM     14  O   UNL A   1      31.116  27.517  27.791  1.00  0.00    -0.274 OA
ATOM     15  C   UNL A   1      31.304  27.653  26.584  1.00  0.00     0.230 C 
ATOM     16  H   UNL A   1      31.038  26.940  24.693  1.00  0.00     0.163 HD
BRANCH  15  17
ATOM     17  C   UNL A   1      31.996  28.883  26.029  1.00  0.00     0.176 C 
BRANCH  17  18
ATOM     18  S   UNL A   1      33.776  28.638  25.775  1.00  0.00    -0.096 SA
BRANCH  18  19
ATOM     19  C   UNL A   1      33.835  27.072  24.927  1.00  0.00     0.097 A 
ATOM     20  C   UNL A   1      34.447  25.939  25.441  1.00  0.00     0.036 A 
ATOM     21  N   UNL A   1      33.259  27.092  23.704  1.00  0.00    -0.241 NA
ATOM     22  C   UNL A   1      34.455  24.777  24.674  1.00  0.00     0.013 A 
ATOM     23  C   UNL A   1      33.286  25.978  22.953  1.00  0.00     0.072 A 
ATOM     24  C   UNL A   1      33.876  24.780  23.402  1.00  0.00     0.000 A 
ATOM     25  C   UNL A   1      32.722  25.994  21.685  1.00  0.00     0.029 A 
ATOM     26  C   UNL A   1      33.882  23.638  22.581  1.00  0.00     0.010 A 
ATOM     27  C   UNL A   1      32.733  24.865  20.861  1.00  0.00     0.002 A 
ATOM     28  C   UNL A   1      33.312  23.684  21.311  1.00  0.00     0.001 A 
ENDBRANCH  18  19
ENDBRANCH  17  18
ENDBRANCH  15  17
ENDBRANCH  12  13
ENDBRANCH   7  12
ENDBRANCH   3   6
ENDBRANCH   1   2
BRANCH   1  29
ATOM     29  C   UNL A   1      36.421  22.028  24.838  1.00  0.00     0.023 C 
BRANCH  29  30
ATOM     30  C   UNL A   1      37.516  20.978  24.642  1.00  0.00     0.023 C 
BRANCH  30  31
ATOM     31  C   UNL A   1      38.596  20.977  25.717  1.00  0.00     0.116 C 
BRANCH  31  32
ATOM     32  N   UNL A   1      39.493  19.836  25.633  1.00  0.00    -0.352 N 
ATOM     33  C   UNL A   1      40.824  19.778  25.982  1.00  0.00     0.251 C 
ATOM     34  H   UNL A   1      39.102  19.002  25.284  1.00  0.00     0.163 HD
ATOM     35  O   UNL A   1      41.487  18.775  25.771  1.00  0.00    -0.269 OA
BRANCH  33  36
ATOM     36  C   UNL A   1      41.449  20.977  26.576  1.00  0.00     0.039 A 
ATOM     37  C   UNL A   1      41.971  21.956  25.726  1.00  0.00     0.014 A 
ATOM     38  C   UNL A   1      41.453  21.157  27.960  1.00  0.00     0.014 A 
ATOM     39  C   UNL A   1      42.430  23.159  26.266  1.00  0.00     0.010 A 
ATOM     40  C   UNL A   1      41.855  22.377  28.490  1.00  0.00     0.010 A 
ATOM     41  C   UNL A   1      42.337  23.392  27.647  1.00  0.00    -0.014 A 
BRANCH  41  42
ATOM     42  C   UNL A   1      42.731  24.688  28.249  1.00  0.00     0.031 A 
ATOM     43  C   UNL A   1      41.691  25.748  28.473  1.00  0.00     0.074 A 
ATOM     44  C   UNL A   1      44.030  24.948  28.490  1.00  0.00     0.049 A 
ATOM     45  N   UNL A   1      41.847  26.999  28.818  1.00  0.00    -0.248 NA
ATOM     46  C   UNL A   1      40.292  25.353  28.244  1.00  0.00     0.031 C 
ATOM     47  C   UNL A   1      45.136  24.011  28.283  1.00  0.00     0.029 A 
ATOM     48  N   UNL A   1      44.642  26.091  28.938  1.00  0.00    -0.354 N 
ATOM     49  C   UNL A   1      40.572  27.548  28.820  1.00  0.00     0.074 A 
ATOM     50  C   UNL A   1      39.658  26.504  28.408  1.00  0.00     0.031 C 
ATOM     51  C   UNL A   1      46.290  24.616  28.607  1.00  0.00     0.029 A 
ATOM     52  C   UNL A   1      46.011  25.993  29.003  1.00  0.00     0.049 A 
ATOM     53  H   UNL A   1      44.148  26.905  29.189  1.00  0.00     0.167 HD
ATOM     54  C   UNL A   1      40.196  28.806  29.149  1.00  0.00     0.037 A 
ATOM     55  C   UNL A   1      46.936  26.916  29.327  1.00  0.00     0.037 A 
ATOM     56  C   UNL A   1      41.103  29.830  29.593  1.00  0.00     0.049 A 
ATOM     57  C   UNL A   1      46.494  28.305  29.691  1.00  0.00     0.074 A 
ATOM     58  C   UNL A   1      40.814  31.118  30.008  1.00  0.00     0.029 A 
ATOM     59  N   UNL A   1      42.479  29.678  29.686  1.00  0.00    -0.354 N 
ATOM     60  N   UNL A   1      45.281  28.801  29.733  1.00  0.00    -0.248 NA
ATOM     61  C   UNL A   1      47.548  29.265  30.053  1.00  0.00     0.031 C 
ATOM     62  C   UNL A   1      42.018  31.756  30.323  1.00  0.00     0.029 A 
ATOM     63  C   UNL A   1      43.053  30.853  30.139  1.00  0.00     0.049 A 
ATOM     64  H   UNL A   1      42.973  28.856  29.462  1.00  0.00     0.167 HD
ATOM     65  C   UNL A   1      45.421  30.115  30.154  1.00  0.00     0.074 A 
ATOM     66  C   UNL A   1      46.837  30.343  30.358  1.00  0.00     0.031 C 
ATOM     67  C   UNL A   1      44.462  31.051  30.356  1.00  0.00     0.037 A 
BRANCH  54  68
ATOM     68  C   UNL A   1      38.739  29.141  29.041  1.00  0.00     0.057 A 
ATOM     69  C   UNL A   1      37.879  29.056  30.144  1.00  0.00     0.134 A 
ATOM     70  C   UNL A   1      38.196  29.583  27.829  1.00  0.00     0.134 A 
ATOM     71  F   UNL A   1      38.336  28.626  31.330  1.00  0.00    -0.206 F 
ATOM     72  C   UNL A   1      36.525  29.373  30.038  1.00  0.00     0.040 A 
ATOM     73  C   UNL A   1      36.848  29.928  27.717  1.00  0.00     0.040 A 
ATOM     74  F   UNL A   1      38.966  29.692  26.736  1.00  0.00    -0.206 F 
ATOM     75  C   UNL A   1      36.008  29.817  28.823  1.00  0.00     0.006 A 
ENDBRANCH  54  68
BRANCH  55  76
ATOM     76  C   UNL A   1      48.375  26.553  29.333  1.00  0.00     0.057 A 
ATOM     77  C   UNL A   1      48.975  26.015  30.477  1.00  0.00     0.134 A 
ATOM     78  C   UNL A   1      49.183  26.737  28.205  1.00  0.00     0.134 A 
ATOM     79  F   UNL A   1      48.255  25.834  31.593  1.00  0.00    -0.206 F 
ATOM     80  C   UNL A   1      50.330  25.684  30.505  1.00  0.00     0.040 A 
ATOM     81  C   UNL A   1      50.536  26.391  28.212  1.00  0.00     0.040 A 
ATOM     82  F   UNL A   1      48.666  27.243  27.076  1.00  0.00    -0.206 F 
ATOM     83  C   UNL A   1      51.114  25.868  29.367  1.00  0.00     0.006 A 
ENDBRANCH  55  76
BRANCH  67  84
ATOM     84  C   UNL A   1      44.901  32.389  30.868  1.00  0.00     0.057 A 
ATOM     85  C   UNL A   1      45.066  32.638  32.235  1.00  0.00     0.134 A 
ATOM     86  C   UNL A   1      45.227  33.418  29.974  1.00  0.00     0.134 A 
ATOM     87  F   UNL A   1      44.758  31.697  33.140  1.00  0.00    -0.206 F 
ATOM     88  C   UNL A   1      45.534  33.869  32.698  1.00  0.00     0.040 A 
ATOM     89  C   UNL A   1      45.716  34.644  30.424  1.00  0.00     0.040 A 
ATOM     90  F   UNL A   1      45.097  33.237  28.651  1.00  0.00    -0.206 F 
ATOM     91  C   UNL A   1      45.868  34.873  31.790  1.00  0.00     0.006 A 
ENDBRANCH  67  84
ENDBRANCH  41  42
ENDBRANCH  33  36
ENDBRANCH  31  32
ENDBRANCH  30  31
ENDBRANCH  29  30
ENDBRANCH   1  29
TORSDOF 16
ENDMDL
MODEL 3
REMARK VINA RESULT:     -11.7      2.748      7.541
REMARK SMILES O=C(CSc1ccc2ccccc2n1)NCc1ccc(C(=O)NCCCCNC(=O)c2ccc(-c3c4nc(c(-c5c(F)cccc5F)c5ccc([nH]5)c(-c5c(F)cccc5F)c5nc(c(-c6c(F)cccc6F)c6ccc3[nH]6)C=C5)C=C4)cc2)cc1
REMARK SMILES IDX 24 1 23 2 21 3 22 4 20 6 17 7 18 8 86 9 19 10 85 11 16 12
REMARK SMILES IDX 15 13 1 14 2 15 3 17 4 18 5 19 6 20 14 21 7 22 13 23 8 24
REMARK SMILES IDX 12 25 9 26 11 27 10 28 25 29 26 30 27 31 28 32 29 33 30 35
REMARK SMILES IDX 31 36 32 37 84 38 33 39 83 40 34 41 35 42 36 43 77 44 37 45
REMARK SMILES IDX 82 46 76 47 78 48 38 49 81 50 75 51 74 52 39 54 65 55 48 56
REMARK SMILES IDX 64 57 49 58 52 59 63 60 79 61 50 62 51 63 62 65 80 66 53 67
REMARK SMILES IDX 40 68 41 69 46 70 42 71 43 72 45 73 47 74 44 75 66 76 67 77
REMARK SMILES IDX 72 78 68 79 69 80 71 81 73 82 70 83 54 84 55 85 60 86 56 87
REMARK SMILES IDX 57 88 59 89 61 90 58 91
REMARK H PARENT 23 5 15 16 28 34 78 53 52 64
REMARK Flexibility Score: inf
ROOT
ATOM      1  C   UNL A   1      35.646  21.759  25.975  1.00  0.00     0.116 C 
ENDROOT
BRANCH   1   2
ATOM      2  N   UNL A   1      34.710  20.675  25.748  1.00  0.00    -0.352 N 
ATOM      3  C   UNL A   1      33.341  20.657  25.652  1.00  0.00     0.251 C 
ATOM      4  O   UNL A   1      32.799  19.584  25.385  1.00  0.00    -0.269 OA
ATOM      5  H   UNL A   1      35.133  19.791  25.643  1.00  0.00     0.163 HD
BRANCH   3   6
ATOM      6  C   UNL A   1      32.496  21.875  25.810  1.00  0.00     0.039 A 
ATOM      7  C   UNL A   1      30.836  24.163  25.953  1.00  0.00    -0.029 A 
ATOM      8  C   UNL A   1      30.804  23.329  24.830  1.00  0.00     0.006 A 
ATOM      9  C   UNL A   1      31.699  23.830  27.005  1.00  0.00     0.006 A 
ATOM     10  C   UNL A   1      31.625  22.197  24.760  1.00  0.00     0.014 A 
ATOM     11  C   UNL A   1      32.491  22.680  26.948  1.00  0.00     0.014 A 
BRANCH   7  12
ATOM     12  C   UNL A   1      29.995  25.415  26.015  1.00  0.00     0.151 C 
BRANCH  12  13
ATOM     13  N   UNL A   1      30.737  26.571  25.560  1.00  0.00    -0.351 N 
ATOM     14  O   UNL A   1      31.029  27.507  27.634  1.00  0.00    -0.274 OA
ATOM     15  C   UNL A   1      31.187  27.548  26.416  1.00  0.00     0.230 C 
ATOM     16  H   UNL A   1      30.927  26.661  24.598  1.00  0.00     0.163 HD
BRANCH  15  17
ATOM     17  C   UNL A   1      31.796  28.763  25.743  1.00  0.00     0.176 C 
BRANCH  17  18
ATOM     18  S   UNL A   1      33.592  28.622  25.523  1.00  0.00    -0.096 SA
BRANCH  18  19
ATOM     19  C   UNL A   1      33.769  27.000  24.808  1.00  0.00     0.097 A 
ATOM     20  C   UNL A   1      34.441  25.955  25.425  1.00  0.00     0.036 A 
ATOM     21  N   UNL A   1      33.220  26.882  23.578  1.00  0.00    -0.241 NA
ATOM     22  C   UNL A   1      34.540  24.737  24.757  1.00  0.00     0.013 A 
ATOM     23  C   UNL A   1      33.335  25.714  22.923  1.00  0.00     0.072 A 
ATOM     24  C   UNL A   1      33.990  24.598  23.480  1.00  0.00     0.000 A 
ATOM     25  C   UNL A   1      32.800  25.590  21.648  1.00  0.00     0.029 A 
ATOM     26  C   UNL A   1      34.087  23.396  22.757  1.00  0.00     0.010 A 
ATOM     27  C   UNL A   1      32.900  24.400  20.921  1.00  0.00     0.002 A 
ATOM     28  C   UNL A   1      33.544  23.301  21.478  1.00  0.00     0.001 A 
ENDBRANCH  18  19
ENDBRANCH  17  18
ENDBRANCH  15  17
ENDBRANCH  12  13
ENDBRANCH   7  12
ENDBRANCH   3   6
ENDBRANCH   1   2
BRANCH   1  29
ATOM     29  C   UNL A   1      36.773  21.733  24.939  1.00  0.00     0.023 C 
BRANCH  29  30
ATOM     30  C   UNL A   1      37.659  20.487  24.999  1.00  0.00     0.023 C 
BRANCH  30  31
ATOM     31  C   UNL A   1      38.970  20.674  25.752  1.00  0.00     0.116 C 
BRANCH  31  32
ATOM     32  N   UNL A   1      39.809  19.487  25.754  1.00  0.00    -0.352 N 
ATOM     33  C   UNL A   1      41.161  19.405  26.004  1.00  0.00     0.251 C 
ATOM     34  H   UNL A   1      39.356  18.636  25.552  1.00  0.00     0.163 HD
ATOM     35  O   UNL A   1      41.762  18.350  25.880  1.00  0.00    -0.269 OA
BRANCH  33  36
ATOM     36  C   UNL A   1      41.882  20.638  26.380  1.00  0.00     0.039 A 
ATOM     37  C   UNL A   1      42.194  21.567  25.385  1.00  0.00     0.014 A 
ATOM     38  C   UNL A   1      42.183  20.897  27.719  1.00  0.00     0.014 A 
ATOM     39  C   UNL A   1      42.742  22.800  25.745  1.00  0.00     0.010 A 
ATOM     40  C   UNL A   1      42.672  22.146  28.080  1.00  0.00     0.010 A 
ATOM     41  C   UNL A   1      42.946  23.112  27.098  1.00  0.00    -0.014 A 
BRANCH  41  42
ATOM     42  C   UNL A   1      43.442  24.442  27.527  1.00  0.00     0.031 A 
ATOM     43  C   UNL A   1      42.464  25.490  27.970  1.00  0.00     0.074 A 
ATOM     44  C   UNL A   1      44.751  24.737  27.414  1.00  0.00     0.049 A 
ATOM     45  N   UNL A   1      42.665  26.758  28.215  1.00  0.00    -0.248 NA
ATOM     46  C   UNL A   1      41.065  25.058  28.126  1.00  0.00     0.031 C 
ATOM     47  C   UNL A   1      45.795  23.813  26.964  1.00  0.00     0.029 A 
ATOM     48  N   UNL A   1      45.423  25.911  27.643  1.00  0.00    -0.354 N 
ATOM     49  C   UNL A   1      41.417  27.282  28.525  1.00  0.00     0.074 A 
ATOM     50  C   UNL A   1      40.460  26.204  28.404  1.00  0.00     0.031 C 
ATOM     51  C   UNL A   1      46.974  24.454  26.956  1.00  0.00     0.029 A 
ATOM     52  C   UNL A   1      46.765  25.842  27.356  1.00  0.00     0.049 A 
ATOM     53  H   UNL A   1      44.986  26.725  27.982  1.00  0.00     0.167 HD
ATOM     54  C   UNL A   1      41.101  28.546  28.891  1.00  0.00     0.037 A 
ATOM     55  C   UNL A   1      47.714  26.796  27.395  1.00  0.00     0.037 A 
ATOM     56  C   UNL A   1      42.061  29.606  29.045  1.00  0.00     0.049 A 
ATOM     57  C   UNL A   1      47.338  28.191  27.807  1.00  0.00     0.074 A 
ATOM     58  C   UNL A   1      41.849  30.906  29.470  1.00  0.00     0.029 A 
ATOM     59  N   UNL A   1      43.418  29.485  28.786  1.00  0.00    -0.354 N 
ATOM     60  N   UNL A   1      46.163  28.665  28.141  1.00  0.00    -0.248 NA
ATOM     61  C   UNL A   1      48.421  29.186  27.847  1.00  0.00     0.031 C 
ATOM     62  C   UNL A   1      43.074  31.581  29.439  1.00  0.00     0.029 A 
ATOM     63  C   UNL A   1      44.053  30.690  29.029  1.00  0.00     0.049 A 
ATOM     64  H   UNL A   1      43.862  28.664  28.473  1.00  0.00     0.167 HD
ATOM     65  C   UNL A   1      46.367  30.000  28.461  1.00  0.00     0.074 A 
ATOM     66  C   UNL A   1      47.780  30.264  28.283  1.00  0.00     0.031 C 
ATOM     67  C   UNL A   1      45.464  30.926  28.867  1.00  0.00     0.037 A 
BRANCH  54  68
ATOM     68  C   UNL A   1      39.656  28.849  29.150  1.00  0.00     0.057 A 
ATOM     69  C   UNL A   1      38.795  29.264  28.126  1.00  0.00     0.134 A 
ATOM     70  C   UNL A   1      39.113  28.694  30.431  1.00  0.00     0.134 A 
ATOM     71  F   UNL A   1      39.258  29.445  26.880  1.00  0.00    -0.206 F 
ATOM     72  C   UNL A   1      37.450  29.540  28.374  1.00  0.00     0.040 A 
ATOM     73  C   UNL A   1      37.763  28.943  30.685  1.00  0.00     0.040 A 
ATOM     74  F   UNL A   1      39.882  28.295  31.455  1.00  0.00    -0.206 F 
ATOM     75  C   UNL A   1      36.929  29.374  29.654  1.00  0.00     0.006 A 
ENDBRANCH  54  68
BRANCH  55  76
ATOM     76  C   UNL A   1      49.116  26.462  27.043  1.00  0.00     0.057 A 
ATOM     77  C   UNL A   1      49.568  26.560  25.721  1.00  0.00     0.134 A 
ATOM     78  C   UNL A   1      50.035  26.036  28.009  1.00  0.00     0.134 A 
ATOM     79  F   UNL A   1      48.727  26.945  24.750  1.00  0.00    -0.206 F 
ATOM     80  C   UNL A   1      50.878  26.235  25.370  1.00  0.00     0.040 A 
ATOM     81  C   UNL A   1      51.355  25.727  27.675  1.00  0.00     0.040 A 
ATOM     82  F   UNL A   1      49.665  25.928  29.294  1.00  0.00    -0.206 F 
ATOM     83  C   UNL A   1      51.777  25.820  26.351  1.00  0.00     0.006 A 
ENDBRANCH  55  76
BRANCH  67  84
ATOM     84  C   UNL A   1      45.979  32.293  29.196  1.00  0.00     0.057 A 
ATOM     85  C   UNL A   1      45.963  33.332  28.259  1.00  0.00     0.134 A 
ATOM     86  C   UNL A   1      46.431  32.589  30.489  1.00  0.00     0.134 A 
ATOM     87  F   UNL A   1      45.554  33.108  27.002  1.00  0.00    -0.206 F 
ATOM     88  C   UNL A   1      46.388  34.619  28.593  1.00  0.00     0.040 A 
ATOM     89  C   UNL A   1      46.838  33.876  30.841  1.00  0.00     0.040 A 
ATOM     90  F   UNL A   1      46.462  31.637  31.433  1.00  0.00    -0.206 F 
ATOM     91  C   UNL A   1      46.819  34.895  29.891  1.00  0.00     0.006 A 
ENDBRANCH  67  84
ENDBRANCH  41  42
ENDBRANCH  33  36
ENDBRANCH  31  32
ENDBRANCH  30  31
ENDBRANCH  29  30
ENDBRANCH   1  29
TORSDOF 16
ENDMDL
