MODEL 1
REMARK VINA RESULT:     -11.5      0.000      0.000
REMARK SMILES O=C(C[C@H]1C[C@H]2CC[C@@H](C1)N2C(=O)NCc1ncn[nH]1)NCCCCNC(=O)c1ccc(-c2c3nc(c(-c4c(F)cccc4F)c4ccc([nH]4)c(-c4c(F)cccc4F)c4nc(c(-c5c(F)cccc5F)c5ccc2[nH]5)C=C4)C=C3)cc1
REMARK SMILES IDX 22 1 21 2 1 3 2 4 3 6 4 7 5 8 10 9 6 10 9 11 7 12 11 13 8 14
REMARK SMILES IDX 12 15 13 16 14 17 15 19 16 20 17 21 20 22 18 23 19 24 23 26
REMARK SMILES IDX 24 27 25 28 26 29 27 30 28 32 29 33 30 34 82 35 31 36 81 37
REMARK SMILES IDX 32 38 33 39 34 40 75 41 35 42 80 43 74 44 76 45 36 46 79 47
REMARK SMILES IDX 73 48 72 49 37 51 63 52 46 53 62 54 47 55 50 56 61 57 77 58
REMARK SMILES IDX 48 59 49 60 60 62 78 63 51 64 38 65 39 66 44 67 40 68 41 69
REMARK SMILES IDX 43 70 45 71 42 72 64 73 65 74 70 75 66 76 67 77 69 78 71 79
REMARK SMILES IDX 68 80 52 81 53 82 58 83 54 84 55 85 57 86 59 87 56 88
REMARK H PARENT 21 5 14 18 20 25 26 31 76 50 50 61
REMARK Flexibility Score: inf
ROOT
ATOM      1  C   UNL A   1      31.469  28.266  24.584  1.00  0.00     0.116 C 
ENDROOT
BRANCH   1   2
ATOM      2  N   UNL A   1      31.783  27.096  23.790  1.00  0.00    -0.356 N 
ATOM      3  O   UNL A   1      29.917  25.853  24.222  1.00  0.00    -0.275 OA
ATOM      4  C   UNL A   1      31.001  25.973  23.657  1.00  0.00     0.220 C 
ATOM      5  H   UNL A   1      32.636  27.105  23.299  1.00  0.00     0.163 HD
BRANCH   4   6
ATOM      6  C   UNL A   1      31.637  24.802  22.882  1.00  0.00     0.103 C 
BRANCH   6   7
ATOM      7  C   UNL A   1      31.824  23.414  23.552  1.00  0.00     0.002 C 
ATOM      8  C   UNL A   1      33.016  22.571  23.094  1.00  0.00     0.029 C 
ATOM      9  C   UNL A   1      31.857  23.488  25.117  1.00  0.00     0.029 C 
ATOM     10  C   UNL A   1      34.328  22.962  23.796  1.00  0.00     0.087 C 
ATOM     11  C   UNL A   1      33.278  23.556  25.769  1.00  0.00     0.087 C 
ATOM     12  C   UNL A   1      34.643  24.458  24.010  1.00  0.00     0.027 C 
ATOM     13  N   UNL A   1      34.165  22.553  25.174  1.00  0.00    -0.319 N 
ATOM     14  C   UNL A   1      33.998  24.835  25.353  1.00  0.00     0.027 C 
BRANCH  13  15
ATOM     15  C   UNL A   1      34.883  21.498  25.620  1.00  0.00     0.318 C 
ATOM     16  O   UNL A   1      35.994  21.656  26.138  1.00  0.00    -0.249 OA
ATOM     17  N   UNL A   1      34.425  20.243  25.610  1.00  0.00    -0.331 N 
ATOM     18  H   UNL A   1      35.099  19.583  25.894  1.00  0.00     0.165 HD
BRANCH  17  19
ATOM     19  C   UNL A   1      33.160  19.647  25.272  1.00  0.00     0.194 C 
BRANCH  19  20
ATOM     20  C   UNL A   1      33.385  18.593  24.253  1.00  0.00     0.143 A 
ATOM     21  N   UNL A   1      34.353  17.701  24.187  1.00  0.00    -0.218 NA
ATOM     22  N   UNL A   1      32.529  18.387  23.208  1.00  0.00    -0.262 N 
ATOM     23  C   UNL A   1      34.010  16.941  23.108  1.00  0.00     0.246 A 
ATOM     24  N   UNL A   1      32.910  17.337  22.465  1.00  0.00    -0.162 NA
ATOM     25  H   UNL A   1      31.733  18.937  23.026  1.00  0.00     0.192 HD
ENDBRANCH  19  20
ENDBRANCH  17  19
ENDBRANCH  13  15
ENDBRANCH   6   7
ENDBRANCH   4   6
ENDBRANCH   1   2
BRANCH   1  26
ATOM     26  C   UNL A   1      32.725  29.104  24.863  1.00  0.00     0.023 C 
BRANCH  26  27
ATOM     27  C   UNL A   1      33.841  28.442  25.689  1.00  0.00     0.023 C 
BRANCH  27  28
ATOM     28  C   UNL A   1      33.739  28.554  27.209  1.00  0.00     0.116 C 
BRANCH  28  29
ATOM     29  N   UNL A   1      33.688  29.933  27.655  1.00  0.00    -0.352 N 
ATOM     30  C   UNL A   1      34.614  30.690  28.330  1.00  0.00     0.251 C 
ATOM     31  H   UNL A   1      32.851  30.405  27.438  1.00  0.00     0.163 HD
ATOM     32  O   UNL A   1      34.277  31.789  28.766  1.00  0.00    -0.269 OA
BRANCH  30  33
ATOM     33  C   UNL A   1      36.002  30.214  28.568  1.00  0.00     0.039 A 
ATOM     34  C   UNL A   1      36.911  30.273  27.503  1.00  0.00     0.014 A 
ATOM     35  C   UNL A   1      36.406  29.645  29.778  1.00  0.00     0.014 A 
ATOM     36  C   UNL A   1      38.222  29.813  27.665  1.00  0.00     0.010 A 
ATOM     37  C   UNL A   1      37.734  29.240  29.958  1.00  0.00     0.010 A 
ATOM     38  C   UNL A   1      38.657  29.316  28.903  1.00  0.00    -0.014 A 
BRANCH  38  39
ATOM     39  C   UNL A   1      40.067  28.880  29.102  1.00  0.00     0.031 A 
ATOM     40  C   UNL A   1      41.086  29.814  29.702  1.00  0.00     0.074 A 
ATOM     41  C   UNL A   1      40.451  27.651  28.704  1.00  0.00     0.049 A 
ATOM     42  N   UNL A   1      42.368  29.625  29.900  1.00  0.00    -0.248 NA
ATOM     43  C   UNL A   1      40.603  31.138  30.121  1.00  0.00     0.031 C 
ATOM     44  C   UNL A   1      39.580  26.654  28.081  1.00  0.00     0.029 A 
ATOM     45  N   UNL A   1      41.679  27.035  28.753  1.00  0.00    -0.354 N 
ATOM     46  C   UNL A   1      42.845  30.807  30.455  1.00  0.00     0.074 A 
ATOM     47  C   UNL A   1      41.723  31.721  30.523  1.00  0.00     0.031 C 
ATOM     48  C   UNL A   1      40.295  25.549  27.817  1.00  0.00     0.029 A 
ATOM     49  C   UNL A   1      41.682  25.770  28.216  1.00  0.00     0.049 A 
ATOM     50  H   UNL A   1      42.481  27.460  29.136  1.00  0.00     0.167 HD
ATOM     51  C   UNL A   1      44.097  31.100  30.884  1.00  0.00     0.037 A 
ATOM     52  C   UNL A   1      42.688  24.889  28.052  1.00  0.00     0.037 A 
ATOM     53  C   UNL A   1      45.214  30.192  30.831  1.00  0.00     0.049 A 
ATOM     54  C   UNL A   1      44.072  25.245  28.519  1.00  0.00     0.074 A 
ATOM     55  C   UNL A   1      46.507  30.389  31.285  1.00  0.00     0.029 A 
ATOM     56  N   UNL A   1      45.171  28.917  30.288  1.00  0.00    -0.354 N 
ATOM     57  N   UNL A   1      44.495  26.346  29.089  1.00  0.00    -0.248 NA
ATOM     58  C   UNL A   1      45.120  24.231  28.323  1.00  0.00     0.031 C 
ATOM     59  C   UNL A   1      47.258  29.249  30.978  1.00  0.00     0.029 A 
ATOM     60  C   UNL A   1      46.422  28.324  30.377  1.00  0.00     0.049 A 
ATOM     61  H   UNL A   1      44.372  28.495  29.897  1.00  0.00     0.167 HD
ATOM     62  C   UNL A   1      45.846  26.148  29.344  1.00  0.00     0.074 A 
ATOM     63  C   UNL A   1      46.171  24.816  28.878  1.00  0.00     0.031 C 
ATOM     64  C   UNL A   1      46.736  26.997  29.914  1.00  0.00     0.037 A 
BRANCH  51  65
ATOM     65  C   UNL A   1      44.329  32.470  31.455  1.00  0.00     0.057 A 
ATOM     66  C   UNL A   1      44.193  32.730  32.826  1.00  0.00     0.134 A 
ATOM     67  C   UNL A   1      44.736  33.530  30.635  1.00  0.00     0.134 A 
ATOM     68  F   UNL A   1      43.800  31.760  33.666  1.00  0.00    -0.206 F 
ATOM     69  C   UNL A   1      44.427  34.000  33.355  1.00  0.00     0.040 A 
ATOM     70  C   UNL A   1      44.998  34.799  31.157  1.00  0.00     0.040 A 
ATOM     71  F   UNL A   1      44.898  33.347  29.316  1.00  0.00    -0.206 F 
ATOM     72  C   UNL A   1      44.837  35.037  32.520  1.00  0.00     0.006 A 
ENDBRANCH  51  65
BRANCH  52  73
ATOM     73  C   UNL A   1      42.422  23.571  27.421  1.00  0.00     0.057 A 
ATOM     74  C   UNL A   1      42.051  22.463  28.191  1.00  0.00     0.134 A 
ATOM     75  C   UNL A   1      42.542  23.386  26.039  1.00  0.00     0.134 A 
ATOM     76  F   UNL A   1      41.942  22.573  29.524  1.00  0.00    -0.206 F 
ATOM     77  C   UNL A   1      41.826  21.213  27.613  1.00  0.00     0.040 A 
ATOM     78  C   UNL A   1      42.295  22.148  25.444  1.00  0.00     0.040 A 
ATOM     79  F   UNL A   1      42.890  24.409  25.245  1.00  0.00    -0.206 F 
ATOM     80  C   UNL A   1      41.943  21.054  26.233  1.00  0.00     0.006 A 
ENDBRANCH  52  73
BRANCH  64  81
ATOM     81  C   UNL A   1      48.141  26.500  30.096  1.00  0.00     0.057 A 
ATOM     82  C   UNL A   1      49.132  26.713  29.131  1.00  0.00     0.134 A 
ATOM     83  C   UNL A   1      48.514  25.830  31.269  1.00  0.00     0.134 A 
ATOM     84  F   UNL A   1      48.838  27.335  27.979  1.00  0.00    -0.206 F 
ATOM     85  C   UNL A   1      50.440  26.260  29.315  1.00  0.00     0.040 A 
ATOM     86  C   UNL A   1      49.824  25.395  31.476  1.00  0.00     0.040 A 
ATOM     87  F   UNL A   1      47.614  25.599  32.237  1.00  0.00    -0.206 F 
ATOM     88  C   UNL A   1      50.790  25.604  30.494  1.00  0.00     0.006 A 
ENDBRANCH  64  81
ENDBRANCH  38  39
ENDBRANCH  30  33
ENDBRANCH  28  29
ENDBRANCH  27  28
ENDBRANCH  26  27
ENDBRANCH   1  26
TORSDOF 15
ENDMDL
MODEL 2
REMARK VINA RESULT:     -11.4      3.947      8.497
REMARK SMILES O=C(C[C@H]1C[C@H]2CC[C@@H](C1)N2C(=O)NCc1ncn[nH]1)NCCCCNC(=O)c1ccc(-c2c3nc(c(-c4c(F)cccc4F)c4ccc([nH]4)c(-c4c(F)cccc4F)c4nc(c(-c5c(F)cccc5F)c5ccc2[nH]5)C=C4)C=C3)cc1
REMARK SMILES IDX 22 1 21 2 1 3 2 4 3 6 4 7 5 8 10 9 6 10 9 11 7 12 11 13 8 14
REMARK SMILES IDX 12 15 13 16 14 17 15 19 16 20 17 21 20 22 18 23 19 24 23 26
REMARK SMILES IDX 24 27 25 28 26 29 27 30 28 32 29 33 30 34 82 35 31 36 81 37
REMARK SMILES IDX 32 38 33 39 34 40 75 41 35 42 80 43 74 44 76 45 36 46 79 47
REMARK SMILES IDX 73 48 72 49 37 51 63 52 46 53 62 54 47 55 50 56 61 57 77 58
REMARK SMILES IDX 48 59 49 60 60 62 78 63 51 64 38 65 39 66 44 67 40 68 41 69
REMARK SMILES IDX 43 70 45 71 42 72 64 73 65 74 70 75 66 76 67 77 69 78 71 79
REMARK SMILES IDX 68 80 52 81 53 82 58 83 54 84 55 85 57 86 59 87 56 88
REMARK H PARENT 21 5 14 18 20 25 26 31 76 50 50 61
REMARK Flexibility Score: inf
ROOT
ATOM      1  C   UNL A   1      40.258  22.096  27.294  1.00  0.00     0.116 C 
ENDROOT
BRANCH   1   2
ATOM      2  N   UNL A   1      39.054  22.369  26.537  1.00  0.00    -0.356 N 
ATOM      3  O   UNL A   1      39.133  24.651  26.540  1.00  0.00    -0.275 OA
ATOM      4  C   UNL A   1      38.567  23.612  26.209  1.00  0.00     0.220 C 
ATOM      5  H   UNL A   1      38.535  21.592  26.227  1.00  0.00     0.163 HD
BRANCH   4   6
ATOM      6  C   UNL A   1      37.182  23.633  25.535  1.00  0.00     0.103 C 
BRANCH   6   7
ATOM      7  C   UNL A   1      36.482  22.311  25.116  1.00  0.00     0.002 C 
ATOM      8  C   UNL A   1      35.638  21.600  26.176  1.00  0.00     0.029 C 
ATOM      9  C   UNL A   1      35.609  22.462  23.823  1.00  0.00     0.029 C 
ATOM     10  C   UNL A   1      34.218  22.183  26.296  1.00  0.00     0.087 C 
ATOM     11  C   UNL A   1      34.086  22.735  24.055  1.00  0.00     0.087 C 
ATOM     12  C   UNL A   1      34.033  23.714  26.248  1.00  0.00     0.027 C 
ATOM     13  N   UNL A   1      33.548  21.822  25.066  1.00  0.00    -0.319 N 
ATOM     14  C   UNL A   1      33.881  24.072  24.761  1.00  0.00     0.027 C 
BRANCH  13  15
ATOM     15  C   UNL A   1      32.575  20.885  25.117  1.00  0.00     0.318 C 
ATOM     16  O   UNL A   1      31.407  21.192  25.385  1.00  0.00    -0.249 OA
ATOM     17  N   UNL A   1      32.776  19.601  24.808  1.00  0.00    -0.331 N 
ATOM     18  H   UNL A   1      31.987  19.036  24.972  1.00  0.00     0.165 HD
BRANCH  17  19
ATOM     19  C   UNL A   1      33.899  18.865  24.290  1.00  0.00     0.194 C 
BRANCH  19  20
ATOM     20  C   UNL A   1      33.811  17.462  24.763  1.00  0.00     0.143 A 
ATOM     21  N   UNL A   1      32.736  16.740  25.009  1.00  0.00    -0.218 NA
ATOM     22  N   UNL A   1      34.916  16.688  24.976  1.00  0.00    -0.262 N 
ATOM     23  C   UNL A   1      33.244  15.514  25.322  1.00  0.00     0.246 A 
ATOM     24  N   UNL A   1      34.577  15.441  25.334  1.00  0.00    -0.162 NA
ATOM     25  H   UNL A   1      35.843  17.005  24.877  1.00  0.00     0.192 HD
ENDBRANCH  19  20
ENDBRANCH  17  19
ENDBRANCH  13  15
ENDBRANCH   6   7
ENDBRANCH   4   6
ENDBRANCH   1   2
BRANCH   1  26
ATOM     26  C   UNL A   1      41.097  20.995  26.629  1.00  0.00     0.023 C 
BRANCH  26  27
ATOM     27  C   UNL A   1      42.341  21.440  25.843  1.00  0.00     0.023 C 
BRANCH  27  28
ATOM     28  C   UNL A   1      42.295  22.821  25.193  1.00  0.00     0.116 C 
BRANCH  28  29
ATOM     29  N   UNL A   1      43.616  23.314  24.855  1.00  0.00    -0.352 N 
ATOM     30  C   UNL A   1      44.279  24.448  25.257  1.00  0.00     0.251 C 
ATOM     31  H   UNL A   1      44.122  22.740  24.235  1.00  0.00     0.163 HD
ATOM     32  O   UNL A   1      45.328  24.752  24.693  1.00  0.00    -0.269 OA
BRANCH  30  33
ATOM     33  C   UNL A   1      43.758  25.327  26.336  1.00  0.00     0.039 A 
ATOM     34  C   UNL A   1      42.951  24.750  27.325  1.00  0.00     0.014 A 
ATOM     35  C   UNL A   1      43.978  26.707  26.356  1.00  0.00     0.014 A 
ATOM     36  C   UNL A   1      42.413  25.537  28.349  1.00  0.00     0.010 A 
ATOM     37  C   UNL A   1      43.489  27.484  27.412  1.00  0.00     0.010 A 
ATOM     38  C   UNL A   1      42.697  26.909  28.419  1.00  0.00    -0.014 A 
BRANCH  38  39
ATOM     39  C   UNL A   1      42.179  27.744  29.539  1.00  0.00     0.031 A 
ATOM     40  C   UNL A   1      42.836  27.712  30.894  1.00  0.00     0.074 A 
ATOM     41  C   UNL A   1      41.083  28.506  29.353  1.00  0.00     0.049 A 
ATOM     42  N   UNL A   1      42.490  28.329  31.997  1.00  0.00    -0.248 NA
ATOM     43  C   UNL A   1      44.031  26.865  31.029  1.00  0.00     0.031 C 
ATOM     44  C   UNL A   1      40.328  28.612  28.104  1.00  0.00     0.029 A 
ATOM     45  N   UNL A   1      40.406  29.330  30.221  1.00  0.00    -0.354 N 
ATOM     46  C   UNL A   1      43.414  27.937  32.959  1.00  0.00     0.074 A 
ATOM     47  C   UNL A   1      44.311  26.997  32.318  1.00  0.00     0.031 C 
ATOM     48  C   UNL A   1      39.301  29.458  28.281  1.00  0.00     0.029 A 
ATOM     49  C   UNL A   1      39.301  29.928  29.664  1.00  0.00     0.049 A 
ATOM     50  H   UNL A   1      40.686  29.478  31.154  1.00  0.00     0.167 HD
ATOM     51  C   UNL A   1      43.519  28.334  34.250  1.00  0.00     0.037 A 
ATOM     52  C   UNL A   1      38.384  30.752  30.205  1.00  0.00     0.037 A 
ATOM     53  C   UNL A   1      42.639  29.279  34.889  1.00  0.00     0.049 A 
ATOM     54  C   UNL A   1      38.510  31.164  31.645  1.00  0.00     0.074 A 
ATOM     55  C   UNL A   1      42.697  29.774  36.181  1.00  0.00     0.029 A 
ATOM     56  N   UNL A   1      41.538  29.867  34.286  1.00  0.00    -0.354 N 
ATOM     57  N   UNL A   1      39.420  30.825  32.525  1.00  0.00    -0.248 NA
ATOM     58  C   UNL A   1      37.483  32.078  32.167  1.00  0.00     0.031 C 
ATOM     59  C   UNL A   1      41.608  30.629  36.373  1.00  0.00     0.029 A 
ATOM     60  C   UNL A   1      40.897  30.705  35.187  1.00  0.00     0.049 A 
ATOM     61  H   UNL A   1      41.253  29.713  33.357  1.00  0.00     0.167 HD
ATOM     62  C   UNL A   1      39.092  31.503  33.692  1.00  0.00     0.074 A 
ATOM     63  C   UNL A   1      37.906  32.283  33.406  1.00  0.00     0.031 C 
ATOM     64  C   UNL A   1      39.720  31.480  34.893  1.00  0.00     0.037 A 
BRANCH  51  65
ATOM     65  C   UNL A   1      44.635  27.746  35.066  1.00  0.00     0.057 A 
ATOM     66  C   UNL A   1      44.472  26.556  35.788  1.00  0.00     0.134 A 
ATOM     67  C   UNL A   1      45.898  28.351  35.096  1.00  0.00     0.134 A 
ATOM     68  F   UNL A   1      43.286  25.930  35.807  1.00  0.00    -0.206 F 
ATOM     69  C   UNL A   1      45.517  26.004  36.531  1.00  0.00     0.040 A 
ATOM     70  C   UNL A   1      46.958  27.794  35.814  1.00  0.00     0.040 A 
ATOM     71  F   UNL A   1      46.126  29.486  34.417  1.00  0.00    -0.206 F 
ATOM     72  C   UNL A   1      46.767  26.621  36.540  1.00  0.00     0.006 A 
ENDBRANCH  51  65
BRANCH  52  73
ATOM     73  C   UNL A   1      37.260  31.256  29.374  1.00  0.00     0.057 A 
ATOM     74  C   UNL A   1      37.304  32.528  28.795  1.00  0.00     0.134 A 
ATOM     75  C   UNL A   1      36.115  30.483  29.149  1.00  0.00     0.134 A 
ATOM     76  F   UNL A   1      38.366  33.325  28.993  1.00  0.00    -0.206 F 
ATOM     77  C   UNL A   1      36.243  33.024  28.036  1.00  0.00     0.040 A 
ATOM     78  C   UNL A   1      35.057  30.955  28.372  1.00  0.00     0.040 A 
ATOM     79  F   UNL A   1      36.013  29.253  29.674  1.00  0.00    -0.206 F 
ATOM     80  C   UNL A   1      35.116  32.233  27.818  1.00  0.00     0.006 A 
ENDBRANCH  52  73
BRANCH  64  81
ATOM     81  C   UNL A   1      39.156  32.348  35.982  1.00  0.00     0.057 A 
ATOM     82  C   UNL A   1      38.240  31.857  36.920  1.00  0.00     0.134 A 
ATOM     83  C   UNL A   1      39.563  33.683  36.112  1.00  0.00     0.134 A 
ATOM     84  F   UNL A   1      37.799  30.592  36.842  1.00  0.00    -0.206 F 
ATOM     85  C   UNL A   1      37.732  32.667  37.937  1.00  0.00     0.040 A 
ATOM     86  C   UNL A   1      39.082  34.495  37.140  1.00  0.00     0.040 A 
ATOM     87  F   UNL A   1      40.444  34.213  35.251  1.00  0.00    -0.206 F 
ATOM     88  C   UNL A   1      38.159  33.989  38.053  1.00  0.00     0.006 A 
ENDBRANCH  64  81
ENDBRANCH  38  39
ENDBRANCH  30  33
ENDBRANCH  28  29
ENDBRANCH  27  28
ENDBRANCH  26  27
ENDBRANCH   1  26
TORSDOF 15
ENDMDL
MODEL 3
REMARK VINA RESULT:     -11.4      2.073      7.876
REMARK SMILES O=C(C[C@H]1C[C@H]2CC[C@@H](C1)N2C(=O)NCc1ncn[nH]1)NCCCCNC(=O)c1ccc(-c2c3nc(c(-c4c(F)cccc4F)c4ccc([nH]4)c(-c4c(F)cccc4F)c4nc(c(-c5c(F)cccc5F)c5ccc2[nH]5)C=C4)C=C3)cc1
REMARK SMILES IDX 22 1 21 2 1 3 2 4 3 6 4 7 5 8 10 9 6 10 9 11 7 12 11 13 8 14
REMARK SMILES IDX 12 15 13 16 14 17 15 19 16 20 17 21 20 22 18 23 19 24 23 26
REMARK SMILES IDX 24 27 25 28 26 29 27 30 28 32 29 33 30 34 82 35 31 36 81 37
REMARK SMILES IDX 32 38 33 39 34 40 75 41 35 42 80 43 74 44 76 45 36 46 79 47
REMARK SMILES IDX 73 48 72 49 37 51 63 52 46 53 62 54 47 55 50 56 61 57 77 58
REMARK SMILES IDX 48 59 49 60 60 62 78 63 51 64 38 65 39 66 44 67 40 68 41 69
REMARK SMILES IDX 43 70 45 71 42 72 64 73 65 74 70 75 66 76 67 77 69 78 71 79
REMARK SMILES IDX 68 80 52 81 53 82 58 83 54 84 55 85 57 86 59 87 56 88
REMARK H PARENT 21 5 14 18 20 25 26 31 76 50 50 61
REMARK Flexibility Score: inf
ROOT
ATOM      1  C   UNL A   1      35.583  20.423  25.023  1.00  0.00     0.116 C 
ENDROOT
BRANCH   1   2
ATOM      2  N   UNL A   1      34.573  21.302  24.469  1.00  0.00    -0.356 N 
ATOM      3  O   UNL A   1      32.710  20.090  24.993  1.00  0.00    -0.275 OA
ATOM      4  C   UNL A   1      33.215  21.087  24.485  1.00  0.00     0.220 C 
ATOM      5  H   UNL A   1      34.888  22.131  24.042  1.00  0.00     0.163 HD
BRANCH   4   6
ATOM      6  C   UNL A   1      32.369  22.098  23.686  1.00  0.00     0.103 C 
BRANCH   6   7
ATOM      7  C   UNL A   1      31.331  23.005  24.401  1.00  0.00     0.002 C 
ATOM      8  C   UNL A   1      31.790  23.729  25.669  1.00  0.00     0.029 C 
ATOM      9  C   UNL A   1      30.682  24.065  23.447  1.00  0.00     0.029 C 
ATOM     10  C   UNL A   1      32.554  25.030  25.368  1.00  0.00     0.087 C 
ATOM     11  C   UNL A   1      31.341  25.484  23.453  1.00  0.00     0.087 C 
ATOM     12  C   UNL A   1      33.577  25.045  24.213  1.00  0.00     0.027 C 
ATOM     13  N   UNL A   1      31.568  25.939  24.826  1.00  0.00    -0.319 N 
ATOM     14  C   UNL A   1      32.780  25.411  22.951  1.00  0.00     0.027 C 
BRANCH  13  15
ATOM     15  C   UNL A   1      31.179  26.990  25.584  1.00  0.00     0.318 C 
ATOM     16  O   UNL A   1      30.807  26.831  26.753  1.00  0.00    -0.249 OA
ATOM     17  N   UNL A   1      31.242  28.258  25.167  1.00  0.00    -0.331 N 
ATOM     18  H   UNL A   1      30.849  28.895  25.806  1.00  0.00     0.165 HD
BRANCH  17  19
ATOM     19  C   UNL A   1      31.761  28.893  23.985  1.00  0.00     0.194 C 
BRANCH  19  20
ATOM     20  C   UNL A   1      30.630  29.229  23.087  1.00  0.00     0.143 A 
ATOM     21  N   UNL A   1      29.337  29.074  23.294  1.00  0.00    -0.218 NA
ATOM     22  N   UNL A   1      30.810  29.817  21.867  1.00  0.00    -0.262 N 
ATOM     23  C   UNL A   1      28.771  29.632  22.187  1.00  0.00     0.246 A 
ATOM     24  N   UNL A   1      29.636  30.082  21.275  1.00  0.00    -0.162 NA
ATOM     25  H   UNL A   1      31.689  30.021  21.474  1.00  0.00     0.192 HD
ENDBRANCH  19  20
ENDBRANCH  17  19
ENDBRANCH  13  15
ENDBRANCH   6   7
ENDBRANCH   4   6
ENDBRANCH   1   2
BRANCH   1  26
ATOM     26  C   UNL A   1      36.994  20.867  24.612  1.00  0.00     0.023 C 
BRANCH  26  27
ATOM     27  C   UNL A   1      38.124  19.834  24.758  1.00  0.00     0.023 C 
BRANCH  27  28
ATOM     28  C   UNL A   1      39.017  19.953  25.992  1.00  0.00     0.116 C 
BRANCH  28  29
ATOM     29  N   UNL A   1      40.233  19.172  25.866  1.00  0.00    -0.352 N 
ATOM     30  C   UNL A   1      41.549  19.533  26.027  1.00  0.00     0.251 C 
ATOM     31  H   UNL A   1      40.092  18.228  25.625  1.00  0.00     0.163 HD
ATOM     32  O   UNL A   1      42.425  18.741  25.688  1.00  0.00    -0.269 OA
BRANCH  30  33
ATOM     33  C   UNL A   1      41.944  20.855  26.579  1.00  0.00     0.039 A 
ATOM     34  C   UNL A   1      42.264  21.877  25.676  1.00  0.00     0.014 A 
ATOM     35  C   UNL A   1      42.080  21.088  27.950  1.00  0.00     0.014 A 
ATOM     36  C   UNL A   1      42.668  23.133  26.143  1.00  0.00     0.010 A 
ATOM     37  C   UNL A   1      42.427  22.362  28.417  1.00  0.00     0.010 A 
ATOM     38  C   UNL A   1      42.728  23.398  27.520  1.00  0.00    -0.014 A 
BRANCH  38  39
ATOM     39  C   UNL A   1      43.098  24.750  28.025  1.00  0.00     0.031 A 
ATOM     40  C   UNL A   1      42.041  25.789  28.293  1.00  0.00     0.074 A 
ATOM     41  C   UNL A   1      44.396  25.064  28.207  1.00  0.00     0.049 A 
ATOM     42  N   UNL A   1      42.182  27.033  28.683  1.00  0.00    -0.248 NA
ATOM     43  C   UNL A   1      40.644  25.382  28.081  1.00  0.00     0.031 C 
ATOM     44  C   UNL A   1      45.525  24.167  27.960  1.00  0.00     0.029 A 
ATOM     45  N   UNL A   1      44.984  26.231  28.631  1.00  0.00    -0.354 N 
ATOM     46  C   UNL A   1      40.897  27.558  28.751  1.00  0.00     0.074 A 
ATOM     47  C   UNL A   1      39.993  26.510  28.323  1.00  0.00     0.031 C 
ATOM     48  C   UNL A   1      46.668  24.810  28.248  1.00  0.00     0.029 A 
ATOM     49  C   UNL A   1      46.357  26.175  28.663  1.00  0.00     0.049 A 
ATOM     50  H   UNL A   1      44.472  27.032  28.888  1.00  0.00     0.167 HD
ATOM     51  C   UNL A   1      40.502  28.791  29.151  1.00  0.00     0.037 A 
ATOM     52  C   UNL A   1      47.266  27.118  28.980  1.00  0.00     0.037 A 
ATOM     53  C   UNL A   1      41.395  29.833  29.591  1.00  0.00     0.049 A 
ATOM     54  C   UNL A   1      46.805  28.485  29.401  1.00  0.00     0.074 A 
ATOM     55  C   UNL A   1      41.080  31.099  30.056  1.00  0.00     0.029 A 
ATOM     56  N   UNL A   1      42.778  29.732  29.616  1.00  0.00    -0.354 N 
ATOM     57  N   UNL A   1      45.585  28.948  29.511  1.00  0.00    -0.248 NA
ATOM     58  C   UNL A   1      47.850  29.461  29.748  1.00  0.00     0.031 C 
ATOM     59  C   UNL A   1      42.273  31.778  30.323  1.00  0.00     0.029 A 
ATOM     60  C   UNL A   1      43.330  30.920  30.069  1.00  0.00     0.049 A 
ATOM     61  H   UNL A   1      43.290  28.935  29.351  1.00  0.00     0.167 HD
ATOM     62  C   UNL A   1      45.713  30.256  29.964  1.00  0.00     0.074 A 
ATOM     63  C   UNL A   1      47.130  30.509  30.121  1.00  0.00     0.031 C 
ATOM     64  C   UNL A   1      44.741  31.163  30.226  1.00  0.00     0.037 A 
BRANCH  51  65
ATOM     65  C   UNL A   1      39.030  29.086  29.132  1.00  0.00     0.057 A 
ATOM     66  C   UNL A   1      38.243  28.985  30.287  1.00  0.00     0.134 A 
ATOM     67  C   UNL A   1      38.399  29.520  27.959  1.00  0.00     0.134 A 
ATOM     68  F   UNL A   1      38.783  28.569  31.443  1.00  0.00    -0.206 F 
ATOM     69  C   UNL A   1      36.878  29.277  30.269  1.00  0.00     0.040 A 
ATOM     70  C   UNL A   1      37.040  29.840  27.935  1.00  0.00     0.040 A 
ATOM     71  F   UNL A   1      39.097  29.651  26.820  1.00  0.00    -0.206 F 
ATOM     72  C   UNL A   1      36.275  29.713  29.091  1.00  0.00     0.006 A 
ENDBRANCH  51  65
BRANCH  52  73
ATOM     73  C   UNL A   1      48.716  26.797  28.919  1.00  0.00     0.057 A 
ATOM     74  C   UNL A   1      49.447  26.984  27.742  1.00  0.00     0.134 A 
ATOM     75  C   UNL A   1      49.398  26.289  30.031  1.00  0.00     0.134 A 
ATOM     76  F   UNL A   1      48.843  27.447  26.637  1.00  0.00    -0.206 F 
ATOM     77  C   UNL A   1      50.803  26.660  27.664  1.00  0.00     0.040 A 
ATOM     78  C   UNL A   1      50.759  25.984  29.975  1.00  0.00     0.040 A 
ATOM     79  F   UNL A   1      48.754  26.090  31.190  1.00  0.00    -0.206 F 
ATOM     80  C   UNL A   1      51.464  26.163  28.786  1.00  0.00     0.006 A 
ENDBRANCH  52  73
BRANCH  64  81
ATOM     81  C   UNL A   1      45.173  32.506  30.740  1.00  0.00     0.057 A 
ATOM     82  C   UNL A   1      45.416  33.584  29.881  1.00  0.00     0.134 A 
ATOM     83  C   UNL A   1      45.315  32.730  32.117  1.00  0.00     0.134 A 
ATOM     84  F   UNL A   1      45.313  33.433  28.553  1.00  0.00    -0.206 F 
ATOM     85  C   UNL A   1      45.804  34.834  30.370  1.00  0.00     0.040 A 
ATOM     86  C   UNL A   1      45.677  33.981  32.619  1.00  0.00     0.040 A 
ATOM     87  F   UNL A   1      45.091  31.741  32.994  1.00  0.00    -0.206 F 
ATOM     88  C   UNL A   1      45.929  35.036  31.744  1.00  0.00     0.006 A 
ENDBRANCH  64  81
ENDBRANCH  38  39
ENDBRANCH  30  33
ENDBRANCH  28  29
ENDBRANCH  27  28
ENDBRANCH  26  27
ENDBRANCH   1  26
TORSDOF 15
ENDMDL
