MODEL 1
REMARK VINA RESULT:     -12.1      0.000      0.000
REMARK SMILES O=C(NCCCCNC(=O)c1ccc(-c2c3nc(c(-c4c(F)cccc4F)c4ccc([nH]4)c(-c4c(F)cccc4F)c4nc(c(-c5c(F)cccc5F)c5ccc2[nH]5)C=C4)C=C3)cc1)C1=Cc2cc(OC(F)(F)F)ccc2O[C@@H]1C(F)(F)F
REMARK SMILES IDX 5 1 4 2 3 3 1 4 2 5 65 7 66 8 79 9 67 10 78 11 68 12 77 13
REMARK SMILES IDX 69 14 76 15 75 16 80 17 81 18 82 19 83 20 70 21 71 22 72 23
REMARK SMILES IDX 73 24 74 25 6 26 7 27 8 28 9 29 10 31 11 32 12 33 64 34
REMARK SMILES IDX 13 35 63 36 14 37 15 38 16 39 57 40 17 41 62 42 56 43 58 44
REMARK SMILES IDX 18 45 61 46 55 47 54 48 19 50 45 51 28 52 44 53 29 54 32 55
REMARK SMILES IDX 43 56 59 57 30 58 31 59 42 61 60 62 33 63 20 64 21 65 26 66
REMARK SMILES IDX 22 67 23 68 25 69 27 70 24 71 46 72 47 73 52 74 48 75 49 76
REMARK SMILES IDX 51 77 53 78 50 79 34 80 35 81 40 82 36 83 37 84 39 85 41 86
REMARK SMILES IDX 38 87
REMARK H PARENT 3 6 8 30 58 49 32 60
REMARK Flexibility Score: inf
ROOT
ATOM      1  C   UNL A   1      31.629  30.661  26.151  1.00  0.00     0.023 C 
ENDROOT
BRANCH   1   2
ATOM      2  C   UNL A   1      32.292  29.582  27.006  1.00  0.00     0.116 C 
BRANCH   2   3
ATOM      3  N   UNL A   1      31.504  28.359  27.158  1.00  0.00    -0.352 N 
ATOM      4  O   UNL A   1      31.075  26.144  26.914  1.00  0.00    -0.270 OA
ATOM      5  C   UNL A   1      31.635  27.152  26.505  1.00  0.00     0.251 C 
ATOM      6  H   UNL A   1      30.777  28.404  27.820  1.00  0.00     0.163 HD
BRANCH   5   7
ATOM      7  C   UNL A   1      32.563  27.093  25.358  1.00  0.00     0.067 C 
ATOM      8  C   UNL A   1      33.782  26.560  25.530  1.00  0.00     0.025 C 
ATOM      9  C   UNL A   1      31.978  27.295  23.994  1.00  0.00     0.314 C 
ATOM     10  C   UNL A   1      34.062  25.505  24.538  1.00  0.00     0.021 A 
ATOM     11  O   UNL A   1      32.122  26.119  23.162  1.00  0.00    -0.475 OA
ATOM     12  C   UNL A   1      34.951  24.486  24.908  1.00  0.00     0.058 A 
ATOM     13  C   UNL A   1      33.154  25.273  23.486  1.00  0.00     0.128 A 
ATOM     14  C   UNL A   1      34.870  23.227  24.305  1.00  0.00     0.130 A 
ATOM     15  C   UNL A   1      33.134  24.041  22.833  1.00  0.00     0.051 A 
ATOM     16  C   UNL A   1      33.978  23.012  23.254  1.00  0.00     0.050 A 
BRANCH   9  17
ATOM     17  C   UNL A   1      32.585  28.530  23.304  1.00  0.00     0.429 C 
ATOM     18  F   UNL A   1      33.159  28.197  22.123  1.00  0.00    -0.167 F 
ATOM     19  F   UNL A   1      31.647  29.468  23.033  1.00  0.00    -0.167 F 
ATOM     20  F   UNL A   1      33.540  29.126  24.057  1.00  0.00    -0.167 F 
ENDBRANCH   9  17
BRANCH  14  21
ATOM     21  O   UNL A   1      35.689  22.264  24.827  1.00  0.00    -0.406 OA
BRANCH  21  22
ATOM     22  C   UNL A   1      37.018  22.269  24.311  1.00  0.00     0.573 C 
ATOM     23  F   UNL A   1      37.040  22.776  23.057  1.00  0.00    -0.132 F 
ATOM     24  F   UNL A   1      37.839  22.976  25.112  1.00  0.00    -0.132 F 
ATOM     25  F   UNL A   1      37.463  20.994  24.261  1.00  0.00    -0.132 F 
ENDBRANCH  21  22
ENDBRANCH  14  21
ENDBRANCH   5   7
ENDBRANCH   2   3
ENDBRANCH   1   2
BRANCH   1  26
ATOM     26  C   UNL A   1      31.381  31.983  26.874  1.00  0.00     0.023 C 
BRANCH  26  27
ATOM     27  C   UNL A   1      32.412  33.086  26.643  1.00  0.00     0.116 C 
BRANCH  27  28
ATOM     28  N   UNL A   1      32.348  34.192  27.589  1.00  0.00    -0.352 N 
ATOM     29  C   UNL A   1      33.239  34.509  28.592  1.00  0.00     0.251 C 
ATOM     30  H   UNL A   1      31.570  34.789  27.499  1.00  0.00     0.163 HD
ATOM     31  O   UNL A   1      33.059  35.476  29.326  1.00  0.00    -0.269 OA
BRANCH  29  32
ATOM     32  C   UNL A   1      34.393  33.615  28.809  1.00  0.00     0.039 A 
ATOM     33  C   UNL A   1      35.675  34.169  28.858  1.00  0.00     0.014 A 
ATOM     34  C   UNL A   1      34.181  32.271  29.116  1.00  0.00     0.014 A 
ATOM     35  C   UNL A   1      36.739  33.396  29.328  1.00  0.00     0.010 A 
ATOM     36  C   UNL A   1      35.225  31.529  29.658  1.00  0.00     0.010 A 
ATOM     37  C   UNL A   1      36.509  32.089  29.789  1.00  0.00    -0.014 A 
BRANCH  37  38
ATOM     38  C   UNL A   1      37.577  31.275  30.424  1.00  0.00     0.031 A 
ATOM     39  C   UNL A   1      37.905  31.499  31.873  1.00  0.00     0.074 A 
ATOM     40  C   UNL A   1      38.329  30.439  29.679  1.00  0.00     0.049 A 
ATOM     41  N   UNL A   1      38.926  31.069  32.568  1.00  0.00    -0.248 NA
ATOM     42  C   UNL A   1      36.981  32.360  32.629  1.00  0.00     0.031 C 
ATOM     43  C   UNL A   1      38.146  30.167  28.252  1.00  0.00     0.029 A 
ATOM     44  N   UNL A   1      39.425  29.683  30.019  1.00  0.00    -0.354 N 
ATOM     45  C   UNL A   1      38.794  31.648  33.824  1.00  0.00     0.074 A 
ATOM     46  C   UNL A   1      37.613  32.483  33.786  1.00  0.00     0.031 C 
ATOM     47  C   UNL A   1      39.089  29.302  27.841  1.00  0.00     0.029 A 
ATOM     48  C   UNL A   1      39.970  28.992  28.961  1.00  0.00     0.049 A 
ATOM     49  H   UNL A   1      39.786  29.640  30.933  1.00  0.00     0.167 HD
ATOM     50  C   UNL A   1      39.579  31.485  34.914  1.00  0.00     0.037 A 
ATOM     51  C   UNL A   1      41.067  28.212  28.901  1.00  0.00     0.037 A 
ATOM     52  C   UNL A   1      40.710  30.600  34.967  1.00  0.00     0.049 A 
ATOM     53  C   UNL A   1      41.893  28.009  30.144  1.00  0.00     0.074 A 
ATOM     54  C   UNL A   1      41.520  30.302  36.049  1.00  0.00     0.029 A 
ATOM     55  N   UNL A   1      41.179  29.856  33.895  1.00  0.00    -0.354 N 
ATOM     56  N   UNL A   1      41.726  28.522  31.339  1.00  0.00    -0.248 NA
ATOM     57  C   UNL A   1      43.057  27.116  30.031  1.00  0.00     0.031 C 
ATOM     58  C   UNL A   1      42.496  29.396  35.625  1.00  0.00     0.029 A 
ATOM     59  C   UNL A   1      42.270  29.103  34.290  1.00  0.00     0.049 A 
ATOM     60  H   UNL A   1      40.793  29.863  32.990  1.00  0.00     0.167 HD
ATOM     61  C   UNL A   1      42.736  27.986  32.127  1.00  0.00     0.074 A 
ATOM     62  C   UNL A   1      43.510  27.105  31.277  1.00  0.00     0.031 C 
ATOM     63  C   UNL A   1      43.000  28.202  33.437  1.00  0.00     0.037 A 
BRANCH  50  64
ATOM     64  C   UNL A   1      39.232  32.269  36.144  1.00  0.00     0.057 A 
ATOM     65  C   UNL A   1      39.792  33.526  36.401  1.00  0.00     0.134 A 
ATOM     66  C   UNL A   1      38.291  31.778  37.058  1.00  0.00     0.134 A 
ATOM     67  F   UNL A   1      40.711  34.043  35.572  1.00  0.00    -0.206 F 
ATOM     68  C   UNL A   1      39.444  34.261  37.535  1.00  0.00     0.040 A 
ATOM     69  C   UNL A   1      37.914  32.515  38.182  1.00  0.00     0.040 A 
ATOM     70  F   UNL A   1      37.713  30.583  36.868  1.00  0.00    -0.206 F 
ATOM     71  C   UNL A   1      38.495  33.759  38.425  1.00  0.00     0.006 A 
ENDBRANCH  50  64
BRANCH  51  72
ATOM     72  C   UNL A   1      41.454  27.550  27.629  1.00  0.00     0.057 A 
ATOM     73  C   UNL A   1      42.262  28.206  26.693  1.00  0.00     0.134 A 
ATOM     74  C   UNL A   1      40.997  26.269  27.298  1.00  0.00     0.134 A 
ATOM     75  F   UNL A   1      42.714  29.444  26.943  1.00  0.00    -0.206 F 
ATOM     76  C   UNL A   1      42.580  27.626  25.464  1.00  0.00     0.040 A 
ATOM     77  C   UNL A   1      41.327  25.666  26.082  1.00  0.00     0.040 A 
ATOM     78  F   UNL A   1      40.224  25.583  28.154  1.00  0.00    -0.206 F 
ATOM     79  C   UNL A   1      42.113  26.350  25.157  1.00  0.00     0.006 A 
ENDBRANCH  51  72
BRANCH  63  80
ATOM     80  C   UNL A   1      44.126  27.430  34.054  1.00  0.00     0.057 A 
ATOM     81  C   UNL A   1      45.422  27.950  34.134  1.00  0.00     0.134 A 
ATOM     82  C   UNL A   1      43.887  26.178  34.636  1.00  0.00     0.134 A 
ATOM     83  F   UNL A   1      45.715  29.138  33.585  1.00  0.00    -0.206 F 
ATOM     84  C   UNL A   1      46.449  27.245  34.766  1.00  0.00     0.040 A 
ATOM     85  C   UNL A   1      44.900  25.475  35.288  1.00  0.00     0.040 A 
ATOM     86  F   UNL A   1      42.662  25.632  34.599  1.00  0.00    -0.206 F 
ATOM     87  C   UNL A   1      46.185  26.008  35.352  1.00  0.00     0.006 A 
ENDBRANCH  63  80
ENDBRANCH  37  38
ENDBRANCH  29  32
ENDBRANCH  27  28
ENDBRANCH  26  27
ENDBRANCH   1  26
TORSDOF 14
ENDMDL
MODEL 2
REMARK VINA RESULT:     -12.1      3.735      5.793
REMARK SMILES O=C(NCCCCNC(=O)c1ccc(-c2c3nc(c(-c4c(F)cccc4F)c4ccc([nH]4)c(-c4c(F)cccc4F)c4nc(c(-c5c(F)cccc5F)c5ccc2[nH]5)C=C4)C=C3)cc1)C1=Cc2cc(OC(F)(F)F)ccc2O[C@@H]1C(F)(F)F
REMARK SMILES IDX 5 1 4 2 3 3 1 4 2 5 65 7 66 8 79 9 67 10 78 11 68 12 77 13
REMARK SMILES IDX 69 14 76 15 75 16 80 17 81 18 82 19 83 20 70 21 71 22 72 23
REMARK SMILES IDX 73 24 74 25 6 26 7 27 8 28 9 29 10 31 11 32 12 33 64 34
REMARK SMILES IDX 13 35 63 36 14 37 15 38 16 39 57 40 17 41 62 42 56 43 58 44
REMARK SMILES IDX 18 45 61 46 55 47 54 48 19 50 45 51 28 52 44 53 29 54 32 55
REMARK SMILES IDX 43 56 59 57 30 58 31 59 42 61 60 62 33 63 20 64 21 65 26 66
REMARK SMILES IDX 22 67 23 68 25 69 27 70 24 71 46 72 47 73 52 74 48 75 49 76
REMARK SMILES IDX 51 77 53 78 50 79 34 80 35 81 40 82 36 83 37 84 39 85 41 86
REMARK SMILES IDX 38 87
REMARK H PARENT 3 6 8 30 58 49 32 60
REMARK Flexibility Score: inf
ROOT
ATOM      1  C   UNL A   1      31.522  27.392  26.386  1.00  0.00     0.023 C 
ENDROOT
BRANCH   1   2
ATOM      2  C   UNL A   1      32.317  26.093  26.527  1.00  0.00     0.116 C 
BRANCH   2   3
ATOM      3  N   UNL A   1      31.501  24.879  26.513  1.00  0.00    -0.352 N 
ATOM      4  O   UNL A   1      30.805  22.878  25.701  1.00  0.00    -0.270 OA
ATOM      5  C   UNL A   1      31.303  23.976  25.491  1.00  0.00     0.251 C 
ATOM      6  H   UNL A   1      31.027  24.679  27.353  1.00  0.00     0.163 HD
BRANCH   5   7
ATOM      7  C   UNL A   1      31.814  24.334  24.153  1.00  0.00     0.067 C 
ATOM      8  C   UNL A   1      31.027  25.026  23.316  1.00  0.00     0.025 C 
ATOM      9  C   UNL A   1      33.291  24.224  23.934  1.00  0.00     0.314 C 
ATOM     10  C   UNL A   1      31.701  26.234  22.805  1.00  0.00     0.021 A 
ATOM     11  O   UNL A   1      33.893  25.509  23.642  1.00  0.00    -0.475 OA
ATOM     12  C   UNL A   1      30.894  27.322  22.443  1.00  0.00     0.058 A 
ATOM     13  C   UNL A   1      33.059  26.457  23.102  1.00  0.00     0.128 A 
ATOM     14  C   UNL A   1      31.410  28.622  22.472  1.00  0.00     0.130 A 
ATOM     15  C   UNL A   1      33.588  27.746  23.048  1.00  0.00     0.051 A 
ATOM     16  C   UNL A   1      32.761  28.830  22.752  1.00  0.00     0.050 A 
BRANCH   9  17
ATOM     17  C   UNL A   1      33.618  23.204  22.829  1.00  0.00     0.429 C 
ATOM     18  F   UNL A   1      33.343  23.710  21.602  1.00  0.00    -0.167 F 
ATOM     19  F   UNL A   1      34.928  22.865  22.827  1.00  0.00    -0.167 F 
ATOM     20  F   UNL A   1      32.907  22.059  22.956  1.00  0.00    -0.167 F 
ENDBRANCH   9  17
BRANCH  14  21
ATOM     21  O   UNL A   1      30.511  29.624  22.233  1.00  0.00    -0.406 OA
BRANCH  21  22
ATOM     22  C   UNL A   1      29.674  29.949  23.342  1.00  0.00     0.573 C 
ATOM     23  F   UNL A   1      28.633  29.089  23.421  1.00  0.00    -0.132 F 
ATOM     24  F   UNL A   1      30.377  29.935  24.491  1.00  0.00    -0.132 F 
ATOM     25  F   UNL A   1      29.182  31.194  23.156  1.00  0.00    -0.132 F 
ENDBRANCH  21  22
ENDBRANCH  14  21
ENDBRANCH   5   7
ENDBRANCH   2   3
ENDBRANCH   1   2
BRANCH   1  26
ATOM     26  C   UNL A   1      31.872  28.466  27.413  1.00  0.00     0.023 C 
BRANCH  26  27
ATOM     27  C   UNL A   1      33.310  28.982  27.390  1.00  0.00     0.116 C 
BRANCH  27  28
ATOM     28  N   UNL A   1      33.470  30.366  27.816  1.00  0.00    -0.352 N 
ATOM     29  C   UNL A   1      34.617  30.998  28.248  1.00  0.00     0.251 C 
ATOM     30  H   UNL A   1      32.657  30.921  27.791  1.00  0.00     0.163 HD
ATOM     31  O   UNL A   1      34.610  32.179  28.584  1.00  0.00    -0.269 OA
BRANCH  29  32
ATOM     32  C   UNL A   1      35.854  30.200  28.361  1.00  0.00     0.039 A 
ATOM     33  C   UNL A   1      36.762  30.213  27.299  1.00  0.00     0.014 A 
ATOM     34  C   UNL A   1      36.171  29.580  29.569  1.00  0.00     0.014 A 
ATOM     35  C   UNL A   1      38.045  29.695  27.490  1.00  0.00     0.010 A 
ATOM     36  C   UNL A   1      37.473  29.139  29.780  1.00  0.00     0.010 A 
ATOM     37  C   UNL A   1      38.429  29.210  28.750  1.00  0.00    -0.014 A 
BRANCH  37  38
ATOM     38  C   UNL A   1      39.819  28.777  29.042  1.00  0.00     0.031 A 
ATOM     39  C   UNL A   1      40.788  29.765  29.628  1.00  0.00     0.074 A 
ATOM     40  C   UNL A   1      40.244  27.552  28.667  1.00  0.00     0.049 A 
ATOM     41  N   UNL A   1      42.085  29.676  29.759  1.00  0.00    -0.248 NA
ATOM     42  C   UNL A   1      40.221  31.043  30.089  1.00  0.00     0.031 C 
ATOM     43  C   UNL A   1      39.417  26.515  28.044  1.00  0.00     0.029 A 
ATOM     44  N   UNL A   1      41.493  26.983  28.727  1.00  0.00    -0.354 N 
ATOM     45  C   UNL A   1      42.495  30.903  30.266  1.00  0.00     0.074 A 
ATOM     46  C   UNL A   1      41.314  31.729  30.390  1.00  0.00     0.031 C 
ATOM     47  C   UNL A   1      40.178  25.437  27.789  1.00  0.00     0.029 A 
ATOM     48  C   UNL A   1      41.553  25.720  28.186  1.00  0.00     0.049 A 
ATOM     49  H   UNL A   1      42.272  27.437  29.122  1.00  0.00     0.167 HD
ATOM     50  C   UNL A   1      43.742  31.299  30.612  1.00  0.00     0.037 A 
ATOM     51  C   UNL A   1      42.603  24.893  28.014  1.00  0.00     0.037 A 
ATOM     52  C   UNL A   1      44.901  30.451  30.552  1.00  0.00     0.049 A 
ATOM     53  C   UNL A   1      43.970  25.342  28.455  1.00  0.00     0.074 A 
ATOM     54  C   UNL A   1      46.194  30.733  30.957  1.00  0.00     0.029 A 
ATOM     55  N   UNL A   1      44.902  29.151  30.074  1.00  0.00    -0.354 N 
ATOM     56  N   UNL A   1      44.334  26.486  28.982  1.00  0.00    -0.248 NA
ATOM     57  C   UNL A   1      45.074  24.384  28.281  1.00  0.00     0.031 C 
ATOM     58  C   UNL A   1      46.984  29.608  30.700  1.00  0.00     0.029 A 
ATOM     59  C   UNL A   1      46.175  28.618  30.170  1.00  0.00     0.049 A 
ATOM     60  H   UNL A   1      44.115  28.678  29.719  1.00  0.00     0.167 HD
ATOM     61  C   UNL A   1      45.694  26.371  29.237  1.00  0.00     0.074 A 
ATOM     62  C   UNL A   1      46.093  25.046  28.812  1.00  0.00     0.031 C 
ATOM     63  C   UNL A   1      46.539  27.282  29.777  1.00  0.00     0.037 A 
BRANCH  50  64
ATOM     64  C   UNL A   1      43.915  32.706  31.099  1.00  0.00     0.057 A 
ATOM     65  C   UNL A   1      43.828  33.033  32.458  1.00  0.00     0.134 A 
ATOM     66  C   UNL A   1      44.221  33.737  30.201  1.00  0.00     0.134 A 
ATOM     67  F   UNL A   1      43.524  32.093  33.365  1.00  0.00    -0.206 F 
ATOM     68  C   UNL A   1      44.018  34.341  32.906  1.00  0.00     0.040 A 
ATOM     69  C   UNL A   1      44.439  35.044  30.640  1.00  0.00     0.040 A 
ATOM     70  F   UNL A   1      44.323  33.490  28.887  1.00  0.00    -0.206 F 
ATOM     71  C   UNL A   1      44.333  35.349  31.996  1.00  0.00     0.006 A 
ENDBRANCH  50  64
BRANCH  51  72
ATOM     72  C   UNL A   1      42.414  23.549  27.409  1.00  0.00     0.057 A 
ATOM     73  C   UNL A   1      42.118  22.437  28.206  1.00  0.00     0.134 A 
ATOM     74  C   UNL A   1      42.561  23.334  26.034  1.00  0.00     0.134 A 
ATOM     75  F   UNL A   1      41.985  22.575  29.534  1.00  0.00    -0.206 F 
ATOM     76  C   UNL A   1      42.003  21.156  27.664  1.00  0.00     0.040 A 
ATOM     77  C   UNL A   1      42.425  22.062  25.475  1.00  0.00     0.040 A 
ATOM     78  F   UNL A   1      42.839  24.359  25.214  1.00  0.00    -0.206 F 
ATOM     79  C   UNL A   1      42.155  20.967  26.292  1.00  0.00     0.006 A 
ENDBRANCH  51  72
BRANCH  63  80
ATOM     80  C   UNL A   1      47.959  26.861  30.002  1.00  0.00     0.057 A 
ATOM     81  C   UNL A   1      48.346  26.134  31.133  1.00  0.00     0.134 A 
ATOM     82  C   UNL A   1      48.937  27.132  29.035  1.00  0.00     0.134 A 
ATOM     83  F   UNL A   1      47.458  25.855  32.099  1.00  0.00    -0.206 F 
ATOM     84  C   UNL A   1      49.661  25.697  31.300  1.00  0.00     0.040 A 
ATOM     85  C   UNL A   1      50.248  26.681  29.181  1.00  0.00     0.040 A 
ATOM     86  F   UNL A   1      48.625  27.817  27.924  1.00  0.00    -0.206 F 
ATOM     87  C   UNL A   1      50.613  25.962  30.318  1.00  0.00     0.006 A 
ENDBRANCH  63  80
ENDBRANCH  37  38
ENDBRANCH  29  32
ENDBRANCH  27  28
ENDBRANCH  26  27
ENDBRANCH   1  26
TORSDOF 14
ENDMDL
MODEL 3
REMARK VINA RESULT:     -12.1      3.755      5.036
REMARK SMILES O=C(NCCCCNC(=O)c1ccc(-c2c3nc(c(-c4c(F)cccc4F)c4ccc([nH]4)c(-c4c(F)cccc4F)c4nc(c(-c5c(F)cccc5F)c5ccc2[nH]5)C=C4)C=C3)cc1)C1=Cc2cc(OC(F)(F)F)ccc2O[C@@H]1C(F)(F)F
REMARK SMILES IDX 5 1 4 2 3 3 1 4 2 5 65 7 66 8 79 9 67 10 78 11 68 12 77 13
REMARK SMILES IDX 69 14 76 15 75 16 80 17 81 18 82 19 83 20 70 21 71 22 72 23
REMARK SMILES IDX 73 24 74 25 6 26 7 27 8 28 9 29 10 31 11 32 12 33 64 34
REMARK SMILES IDX 13 35 63 36 14 37 15 38 16 39 57 40 17 41 62 42 56 43 58 44
REMARK SMILES IDX 18 45 61 46 55 47 54 48 19 50 45 51 28 52 44 53 29 54 32 55
REMARK SMILES IDX 43 56 59 57 30 58 31 59 42 61 60 62 33 63 20 64 21 65 26 66
REMARK SMILES IDX 22 67 23 68 25 69 27 70 24 71 46 72 47 73 52 74 48 75 49 76
REMARK SMILES IDX 51 77 53 78 50 79 34 80 35 81 40 82 36 83 37 84 39 85 41 86
REMARK SMILES IDX 38 87
REMARK H PARENT 3 6 8 30 58 49 32 60
REMARK Flexibility Score: inf
ROOT
ATOM      1  C   UNL A   1      31.868  29.754  25.440  1.00  0.00     0.023 C 
ENDROOT
BRANCH   1   2
ATOM      2  C   UNL A   1      31.200  28.556  24.764  1.00  0.00     0.116 C 
BRANCH   2   3
ATOM      3  N   UNL A   1      30.911  27.438  25.661  1.00  0.00    -0.352 N 
ATOM      4  O   UNL A   1      31.355  25.478  26.716  1.00  0.00    -0.270 OA
ATOM      5  C   UNL A   1      31.534  26.212  25.753  1.00  0.00     0.251 C 
ATOM      6  H   UNL A   1      30.165  27.581  26.289  1.00  0.00     0.163 HD
BRANCH   5   7
ATOM      7  C   UNL A   1      32.512  25.862  24.704  1.00  0.00     0.067 C 
ATOM      8  C   UNL A   1      33.809  25.755  25.028  1.00  0.00     0.025 C 
ATOM      9  C   UNL A   1      31.971  25.296  23.427  1.00  0.00     0.314 C 
ATOM     10  C   UNL A   1      34.376  24.464  24.595  1.00  0.00     0.021 A 
ATOM     11  O   UNL A   1      32.425  23.940  23.199  1.00  0.00    -0.475 OA
ATOM     12  C   UNL A   1      35.454  23.950  25.330  1.00  0.00     0.058 A 
ATOM     13  C   UNL A   1      33.604  23.587  23.808  1.00  0.00     0.128 A 
ATOM     14  C   UNL A   1      35.696  22.573  25.357  1.00  0.00     0.130 A 
ATOM     15  C   UNL A   1      33.902  22.225  23.774  1.00  0.00     0.051 A 
ATOM     16  C   UNL A   1      34.935  21.715  24.562  1.00  0.00     0.050 A 
BRANCH   9  17
ATOM     17  C   UNL A   1      32.316  26.197  22.227  1.00  0.00     0.429 C 
ATOM     18  F   UNL A   1      33.081  25.536  21.325  1.00  0.00    -0.167 F 
ATOM     19  F   UNL A   1      31.205  26.609  21.572  1.00  0.00    -0.167 F 
ATOM     20  F   UNL A   1      33.000  27.306  22.593  1.00  0.00    -0.167 F 
ENDBRANCH   9  17
BRANCH  14  21
ATOM     21  O   UNL A   1      36.684  22.159  26.207  1.00  0.00    -0.406 OA
BRANCH  21  22
ATOM     22  C   UNL A   1      37.999  22.207  25.659  1.00  0.00     0.573 C 
ATOM     23  F   UNL A   1      38.779  21.245  26.205  1.00  0.00    -0.132 F 
ATOM     24  F   UNL A   1      37.964  22.070  24.319  1.00  0.00    -0.132 F 
ATOM     25  F   UNL A   1      38.542  23.410  25.951  1.00  0.00    -0.132 F 
ENDBRANCH  21  22
ENDBRANCH  14  21
ENDBRANCH   5   7
ENDBRANCH   2   3
ENDBRANCH   1   2
BRANCH   1  26
ATOM     26  C   UNL A   1      33.349  29.562  25.754  1.00  0.00     0.023 C 
BRANCH  26  27
ATOM     27  C   UNL A   1      33.708  29.340  27.222  1.00  0.00     0.116 C 
BRANCH  27  28
ATOM     28  N   UNL A   1      33.810  30.557  28.018  1.00  0.00    -0.352 N 
ATOM     29  C   UNL A   1      34.903  31.031  28.713  1.00  0.00     0.251 C 
ATOM     30  H   UNL A   1      32.998  31.110  28.064  1.00  0.00     0.163 HD
ATOM     31  O   UNL A   1      34.850  32.078  29.351  1.00  0.00    -0.269 OA
BRANCH  29  32
ATOM     32  C   UNL A   1      36.131  30.213  28.727  1.00  0.00     0.039 A 
ATOM     33  C   UNL A   1      36.974  30.244  27.613  1.00  0.00     0.014 A 
ATOM     34  C   UNL A   1      36.511  29.552  29.895  1.00  0.00     0.014 A 
ATOM     35  C   UNL A   1      38.258  29.703  27.709  1.00  0.00     0.010 A 
ATOM     36  C   UNL A   1      37.816  29.086  30.013  1.00  0.00     0.010 A 
ATOM     37  C   UNL A   1      38.709  29.174  28.929  1.00  0.00    -0.014 A 
BRANCH  37  38
ATOM     38  C   UNL A   1      40.107  28.713  29.123  1.00  0.00     0.031 A 
ATOM     39  C   UNL A   1      41.139  29.686  29.619  1.00  0.00     0.074 A 
ATOM     40  C   UNL A   1      40.475  27.474  28.736  1.00  0.00     0.049 A 
ATOM     41  N   UNL A   1      42.440  29.569  29.654  1.00  0.00    -0.248 NA
ATOM     42  C   UNL A   1      40.637  30.984  30.100  1.00  0.00     0.031 C 
ATOM     43  C   UNL A   1      39.581  26.448  28.193  1.00  0.00     0.029 A 
ATOM     44  N   UNL A   1      41.712  26.877  28.712  1.00  0.00    -0.354 N 
ATOM     45  C   UNL A   1      42.914  30.793  30.110  1.00  0.00     0.074 A 
ATOM     46  C   UNL A   1      41.764  31.647  30.309  1.00  0.00     0.031 C 
ATOM     47  C   UNL A   1      40.296  25.348  27.899  1.00  0.00     0.029 A 
ATOM     48  C   UNL A   1      41.703  25.604  28.188  1.00  0.00     0.049 A 
ATOM     49  H   UNL A   1      42.528  27.317  29.040  1.00  0.00     0.167 HD
ATOM     50  C   UNL A   1      44.192  31.165  30.355  1.00  0.00     0.037 A 
ATOM     51  C   UNL A   1      42.718  24.751  27.951  1.00  0.00     0.037 A 
ATOM     52  C   UNL A   1      45.324  30.289  30.222  1.00  0.00     0.049 A 
ATOM     53  C   UNL A   1      44.125  25.174  28.281  1.00  0.00     0.074 A 
ATOM     54  C   UNL A   1      46.651  30.545  30.524  1.00  0.00     0.029 A 
ATOM     55  N   UNL A   1      45.260  28.982  29.765  1.00  0.00    -0.354 N 
ATOM     56  N   UNL A   1      44.553  26.316  28.761  1.00  0.00    -0.248 NA
ATOM     57  C   UNL A   1      45.191  24.188  28.040  1.00  0.00     0.031 C 
ATOM     58  C   UNL A   1      47.394  29.400  30.226  1.00  0.00     0.029 A 
ATOM     59  C   UNL A   1      46.525  28.421  29.774  1.00  0.00     0.049 A 
ATOM     60  H   UNL A   1      44.438  28.523  29.478  1.00  0.00     0.167 HD
ATOM     61  C   UNL A   1      45.925  26.174  28.916  1.00  0.00     0.074 A 
ATOM     62  C   UNL A   1      46.261  24.833  28.482  1.00  0.00     0.031 C 
ATOM     63  C   UNL A   1      46.829  27.071  29.376  1.00  0.00     0.037 A 
BRANCH  50  64
ATOM     64  C   UNL A   1      44.433  32.574  30.806  1.00  0.00     0.057 A 
ATOM     65  C   UNL A   1      44.454  32.922  32.161  1.00  0.00     0.134 A 
ATOM     66  C   UNL A   1      44.695  33.584  29.872  1.00  0.00     0.134 A 
ATOM     67  F   UNL A   1      44.195  32.002  33.103  1.00  0.00    -0.206 F 
ATOM     68  C   UNL A   1      44.706  34.231  32.573  1.00  0.00     0.040 A 
ATOM     69  C   UNL A   1      44.975  34.892  30.272  1.00  0.00     0.040 A 
ATOM     70  F   UNL A   1      44.695  33.316  28.558  1.00  0.00    -0.206 F 
ATOM     71  C   UNL A   1      44.976  35.218  31.627  1.00  0.00     0.006 A 
ENDBRANCH  50  64
BRANCH  51  72
ATOM     72  C   UNL A   1      42.455  23.404  27.383  1.00  0.00     0.057 A 
ATOM     73  C   UNL A   1      42.199  22.309  28.217  1.00  0.00     0.134 A 
ATOM     74  C   UNL A   1      42.490  23.167  26.004  1.00  0.00     0.134 A 
ATOM     75  F   UNL A   1      42.172  22.468  29.549  1.00  0.00    -0.206 F 
ATOM     76  C   UNL A   1      42.014  21.023  27.705  1.00  0.00     0.040 A 
ATOM     77  C   UNL A   1      42.284  21.891  25.476  1.00  0.00     0.040 A 
ATOM     78  F   UNL A   1      42.724  24.174  25.149  1.00  0.00    -0.206 F 
ATOM     79  C   UNL A   1      42.055  20.813  26.328  1.00  0.00     0.006 A 
ENDBRANCH  51  72
BRANCH  63  80
ATOM     80  C   UNL A   1      48.252  26.621  29.501  1.00  0.00     0.057 A 
ATOM     81  C   UNL A   1      49.199  26.878  28.503  1.00  0.00     0.134 A 
ATOM     82  C   UNL A   1      48.690  25.981  30.668  1.00  0.00     0.134 A 
ATOM     83  F   UNL A   1      48.837  27.475  27.359  1.00  0.00    -0.206 F 
ATOM     84  C   UNL A   1      50.536  26.505  28.659  1.00  0.00     0.040 A 
ATOM     85  C   UNL A   1      50.027  25.625  30.843  1.00  0.00     0.040 A 
ATOM     86  F   UNL A   1      47.830  25.716  31.663  1.00  0.00    -0.206 F 
ATOM     87  C   UNL A   1      50.953  25.885  29.836  1.00  0.00     0.006 A 
ENDBRANCH  63  80
ENDBRANCH  37  38
ENDBRANCH  29  32
ENDBRANCH  27  28
ENDBRANCH  26  27
ENDBRANCH   1  26
TORSDOF 14
ENDMDL
