MODEL 1
REMARK VINA RESULT:     -11.2      0.000      0.000
REMARK SMILES Cc1cc(C(=O)N2CCC[C@@H]2C)sc1/C=C/C(=O)NCCCCNC(=O)c1ccc(-c2c3nc(c(-c4c(F)cccc4F)c4ccc([nH]4)c(-c4c(F)cccc4F)c4nc(c(-c5c(F)cccc5F)c5ccc2[nH]5)C=C4)C=C3)cc1
REMARK SMILES IDX 21 1 20 2 19 3 17 4 18 5 16 7 15 8 14 9 1 10 2 11 3 12 4 13
REMARK SMILES IDX 13 14 5 15 6 16 7 17 8 18 11 19 9 20 10 21 12 22 22 23 23 24
REMARK SMILES IDX 24 25 25 26 26 28 27 29 28 30 80 31 29 32 79 33 30 34 31 35
REMARK SMILES IDX 32 36 73 37 33 38 78 39 72 40 74 41 34 42 77 43 71 44 70 45
REMARK SMILES IDX 35 47 61 48 44 49 60 50 45 51 48 52 59 53 75 54 46 55 47 56
REMARK SMILES IDX 58 58 76 59 49 60 36 61 37 62 42 63 38 64 39 65 41 66 43 67
REMARK SMILES IDX 40 68 62 69 63 70 68 71 64 72 65 73 67 74 69 75 66 76 50 77
REMARK SMILES IDX 51 78 56 79 52 80 53 81 55 82 57 83 54 84
REMARK H PARENT 19 6 24 27 74 46 48 57
REMARK Flexibility Score: inf
ROOT
ATOM      1  C   UNL A   1      34.866  33.395  29.284  1.00  0.00     0.023 C 
ENDROOT
BRANCH   1   2
ATOM      2  C   UNL A   1      35.475  32.939  27.958  1.00  0.00     0.116 C 
BRANCH   2   3
ATOM      3  N   UNL A   1      36.218  31.704  28.128  1.00  0.00    -0.353 N 
ATOM      4  C   UNL A   1      35.884  30.430  27.787  1.00  0.00     0.244 C 
ATOM      5  O   UNL A   1      36.696  29.524  27.940  1.00  0.00    -0.270 OA
ATOM      6  H   UNL A   1      37.098  31.804  28.558  1.00  0.00     0.163 HD
BRANCH   4   7
ATOM      7  C   UNL A   1      34.586  30.147  27.139  1.00  0.00     0.072 C 
ATOM      8  C   UNL A   1      34.333  29.037  26.429  1.00  0.00     0.025 C 
BRANCH   8   9
ATOM      9  C   UNL A   1      33.068  28.784  25.819  1.00  0.00     0.031 A 
ATOM     10  C   UNL A   1      31.716  27.919  27.833  1.00  0.00     0.046 C 
ATOM     11  C   UNL A   1      31.919  28.248  26.387  1.00  0.00    -0.032 A 
ATOM     12  C   UNL A   1      30.884  28.074  25.403  1.00  0.00     0.029 A 
ATOM     13  C   UNL A   1      31.237  28.512  24.140  1.00  0.00     0.093 A 
ATOM     14  S   UNL A   1      32.816  29.146  24.163  1.00  0.00    -0.130 S 
BRANCH  13  15
ATOM     15  C   UNL A   1      30.339  28.648  22.996  1.00  0.00     0.264 C 
ATOM     16  O   UNL A   1      30.427  27.867  22.043  1.00  0.00    -0.268 OA
BRANCH  15  17
ATOM     17  N   UNL A   1      29.321  29.594  22.994  1.00  0.00    -0.335 N 
ATOM     18  C   UNL A   1      29.530  30.855  23.673  1.00  0.00     0.120 C 
ATOM     19  C   UNL A   1      27.972  29.540  22.420  1.00  0.00     0.082 C 
ATOM     20  C   UNL A   1      28.688  31.813  22.851  1.00  0.00     0.024 C 
ATOM     21  C   UNL A   1      27.448  30.983  22.531  1.00  0.00     0.026 C 
ATOM     22  C   UNL A   1      27.078  28.568  23.185  1.00  0.00     0.031 C 
ENDBRANCH  15  17
ENDBRANCH  13  15
ENDBRANCH   8   9
ENDBRANCH   4   7
ENDBRANCH   2   3
ENDBRANCH   1   2
BRANCH   1  23
ATOM     23  C   UNL A   1      33.579  34.209  29.137  1.00  0.00     0.023 C 
BRANCH  23  24
ATOM     24  C   UNL A   1      33.672  35.651  29.621  1.00  0.00     0.116 C 
BRANCH  24  25
ATOM     25  N   UNL A   1      32.703  35.978  30.654  1.00  0.00    -0.352 N 
ATOM     26  C   UNL A   1      32.751  35.677  31.995  1.00  0.00     0.251 C 
ATOM     27  H   UNL A   1      31.910  36.480  30.355  1.00  0.00     0.163 HD
ATOM     28  O   UNL A   1      31.807  35.935  32.727  1.00  0.00    -0.269 OA
BRANCH  26  29
ATOM     29  C   UNL A   1      33.946  34.992  32.530  1.00  0.00     0.039 A 
ATOM     30  C   UNL A   1      33.805  33.702  33.047  1.00  0.00     0.014 A 
ATOM     31  C   UNL A   1      35.202  35.602  32.477  1.00  0.00     0.014 A 
ATOM     32  C   UNL A   1      34.939  32.993  33.445  1.00  0.00     0.010 A 
ATOM     33  C   UNL A   1      36.336  34.870  32.810  1.00  0.00     0.010 A 
ATOM     34  C   UNL A   1      36.216  33.557  33.292  1.00  0.00    -0.014 A 
BRANCH  34  35
ATOM     35  C   UNL A   1      37.441  32.790  33.621  1.00  0.00     0.031 A 
ATOM     36  C   UNL A   1      38.202  33.092  34.880  1.00  0.00     0.074 A 
ATOM     37  C   UNL A   1      37.909  31.878  32.748  1.00  0.00     0.049 A 
ATOM     38  N   UNL A   1      39.335  32.591  35.300  1.00  0.00    -0.248 NA
ATOM     39  C   UNL A   1      37.627  34.111  35.772  1.00  0.00     0.031 C 
ATOM     40  C   UNL A   1      37.288  31.534  31.467  1.00  0.00     0.029 A 
ATOM     41  N   UNL A   1      39.025  31.082  32.799  1.00  0.00    -0.354 N 
ATOM     42  C   UNL A   1      39.618  33.247  36.491  1.00  0.00     0.074 A 
ATOM     43  C   UNL A   1      38.563  34.213  36.703  1.00  0.00     0.031 C 
ATOM     44  C   UNL A   1      38.021  30.584  30.864  1.00  0.00     0.029 A 
ATOM     45  C   UNL A   1      39.179  30.277  31.697  1.00  0.00     0.049 A 
ATOM     46  H   UNL A   1      39.656  31.088  33.555  1.00  0.00     0.167 HD
ATOM     47  C   UNL A   1      40.652  33.045  37.341  1.00  0.00     0.037 A 
ATOM     48  C   UNL A   1      40.147  29.394  31.392  1.00  0.00     0.037 A 
ATOM     49  C   UNL A   1      41.683  32.061  37.143  1.00  0.00     0.049 A 
ATOM     50  C   UNL A   1      41.278  29.178  32.359  1.00  0.00     0.074 A 
ATOM     51  C   UNL A   1      42.738  31.737  37.977  1.00  0.00     0.029 A 
ATOM     52  N   UNL A   1      41.785  31.239  36.031  1.00  0.00    -0.354 N 
ATOM     53  N   UNL A   1      41.497  29.758  33.514  1.00  0.00    -0.248 NA
ATOM     54  C   UNL A   1      42.291  28.181  31.984  1.00  0.00     0.031 C 
ATOM     55  C   UNL A   1      43.499  30.742  37.355  1.00  0.00     0.029 A 
ATOM     56  C   UNL A   1      42.894  30.418  36.151  1.00  0.00     0.049 A 
ATOM     57  H   UNL A   1      41.162  31.240  35.269  1.00  0.00     0.167 HD
ATOM     58  C   UNL A   1      42.654  29.177  34.018  1.00  0.00     0.074 A 
ATOM     59  C   UNL A   1      43.084  28.193  33.046  1.00  0.00     0.031 C 
ATOM     60  C   UNL A   1      43.299  29.434  35.181  1.00  0.00     0.037 A 
BRANCH  47  61
ATOM     61  C   UNL A   1      40.712  33.904  38.569  1.00  0.00     0.057 A 
ATOM     62  C   UNL A   1      40.056  33.543  39.754  1.00  0.00     0.134 A 
ATOM     63  C   UNL A   1      41.457  35.090  38.579  1.00  0.00     0.134 A 
ATOM     64  F   UNL A   1      39.316  32.425  39.806  1.00  0.00    -0.206 F 
ATOM     65  C   UNL A   1      40.117  34.343  40.895  1.00  0.00     0.040 A 
ATOM     66  C   UNL A   1      41.546  35.886  39.722  1.00  0.00     0.040 A 
ATOM     67  F   UNL A   1      42.113  35.491  37.480  1.00  0.00    -0.206 F 
ATOM     68  C   UNL A   1      40.870  35.517  40.883  1.00  0.00     0.006 A 
ENDBRANCH  47  61
BRANCH  48  69
ATOM     69  C   UNL A   1      40.076  28.621  30.126  1.00  0.00     0.057 A 
ATOM     70  C   UNL A   1      39.332  27.438  30.047  1.00  0.00     0.134 A 
ATOM     71  C   UNL A   1      40.748  29.040  28.973  1.00  0.00     0.134 A 
ATOM     72  F   UNL A   1      38.681  26.978  31.125  1.00  0.00    -0.206 F 
ATOM     73  C   UNL A   1      39.273  26.689  28.871  1.00  0.00     0.040 A 
ATOM     74  C   UNL A   1      40.681  28.313  27.784  1.00  0.00     0.040 A 
ATOM     75  F   UNL A   1      41.471  30.170  28.983  1.00  0.00    -0.206 F 
ATOM     76  C   UNL A   1      39.946  27.129  27.733  1.00  0.00     0.006 A 
ENDBRANCH  48  69
BRANCH  60  77
ATOM     77  C   UNL A   1      44.515  28.612  35.488  1.00  0.00     0.057 A 
ATOM     78  C   UNL A   1      45.799  29.021  35.106  1.00  0.00     0.134 A 
ATOM     79  C   UNL A   1      44.402  27.421  36.215  1.00  0.00     0.134 A 
ATOM     80  F   UNL A   1      45.971  30.146  34.396  1.00  0.00    -0.206 F 
ATOM     81  C   UNL A   1      46.927  28.264  35.424  1.00  0.00     0.040 A 
ATOM     82  C   UNL A   1      45.524  26.668  36.559  1.00  0.00     0.040 A 
ATOM     83  F   UNL A   1      43.200  26.979  36.616  1.00  0.00    -0.206 F 
ATOM     84  C   UNL A   1      46.791  27.087  36.159  1.00  0.00     0.006 A 
ENDBRANCH  60  77
ENDBRANCH  34  35
ENDBRANCH  26  29
ENDBRANCH  24  25
ENDBRANCH  23  24
ENDBRANCH   1  23
TORSDOF 14
ENDMDL
MODEL 2
REMARK VINA RESULT:     -11.0      0.356      6.278
REMARK SMILES Cc1cc(C(=O)N2CCC[C@@H]2C)sc1/C=C/C(=O)NCCCCNC(=O)c1ccc(-c2c3nc(c(-c4c(F)cccc4F)c4ccc([nH]4)c(-c4c(F)cccc4F)c4nc(c(-c5c(F)cccc5F)c5ccc2[nH]5)C=C4)C=C3)cc1
REMARK SMILES IDX 21 1 20 2 19 3 17 4 18 5 16 7 15 8 14 9 1 10 2 11 3 12 4 13
REMARK SMILES IDX 13 14 5 15 6 16 7 17 8 18 11 19 9 20 10 21 12 22 22 23 23 24
REMARK SMILES IDX 24 25 25 26 26 28 27 29 28 30 80 31 29 32 79 33 30 34 31 35
REMARK SMILES IDX 32 36 73 37 33 38 78 39 72 40 74 41 34 42 77 43 71 44 70 45
REMARK SMILES IDX 35 47 61 48 44 49 60 50 45 51 48 52 59 53 75 54 46 55 47 56
REMARK SMILES IDX 58 58 76 59 49 60 36 61 37 62 42 63 38 64 39 65 41 66 43 67
REMARK SMILES IDX 40 68 62 69 63 70 68 71 64 72 65 73 67 74 69 75 66 76 50 77
REMARK SMILES IDX 51 78 56 79 52 80 53 81 55 82 57 83 54 84
REMARK H PARENT 19 6 24 27 74 46 48 57
REMARK Flexibility Score: inf
ROOT
ATOM      1  C   UNL A   1      35.075  33.535  29.264  1.00  0.00     0.023 C 
ENDROOT
BRANCH   1   2
ATOM      2  C   UNL A   1      35.584  32.936  27.953  1.00  0.00     0.116 C 
BRANCH   2   3
ATOM      3  N   UNL A   1      36.275  31.683  28.191  1.00  0.00    -0.353 N 
ATOM      4  C   UNL A   1      35.905  30.410  27.888  1.00  0.00     0.244 C 
ATOM      5  O   UNL A   1      36.678  29.481  28.098  1.00  0.00    -0.270 OA
ATOM      6  H   UNL A   1      37.146  31.768  28.642  1.00  0.00     0.163 HD
BRANCH   4   7
ATOM      7  C   UNL A   1      34.616  30.148  27.213  1.00  0.00     0.072 C 
ATOM      8  C   UNL A   1      34.343  29.022  26.536  1.00  0.00     0.025 C 
BRANCH   8   9
ATOM      9  C   UNL A   1      33.087  28.792  25.899  1.00  0.00     0.031 A 
ATOM     10  C   UNL A   1      31.697  27.888  27.870  1.00  0.00     0.046 C 
ATOM     11  C   UNL A   1      31.926  28.249  26.435  1.00  0.00    -0.032 A 
ATOM     12  C   UNL A   1      30.907  28.104  25.430  1.00  0.00     0.029 A 
ATOM     13  C   UNL A   1      31.283  28.570  24.184  1.00  0.00     0.093 A 
ATOM     14  S   UNL A   1      32.865  29.193  24.248  1.00  0.00    -0.130 S 
BRANCH  13  15
ATOM     15  C   UNL A   1      30.406  28.738  23.028  1.00  0.00     0.264 C 
ATOM     16  O   UNL A   1      30.523  27.997  22.048  1.00  0.00    -0.268 OA
BRANCH  15  17
ATOM     17  N   UNL A   1      29.374  29.669  23.044  1.00  0.00    -0.335 N 
ATOM     18  C   UNL A   1      29.560  30.916  23.756  1.00  0.00     0.120 C 
ATOM     19  C   UNL A   1      28.030  29.611  22.458  1.00  0.00     0.082 C 
ATOM     20  C   UNL A   1      28.709  31.882  22.953  1.00  0.00     0.024 C 
ATOM     21  C   UNL A   1      27.485  31.043  22.603  1.00  0.00     0.026 C 
ATOM     22  C   UNL A   1      27.145  28.607  23.191  1.00  0.00     0.031 C 
ENDBRANCH  15  17
ENDBRANCH  13  15
ENDBRANCH   8   9
ENDBRANCH   4   7
ENDBRANCH   2   3
ENDBRANCH   1   2
BRANCH   1  23
ATOM     23  C   UNL A   1      33.685  34.167  29.168  1.00  0.00     0.023 C 
BRANCH  23  24
ATOM     24  C   UNL A   1      33.582  35.581  29.728  1.00  0.00     0.116 C 
BRANCH  24  25
ATOM     25  N   UNL A   1      32.544  35.729  30.735  1.00  0.00    -0.352 N 
ATOM     26  C   UNL A   1      32.582  35.366  32.061  1.00  0.00     0.251 C 
ATOM     27  H   UNL A   1      31.705  36.144  30.428  1.00  0.00     0.163 HD
ATOM     28  O   UNL A   1      31.588  35.466  32.764  1.00  0.00    -0.269 OA
BRANCH  26  29
ATOM     29  C   UNL A   1      33.834  34.808  32.612  1.00  0.00     0.039 A 
ATOM     30  C   UNL A   1      33.816  33.515  33.141  1.00  0.00     0.014 A 
ATOM     31  C   UNL A   1      35.024  35.538  32.561  1.00  0.00     0.014 A 
ATOM     32  C   UNL A   1      35.011  32.925  33.554  1.00  0.00     0.010 A 
ATOM     33  C   UNL A   1      36.222  34.925  32.910  1.00  0.00     0.010 A 
ATOM     34  C   UNL A   1      36.227  33.611  33.405  1.00  0.00    -0.014 A 
BRANCH  34  35
ATOM     35  C   UNL A   1      37.520  32.972  33.751  1.00  0.00     0.031 A 
ATOM     36  C   UNL A   1      38.121  31.947  32.833  1.00  0.00     0.074 A 
ATOM     37  C   UNL A   1      38.109  33.257  34.928  1.00  0.00     0.049 A 
ATOM     38  N   UNL A   1      39.195  31.219  33.000  1.00  0.00    -0.248 NA
ATOM     39  C   UNL A   1      37.406  31.686  31.574  1.00  0.00     0.031 C 
ATOM     40  C   UNL A   1      37.595  34.196  35.928  1.00  0.00     0.029 A 
ATOM     41  N   UNL A   1      39.264  32.776  35.489  1.00  0.00    -0.354 N 
ATOM     42  C   UNL A   1      39.273  30.401  31.879  1.00  0.00     0.074 A 
ATOM     43  C   UNL A   1      38.113  30.690  31.064  1.00  0.00     0.031 C 
ATOM     44  C   UNL A   1      38.441  34.235  36.970  1.00  0.00     0.029 A 
ATOM     45  C   UNL A   1      39.537  33.302  36.728  1.00  0.00     0.049 A 
ATOM     46  H   UNL A   1      39.844  32.115  35.045  1.00  0.00     0.167 HD
ATOM     47  C   UNL A   1      40.235  29.508  31.550  1.00  0.00     0.037 A 
ATOM     48  C   UNL A   1      40.553  33.056  37.574  1.00  0.00     0.037 A 
ATOM     49  C   UNL A   1      41.404  29.247  32.349  1.00  0.00     0.049 A 
ATOM     50  C   UNL A   1      41.617  32.070  37.180  1.00  0.00     0.074 A 
ATOM     51  C   UNL A   1      42.467  28.406  32.071  1.00  0.00     0.029 A 
ATOM     52  N   UNL A   1      41.662  29.826  33.581  1.00  0.00    -0.354 N 
ATOM     53  N   UNL A   1      41.713  31.353  36.086  1.00  0.00    -0.248 NA
ATOM     54  C   UNL A   1      42.717  31.863  38.133  1.00  0.00     0.031 C 
ATOM     55  C   UNL A   1      43.354  28.451  33.152  1.00  0.00     0.029 A 
ATOM     56  C   UNL A   1      42.862  29.351  34.084  1.00  0.00     0.049 A 
ATOM     57  H   UNL A   1      41.079  30.479  34.033  1.00  0.00     0.167 HD
ATOM     58  C   UNL A   1      42.895  30.634  36.206  1.00  0.00     0.074 A 
ATOM     59  C   UNL A   1      43.486  31.009  37.474  1.00  0.00     0.031 C 
ATOM     60  C   UNL A   1      43.442  29.746  35.342  1.00  0.00     0.037 A 
BRANCH  47  61
ATOM     61  C   UNL A   1      40.066  28.754  30.265  1.00  0.00     0.057 A 
ATOM     62  C   UNL A   1      40.643  29.199  29.068  1.00  0.00     0.134 A 
ATOM     63  C   UNL A   1      39.342  27.555  30.227  1.00  0.00     0.134 A 
ATOM     64  F   UNL A   1      41.337  30.347  29.035  1.00  0.00    -0.206 F 
ATOM     65  C   UNL A   1      40.486  28.493  27.875  1.00  0.00     0.040 A 
ATOM     66  C   UNL A   1      39.200  26.827  29.045  1.00  0.00     0.040 A 
ATOM     67  F   UNL A   1      38.769  27.071  31.339  1.00  0.00    -0.206 F 
ATOM     68  C   UNL A   1      39.766  27.299  27.863  1.00  0.00     0.006 A 
ENDBRANCH  47  61
BRANCH  48  69
ATOM     69  C   UNL A   1      40.634  33.780  38.868  1.00  0.00     0.057 A 
ATOM     70  C   UNL A   1      39.916  33.338  39.985  1.00  0.00     0.134 A 
ATOM     71  C   UNL A   1      41.424  34.925  39.019  1.00  0.00     0.134 A 
ATOM     72  F   UNL A   1      39.130  32.256  39.896  1.00  0.00    -0.206 F 
ATOM     73  C   UNL A   1      39.966  34.019  41.203  1.00  0.00     0.040 A 
ATOM     74  C   UNL A   1      41.499  35.605  40.236  1.00  0.00     0.040 A 
ATOM     75  F   UNL A   1      42.141  35.394  37.988  1.00  0.00    -0.206 F 
ATOM     76  C   UNL A   1      40.762  35.155  41.331  1.00  0.00     0.006 A 
ENDBRANCH  48  69
BRANCH  60  77
ATOM     77  C   UNL A   1      44.765  29.149  35.716  1.00  0.00     0.057 A 
ATOM     78  C   UNL A   1      44.858  27.953  36.440  1.00  0.00     0.134 A 
ATOM     79  C   UNL A   1      45.959  29.754  35.308  1.00  0.00     0.134 A 
ATOM     80  F   UNL A   1      43.749  27.333  36.872  1.00  0.00    -0.206 F 
ATOM     81  C   UNL A   1      46.094  27.389  36.757  1.00  0.00     0.040 A 
ATOM     82  C   UNL A   1      47.201  29.187  35.598  1.00  0.00     0.040 A 
ATOM     83  F   UNL A   1      45.938  30.897  34.605  1.00  0.00    -0.206 F 
ATOM     84  C   UNL A   1      47.270  28.004  36.329  1.00  0.00     0.006 A 
ENDBRANCH  60  77
ENDBRANCH  34  35
ENDBRANCH  26  29
ENDBRANCH  24  25
ENDBRANCH  23  24
ENDBRANCH   1  23
TORSDOF 14
ENDMDL
MODEL 3
REMARK VINA RESULT:     -11.0      6.293     11.305
REMARK SMILES Cc1cc(C(=O)N2CCC[C@@H]2C)sc1/C=C/C(=O)NCCCCNC(=O)c1ccc(-c2c3nc(c(-c4c(F)cccc4F)c4ccc([nH]4)c(-c4c(F)cccc4F)c4nc(c(-c5c(F)cccc5F)c5ccc2[nH]5)C=C4)C=C3)cc1
REMARK SMILES IDX 21 1 20 2 19 3 17 4 18 5 16 7 15 8 14 9 1 10 2 11 3 12 4 13
REMARK SMILES IDX 13 14 5 15 6 16 7 17 8 18 11 19 9 20 10 21 12 22 22 23 23 24
REMARK SMILES IDX 24 25 25 26 26 28 27 29 28 30 80 31 29 32 79 33 30 34 31 35
REMARK SMILES IDX 32 36 73 37 33 38 78 39 72 40 74 41 34 42 77 43 71 44 70 45
REMARK SMILES IDX 35 47 61 48 44 49 60 50 45 51 48 52 59 53 75 54 46 55 47 56
REMARK SMILES IDX 58 58 76 59 49 60 36 61 37 62 42 63 38 64 39 65 41 66 43 67
REMARK SMILES IDX 40 68 62 69 63 70 68 71 64 72 65 73 67 74 69 75 66 76 50 77
REMARK SMILES IDX 51 78 56 79 52 80 53 81 55 82 57 83 54 84
REMARK H PARENT 19 6 24 27 74 46 48 57
REMARK Flexibility Score: inf
ROOT
ATOM      1  C   UNL A   1      37.435  20.822  24.650  1.00  0.00     0.023 C 
ENDROOT
BRANCH   1   2
ATOM      2  C   UNL A   1      36.168  20.989  25.489  1.00  0.00     0.116 C 
BRANCH   2   3
ATOM      3  N   UNL A   1      35.186  19.976  25.151  1.00  0.00    -0.353 N 
ATOM      4  C   UNL A   1      33.939  20.110  24.626  1.00  0.00     0.244 C 
ATOM      5  O   UNL A   1      33.289  19.113  24.330  1.00  0.00    -0.270 OA
ATOM      6  H   UNL A   1      35.466  19.049  25.330  1.00  0.00     0.163 HD
BRANCH   4   7
ATOM      7  C   UNL A   1      33.399  21.451  24.317  1.00  0.00     0.072 C 
ATOM      8  C   UNL A   1      32.239  21.919  24.801  1.00  0.00     0.025 C 
BRANCH   8   9
ATOM      9  C   UNL A   1      31.743  23.221  24.491  1.00  0.00     0.031 A 
ATOM     10  C   UNL A   1      30.284  23.694  26.560  1.00  0.00     0.046 C 
ATOM     11  C   UNL A   1      30.848  24.005  25.209  1.00  0.00    -0.032 A 
ATOM     12  C   UNL A   1      30.539  25.220  24.503  1.00  0.00     0.029 A 
ATOM     13  C   UNL A   1      31.223  25.360  23.309  1.00  0.00     0.093 A 
ATOM     14  S   UNL A   1      32.245  24.024  23.062  1.00  0.00    -0.130 S 
BRANCH  13  15
ATOM     15  C   UNL A   1      31.268  26.563  22.482  1.00  0.00     0.264 C 
ATOM     16  O   UNL A   1      31.343  26.467  21.253  1.00  0.00    -0.268 OA
BRANCH  15  17
ATOM     17  N   UNL A   1      31.141  27.826  23.048  1.00  0.00    -0.335 N 
ATOM     18  C   UNL A   1      30.250  28.787  22.435  1.00  0.00     0.120 C 
ATOM     19  C   UNL A   1      31.807  28.417  24.214  1.00  0.00     0.082 C 
ATOM     20  C   UNL A   1      29.781  29.604  23.625  1.00  0.00     0.024 C 
ATOM     21  C   UNL A   1      31.046  29.731  24.468  1.00  0.00     0.026 C 
ATOM     22  C   UNL A   1      33.285  28.682  23.938  1.00  0.00     0.031 C 
ENDBRANCH  15  17
ENDBRANCH  13  15
ENDBRANCH   8   9
ENDBRANCH   4   7
ENDBRANCH   2   3
ENDBRANCH   1   2
BRANCH   1  23
ATOM     23  C   UNL A   1      38.287  19.610  25.034  1.00  0.00     0.023 C 
BRANCH  23  24
ATOM     24  C   UNL A   1      39.485  19.924  25.923  1.00  0.00     0.116 C 
BRANCH  24  25
ATOM     25  N   UNL A   1      40.503  18.886  25.907  1.00  0.00    -0.352 N 
ATOM     26  C   UNL A   1      41.858  19.018  26.103  1.00  0.00     0.251 C 
ATOM     27  H   UNL A   1      40.181  17.972  25.735  1.00  0.00     0.163 HD
ATOM     28  O   UNL A   1      42.604  18.060  25.961  1.00  0.00    -0.269 OA
BRANCH  26  29
ATOM     29  C   UNL A   1      42.405  20.347  26.441  1.00  0.00     0.039 A 
ATOM     30  C   UNL A   1      43.001  21.105  25.430  1.00  0.00     0.014 A 
ATOM     31  C   UNL A   1      42.285  20.859  27.735  1.00  0.00     0.014 A 
ATOM     32  C   UNL A   1      43.413  22.410  25.701  1.00  0.00     0.010 A 
ATOM     33  C   UNL A   1      42.635  22.181  27.986  1.00  0.00     0.010 A 
ATOM     34  C   UNL A   1      43.198  22.971  26.971  1.00  0.00    -0.014 A 
BRANCH  34  35
ATOM     35  C   UNL A   1      43.543  24.384  27.257  1.00  0.00     0.031 A 
ATOM     36  C   UNL A   1      44.968  24.845  27.156  1.00  0.00     0.074 A 
ATOM     37  C   UNL A   1      42.585  25.229  27.683  1.00  0.00     0.049 A 
ATOM     38  N   UNL A   1      45.480  26.014  27.445  1.00  0.00    -0.248 NA
ATOM     39  C   UNL A   1      45.953  23.854  26.694  1.00  0.00     0.031 C 
ATOM     40  C   UNL A   1      41.174  24.885  27.872  1.00  0.00     0.029 A 
ATOM     41  N   UNL A   1      42.656  26.549  28.048  1.00  0.00    -0.354 N 
ATOM     42  C   UNL A   1      46.846  25.892  27.221  1.00  0.00     0.074 A 
ATOM     43  C   UNL A   1      47.088  24.525  26.817  1.00  0.00     0.031 C 
ATOM     44  C   UNL A   1      40.510  25.972  28.300  1.00  0.00     0.029 A 
ATOM     45  C   UNL A   1      41.452  27.077  28.447  1.00  0.00     0.049 A 
ATOM     46  H   UNL A   1      43.492  27.070  28.026  1.00  0.00     0.167 HD
ATOM     47  C   UNL A   1      47.806  26.841  27.322  1.00  0.00     0.037 A 
ATOM     48  C   UNL A   1      41.144  28.311  28.885  1.00  0.00     0.037 A 
ATOM     49  C   UNL A   1      47.556  28.209  27.693  1.00  0.00     0.049 A 
ATOM     50  C   UNL A   1      42.226  29.351  28.975  1.00  0.00     0.074 A 
ATOM     51  C   UNL A   1      48.452  29.261  27.763  1.00  0.00     0.029 A 
ATOM     52  N   UNL A   1      46.317  28.714  28.055  1.00  0.00    -0.354 N 
ATOM     53  N   UNL A   1      43.502  29.240  28.695  1.00  0.00    -0.248 NA
ATOM     54  C   UNL A   1      41.824  30.689  29.434  1.00  0.00     0.031 C 
ATOM     55  C   UNL A   1      47.762  30.396  28.200  1.00  0.00     0.029 A 
ATOM     56  C   UNL A   1      46.427  30.060  28.363  1.00  0.00     0.049 A 
ATOM     57  H   UNL A   1      45.482  28.193  28.089  1.00  0.00     0.167 HD
ATOM     58  C   UNL A   1      44.050  30.498  28.915  1.00  0.00     0.074 A 
ATOM     59  C   UNL A   1      42.965  31.358  29.342  1.00  0.00     0.031 C 
ATOM     60  C   UNL A   1      45.334  30.903  28.773  1.00  0.00     0.037 A 
BRANCH  47  61
ATOM     61  C   UNL A   1      49.215  26.431  27.016  1.00  0.00     0.057 A 
ATOM     62  C   UNL A   1      49.732  26.484  25.714  1.00  0.00     0.134 A 
ATOM     63  C   UNL A   1      50.075  26.004  28.036  1.00  0.00     0.134 A 
ATOM     64  F   UNL A   1      48.956  26.871  24.691  1.00  0.00    -0.206 F 
ATOM     65  C   UNL A   1      51.046  26.104  25.434  1.00  0.00     0.040 A 
ATOM     66  C   UNL A   1      51.398  25.646  27.772  1.00  0.00     0.040 A 
ATOM     67  F   UNL A   1      49.645  25.935  29.304  1.00  0.00    -0.206 F 
ATOM     68  C   UNL A   1      51.885  25.688  26.468  1.00  0.00     0.006 A 
ENDBRANCH  47  61
BRANCH  48  69
ATOM     69  C   UNL A   1      39.742  28.644  29.243  1.00  0.00     0.057 A 
ATOM     70  C   UNL A   1      38.865  29.179  28.293  1.00  0.00     0.134 A 
ATOM     71  C   UNL A   1      39.250  28.441  30.537  1.00  0.00     0.134 A 
ATOM     72  F   UNL A   1      39.286  29.411  27.042  1.00  0.00    -0.206 F 
ATOM     73  C   UNL A   1      37.551  29.517  28.621  1.00  0.00     0.040 A 
ATOM     74  C   UNL A   1      37.932  28.755  30.873  1.00  0.00     0.040 A 
ATOM     75  F   UNL A   1      40.039  27.925  31.490  1.00  0.00    -0.206 F 
ATOM     76  C   UNL A   1      37.080  29.301  29.914  1.00  0.00     0.006 A 
ENDBRANCH  48  69
BRANCH  60  77
ATOM     77  C   UNL A   1      45.632  32.348  29.041  1.00  0.00     0.057 A 
ATOM     78  C   UNL A   1      46.017  32.800  30.310  1.00  0.00     0.134 A 
ATOM     79  C   UNL A   1      45.578  33.289  28.006  1.00  0.00     0.134 A 
ATOM     80  F   UNL A   1      46.074  31.949  31.345  1.00  0.00    -0.206 F 
ATOM     81  C   UNL A   1      46.322  34.142  30.542  1.00  0.00     0.040 A 
ATOM     82  C   UNL A   1      45.904  34.628  28.220  1.00  0.00     0.040 A 
ATOM     83  F   UNL A   1      45.224  32.918  26.766  1.00  0.00    -0.206 F 
ATOM     84  C   UNL A   1      46.272  35.058  29.493  1.00  0.00     0.006 A 
ENDBRANCH  60  77
ENDBRANCH  34  35
ENDBRANCH  26  29
ENDBRANCH  24  25
ENDBRANCH  23  24
ENDBRANCH   1  23
TORSDOF 14
ENDMDL
