MODEL 1
REMARK VINA RESULT:     -11.7      0.000      0.000
REMARK SMILES O=C(CCCN1C(=O)/C(=C\c2ccc(O)c(O)c2)SC1=S)NCCCCNC(=O)c1ccc(-c2c3nc(c(-c4c(F)cccc4F)c4ccc([nH]4)c(-c4c(F)cccc4F)c4nc(c(-c5c(F)cccc5F)c5ccc2[nH]5)C=C4)C=C3)cc1
REMARK SMILES IDX 23 1 22 2 1 3 2 4 3 6 4 7 5 8 6 9 7 10 20 11 8 12 9 13 19 14
REMARK SMILES IDX 21 15 10 16 11 17 12 18 18 19 13 20 16 21 14 22 17 23 15 25
REMARK SMILES IDX 24 27 25 28 26 29 27 30 28 31 29 33 30 34 31 35 83 36 32 37
REMARK SMILES IDX 82 38 33 39 34 40 35 41 76 42 36 43 81 44 75 45 77 46 37 47
REMARK SMILES IDX 80 48 74 49 73 50 38 52 64 53 47 54 63 55 48 56 51 57 62 58
REMARK SMILES IDX 78 59 49 60 50 61 61 63 79 64 52 65 39 66 40 67 45 68 41 69
REMARK SMILES IDX 42 70 44 71 46 72 43 73 65 74 66 75 71 76 67 77 68 78 70 79
REMARK SMILES IDX 72 80 69 81 53 82 54 83 59 84 55 85 56 86 58 87 60 88 57 89
REMARK H PARENT 22 5 17 24 15 26 27 32 77 51 51 62
REMARK Flexibility Score: inf
ROOT
ATOM      1  C   UNL A   1      34.933  32.493  27.992  1.00  0.00     0.116 C 
ENDROOT
BRANCH   1   2
ATOM      2  N   UNL A   1      34.179  31.321  27.597  1.00  0.00    -0.356 N 
ATOM      3  O   UNL A   1      35.917  29.844  27.857  1.00  0.00    -0.275 OA
ATOM      4  C   UNL A   1      34.763  30.081  27.515  1.00  0.00     0.220 C 
ATOM      5  H   UNL A   1      33.222  31.416  27.383  1.00  0.00     0.163 HD
BRANCH   4   6
ATOM      6  C   UNL A   1      33.862  29.017  26.936  1.00  0.00     0.102 C 
BRANCH   6   7
ATOM      7  C   UNL A   1      33.494  29.275  25.480  1.00  0.00     0.032 C 
BRANCH   7   8
ATOM      8  C   UNL A   1      33.386  28.043  24.573  1.00  0.00     0.128 C 
BRANCH   8   9
ATOM      9  N   UNL A   1      32.063  27.487  24.237  1.00  0.00    -0.293 N 
ATOM     10  C   UNL A   1      31.278  28.235  23.359  1.00  0.00     0.266 C 
ATOM     11  C   UNL A   1      31.419  26.418  24.828  1.00  0.00     0.148 C 
ATOM     12  O   UNL A   1      31.684  29.170  22.680  1.00  0.00    -0.268 OA
ATOM     13  C   UNL A   1      29.884  27.706  23.314  1.00  0.00     0.081 C 
ATOM     14  S   UNL A   1      29.881  26.131  24.013  1.00  0.00    -0.054 SA
ATOM     15  S   UNL A   1      31.881  25.472  26.119  1.00  0.00    -0.052 S 
ATOM     16  C   UNL A   1      28.743  28.323  22.969  1.00  0.00     0.029 C 
BRANCH  16  17
ATOM     17  C   UNL A   1      28.580  29.748  22.666  1.00  0.00    -0.020 A 
ATOM     18  C   UNL A   1      28.844  30.752  23.600  1.00  0.00     0.012 A 
ATOM     19  C   UNL A   1      28.142  30.107  21.381  1.00  0.00     0.058 A 
ATOM     20  C   UNL A   1      28.619  32.091  23.272  1.00  0.00     0.051 A 
ATOM     21  C   UNL A   1      27.923  31.443  21.072  1.00  0.00     0.157 A 
ATOM     22  C   UNL A   1      28.152  32.434  22.014  1.00  0.00     0.157 A 
BRANCH  21  23
ATOM     23  O   UNL A   1      27.475  31.783  19.828  1.00  0.00    -0.504 OA
ATOM     24  H   UNL A   1      26.695  32.293  19.734  1.00  0.00     0.293 HD
ENDBRANCH  21  23
BRANCH  22  25
ATOM     25  O   UNL A   1      27.891  33.725  21.655  1.00  0.00    -0.504 OA
ATOM     26  H   UNL A   1      28.537  34.389  21.794  1.00  0.00     0.293 HD
ENDBRANCH  22  25
ENDBRANCH  16  17
ENDBRANCH   8   9
ENDBRANCH   7   8
ENDBRANCH   6   7
ENDBRANCH   4   6
ENDBRANCH   1   2
BRANCH   1  27
ATOM     27  C   UNL A   1      34.286  33.197  29.184  1.00  0.00     0.023 C 
BRANCH  27  28
ATOM     28  C   UNL A   1      33.282  34.297  28.817  1.00  0.00     0.023 C 
BRANCH  28  29
ATOM     29  C   UNL A   1      33.585  35.675  29.404  1.00  0.00     0.116 C 
BRANCH  29  30
ATOM     30  N   UNL A   1      32.668  36.025  30.481  1.00  0.00    -0.352 N 
ATOM     31  C   UNL A   1      32.695  35.670  31.807  1.00  0.00     0.251 C 
ATOM     32  H   UNL A   1      31.916  36.603  30.218  1.00  0.00     0.163 HD
ATOM     33  O   UNL A   1      31.731  35.903  32.529  1.00  0.00    -0.269 OA
BRANCH  31  34
ATOM     34  C   UNL A   1      33.882  34.993  32.369  1.00  0.00     0.039 A 
ATOM     35  C   UNL A   1      33.750  33.710  32.907  1.00  0.00     0.014 A 
ATOM     36  C   UNL A   1      35.119  35.633  32.392  1.00  0.00     0.014 A 
ATOM     37  C   UNL A   1      34.880  33.030  33.374  1.00  0.00     0.010 A 
ATOM     38  C   UNL A   1      36.247  34.937  32.827  1.00  0.00     0.010 A 
ATOM     39  C   UNL A   1      36.157  33.607  33.280  1.00  0.00    -0.014 A 
BRANCH  39  40
ATOM     40  C   UNL A   1      37.395  32.824  33.590  1.00  0.00     0.031 A 
ATOM     41  C   UNL A   1      38.190  33.090  34.843  1.00  0.00     0.074 A 
ATOM     42  C   UNL A   1      37.887  31.941  32.693  1.00  0.00     0.049 A 
ATOM     43  N   UNL A   1      39.365  32.620  35.187  1.00  0.00    -0.248 NA
ATOM     44  C   UNL A   1      37.634  34.061  35.796  1.00  0.00     0.031 C 
ATOM     45  C   UNL A   1      37.300  31.638  31.385  1.00  0.00     0.029 A 
ATOM     46  N   UNL A   1      39.008  31.141  32.736  1.00  0.00    -0.354 N 
ATOM     47  C   UNL A   1      39.689  33.242  36.386  1.00  0.00     0.074 A 
ATOM     48  C   UNL A   1      38.632  34.195  36.658  1.00  0.00     0.031 C 
ATOM     49  C   UNL A   1      38.029  30.689  30.778  1.00  0.00     0.029 A 
ATOM     50  C   UNL A   1      39.165  30.342  31.625  1.00  0.00     0.049 A 
ATOM     51  H   UNL A   1      39.639  31.140  33.492  1.00  0.00     0.167 HD
ATOM     52  C   UNL A   1      40.740  33.019  37.213  1.00  0.00     0.037 A 
ATOM     53  C   UNL A   1      40.109  29.430  31.317  1.00  0.00     0.037 A 
ATOM     54  C   UNL A   1      41.746  32.007  37.013  1.00  0.00     0.049 A 
ATOM     55  C   UNL A   1      41.241  29.169  32.272  1.00  0.00     0.074 A 
ATOM     56  C   UNL A   1      42.783  31.650  37.860  1.00  0.00     0.029 A 
ATOM     57  N   UNL A   1      41.835  31.181  35.907  1.00  0.00    -0.354 N 
ATOM     58  N   UNL A   1      41.486  29.722  33.434  1.00  0.00    -0.248 NA
ATOM     59  C   UNL A   1      42.227  28.151  31.873  1.00  0.00     0.031 C 
ATOM     60  C   UNL A   1      43.519  30.629  37.249  1.00  0.00     0.029 A 
ATOM     61  C   UNL A   1      42.916  30.323  36.041  1.00  0.00     0.049 A 
ATOM     62  H   UNL A   1      41.220  31.198  35.137  1.00  0.00     0.167 HD
ATOM     63  C   UNL A   1      42.633  29.100  33.915  1.00  0.00     0.074 A 
ATOM     64  C   UNL A   1      43.027  28.118  32.930  1.00  0.00     0.031 C 
ATOM     65  C   UNL A   1      43.297  29.329  35.073  1.00  0.00     0.037 A 
BRANCH  52  66
ATOM     66  C   UNL A   1      40.845  33.873  38.444  1.00  0.00     0.057 A 
ATOM     67  C   UNL A   1      41.586  35.063  38.461  1.00  0.00     0.134 A 
ATOM     68  C   UNL A   1      40.158  33.525  39.614  1.00  0.00     0.134 A 
ATOM     69  F   UNL A   1      42.271  35.451  37.375  1.00  0.00    -0.206 F 
ATOM     70  C   UNL A   1      41.670  35.855  39.607  1.00  0.00     0.040 A 
ATOM     71  C   UNL A   1      40.209  34.324  40.757  1.00  0.00     0.040 A 
ATOM     72  F   UNL A   1      39.418  32.406  39.662  1.00  0.00    -0.206 F 
ATOM     73  C   UNL A   1      40.974  35.488  40.757  1.00  0.00     0.006 A 
ENDBRANCH  52  66
BRANCH  53  74
ATOM     74  C   UNL A   1      40.014  28.648  30.056  1.00  0.00     0.057 A 
ATOM     75  C   UNL A   1      39.277  27.460  30.003  1.00  0.00     0.134 A 
ATOM     76  C   UNL A   1      40.680  29.046  28.891  1.00  0.00     0.134 A 
ATOM     77  F   UNL A   1      38.636  27.015  31.095  1.00  0.00    -0.206 F 
ATOM     78  C   UNL A   1      39.223  26.679  28.847  1.00  0.00     0.040 A 
ATOM     79  C   UNL A   1      40.617  28.288  27.720  1.00  0.00     0.040 A 
ATOM     80  F   UNL A   1      41.398  30.177  28.873  1.00  0.00    -0.206 F 
ATOM     81  C   UNL A   1      39.894  27.095  27.698  1.00  0.00     0.006 A 
ENDBRANCH  53  74
BRANCH  65  82
ATOM     82  C   UNL A   1      44.495  28.472  35.369  1.00  0.00     0.057 A 
ATOM     83  C   UNL A   1      44.386  27.261  36.062  1.00  0.00     0.134 A 
ATOM     84  C   UNL A   1      45.767  28.848  34.920  1.00  0.00     0.134 A 
ATOM     85  F   UNL A   1      43.198  26.849  36.531  1.00  0.00    -0.206 F 
ATOM     86  C   UNL A   1      45.503  26.461  36.314  1.00  0.00     0.040 A 
ATOM     87  C   UNL A   1      46.887  28.046  35.143  1.00  0.00     0.040 A 
ATOM     88  F   UNL A   1      45.941  29.993  34.244  1.00  0.00    -0.206 F 
ATOM     89  C   UNL A   1      46.758  26.850  35.847  1.00  0.00     0.006 A 
ENDBRANCH  65  82
ENDBRANCH  39  40
ENDBRANCH  31  34
ENDBRANCH  29  30
ENDBRANCH  28  29
ENDBRANCH  27  28
ENDBRANCH   1  27
TORSDOF 17
ENDMDL
MODEL 2
REMARK VINA RESULT:     -11.5      0.447      6.005
REMARK SMILES O=C(CCCN1C(=O)/C(=C\c2ccc(O)c(O)c2)SC1=S)NCCCCNC(=O)c1ccc(-c2c3nc(c(-c4c(F)cccc4F)c4ccc([nH]4)c(-c4c(F)cccc4F)c4nc(c(-c5c(F)cccc5F)c5ccc2[nH]5)C=C4)C=C3)cc1
REMARK SMILES IDX 23 1 22 2 1 3 2 4 3 6 4 7 5 8 6 9 7 10 20 11 8 12 9 13 19 14
REMARK SMILES IDX 21 15 10 16 11 17 12 18 18 19 13 20 16 21 14 22 17 23 15 25
REMARK SMILES IDX 24 27 25 28 26 29 27 30 28 31 29 33 30 34 31 35 83 36 32 37
REMARK SMILES IDX 82 38 33 39 34 40 35 41 76 42 36 43 81 44 75 45 77 46 37 47
REMARK SMILES IDX 80 48 74 49 73 50 38 52 64 53 47 54 63 55 48 56 51 57 62 58
REMARK SMILES IDX 78 59 49 60 50 61 61 63 79 64 52 65 39 66 40 67 45 68 41 69
REMARK SMILES IDX 42 70 44 71 46 72 43 73 65 74 66 75 71 76 67 77 68 78 70 79
REMARK SMILES IDX 72 80 69 81 53 82 54 83 59 84 55 85 56 86 58 87 60 88 57 89
REMARK H PARENT 22 5 17 24 15 26 27 32 77 51 51 62
REMARK Flexibility Score: inf
ROOT
ATOM      1  C   UNL A   1      35.243  32.522  28.050  1.00  0.00     0.116 C 
ENDROOT
BRANCH   1   2
ATOM      2  N   UNL A   1      34.386  31.397  27.733  1.00  0.00    -0.356 N 
ATOM      3  O   UNL A   1      36.079  29.848  27.651  1.00  0.00    -0.275 OA
ATOM      4  C   UNL A   1      34.897  30.142  27.507  1.00  0.00     0.220 C 
ATOM      5  H   UNL A   1      33.413  31.536  27.678  1.00  0.00     0.163 HD
BRANCH   4   6
ATOM      6  C   UNL A   1      33.870  29.140  27.037  1.00  0.00     0.102 C 
BRANCH   6   7
ATOM      7  C   UNL A   1      33.313  29.460  25.655  1.00  0.00     0.032 C 
BRANCH   7   8
ATOM      8  C   UNL A   1      33.222  28.292  24.667  1.00  0.00     0.128 C 
BRANCH   8   9
ATOM      9  N   UNL A   1      31.912  27.700  24.342  1.00  0.00    -0.293 N 
ATOM     10  C   UNL A   1      31.130  28.389  23.416  1.00  0.00     0.266 C 
ATOM     11  C   UNL A   1      31.274  26.653  24.979  1.00  0.00     0.148 C 
ATOM     12  O   UNL A   1      31.532  29.294  22.694  1.00  0.00    -0.268 OA
ATOM     13  C   UNL A   1      29.744  27.838  23.379  1.00  0.00     0.081 C 
ATOM     14  S   UNL A   1      29.752  26.301  24.159  1.00  0.00    -0.054 SA
ATOM     15  S   UNL A   1      31.731  25.782  26.323  1.00  0.00    -0.052 S 
ATOM     16  C   UNL A   1      28.599  28.419  22.986  1.00  0.00     0.029 C 
BRANCH  16  17
ATOM     17  C   UNL A   1      28.420  29.824  22.608  1.00  0.00    -0.020 A 
ATOM     18  C   UNL A   1      28.573  30.874  23.514  1.00  0.00     0.012 A 
ATOM     19  C   UNL A   1      28.084  30.114  21.275  1.00  0.00     0.058 A 
ATOM     20  C   UNL A   1      28.338  32.191  23.110  1.00  0.00     0.051 A 
ATOM     21  C   UNL A   1      27.852  31.427  20.890  1.00  0.00     0.157 A 
ATOM     22  C   UNL A   1      27.970  32.464  21.803  1.00  0.00     0.157 A 
BRANCH  21  23
ATOM     23  O   UNL A   1      27.502  31.700  19.599  1.00  0.00    -0.504 OA
ATOM     24  H   UNL A   1      27.938  31.264  18.893  1.00  0.00     0.293 HD
ENDBRANCH  21  23
BRANCH  22  25
ATOM     25  O   UNL A   1      27.703  33.730  21.366  1.00  0.00    -0.504 OA
ATOM     26  H   UNL A   1      27.760  33.932  20.453  1.00  0.00     0.293 HD
ENDBRANCH  22  25
ENDBRANCH  16  17
ENDBRANCH   8   9
ENDBRANCH   7   8
ENDBRANCH   6   7
ENDBRANCH   4   6
ENDBRANCH   1   2
BRANCH   1  27
ATOM     27  C   UNL A   1      34.711  33.308  29.246  1.00  0.00     0.023 C 
BRANCH  27  28
ATOM     28  C   UNL A   1      33.474  34.168  28.956  1.00  0.00     0.023 C 
BRANCH  28  29
ATOM     29  C   UNL A   1      33.539  35.600  29.485  1.00  0.00     0.116 C 
BRANCH  29  30
ATOM     30  N   UNL A   1      32.560  35.839  30.537  1.00  0.00    -0.352 N 
ATOM     31  C   UNL A   1      32.581  35.464  31.858  1.00  0.00     0.251 C 
ATOM     32  H   UNL A   1      31.764  36.347  30.258  1.00  0.00     0.163 HD
ATOM     33  O   UNL A   1      31.577  35.590  32.551  1.00  0.00    -0.269 OA
BRANCH  31  34
ATOM     34  C   UNL A   1      33.810  34.896  32.448  1.00  0.00     0.039 A 
ATOM     35  C   UNL A   1      33.776  33.614  33.001  1.00  0.00     0.014 A 
ATOM     36  C   UNL A   1      34.990  35.636  32.480  1.00  0.00     0.014 A 
ATOM     37  C   UNL A   1      34.951  33.036  33.496  1.00  0.00     0.010 A 
ATOM     38  C   UNL A   1      36.164  35.043  32.942  1.00  0.00     0.010 A 
ATOM     39  C   UNL A   1      36.177  33.716  33.412  1.00  0.00    -0.014 A 
BRANCH  39  40
ATOM     40  C   UNL A   1      37.470  33.042  33.753  1.00  0.00     0.031 A 
ATOM     41  C   UNL A   1      38.080  32.017  32.830  1.00  0.00     0.074 A 
ATOM     42  C   UNL A   1      38.057  33.256  34.952  1.00  0.00     0.049 A 
ATOM     43  N   UNL A   1      39.102  31.224  33.043  1.00  0.00    -0.248 NA
ATOM     44  C   UNL A   1      37.415  31.799  31.538  1.00  0.00     0.031 C 
ATOM     45  C   UNL A   1      37.546  34.137  36.005  1.00  0.00     0.029 A 
ATOM     46  N   UNL A   1      39.210  32.735  35.498  1.00  0.00    -0.354 N 
ATOM     47  C   UNL A   1      39.197  30.414  31.918  1.00  0.00     0.074 A 
ATOM     48  C   UNL A   1      38.069  30.745  31.072  1.00  0.00     0.031 C 
ATOM     49  C   UNL A   1      38.401  34.136  37.040  1.00  0.00     0.029 A 
ATOM     50  C   UNL A   1      39.501  33.222  36.753  1.00  0.00     0.049 A 
ATOM     51  H   UNL A   1      39.774  32.076  35.033  1.00  0.00     0.167 HD
ATOM     52  C   UNL A   1      40.152  29.508  31.589  1.00  0.00     0.037 A 
ATOM     53  C   UNL A   1      40.534  32.970  37.582  1.00  0.00     0.037 A 
ATOM     54  C   UNL A   1      41.334  29.239  32.367  1.00  0.00     0.049 A 
ATOM     55  C   UNL A   1      41.603  31.995  37.175  1.00  0.00     0.074 A 
ATOM     56  C   UNL A   1      42.400  28.412  32.048  1.00  0.00     0.029 A 
ATOM     57  N   UNL A   1      41.620  29.796  33.601  1.00  0.00    -0.354 N 
ATOM     58  N   UNL A   1      41.706  31.293  36.074  1.00  0.00    -0.248 NA
ATOM     59  C   UNL A   1      42.705  31.780  38.128  1.00  0.00     0.031 C 
ATOM     60  C   UNL A   1      43.315  28.444  33.106  1.00  0.00     0.029 A 
ATOM     61  C   UNL A   1      42.838  29.322  34.064  1.00  0.00     0.049 A 
ATOM     62  H   UNL A   1      41.044  30.436  34.079  1.00  0.00     0.167 HD
ATOM     63  C   UNL A   1      42.894  30.580  36.189  1.00  0.00     0.074 A 
ATOM     64  C   UNL A   1      43.485  30.943  37.458  1.00  0.00     0.031 C 
ATOM     65  C   UNL A   1      43.440  29.700  35.316  1.00  0.00     0.037 A 
BRANCH  52  66
ATOM     66  C   UNL A   1      39.975  28.753  30.303  1.00  0.00     0.057 A 
ATOM     67  C   UNL A   1      40.540  29.195  29.100  1.00  0.00     0.134 A 
ATOM     68  C   UNL A   1      39.269  27.543  30.278  1.00  0.00     0.134 A 
ATOM     69  F   UNL A   1      41.224  30.349  29.054  1.00  0.00    -0.206 F 
ATOM     70  C   UNL A   1      40.378  28.481  27.911  1.00  0.00     0.040 A 
ATOM     71  C   UNL A   1      39.126  26.805  29.103  1.00  0.00     0.040 A 
ATOM     72  F   UNL A   1      38.715  27.055  31.400  1.00  0.00    -0.206 F 
ATOM     73  C   UNL A   1      39.675  27.279  27.913  1.00  0.00     0.006 A 
ENDBRANCH  52  66
BRANCH  53  74
ATOM     74  C   UNL A   1      40.644  33.685  38.882  1.00  0.00     0.057 A 
ATOM     75  C   UNL A   1      39.903  33.265  39.994  1.00  0.00     0.134 A 
ATOM     76  C   UNL A   1      41.455  34.814  39.036  1.00  0.00     0.134 A 
ATOM     77  F   UNL A   1      39.090  32.203  39.900  1.00  0.00    -0.206 F 
ATOM     78  C   UNL A   1      39.945  33.957  41.206  1.00  0.00     0.040 A 
ATOM     79  C   UNL A   1      41.525  35.501  40.249  1.00  0.00     0.040 A 
ATOM     80  F   UNL A   1      42.194  35.263  38.012  1.00  0.00    -0.206 F 
ATOM     81  C   UNL A   1      40.762  35.078  41.337  1.00  0.00     0.006 A 
ENDBRANCH  53  74
BRANCH  65  82
ATOM     82  C   UNL A   1      44.770  29.100  35.673  1.00  0.00     0.057 A 
ATOM     83  C   UNL A   1      44.874  27.895  36.379  1.00  0.00     0.134 A 
ATOM     84  C   UNL A   1      45.961  29.717  35.269  1.00  0.00     0.134 A 
ATOM     85  F   UNL A   1      43.772  27.260  36.806  1.00  0.00    -0.206 F 
ATOM     86  C   UNL A   1      46.115  27.335  36.688  1.00  0.00     0.040 A 
ATOM     87  C   UNL A   1      47.207  29.155  35.550  1.00  0.00     0.040 A 
ATOM     88  F   UNL A   1      45.933  30.870  34.584  1.00  0.00    -0.206 F 
ATOM     89  C   UNL A   1      47.287  27.962  36.266  1.00  0.00     0.006 A 
ENDBRANCH  65  82
ENDBRANCH  39  40
ENDBRANCH  31  34
ENDBRANCH  29  30
ENDBRANCH  28  29
ENDBRANCH  27  28
ENDBRANCH   1  27
TORSDOF 17
ENDMDL
MODEL 3
REMARK VINA RESULT:     -11.4      7.658     12.736
REMARK SMILES O=C(CCCN1C(=O)/C(=C\c2ccc(O)c(O)c2)SC1=S)NCCCCNC(=O)c1ccc(-c2c3nc(c(-c4c(F)cccc4F)c4ccc([nH]4)c(-c4c(F)cccc4F)c4nc(c(-c5c(F)cccc5F)c5ccc2[nH]5)C=C4)C=C3)cc1
REMARK SMILES IDX 23 1 22 2 1 3 2 4 3 6 4 7 5 8 6 9 7 10 20 11 8 12 9 13 19 14
REMARK SMILES IDX 21 15 10 16 11 17 12 18 18 19 13 20 16 21 14 22 17 23 15 25
REMARK SMILES IDX 24 27 25 28 26 29 27 30 28 31 29 33 30 34 31 35 83 36 32 37
REMARK SMILES IDX 82 38 33 39 34 40 35 41 76 42 36 43 81 44 75 45 77 46 37 47
REMARK SMILES IDX 80 48 74 49 73 50 38 52 64 53 47 54 63 55 48 56 51 57 62 58
REMARK SMILES IDX 78 59 49 60 50 61 61 63 79 64 52 65 39 66 40 67 45 68 41 69
REMARK SMILES IDX 42 70 44 71 46 72 43 73 65 74 66 75 71 76 67 77 68 78 70 79
REMARK SMILES IDX 72 80 69 81 53 82 54 83 59 84 55 85 56 86 58 87 60 88 57 89
REMARK H PARENT 22 5 17 24 15 26 27 32 77 51 51 62
REMARK Flexibility Score: inf
ROOT
ATOM      1  C   UNL A   1      40.151  21.930  27.128  1.00  0.00     0.116 C 
ENDROOT
BRANCH   1   2
ATOM      2  N   UNL A   1      38.910  22.206  26.432  1.00  0.00    -0.356 N 
ATOM      3  O   UNL A   1      39.106  24.491  26.533  1.00  0.00    -0.275 OA
ATOM      4  C   UNL A   1      38.463  23.490  26.236  1.00  0.00     0.220 C 
ATOM      5  H   UNL A   1      38.374  21.453  26.091  1.00  0.00     0.163 HD
BRANCH   4   6
ATOM      6  C   UNL A   1      37.080  23.570  25.635  1.00  0.00     0.102 C 
BRANCH   6   7
ATOM      7  C   UNL A   1      36.048  22.751  26.401  1.00  0.00     0.032 C 
BRANCH   7   8
ATOM      8  C   UNL A   1      34.603  23.259  26.357  1.00  0.00     0.128 C 
BRANCH   8   9
ATOM      9  N   UNL A   1      33.679  22.768  25.319  1.00  0.00    -0.293 N 
ATOM     10  C   UNL A   1      33.300  21.428  25.405  1.00  0.00     0.266 C 
ATOM     11  C   UNL A   1      33.290  23.410  24.159  1.00  0.00     0.148 C 
ATOM     12  O   UNL A   1      33.480  20.711  26.382  1.00  0.00    -0.268 OA
ATOM     13  C   UNL A   1      32.590  20.998  24.166  1.00  0.00     0.081 C 
ATOM     14  S   UNL A   1      32.126  22.408  23.291  1.00  0.00    -0.054 SA
ATOM     15  S   UNL A   1      33.772  24.878  23.537  1.00  0.00    -0.052 S 
ATOM     16  C   UNL A   1      32.436  19.769  23.648  1.00  0.00     0.029 C 
BRANCH  16  17
ATOM     17  C   UNL A   1      33.060  18.534  24.133  1.00  0.00    -0.020 A 
ATOM     18  C   UNL A   1      34.444  18.355  24.176  1.00  0.00     0.012 A 
ATOM     19  C   UNL A   1      32.223  17.497  24.574  1.00  0.00     0.058 A 
ATOM     20  C   UNL A   1      34.982  17.137  24.598  1.00  0.00     0.051 A 
ATOM     21  C   UNL A   1      32.773  16.292  24.989  1.00  0.00     0.157 A 
ATOM     22  C   UNL A   1      34.147  16.106  24.995  1.00  0.00     0.157 A 
BRANCH  21  23
ATOM     23  O   UNL A   1      31.952  15.279  25.394  1.00  0.00    -0.504 OA
ATOM     24  H   UNL A   1      31.050  15.277  25.141  1.00  0.00     0.293 HD
ENDBRANCH  21  23
BRANCH  22  25
ATOM     25  O   UNL A   1      34.622  14.888  25.391  1.00  0.00    -0.504 OA
ATOM     26  H   UNL A   1      35.532  14.782  25.588  1.00  0.00     0.293 HD
ENDBRANCH  22  25
ENDBRANCH  16  17
ENDBRANCH   8   9
ENDBRANCH   7   8
ENDBRANCH   6   7
ENDBRANCH   4   6
ENDBRANCH   1   2
BRANCH   1  27
ATOM     27  C   UNL A   1      41.253  21.511  26.157  1.00  0.00     0.023 C 
BRANCH  27  28
ATOM     28  C   UNL A   1      41.362  20.001  25.914  1.00  0.00     0.023 C 
BRANCH  28  29
ATOM     29  C   UNL A   1      42.663  19.358  26.392  1.00  0.00     0.116 C 
BRANCH  29  30
ATOM     30  N   UNL A   1      43.476  18.877  25.283  1.00  0.00    -0.352 N 
ATOM     31  C   UNL A   1      44.346  19.562  24.470  1.00  0.00     0.251 C 
ATOM     32  H   UNL A   1      43.388  17.917  25.086  1.00  0.00     0.163 HD
ATOM     33  O   UNL A   1      44.800  19.029  23.463  1.00  0.00    -0.269 OA
BRANCH  31  34
ATOM     34  C   UNL A   1      44.730  20.950  24.799  1.00  0.00     0.039 A 
ATOM     35  C   UNL A   1      44.395  21.982  23.919  1.00  0.00     0.014 A 
ATOM     36  C   UNL A   1      45.445  21.232  25.961  1.00  0.00     0.014 A 
ATOM     37  C   UNL A   1      44.688  23.309  24.255  1.00  0.00     0.010 A 
ATOM     38  C   UNL A   1      45.703  22.558  26.306  1.00  0.00     0.010 A 
ATOM     39  C   UNL A   1      45.287  23.623  25.485  1.00  0.00    -0.014 A 
BRANCH  39  40
ATOM     40  C   UNL A   1      45.429  25.040  25.947  1.00  0.00     0.031 A 
ATOM     41  C   UNL A   1      46.762  25.742  25.904  1.00  0.00     0.074 A 
ATOM     42  C   UNL A   1      44.385  25.680  26.519  1.00  0.00     0.049 A 
ATOM     43  N   UNL A   1      47.096  26.905  26.411  1.00  0.00    -0.248 NA
ATOM     44  C   UNL A   1      47.881  25.019  25.285  1.00  0.00     0.031 C 
ATOM     45  C   UNL A   1      43.051  25.112  26.734  1.00  0.00     0.029 A 
ATOM     46  N   UNL A   1      44.282  26.950  27.043  1.00  0.00    -0.354 N 
ATOM     47  C   UNL A   1      48.458  27.047  26.176  1.00  0.00     0.074 A 
ATOM     48  C   UNL A   1      48.906  25.809  25.572  1.00  0.00     0.031 C 
ATOM     49  C   UNL A   1      42.256  26.039  27.291  1.00  0.00     0.029 A 
ATOM     50  C   UNL A   1      43.026  27.256  27.520  1.00  0.00     0.049 A 
ATOM     51  H   UNL A   1      45.036  27.582  27.073  1.00  0.00     0.167 HD
ATOM     52  C   UNL A   1      49.262  28.117  26.398  1.00  0.00     0.037 A 
ATOM     53  C   UNL A   1      42.542  28.385  28.076  1.00  0.00     0.037 A 
ATOM     54  C   UNL A   1      48.817  29.391  26.902  1.00  0.00     0.049 A 
ATOM     55  C   UNL A   1      43.442  29.573  28.271  1.00  0.00     0.074 A 
ATOM     56  C   UNL A   1      49.550  30.556  27.055  1.00  0.00     0.029 A 
ATOM     57  N   UNL A   1      47.528  29.677  27.317  1.00  0.00    -0.354 N 
ATOM     58  N   UNL A   1      44.712  29.705  27.975  1.00  0.00    -0.248 NA
ATOM     59  C   UNL A   1      42.839  30.773  28.874  1.00  0.00     0.031 C 
ATOM     60  C   UNL A   1      48.712  31.538  27.594  1.00  0.00     0.029 A 
ATOM     61  C   UNL A   1      47.447  30.996  27.739  1.00  0.00     0.049 A 
ATOM     62  H   UNL A   1      46.778  29.039  27.313  1.00  0.00     0.167 HD
ATOM     63  C   UNL A   1      45.049  31.007  28.328  1.00  0.00     0.074 A 
ATOM     64  C   UNL A   1      43.850  31.630  28.844  1.00  0.00     0.031 C 
ATOM     65  C   UNL A   1      46.250  31.625  28.231  1.00  0.00     0.037 A 
BRANCH  52  66
ATOM     66  C   UNL A   1      50.718  27.969  26.064  1.00  0.00     0.057 A 
ATOM     67  C   UNL A   1      51.197  28.108  24.755  1.00  0.00     0.134 A 
ATOM     68  C   UNL A   1      51.660  27.730  27.074  1.00  0.00     0.134 A 
ATOM     69  F   UNL A   1      50.347  28.332  23.741  1.00  0.00    -0.206 F 
ATOM     70  C   UNL A   1      52.554  27.977  24.456  1.00  0.00     0.040 A 
ATOM     71  C   UNL A   1      53.023  27.628  26.792  1.00  0.00     0.040 A 
ATOM     72  F   UNL A   1      51.271  27.602  28.352  1.00  0.00    -0.206 F 
ATOM     73  C   UNL A   1      53.472  27.744  25.478  1.00  0.00     0.006 A 
ENDBRANCH  52  66
BRANCH  53  74
ATOM     74  C   UNL A   1      41.108  28.476  28.461  1.00  0.00     0.057 A 
ATOM     75  C   UNL A   1      40.687  28.110  29.745  1.00  0.00     0.134 A 
ATOM     76  C   UNL A   1      40.127  28.892  27.554  1.00  0.00     0.134 A 
ATOM     77  F   UNL A   1      41.578  27.681  30.650  1.00  0.00    -0.206 F 
ATOM     78  C   UNL A   1      39.339  28.131  30.108  1.00  0.00     0.040 A 
ATOM     79  C   UNL A   1      38.778  28.940  27.911  1.00  0.00     0.040 A 
ATOM     80  F   UNL A   1      40.465  29.261  26.311  1.00  0.00    -0.206 F 
ATOM     81  C   UNL A   1      38.379  28.550  29.189  1.00  0.00     0.006 A 
ENDBRANCH  53  74
BRANCH  65  82
ATOM     82  C   UNL A   1      46.326  33.067  28.645  1.00  0.00     0.057 A 
ATOM     83  C   UNL A   1      46.083  34.111  27.745  1.00  0.00     0.134 A 
ATOM     84  C   UNL A   1      46.608  33.412  29.974  1.00  0.00     0.134 A 
ATOM     85  F   UNL A   1      45.820  33.849  26.455  1.00  0.00    -0.206 F 
ATOM     86  C   UNL A   1      46.134  35.448  28.145  1.00  0.00     0.040 A 
ATOM     87  C   UNL A   1      46.639  34.743  30.392  1.00  0.00     0.040 A 
ATOM     88  F   UNL A   1      46.845  32.461  30.889  1.00  0.00    -0.206 F 
ATOM     89  C   UNL A   1      46.407  35.766  29.476  1.00  0.00     0.006 A 
ENDBRANCH  65  82
ENDBRANCH  39  40
ENDBRANCH  31  34
ENDBRANCH  29  30
ENDBRANCH  28  29
ENDBRANCH  27  28
ENDBRANCH   1  27
TORSDOF 17
ENDMDL
