MODEL 1
REMARK VINA RESULT:     -11.6      0.000      0.000
REMARK SMILES C[C@@]([NH2+]CC(=O)NC1CCOCC1)(C(=O)NCCCCNC(=O)c1ccc(-c2c3nc(c(-c4c(F)cccc4F)c4ccc([nH]4)c(-c4c(F)cccc4F)c4nc(c(-c5c(F)cccc5F)c5ccc2[nH]5)C=C4)C=C3)cc1)C(F)(F)F
REMARK SMILES IDX 17 1 16 2 14 3 15 4 2 6 1 7 3 8 4 11 5 12 6 13 7 14 8 16
REMARK SMILES IDX 9 17 13 18 10 19 12 20 11 21 78 22 79 23 80 24 81 25 18 26
REMARK SMILES IDX 19 27 20 28 21 29 22 30 23 32 24 33 25 34 77 35 26 36 76 37
REMARK SMILES IDX 27 38 28 39 29 40 70 41 30 42 75 43 69 44 71 45 31 46 74 47
REMARK SMILES IDX 68 48 67 49 32 51 58 52 41 53 57 54 42 55 45 56 56 57 72 58
REMARK SMILES IDX 43 59 44 60 55 62 73 63 46 64 33 65 34 66 39 67 35 68 36 69
REMARK SMILES IDX 38 70 40 71 37 72 59 73 60 74 65 75 61 76 62 77 64 78 66 79
REMARK SMILES IDX 63 80 47 81 48 82 53 83 49 84 50 85 52 86 54 87 51 88
REMARK H PARENT 16 5 3 9 3 10 7 15 21 31 71 50 45 61
REMARK Flexibility Score: inf
ROOT
ATOM      1  C   UNL A   1      36.758  22.009  25.403  1.00  0.00     0.116 C 
ENDROOT
BRANCH   1   2
ATOM      2  N   UNL A   1      36.241  22.967  24.444  1.00  0.00    -0.350 N 
ATOM      3  C   UNL A   1      34.943  23.062  24.017  1.00  0.00     0.290 C 
ATOM      4  O   UNL A   1      34.784  23.116  22.796  1.00  0.00    -0.267 OA
ATOM      5  H   UNL A   1      36.884  23.609  24.065  1.00  0.00     0.163 HD
BRANCH   3   6
ATOM      6  C   UNL A   1      33.755  23.064  24.998  1.00  0.00     0.268 C 
ATOM      7  C   UNL A   1      32.527  23.641  24.260  1.00  0.00     0.101 C 
BRANCH   6   8
ATOM      8  N   UNL A   1      33.358  21.683  25.483  1.00  0.00    -0.318 N 
ATOM      9  H   UNL A   1      33.183  21.750  26.486  1.00  0.00     0.347 HD
ATOM     10  H   UNL A   1      34.136  21.081  25.212  1.00  0.00     0.347 HD
BRANCH   8  11
ATOM     11  C   UNL A   1      32.165  21.051  24.867  1.00  0.00     0.362 C 
BRANCH  11  12
ATOM     12  C   UNL A   1      32.441  20.213  23.625  1.00  0.00     0.275 C 
ATOM     13  O   UNL A   1      32.133  20.668  22.516  1.00  0.00    -0.268 OA
ATOM     14  N   UNL A   1      33.047  18.993  23.644  1.00  0.00    -0.348 N 
ATOM     15  H   UNL A   1      33.349  18.729  22.745  1.00  0.00     0.163 HD
BRANCH  14  16
ATOM     16  C   UNL A   1      33.373  17.956  24.649  1.00  0.00     0.086 C 
ATOM     17  C   UNL A   1      34.731  17.308  24.369  1.00  0.00     0.053 C 
ATOM     18  C   UNL A   1      32.261  16.971  24.999  1.00  0.00     0.053 C 
ATOM     19  C   UNL A   1      34.997  16.015  25.128  1.00  0.00     0.162 C 
ATOM     20  C   UNL A   1      32.777  15.852  25.884  1.00  0.00     0.162 C 
ATOM     21  O   UNL A   1      33.837  15.187  25.200  1.00  0.00    -0.381 OA
ENDBRANCH  14  16
ENDBRANCH  11  12
ENDBRANCH   8  11
ENDBRANCH   6   8
BRANCH   6  22
ATOM     22  C   UNL A   1      34.068  24.095  26.128  1.00  0.00     0.453 C 
ATOM     23  F   UNL A   1      34.625  23.550  27.226  1.00  0.00    -0.164 F 
ATOM     24  F   UNL A   1      34.874  25.100  25.717  1.00  0.00    -0.164 F 
ATOM     25  F   UNL A   1      32.907  24.680  26.535  1.00  0.00    -0.164 F 
ENDBRANCH   6  22
ENDBRANCH   3   6
ENDBRANCH   1   2
BRANCH   1  26
ATOM     26  C   UNL A   1      36.524  20.604  24.842  1.00  0.00     0.023 C 
BRANCH  26  27
ATOM     27  C   UNL A   1      37.813  19.782  24.728  1.00  0.00     0.023 C 
BRANCH  27  28
ATOM     28  C   UNL A   1      38.912  20.181  25.712  1.00  0.00     0.116 C 
BRANCH  28  29
ATOM     29  N   UNL A   1      39.959  19.176  25.815  1.00  0.00    -0.352 N 
ATOM     30  C   UNL A   1      41.294  19.319  26.086  1.00  0.00     0.251 C 
ATOM     31  H   UNL A   1      39.662  18.249  25.667  1.00  0.00     0.163 HD
ATOM     32  O   UNL A   1      42.047  18.359  25.968  1.00  0.00    -0.269 OA
BRANCH  30  33
ATOM     33  C   UNL A   1      41.832  20.628  26.507  1.00  0.00     0.039 A 
ATOM     34  C   UNL A   1      42.221  21.537  25.520  1.00  0.00     0.014 A 
ATOM     35  C   UNL A   1      41.982  20.947  27.859  1.00  0.00     0.014 A 
ATOM     36  C   UNL A   1      42.711  22.790  25.890  1.00  0.00     0.010 A 
ATOM     37  C   UNL A   1      42.411  22.218  28.225  1.00  0.00     0.010 A 
ATOM     38  C   UNL A   1      42.782  23.150  27.245  1.00  0.00    -0.014 A 
BRANCH  38  39
ATOM     39  C   UNL A   1      43.239  24.500  27.653  1.00  0.00     0.031 A 
ATOM     40  C   UNL A   1      42.239  25.551  28.043  1.00  0.00     0.074 A 
ATOM     41  C   UNL A   1      44.552  24.793  27.611  1.00  0.00     0.049 A 
ATOM     42  N   UNL A   1      42.441  26.805  28.357  1.00  0.00    -0.248 NA
ATOM     43  C   UNL A   1      40.825  25.147  28.056  1.00  0.00     0.031 C 
ATOM     44  C   UNL A   1      45.614  23.869  27.206  1.00  0.00     0.029 A 
ATOM     45  N   UNL A   1      45.217  25.958  27.900  1.00  0.00    -0.354 N 
ATOM     46  C   UNL A   1      41.182  27.341  28.594  1.00  0.00     0.074 A 
ATOM     47  C   UNL A   1      40.220  26.291  28.340  1.00  0.00     0.031 C 
ATOM     48  C   UNL A   1      46.797  24.498  27.288  1.00  0.00     0.029 A 
ATOM     49  C   UNL A   1      46.575  25.876  27.717  1.00  0.00     0.049 A 
ATOM     50  H   UNL A   1      44.763  26.775  28.210  1.00  0.00     0.167 HD
ATOM     51  C   UNL A   1      40.859  28.590  29.007  1.00  0.00     0.037 A 
ATOM     52  C   UNL A   1      47.533  26.809  27.868  1.00  0.00     0.037 A 
ATOM     53  C   UNL A   1      41.821  29.626  29.280  1.00  0.00     0.049 A 
ATOM     54  C   UNL A   1      47.149  28.187  28.328  1.00  0.00     0.074 A 
ATOM     55  C   UNL A   1      41.597  30.908  29.751  1.00  0.00     0.029 A 
ATOM     56  N   UNL A   1      43.190  29.498  29.106  1.00  0.00    -0.354 N 
ATOM     57  N   UNL A   1      45.959  28.664  28.604  1.00  0.00    -0.248 NA
ATOM     58  C   UNL A   1      48.241  29.155  28.502  1.00  0.00     0.031 C 
ATOM     59  C   UNL A   1      42.829  31.567  29.827  1.00  0.00     0.029 A 
ATOM     60  C   UNL A   1      43.823  30.681  29.444  1.00  0.00     0.049 A 
ATOM     61  H   UNL A   1      43.646  28.684  28.788  1.00  0.00     0.167 HD
ATOM     62  C   UNL A   1      46.161  29.976  29.008  1.00  0.00     0.074 A 
ATOM     63  C   UNL A   1      47.588  30.216  28.955  1.00  0.00     0.031 C 
ATOM     64  C   UNL A   1      45.246  30.901  29.390  1.00  0.00     0.037 A 
BRANCH  51  65
ATOM     65  C   UNL A   1      39.403  28.900  29.195  1.00  0.00     0.057 A 
ATOM     66  C   UNL A   1      38.613  29.387  28.145  1.00  0.00     0.134 A 
ATOM     67  C   UNL A   1      38.777  28.681  30.427  1.00  0.00     0.134 A 
ATOM     68  F   UNL A   1      39.154  29.629  26.942  1.00  0.00    -0.206 F 
ATOM     69  C   UNL A   1      37.257  29.668  28.322  1.00  0.00     0.040 A 
ATOM     70  C   UNL A   1      37.416  28.935  30.610  1.00  0.00     0.040 A 
ATOM     71  F   UNL A   1      39.474  28.212  31.473  1.00  0.00    -0.206 F 
ATOM     72  C   UNL A   1      36.653  29.437  29.556  1.00  0.00     0.006 A 
ENDBRANCH  51  65
BRANCH  52  73
ATOM     73  C   UNL A   1      48.950  26.464  27.601  1.00  0.00     0.057 A 
ATOM     74  C   UNL A   1      49.507  26.637  26.329  1.00  0.00     0.134 A 
ATOM     75  C   UNL A   1      49.781  25.955  28.606  1.00  0.00     0.134 A 
ATOM     76  F   UNL A   1      48.755  27.104  25.322  1.00  0.00    -0.206 F 
ATOM     77  C   UNL A   1      50.833  26.299  26.059  1.00  0.00     0.040 A 
ATOM     78  C   UNL A   1      51.116  25.635  28.357  1.00  0.00     0.040 A 
ATOM     79  F   UNL A   1      49.309  25.776  29.849  1.00  0.00    -0.206 F 
ATOM     80  C   UNL A   1      51.644  25.801  27.077  1.00  0.00     0.006 A 
ENDBRANCH  52  73
BRANCH  64  81
ATOM     81  C   UNL A   1      45.765  32.245  29.808  1.00  0.00     0.057 A 
ATOM     82  C   UNL A   1      45.883  33.305  28.901  1.00  0.00     0.134 A 
ATOM     83  C   UNL A   1      46.113  32.489  31.142  1.00  0.00     0.134 A 
ATOM     84  F   UNL A   1      45.578  33.130  27.607  1.00  0.00    -0.206 F 
ATOM     85  C   UNL A   1      46.352  34.556  29.304  1.00  0.00     0.040 A 
ATOM     86  C   UNL A   1      46.560  33.743  31.561  1.00  0.00     0.040 A 
ATOM     87  F   UNL A   1      46.014  31.517  32.062  1.00  0.00    -0.206 F 
ATOM     88  C   UNL A   1      46.685  34.780  30.639  1.00  0.00     0.006 A 
ENDBRANCH  64  81
ENDBRANCH  38  39
ENDBRANCH  30  33
ENDBRANCH  28  29
ENDBRANCH  27  28
ENDBRANCH  26  27
ENDBRANCH   1  26
TORSDOF 16
ENDMDL
MODEL 2
REMARK VINA RESULT:     -11.6      6.069     10.829
REMARK SMILES C[C@@]([NH2+]CC(=O)NC1CCOCC1)(C(=O)NCCCCNC(=O)c1ccc(-c2c3nc(c(-c4c(F)cccc4F)c4ccc([nH]4)c(-c4c(F)cccc4F)c4nc(c(-c5c(F)cccc5F)c5ccc2[nH]5)C=C4)C=C3)cc1)C(F)(F)F
REMARK SMILES IDX 17 1 16 2 14 3 15 4 2 6 1 7 3 8 4 11 5 12 6 13 7 14 8 16
REMARK SMILES IDX 9 17 13 18 10 19 12 20 11 21 78 22 79 23 80 24 81 25 18 26
REMARK SMILES IDX 19 27 20 28 21 29 22 30 23 32 24 33 25 34 77 35 26 36 76 37
REMARK SMILES IDX 27 38 28 39 29 40 70 41 30 42 75 43 69 44 71 45 31 46 74 47
REMARK SMILES IDX 68 48 67 49 32 51 58 52 41 53 57 54 42 55 45 56 56 57 72 58
REMARK SMILES IDX 43 59 44 60 55 62 73 63 46 64 33 65 34 66 39 67 35 68 36 69
REMARK SMILES IDX 38 70 40 71 37 72 59 73 60 74 65 75 61 76 62 77 64 78 66 79
REMARK SMILES IDX 63 80 47 81 48 82 53 83 49 84 50 85 52 86 54 87 51 88
REMARK H PARENT 16 5 3 9 3 10 7 15 21 31 71 50 45 61
REMARK Flexibility Score: inf
ROOT
ATOM      1  C   UNL A   1      32.896  29.948  25.769  1.00  0.00     0.116 C 
ENDROOT
BRANCH   1   2
ATOM      2  N   UNL A   1      33.193  29.712  24.370  1.00  0.00    -0.350 N 
ATOM      3  C   UNL A   1      33.522  28.508  23.806  1.00  0.00     0.290 C 
ATOM      4  O   UNL A   1      34.524  28.510  23.086  1.00  0.00    -0.267 OA
ATOM      5  H   UNL A   1      33.155  30.491  23.769  1.00  0.00     0.163 HD
BRANCH   3   6
ATOM      6  C   UNL A   1      32.716  27.225  24.082  1.00  0.00     0.268 C 
ATOM      7  C   UNL A   1      33.199  26.636  25.425  1.00  0.00     0.101 C 
BRANCH   6   8
ATOM      8  N   UNL A   1      31.223  27.458  24.224  1.00  0.00    -0.318 N 
ATOM      9  H   UNL A   1      31.096  28.217  24.894  1.00  0.00     0.347 HD
ATOM     10  H   UNL A   1      30.847  26.553  24.510  1.00  0.00     0.347 HD
BRANCH   8  11
ATOM     11  C   UNL A   1      30.461  27.811  23.003  1.00  0.00     0.362 C 
BRANCH  11  12
ATOM     12  C   UNL A   1      28.976  28.076  23.216  1.00  0.00     0.275 C 
ATOM     13  O   UNL A   1      28.252  27.147  23.595  1.00  0.00    -0.268 OA
ATOM     14  N   UNL A   1      28.384  29.292  23.054  1.00  0.00    -0.348 N 
ATOM     15  H   UNL A   1      27.490  29.314  23.466  1.00  0.00     0.163 HD
BRANCH  14  16
ATOM     16  C   UNL A   1      28.719  30.590  22.426  1.00  0.00     0.086 C 
ATOM     17  C   UNL A   1      28.790  31.715  23.461  1.00  0.00     0.053 C 
ATOM     18  C   UNL A   1      27.960  30.948  21.151  1.00  0.00     0.053 C 
ATOM     19  C   UNL A   1      28.786  33.124  22.883  1.00  0.00     0.162 C 
ATOM     20  C   UNL A   1      28.251  32.373  20.721  1.00  0.00     0.162 C 
ATOM     21  O   UNL A   1      27.886  33.251  21.783  1.00  0.00    -0.381 OA
ENDBRANCH  14  16
ENDBRANCH  11  12
ENDBRANCH   8  11
ENDBRANCH   6   8
BRANCH   6  22
ATOM     22  C   UNL A   1      33.118  26.166  23.008  1.00  0.00     0.453 C 
ATOM     23  F   UNL A   1      32.257  25.137  22.904  1.00  0.00    -0.164 F 
ATOM     24  F   UNL A   1      33.271  26.697  21.773  1.00  0.00    -0.164 F 
ATOM     25  F   UNL A   1      34.325  25.627  23.342  1.00  0.00    -0.164 F 
ENDBRANCH   6  22
ENDBRANCH   3   6
ENDBRANCH   1   2
BRANCH   1  26
ATOM     26  C   UNL A   1      31.451  30.443  25.871  1.00  0.00     0.023 C 
BRANCH  26  27
ATOM     27  C   UNL A   1      31.317  31.746  26.667  1.00  0.00     0.023 C 
BRANCH  27  28
ATOM     28  C   UNL A   1      32.640  32.447  26.966  1.00  0.00     0.116 C 
BRANCH  28  29
ATOM     29  N   UNL A   1      32.455  33.823  27.404  1.00  0.00    -0.352 N 
ATOM     30  C   UNL A   1      33.092  34.527  28.391  1.00  0.00     0.251 C 
ATOM     31  H   UNL A   1      31.764  34.325  26.914  1.00  0.00     0.163 HD
ATOM     32  O   UNL A   1      32.677  35.634  28.716  1.00  0.00    -0.269 OA
BRANCH  30  33
ATOM     33  C   UNL A   1      34.269  33.953  29.074  1.00  0.00     0.039 A 
ATOM     34  C   UNL A   1      34.058  33.081  30.145  1.00  0.00     0.014 A 
ATOM     35  C   UNL A   1      35.567  34.294  28.685  1.00  0.00     0.014 A 
ATOM     36  C   UNL A   1      35.152  32.507  30.793  1.00  0.00     0.010 A 
ATOM     37  C   UNL A   1      36.654  33.672  29.291  1.00  0.00     0.010 A 
ATOM     38  C   UNL A   1      36.457  32.776  30.351  1.00  0.00    -0.014 A 
BRANCH  38  39
ATOM     39  C   UNL A   1      37.627  32.124  30.987  1.00  0.00     0.031 A 
ATOM     40  C   UNL A   1      38.366  31.031  30.269  1.00  0.00     0.074 A 
ATOM     41  C   UNL A   1      37.981  32.477  32.237  1.00  0.00     0.049 A 
ATOM     42  N   UNL A   1      39.363  30.295  30.689  1.00  0.00    -0.248 NA
ATOM     43  C   UNL A   1      37.909  30.705  28.909  1.00  0.00     0.031 C 
ATOM     44  C   UNL A   1      37.313  33.493  33.052  1.00  0.00     0.029 A 
ATOM     45  N   UNL A   1      38.986  32.009  33.045  1.00  0.00    -0.354 N 
ATOM     46  C   UNL A   1      39.644  29.414  29.654  1.00  0.00     0.074 A 
ATOM     47  C   UNL A   1      38.682  29.673  28.604  1.00  0.00     0.031 C 
ATOM     48  C   UNL A   1      37.935  33.582  34.238  1.00  0.00     0.029 A 
ATOM     49  C   UNL A   1      39.022  32.610  34.280  1.00  0.00     0.049 A 
ATOM     50  H   UNL A   1      39.621  31.310  32.767  1.00  0.00     0.167 HD
ATOM     51  C   UNL A   1      40.628  28.487  29.575  1.00  0.00     0.037 A 
ATOM     52  C   UNL A   1      39.834  32.393  35.330  1.00  0.00     0.037 A 
ATOM     53  C   UNL A   1      41.598  28.247  30.612  1.00  0.00     0.049 A 
ATOM     54  C   UNL A   1      40.919  31.359  35.219  1.00  0.00     0.074 A 
ATOM     55  C   UNL A   1      42.664  27.366  30.608  1.00  0.00     0.029 A 
ATOM     56  N   UNL A   1      41.617  28.892  31.840  1.00  0.00    -0.354 N 
ATOM     57  N   UNL A   1      41.210  30.573  34.211  1.00  0.00    -0.248 NA
ATOM     58  C   UNL A   1      41.793  31.187  36.388  1.00  0.00     0.031 C 
ATOM     59  C   UNL A   1      43.308  27.452  31.848  1.00  0.00     0.029 A 
ATOM     60  C   UNL A   1      42.666  28.418  32.608  1.00  0.00     0.049 A 
ATOM     61  H   UNL A   1      40.978  29.585  32.124  1.00  0.00     0.167 HD
ATOM     62  C   UNL A   1      42.312  29.832  34.614  1.00  0.00     0.074 A 
ATOM     63  C   UNL A   1      42.647  30.273  35.952  1.00  0.00     0.031 C 
ATOM     64  C   UNL A   1      42.988  28.872  33.936  1.00  0.00     0.037 A 
BRANCH  51  65
ATOM     65  C   UNL A   1      40.708  27.669  28.320  1.00  0.00     0.057 A 
ATOM     66  C   UNL A   1      40.042  26.441  28.198  1.00  0.00     0.134 A 
ATOM     67  C   UNL A   1      41.431  28.125  27.212  1.00  0.00     0.134 A 
ATOM     68  F   UNL A   1      39.342  25.942  29.227  1.00  0.00    -0.206 F 
ATOM     69  C   UNL A   1      40.114  25.686  27.027  1.00  0.00     0.040 A 
ATOM     70  C   UNL A   1      41.490  27.390  26.026  1.00  0.00     0.040 A 
ATOM     71  F   UNL A   1      42.088  29.294  27.260  1.00  0.00    -0.206 F 
ATOM     72  C   UNL A   1      40.835  26.163  25.934  1.00  0.00     0.006 A 
ENDBRANCH  51  65
BRANCH  52  73
ATOM     73  C   UNL A   1      39.664  33.185  36.573  1.00  0.00     0.057 A 
ATOM     74  C   UNL A   1      38.811  32.752  37.594  1.00  0.00     0.134 A 
ATOM     75  C   UNL A   1      40.347  34.391  36.770  1.00  0.00     0.134 A 
ATOM     76  F   UNL A   1      38.117  31.613  37.454  1.00  0.00    -0.206 F 
ATOM     77  C   UNL A   1      38.627  33.497  38.759  1.00  0.00     0.040 A 
ATOM     78  C   UNL A   1      40.191  35.136  37.940  1.00  0.00     0.040 A 
ATOM     79  F   UNL A   1      41.186  34.856  35.832  1.00  0.00    -0.206 F 
ATOM     80  C   UNL A   1      39.323  34.691  38.937  1.00  0.00     0.006 A 
ENDBRANCH  52  73
BRANCH  64  81
ATOM     81  C   UNL A   1      44.174  28.257  34.620  1.00  0.00     0.057 A 
ATOM     82  C   UNL A   1      45.450  28.827  34.538  1.00  0.00     0.134 A 
ATOM     83  C   UNL A   1      44.026  27.104  35.401  1.00  0.00     0.134 A 
ATOM     84  F   UNL A   1      45.658  29.924  33.795  1.00  0.00    -0.206 F 
ATOM     85  C   UNL A   1      46.543  28.257  35.191  1.00  0.00     0.040 A 
ATOM     86  C   UNL A   1      45.107  26.540  36.079  1.00  0.00     0.040 A 
ATOM     87  F   UNL A   1      42.827  26.515  35.527  1.00  0.00    -0.206 F 
ATOM     88  C   UNL A   1      46.372  27.114  35.970  1.00  0.00     0.006 A 
ENDBRANCH  64  81
ENDBRANCH  38  39
ENDBRANCH  30  33
ENDBRANCH  28  29
ENDBRANCH  27  28
ENDBRANCH  26  27
ENDBRANCH   1  26
TORSDOF 16
ENDMDL
MODEL 3
REMARK VINA RESULT:     -11.6      5.920     10.010
REMARK SMILES C[C@@]([NH2+]CC(=O)NC1CCOCC1)(C(=O)NCCCCNC(=O)c1ccc(-c2c3nc(c(-c4c(F)cccc4F)c4ccc([nH]4)c(-c4c(F)cccc4F)c4nc(c(-c5c(F)cccc5F)c5ccc2[nH]5)C=C4)C=C3)cc1)C(F)(F)F
REMARK SMILES IDX 17 1 16 2 14 3 15 4 2 6 1 7 3 8 4 11 5 12 6 13 7 14 8 16
REMARK SMILES IDX 9 17 13 18 10 19 12 20 11 21 78 22 79 23 80 24 81 25 18 26
REMARK SMILES IDX 19 27 20 28 21 29 22 30 23 32 24 33 25 34 77 35 26 36 76 37
REMARK SMILES IDX 27 38 28 39 29 40 70 41 30 42 75 43 69 44 71 45 31 46 74 47
REMARK SMILES IDX 68 48 67 49 32 51 58 52 41 53 57 54 42 55 45 56 56 57 72 58
REMARK SMILES IDX 43 59 44 60 55 62 73 63 46 64 33 65 34 66 39 67 35 68 36 69
REMARK SMILES IDX 38 70 40 71 37 72 59 73 60 74 65 75 61 76 62 77 64 78 66 79
REMARK SMILES IDX 63 80 47 81 48 82 53 83 49 84 50 85 52 86 54 87 51 88
REMARK H PARENT 16 5 3 9 3 10 7 15 21 31 71 50 45 61
REMARK Flexibility Score: inf
ROOT
ATOM      1  C   UNL A   1      32.741  29.961  25.738  1.00  0.00     0.116 C 
ENDROOT
BRANCH   1   2
ATOM      2  N   UNL A   1      33.066  29.692  24.351  1.00  0.00    -0.350 N 
ATOM      3  C   UNL A   1      33.450  28.484  23.831  1.00  0.00     0.290 C 
ATOM      4  O   UNL A   1      34.460  28.503  23.124  1.00  0.00    -0.267 OA
ATOM      5  H   UNL A   1      33.006  30.448  23.724  1.00  0.00     0.163 HD
BRANCH   3   6
ATOM      6  C   UNL A   1      32.691  27.179  24.139  1.00  0.00     0.268 C 
ATOM      7  C   UNL A   1      33.151  26.673  25.524  1.00  0.00     0.101 C 
BRANCH   6   8
ATOM      8  N   UNL A   1      31.186  27.351  24.220  1.00  0.00    -0.318 N 
ATOM      9  H   UNL A   1      30.994  28.012  24.974  1.00  0.00     0.347 HD
ATOM     10  H   UNL A   1      30.826  26.407  24.363  1.00  0.00     0.347 HD
BRANCH   8  11
ATOM     11  C   UNL A   1      30.481  27.841  23.011  1.00  0.00     0.362 C 
BRANCH  11  12
ATOM     12  C   UNL A   1      28.985  28.076  23.180  1.00  0.00     0.275 C 
ATOM     13  O   UNL A   1      28.270  27.133  23.542  1.00  0.00    -0.268 OA
ATOM     14  N   UNL A   1      28.373  29.278  22.993  1.00  0.00    -0.348 N 
ATOM     15  H   UNL A   1      27.468  29.283  23.379  1.00  0.00     0.163 HD
BRANCH  14  16
ATOM     16  C   UNL A   1      28.700  30.579  22.367  1.00  0.00     0.086 C 
ATOM     17  C   UNL A   1      28.765  31.703  23.405  1.00  0.00     0.053 C 
ATOM     18  C   UNL A   1      27.937  30.935  21.094  1.00  0.00     0.053 C 
ATOM     19  C   UNL A   1      28.751  33.113  22.829  1.00  0.00     0.162 C 
ATOM     20  C   UNL A   1      28.219  32.363  20.666  1.00  0.00     0.162 C 
ATOM     21  O   UNL A   1      27.849  33.236  21.730  1.00  0.00    -0.381 OA
ENDBRANCH  14  16
ENDBRANCH  11  12
ENDBRANCH   8  11
ENDBRANCH   6   8
BRANCH   6  22
ATOM     22  C   UNL A   1      33.178  26.093  23.130  1.00  0.00     0.453 C 
ATOM     23  F   UNL A   1      32.324  25.063  22.981  1.00  0.00    -0.164 F 
ATOM     24  F   UNL A   1      33.434  26.592  21.899  1.00  0.00    -0.164 F 
ATOM     25  F   UNL A   1      34.350  25.560  23.576  1.00  0.00    -0.164 F 
ENDBRANCH   6  22
ENDBRANCH   3   6
ENDBRANCH   1   2
BRANCH   1  26
ATOM     26  C   UNL A   1      31.320  30.528  25.791  1.00  0.00     0.023 C 
BRANCH  26  27
ATOM     27  C   UNL A   1      31.267  31.965  26.322  1.00  0.00     0.023 C 
BRANCH  27  28
ATOM     28  C   UNL A   1      32.507  32.402  27.099  1.00  0.00     0.116 C 
BRANCH  28  29
ATOM     29  N   UNL A   1      32.437  33.792  27.525  1.00  0.00    -0.352 N 
ATOM     30  C   UNL A   1      33.176  34.465  28.461  1.00  0.00     0.251 C 
ATOM     31  H   UNL A   1      31.750  34.332  27.071  1.00  0.00     0.163 HD
ATOM     32  O   UNL A   1      32.852  35.600  28.793  1.00  0.00    -0.269 OA
BRANCH  30  33
ATOM     33  C   UNL A   1      34.354  33.825  29.080  1.00  0.00     0.039 A 
ATOM     34  C   UNL A   1      34.146  32.856  30.063  1.00  0.00     0.014 A 
ATOM     35  C   UNL A   1      35.651  34.198  28.720  1.00  0.00     0.014 A 
ATOM     36  C   UNL A   1      35.240  32.219  30.649  1.00  0.00     0.010 A 
ATOM     37  C   UNL A   1      36.739  33.519  29.258  1.00  0.00     0.010 A 
ATOM     38  C   UNL A   1      36.544  32.526  30.228  1.00  0.00    -0.014 A 
BRANCH  38  39
ATOM     39  C   UNL A   1      37.715  31.813  30.793  1.00  0.00     0.031 A 
ATOM     40  C   UNL A   1      38.263  32.203  32.136  1.00  0.00     0.074 A 
ATOM     41  C   UNL A   1      38.321  30.857  30.064  1.00  0.00     0.049 A 
ATOM     42  N   UNL A   1      39.319  31.748  32.761  1.00  0.00    -0.248 NA
ATOM     43  C   UNL A   1      37.543  33.261  32.862  1.00  0.00     0.031 C 
ATOM     44  C   UNL A   1      37.909  30.422  28.728  1.00  0.00     0.029 A 
ATOM     45  N   UNL A   1      39.422  30.087  30.340  1.00  0.00    -0.354 N 
ATOM     46  C   UNL A   1      39.396  32.471  33.944  1.00  0.00     0.074 A 
ATOM     47  C   UNL A   1      38.310  33.427  33.929  1.00  0.00     0.031 C 
ATOM     48  C   UNL A   1      38.737  29.452  28.308  1.00  0.00     0.029 A 
ATOM     49  C   UNL A   1      39.755  29.221  29.327  1.00  0.00     0.049 A 
ATOM     50  H   UNL A   1      39.925  30.148  31.184  1.00  0.00     0.167 HD
ATOM     51  C   UNL A   1      40.280  32.335  34.961  1.00  0.00     0.037 A 
ATOM     52  C   UNL A   1      40.773  28.347  29.228  1.00  0.00     0.037 A 
ATOM     53  C   UNL A   1      41.347  31.367  34.982  1.00  0.00     0.049 A 
ATOM     54  C   UNL A   1      41.741  28.214  30.370  1.00  0.00     0.074 A 
ATOM     55  C   UNL A   1      42.264  31.117  35.988  1.00  0.00     0.029 A 
ATOM     56  N   UNL A   1      41.638  30.491  33.948  1.00  0.00    -0.354 N 
ATOM     57  N   UNL A   1      41.768  28.863  31.509  1.00  0.00    -0.248 NA
ATOM     58  C   UNL A   1      42.815  27.223  30.216  1.00  0.00     0.031 C 
ATOM     59  C   UNL A   1      43.133  30.112  35.546  1.00  0.00     0.029 A 
ATOM     60  C   UNL A   1      42.730  29.709  34.283  1.00  0.00     0.049 A 
ATOM     61  H   UNL A   1      41.142  30.433  33.099  1.00  0.00     0.167 HD
ATOM     62  C   UNL A   1      42.844  28.344  32.216  1.00  0.00     0.074 A 
ATOM     63  C   UNL A   1      43.434  27.315  31.384  1.00  0.00     0.031 C 
ATOM     64  C   UNL A   1      43.302  28.687  33.445  1.00  0.00     0.037 A 
BRANCH  51  65
ATOM     65  C   UNL A   1      40.125  33.252  36.138  1.00  0.00     0.057 A 
ATOM     66  C   UNL A   1      40.836  34.456  36.233  1.00  0.00     0.134 A 
ATOM     67  C   UNL A   1      39.234  32.945  37.173  1.00  0.00     0.134 A 
ATOM     68  F   UNL A   1      41.714  34.803  35.281  1.00  0.00    -0.206 F 
ATOM     69  C   UNL A   1      40.685  35.309  37.327  1.00  0.00     0.040 A 
ATOM     70  C   UNL A   1      39.055  33.802  38.261  1.00  0.00     0.040 A 
ATOM     71  F   UNL A   1      38.519  31.810  37.144  1.00  0.00    -0.206 F 
ATOM     72  C   UNL A   1      39.787  34.985  38.342  1.00  0.00     0.006 A 
ENDBRANCH  51  65
BRANCH  52  73
ATOM     73  C   UNL A   1      40.917  27.515  28.009  1.00  0.00     0.057 A 
ATOM     74  C   UNL A   1      40.338  26.244  27.931  1.00  0.00     0.134 A 
ATOM     75  C   UNL A   1      41.636  27.967  26.896  1.00  0.00     0.134 A 
ATOM     76  F   UNL A   1      39.652  25.750  28.972  1.00  0.00    -0.206 F 
ATOM     77  C   UNL A   1      40.482  25.443  26.797  1.00  0.00     0.040 A 
ATOM     78  C   UNL A   1      41.769  27.186  25.747  1.00  0.00     0.040 A 
ATOM     79  F   UNL A   1      42.208  29.180  26.907  1.00  0.00    -0.206 F 
ATOM     80  C   UNL A   1      41.196  25.917  25.698  1.00  0.00     0.006 A 
ENDBRANCH  52  73
BRANCH  64  81
ATOM     81  C   UNL A   1      44.479  27.922  33.974  1.00  0.00     0.057 A 
ATOM     82  C   UNL A   1      45.792  28.378  33.803  1.00  0.00     0.134 A 
ATOM     83  C   UNL A   1      44.292  26.737  34.696  1.00  0.00     0.134 A 
ATOM     84  F   UNL A   1      46.037  29.499  33.110  1.00  0.00    -0.206 F 
ATOM     85  C   UNL A   1      46.880  27.668  34.313  1.00  0.00     0.040 A 
ATOM     86  C   UNL A   1      45.370  26.032  35.232  1.00  0.00     0.040 A 
ATOM     87  F   UNL A   1      43.058  26.252  34.902  1.00  0.00    -0.206 F 
ATOM     88  C   UNL A   1      46.669  26.495  35.036  1.00  0.00     0.006 A 
ENDBRANCH  64  81
ENDBRANCH  38  39
ENDBRANCH  30  33
ENDBRANCH  28  29
ENDBRANCH  27  28
ENDBRANCH  26  27
ENDBRANCH   1  26
TORSDOF 16
ENDMDL
