MODEL 1
REMARK VINA RESULT:     -11.4      0.000      0.000
REMARK SMILES CNC(=O)[C@H](C)Oc1cc([N+](=O)[O-])c(C(=O)NCCCCNC(=O)c2ccc(-c3c4nc(c(-c5c(F)cccc5F)c5ccc([nH]5)c(-c5c(F)cccc5F)c5nc(c(-c6c(F)cccc6F)c6ccc3[nH]6)C=C5)C=C4)cc2)cc1OC
REMARK SMILES IDX 19 1 18 2 17 3 15 4 16 5 14 7 8 8 9 9 80 10 10 11 79 12 7 13
REMARK SMILES IDX 5 14 6 15 3 16 1 17 2 18 4 20 81 21 82 22 11 23 12 24 13 25
REMARK SMILES IDX 20 26 21 27 22 28 23 29 24 31 25 32 26 33 78 34 27 35 77 36
REMARK SMILES IDX 28 37 29 38 30 39 71 40 31 41 76 42 70 43 72 44 32 45 75 46
REMARK SMILES IDX 69 47 68 48 33 50 59 51 42 52 58 53 43 54 46 55 57 56 73 57
REMARK SMILES IDX 44 58 45 59 56 61 74 62 47 63 34 64 35 65 40 66 36 67 37 68
REMARK SMILES IDX 39 69 41 70 38 71 60 72 61 73 66 74 62 75 63 76 65 77 67 78
REMARK SMILES IDX 64 79 48 80 49 81 54 82 50 83 51 84 53 85 55 86 52 87
REMARK H PARENT 17 6 2 19 22 30 72 49 46 60
REMARK Flexibility Score: inf
ROOT
ATOM      1  C   UNL A   1      36.869  21.063  24.663  1.00  0.00     0.023 C 
ENDROOT
BRANCH   1   2
ATOM      2  C   UNL A   1      35.572  21.100  25.479  1.00  0.00     0.116 C 
BRANCH   2   3
ATOM      3  N   UNL A   1      34.455  20.584  24.716  1.00  0.00    -0.352 N 
ATOM      4  C   UNL A   1      33.273  21.135  24.289  1.00  0.00     0.258 C 
ATOM      5  O   UNL A   1      32.597  20.425  23.547  1.00  0.00    -0.269 OA
ATOM      6  H   UNL A   1      34.567  19.642  24.447  1.00  0.00     0.163 HD
BRANCH   4   7
ATOM      7  C   UNL A   1      32.807  22.520  24.620  1.00  0.00     0.121 A 
ATOM      8  C   UNL A   1      32.097  25.192  25.338  1.00  0.00     0.169 A 
ATOM      9  C   UNL A   1      32.999  24.961  24.310  1.00  0.00     0.137 A 
ATOM     10  C   UNL A   1      31.460  24.103  25.923  1.00  0.00     0.162 A 
ATOM     11  C   UNL A   1      33.343  23.639  23.964  1.00  0.00     0.286 A 
ATOM     12  C   UNL A   1      31.805  22.794  25.560  1.00  0.00     0.071 A 
BRANCH   8  13
ATOM     13  O   UNL A   1      31.665  26.458  25.570  1.00  0.00    -0.477 OA
BRANCH  13  14
ATOM     14  C   UNL A   1      31.728  27.387  24.489  1.00  0.00     0.259 C 
ATOM     15  C   UNL A   1      30.324  27.373  23.859  1.00  0.00     0.064 C 
BRANCH  14  16
ATOM     16  C   UNL A   1      32.204  28.868  24.638  1.00  0.00     0.260 C 
ATOM     17  C   UNL A   1      34.007  28.705  22.848  1.00  0.00     0.142 C 
ATOM     18  N   UNL A   1      33.221  29.352  23.868  1.00  0.00    -0.356 N 
ATOM     19  H   UNL A   1      33.455  30.293  24.037  1.00  0.00     0.163 HD
ATOM     20  O   UNL A   1      31.681  29.660  25.427  1.00  0.00    -0.271 OA
ENDBRANCH  14  16
ENDBRANCH  13  14
ENDBRANCH   8  13
BRANCH  10  21
ATOM     21  O   UNL A   1      30.358  24.265  26.718  1.00  0.00    -0.493 OA
ATOM     22  C   UNL A   1      29.797  23.017  27.121  1.00  0.00     0.278 C 
ENDBRANCH  10  21
BRANCH  11  23
ATOM     23  N   UNL A   1      34.197  23.512  22.800  1.00  0.00     0.063 N 
ATOM     24  O   UNL A   1      35.409  23.693  22.983  1.00  0.00    -0.258 OA
ATOM     25  O   UNL A   1      33.630  23.400  21.704  1.00  0.00    -0.258 OA
ENDBRANCH  11  23
ENDBRANCH   4   7
ENDBRANCH   2   3
ENDBRANCH   1   2
BRANCH   1  26
ATOM     26  C   UNL A   1      37.777  19.872  24.959  1.00  0.00     0.023 C 
BRANCH  26  27
ATOM     27  C   UNL A   1      39.006  20.201  25.795  1.00  0.00     0.116 C 
BRANCH  27  28
ATOM     28  N   UNL A   1      40.008  19.147  25.802  1.00  0.00    -0.352 N 
ATOM     29  C   UNL A   1      41.350  19.260  26.083  1.00  0.00     0.251 C 
ATOM     30  H   UNL A   1      39.687  18.244  25.580  1.00  0.00     0.163 HD
ATOM     31  O   UNL A   1      42.098  18.301  25.962  1.00  0.00    -0.269 OA
BRANCH  29  32
ATOM     32  C   UNL A   1      41.881  20.578  26.485  1.00  0.00     0.039 A 
ATOM     33  C   UNL A   1      42.296  21.467  25.491  1.00  0.00     0.014 A 
ATOM     34  C   UNL A   1      41.916  20.952  27.831  1.00  0.00     0.014 A 
ATOM     35  C   UNL A   1      42.689  22.757  25.845  1.00  0.00     0.010 A 
ATOM     36  C   UNL A   1      42.230  22.260  28.174  1.00  0.00     0.010 A 
ATOM     37  C   UNL A   1      42.627  23.173  27.186  1.00  0.00    -0.014 A 
BRANCH  37  38
ATOM     38  C   UNL A   1      42.996  24.555  27.576  1.00  0.00     0.031 A 
ATOM     39  C   UNL A   1      44.439  24.973  27.574  1.00  0.00     0.074 A 
ATOM     40  C   UNL A   1      42.041  25.411  27.984  1.00  0.00     0.049 A 
ATOM     41  N   UNL A   1      44.969  26.117  27.922  1.00  0.00    -0.248 NA
ATOM     42  C   UNL A   1      45.421  23.960  27.151  1.00  0.00     0.031 C 
ATOM     43  C   UNL A   1      40.612  25.105  28.084  1.00  0.00     0.029 A 
ATOM     44  N   UNL A   1      42.129  26.717  28.395  1.00  0.00    -0.354 N 
ATOM     45  C   UNL A   1      46.341  25.956  27.776  1.00  0.00     0.074 A 
ATOM     46  C   UNL A   1      46.567  24.588  27.364  1.00  0.00     0.031 C 
ATOM     47  C   UNL A   1      39.956  26.200  28.501  1.00  0.00     0.029 A 
ATOM     48  C   UNL A   1      40.918  27.274  28.724  1.00  0.00     0.049 A 
ATOM     49  H   UNL A   1      42.981  27.206  28.451  1.00  0.00     0.167 HD
ATOM     50  C   UNL A   1      47.322  26.873  27.940  1.00  0.00     0.037 A 
ATOM     51  C   UNL A   1      40.620  28.515  29.153  1.00  0.00     0.037 A 
ATOM     52  C   UNL A   1      47.093  28.241  28.320  1.00  0.00     0.049 A 
ATOM     53  C   UNL A   1      41.726  29.522  29.309  1.00  0.00     0.074 A 
ATOM     54  C   UNL A   1      48.013  29.264  28.464  1.00  0.00     0.029 A 
ATOM     55  N   UNL A   1      45.848  28.778  28.612  1.00  0.00    -0.354 N 
ATOM     56  N   UNL A   1      43.012  29.375  29.102  1.00  0.00    -0.248 NA
ATOM     57  C   UNL A   1      41.337  30.869  29.746  1.00  0.00     0.031 C 
ATOM     58  C   UNL A   1      47.328  30.413  28.874  1.00  0.00     0.029 A 
ATOM     59  C   UNL A   1      45.976  30.116  28.946  1.00  0.00     0.049 A 
ATOM     60  H   UNL A   1      44.998  28.281  28.587  1.00  0.00     0.167 HD
ATOM     61  C   UNL A   1      43.582  30.618  29.353  1.00  0.00     0.074 A 
ATOM     62  C   UNL A   1      42.497  31.508  29.714  1.00  0.00     0.031 C 
ATOM     63  C   UNL A   1      44.884  30.989  29.289  1.00  0.00     0.037 A 
BRANCH  50  64
ATOM     64  C   UNL A   1      48.733  26.424  27.695  1.00  0.00     0.057 A 
ATOM     65  C   UNL A   1      49.543  25.941  28.733  1.00  0.00     0.134 A 
ATOM     66  C   UNL A   1      49.283  26.454  26.408  1.00  0.00     0.134 A 
ATOM     67  F   UNL A   1      49.081  25.901  29.992  1.00  0.00    -0.206 F 
ATOM     68  C   UNL A   1      50.857  25.531  28.503  1.00  0.00     0.040 A 
ATOM     69  C   UNL A   1      50.587  26.022  26.162  1.00  0.00     0.040 A 
ATOM     70  F   UNL A   1      48.562  26.903  25.369  1.00  0.00    -0.206 F 
ATOM     71  C   UNL A   1      51.380  25.565  27.212  1.00  0.00     0.006 A 
ENDBRANCH  50  64
BRANCH  51  72
ATOM     72  C   UNL A   1      39.210  28.892  29.422  1.00  0.00     0.057 A 
ATOM     73  C   UNL A   1      38.638  28.684  30.682  1.00  0.00     0.134 A 
ATOM     74  C   UNL A   1      38.399  29.453  28.430  1.00  0.00     0.134 A 
ATOM     75  F   UNL A   1      39.361  28.132  31.668  1.00  0.00    -0.206 F 
ATOM     76  C   UNL A   1      37.303  28.998  30.941  1.00  0.00     0.040 A 
ATOM     77  C   UNL A   1      37.069  29.796  28.681  1.00  0.00     0.040 A 
ATOM     78  F   UNL A   1      38.891  29.687  27.203  1.00  0.00    -0.206 F 
ATOM     79  C   UNL A   1      36.516  29.560  29.938  1.00  0.00     0.006 A 
ENDBRANCH  51  72
BRANCH  63  80
ATOM     80  C   UNL A   1      45.199  32.427  29.573  1.00  0.00     0.057 A 
ATOM     81  C   UNL A   1      45.171  33.403  28.571  1.00  0.00     0.134 A 
ATOM     82  C   UNL A   1      45.507  32.842  30.875  1.00  0.00     0.134 A 
ATOM     83  F   UNL A   1      44.895  33.068  27.301  1.00  0.00    -0.206 F 
ATOM     84  C   UNL A   1      45.463  34.740  28.848  1.00  0.00     0.040 A 
ATOM     85  C   UNL A   1      45.775  34.178  31.170  1.00  0.00     0.040 A 
ATOM     86  F   UNL A   1      45.541  31.956  31.882  1.00  0.00    -0.206 F 
ATOM     87  C   UNL A   1      45.761  35.130  30.153  1.00  0.00     0.006 A 
ENDBRANCH  63  80
ENDBRANCH  37  38
ENDBRANCH  29  32
ENDBRANCH  27  28
ENDBRANCH  26  27
ENDBRANCH   1  26
TORSDOF 16
ENDMDL
MODEL 2
REMARK VINA RESULT:     -11.3      0.857      6.256
REMARK SMILES CNC(=O)[C@H](C)Oc1cc([N+](=O)[O-])c(C(=O)NCCCCNC(=O)c2ccc(-c3c4nc(c(-c5c(F)cccc5F)c5ccc([nH]5)c(-c5c(F)cccc5F)c5nc(c(-c6c(F)cccc6F)c6ccc3[nH]6)C=C5)C=C4)cc2)cc1OC
REMARK SMILES IDX 19 1 18 2 17 3 15 4 16 5 14 7 8 8 9 9 80 10 10 11 79 12 7 13
REMARK SMILES IDX 5 14 6 15 3 16 1 17 2 18 4 20 81 21 82 22 11 23 12 24 13 25
REMARK SMILES IDX 20 26 21 27 22 28 23 29 24 31 25 32 26 33 78 34 27 35 77 36
REMARK SMILES IDX 28 37 29 38 30 39 71 40 31 41 76 42 70 43 72 44 32 45 75 46
REMARK SMILES IDX 69 47 68 48 33 50 59 51 42 52 58 53 43 54 46 55 57 56 73 57
REMARK SMILES IDX 44 58 45 59 56 61 74 62 47 63 34 64 35 65 40 66 36 67 37 68
REMARK SMILES IDX 39 69 41 70 38 71 60 72 61 73 66 74 62 75 63 76 65 77 67 78
REMARK SMILES IDX 64 79 48 80 49 81 54 82 50 83 51 84 53 85 55 86 52 87
REMARK H PARENT 17 6 2 19 22 30 72 49 46 60
REMARK Flexibility Score: inf
ROOT
ATOM      1  C   UNL A   1      37.142  21.124  24.822  1.00  0.00     0.023 C 
ENDROOT
BRANCH   1   2
ATOM      2  C   UNL A   1      35.877  21.084  25.685  1.00  0.00     0.116 C 
BRANCH   2   3
ATOM      3  N   UNL A   1      34.751  20.554  24.944  1.00  0.00    -0.352 N 
ATOM      4  C   UNL A   1      33.580  21.106  24.492  1.00  0.00     0.258 C 
ATOM      5  O   UNL A   1      32.891  20.376  23.781  1.00  0.00    -0.269 OA
ATOM      6  H   UNL A   1      34.845  19.599  24.719  1.00  0.00     0.163 HD
BRANCH   4   7
ATOM      7  C   UNL A   1      33.138  22.514  24.758  1.00  0.00     0.121 A 
ATOM      8  C   UNL A   1      32.486  25.235  25.328  1.00  0.00     0.169 A 
ATOM      9  C   UNL A   1      33.254  24.918  24.217  1.00  0.00     0.137 A 
ATOM     10  C   UNL A   1      31.944  24.200  26.081  1.00  0.00     0.162 A 
ATOM     11  C   UNL A   1      33.571  23.573  23.946  1.00  0.00     0.286 A 
ATOM     12  C   UNL A   1      32.260  22.865  25.791  1.00  0.00     0.071 A 
BRANCH   8  13
ATOM     13  O   UNL A   1      32.068  26.516  25.503  1.00  0.00    -0.477 OA
BRANCH  13  14
ATOM     14  C   UNL A   1      31.636  27.234  24.349  1.00  0.00     0.259 C 
ATOM     15  C   UNL A   1      30.147  26.882  24.186  1.00  0.00     0.064 C 
BRANCH  14  16
ATOM     16  C   UNL A   1      31.819  28.774  24.162  1.00  0.00     0.260 C 
ATOM     17  C   UNL A   1      33.930  28.580  22.751  1.00  0.00     0.142 C 
ATOM     18  N   UNL A   1      32.867  29.268  23.441  1.00  0.00    -0.356 N 
ATOM     19  H   UNL A   1      32.903  30.249  23.382  1.00  0.00     0.163 HD
ATOM     20  O   UNL A   1      31.030  29.601  24.628  1.00  0.00    -0.271 OA
ENDBRANCH  14  16
ENDBRANCH  13  14
ENDBRANCH   8  13
BRANCH  10  21
ATOM     21  O   UNL A   1      30.949  24.426  26.993  1.00  0.00    -0.493 OA
ATOM     22  C   UNL A   1      29.888  23.480  26.877  1.00  0.00     0.278 C 
ENDBRANCH  10  21
BRANCH  11  23
ATOM     23  N   UNL A   1      34.272  23.347  22.697  1.00  0.00     0.063 N 
ATOM     24  O   UNL A   1      35.511  23.360  22.751  1.00  0.00    -0.258 OA
ATOM     25  O   UNL A   1      33.583  23.329  21.668  1.00  0.00    -0.258 OA
ENDBRANCH  11  23
ENDBRANCH   4   7
ENDBRANCH   2   3
ENDBRANCH   1   2
BRANCH   1  26
ATOM     26  C   UNL A   1      38.077  19.929  25.000  1.00  0.00     0.023 C 
BRANCH  26  27
ATOM     27  C   UNL A   1      39.334  20.221  25.809  1.00  0.00     0.116 C 
BRANCH  27  28
ATOM     28  N   UNL A   1      40.259  19.101  25.875  1.00  0.00    -0.352 N 
ATOM     29  C   UNL A   1      41.610  19.136  26.128  1.00  0.00     0.251 C 
ATOM     30  H   UNL A   1      39.871  18.209  25.721  1.00  0.00     0.163 HD
ATOM     31  O   UNL A   1      42.286  18.119  26.063  1.00  0.00    -0.269 OA
BRANCH  29  32
ATOM     32  C   UNL A   1      42.241  20.437  26.429  1.00  0.00     0.039 A 
ATOM     33  C   UNL A   1      42.764  21.189  25.375  1.00  0.00     0.014 A 
ATOM     34  C   UNL A   1      42.265  20.932  27.735  1.00  0.00     0.014 A 
ATOM     35  C   UNL A   1      43.256  22.470  25.625  1.00  0.00     0.010 A 
ATOM     36  C   UNL A   1      42.680  22.236  27.969  1.00  0.00     0.010 A 
ATOM     37  C   UNL A   1      43.187  23.014  26.919  1.00  0.00    -0.014 A 
BRANCH  37  38
ATOM     38  C   UNL A   1      43.662  24.391  27.195  1.00  0.00     0.031 A 
ATOM     39  C   UNL A   1      42.685  25.446  27.632  1.00  0.00     0.074 A 
ATOM     40  C   UNL A   1      44.957  24.703  27.000  1.00  0.00     0.049 A 
ATOM     41  N   UNL A   1      42.893  26.714  27.880  1.00  0.00    -0.248 NA
ATOM     42  C   UNL A   1      41.282  25.027  27.782  1.00  0.00     0.031 C 
ATOM     43  C   UNL A   1      45.990  23.780  26.524  1.00  0.00     0.029 A 
ATOM     44  N   UNL A   1      45.626  25.888  27.176  1.00  0.00    -0.354 N 
ATOM     45  C   UNL A   1      41.649  27.243  28.198  1.00  0.00     0.074 A 
ATOM     46  C   UNL A   1      40.683  26.176  28.056  1.00  0.00     0.031 C 
ATOM     47  C   UNL A   1      47.167  24.427  26.472  1.00  0.00     0.029 A 
ATOM     48  C   UNL A   1      46.966  25.812  26.884  1.00  0.00     0.049 A 
ATOM     49  H   UNL A   1      45.186  26.713  27.481  1.00  0.00     0.167 HD
ATOM     50  C   UNL A   1      41.342  28.498  28.602  1.00  0.00     0.037 A 
ATOM     51  C   UNL A   1      47.923  26.757  26.946  1.00  0.00     0.037 A 
ATOM     52  C   UNL A   1      42.309  29.550  28.773  1.00  0.00     0.049 A 
ATOM     53  C   UNL A   1      47.561  28.138  27.417  1.00  0.00     0.074 A 
ATOM     54  C   UNL A   1      42.110  30.841  29.226  1.00  0.00     0.029 A 
ATOM     55  N   UNL A   1      43.663  29.426  28.499  1.00  0.00    -0.354 N 
ATOM     56  N   UNL A   1      46.392  28.607  27.779  1.00  0.00    -0.248 NA
ATOM     57  C   UNL A   1      48.654  29.117  27.497  1.00  0.00     0.031 C 
ATOM     58  C   UNL A   1      43.338  31.509  29.197  1.00  0.00     0.029 A 
ATOM     59  C   UNL A   1      44.310  30.621  28.765  1.00  0.00     0.049 A 
ATOM     60  H   UNL A   1      44.099  28.609  28.164  1.00  0.00     0.167 HD
ATOM     61  C   UNL A   1      46.613  29.924  28.161  1.00  0.00     0.074 A 
ATOM     62  C   UNL A   1      48.031  30.173  27.998  1.00  0.00     0.031 C 
ATOM     63  C   UNL A   1      45.724  30.845  28.609  1.00  0.00     0.037 A 
BRANCH  50  64
ATOM     64  C   UNL A   1      39.902  28.793  28.900  1.00  0.00     0.057 A 
ATOM     65  C   UNL A   1      39.008  29.187  27.894  1.00  0.00     0.134 A 
ATOM     66  C   UNL A   1      39.396  28.663  30.199  1.00  0.00     0.134 A 
ATOM     67  F   UNL A   1      39.433  29.345  26.632  1.00  0.00    -0.206 F 
ATOM     68  C   UNL A   1      37.670  29.469  28.176  1.00  0.00     0.040 A 
ATOM     69  C   UNL A   1      38.053  28.916  30.487  1.00  0.00     0.040 A 
ATOM     70  F   UNL A   1      40.196  28.288  31.208  1.00  0.00    -0.206 F 
ATOM     71  C   UNL A   1      37.188  29.326  29.475  1.00  0.00     0.006 A 
ENDBRANCH  50  64
BRANCH  51  72
ATOM     72  C   UNL A   1      49.326  26.419  26.597  1.00  0.00     0.057 A 
ATOM     73  C   UNL A   1      50.192  25.869  27.549  1.00  0.00     0.134 A 
ATOM     74  C   UNL A   1      49.838  26.649  25.315  1.00  0.00     0.134 A 
ATOM     75  F   UNL A   1      49.764  25.644  28.800  1.00  0.00    -0.206 F 
ATOM     76  C   UNL A   1      51.524  25.581  27.247  1.00  0.00     0.040 A 
ATOM     77  C   UNL A   1      51.161  26.342  24.992  1.00  0.00     0.040 A 
ATOM     78  F   UNL A   1      49.056  27.165  24.355  1.00  0.00    -0.206 F 
ATOM     79  C   UNL A   1      52.010  25.814  25.963  1.00  0.00     0.006 A 
ENDBRANCH  51  72
BRANCH  63  80
ATOM     80  C   UNL A   1      46.267  32.188  28.993  1.00  0.00     0.057 A 
ATOM     81  C   UNL A   1      46.738  32.455  30.284  1.00  0.00     0.134 A 
ATOM     82  C   UNL A   1      46.344  33.219  28.047  1.00  0.00     0.134 A 
ATOM     83  F   UNL A   1      46.679  31.514  31.237  1.00  0.00    -0.206 F 
ATOM     84  C   UNL A   1      47.243  33.710  30.629  1.00  0.00     0.040 A 
ATOM     85  C   UNL A   1      46.871  34.469  28.373  1.00  0.00     0.040 A 
ATOM     86  F   UNL A   1      45.917  33.025  26.791  1.00  0.00    -0.206 F 
ATOM     87  C   UNL A   1      47.316  34.719  29.669  1.00  0.00     0.006 A 
ENDBRANCH  63  80
ENDBRANCH  37  38
ENDBRANCH  29  32
ENDBRANCH  27  28
ENDBRANCH  26  27
ENDBRANCH   1  26
TORSDOF 16
ENDMDL
MODEL 3
REMARK VINA RESULT:     -11.3      4.348      9.844
REMARK SMILES CNC(=O)[C@H](C)Oc1cc([N+](=O)[O-])c(C(=O)NCCCCNC(=O)c2ccc(-c3c4nc(c(-c5c(F)cccc5F)c5ccc([nH]5)c(-c5c(F)cccc5F)c5nc(c(-c6c(F)cccc6F)c6ccc3[nH]6)C=C5)C=C4)cc2)cc1OC
REMARK SMILES IDX 19 1 18 2 17 3 15 4 16 5 14 7 8 8 9 9 80 10 10 11 79 12 7 13
REMARK SMILES IDX 5 14 6 15 3 16 1 17 2 18 4 20 81 21 82 22 11 23 12 24 13 25
REMARK SMILES IDX 20 26 21 27 22 28 23 29 24 31 25 32 26 33 78 34 27 35 77 36
REMARK SMILES IDX 28 37 29 38 30 39 71 40 31 41 76 42 70 43 72 44 32 45 75 46
REMARK SMILES IDX 69 47 68 48 33 50 59 51 42 52 58 53 43 54 46 55 57 56 73 57
REMARK SMILES IDX 44 58 45 59 56 61 74 62 47 63 34 64 35 65 40 66 36 67 37 68
REMARK SMILES IDX 39 69 41 70 38 71 60 72 61 73 66 74 62 75 63 76 65 77 67 78
REMARK SMILES IDX 64 79 48 80 49 81 54 82 50 83 51 84 53 85 55 86 52 87
REMARK H PARENT 17 6 2 19 22 30 72 49 46 60
REMARK Flexibility Score: inf
ROOT
ATOM      1  C   UNL A   1      31.781  30.472  26.680  1.00  0.00     0.023 C 
ENDROOT
BRANCH   1   2
ATOM      2  C   UNL A   1      32.142  29.978  25.275  1.00  0.00     0.116 C 
BRANCH   2   3
ATOM      3  N   UNL A   1      30.970  29.508  24.565  1.00  0.00    -0.352 N 
ATOM      4  C   UNL A   1      30.640  28.309  23.985  1.00  0.00     0.258 C 
ATOM      5  O   UNL A   1      29.488  28.226  23.562  1.00  0.00    -0.269 OA
ATOM      6  H   UNL A   1      30.265  30.191  24.480  1.00  0.00     0.163 HD
BRANCH   4   7
ATOM      7  C   UNL A   1      31.551  27.123  23.894  1.00  0.00     0.121 A 
ATOM      8  C   UNL A   1      33.415  24.959  23.845  1.00  0.00     0.169 A 
ATOM      9  C   UNL A   1      32.643  25.191  24.974  1.00  0.00     0.137 A 
ATOM     10  C   UNL A   1      33.176  25.720  22.706  1.00  0.00     0.162 A 
ATOM     11  C   UNL A   1      31.727  26.261  24.988  1.00  0.00     0.286 A 
ATOM     12  C   UNL A   1      32.252  26.775  22.733  1.00  0.00     0.071 A 
BRANCH   8  13
ATOM     13  O   UNL A   1      34.189  23.845  23.787  1.00  0.00    -0.477 OA
BRANCH  13  14
ATOM     14  C   UNL A   1      33.878  22.777  24.680  1.00  0.00     0.259 C 
ATOM     15  C   UNL A   1      33.003  21.809  23.864  1.00  0.00     0.064 C 
BRANCH  14  16
ATOM     16  C   UNL A   1      34.951  21.955  25.464  1.00  0.00     0.260 C 
ATOM     17  C   UNL A   1      33.892  22.328  27.750  1.00  0.00     0.142 C 
ATOM     18  N   UNL A   1      34.869  21.819  26.819  1.00  0.00    -0.356 N 
ATOM     19  H   UNL A   1      35.592  21.290  27.226  1.00  0.00     0.163 HD
ATOM     20  O   UNL A   1      35.892  21.383  24.906  1.00  0.00    -0.271 OA
ENDBRANCH  14  16
ENDBRANCH  13  14
ENDBRANCH   8  13
BRANCH  10  21
ATOM     21  O   UNL A   1      33.677  25.355  21.486  1.00  0.00    -0.493 OA
ATOM     22  C   UNL A   1      32.702  25.460  20.451  1.00  0.00     0.278 C 
ENDBRANCH  10  21
BRANCH  11  23
ATOM     23  N   UNL A   1      30.889  26.337  26.168  1.00  0.00     0.063 N 
ATOM     24  O   UNL A   1      31.243  27.138  27.045  1.00  0.00    -0.258 OA
ATOM     25  O   UNL A   1      29.998  25.483  26.272  1.00  0.00    -0.258 OA
ENDBRANCH  11  23
ENDBRANCH   4   7
ENDBRANCH   2   3
ENDBRANCH   1   2
BRANCH   1  26
ATOM     26  C   UNL A   1      31.497  31.969  26.778  1.00  0.00     0.023 C 
BRANCH  26  27
ATOM     27  C   UNL A   1      32.701  32.821  27.154  1.00  0.00     0.116 C 
BRANCH  27  28
ATOM     28  N   UNL A   1      32.352  34.155  27.615  1.00  0.00    -0.352 N 
ATOM     29  C   UNL A   1      32.988  34.911  28.572  1.00  0.00     0.251 C 
ATOM     30  H   UNL A   1      31.565  34.568  27.190  1.00  0.00     0.163 HD
ATOM     31  O   UNL A   1      32.529  35.987  28.927  1.00  0.00    -0.269 OA
BRANCH  29  32
ATOM     32  C   UNL A   1      34.211  34.374  29.202  1.00  0.00     0.039 A 
ATOM     33  C   UNL A   1      34.084  33.587  30.349  1.00  0.00     0.014 A 
ATOM     34  C   UNL A   1      35.465  34.601  28.631  1.00  0.00     0.014 A 
ATOM     35  C   UNL A   1      35.215  32.975  30.888  1.00  0.00     0.010 A 
ATOM     36  C   UNL A   1      36.576  33.927  29.120  1.00  0.00     0.010 A 
ATOM     37  C   UNL A   1      36.464  33.115  30.258  1.00  0.00    -0.014 A 
BRANCH  37  38
ATOM     38  C   UNL A   1      37.669  32.434  30.789  1.00  0.00     0.031 A 
ATOM     39  C   UNL A   1      38.331  32.949  32.036  1.00  0.00     0.074 A 
ATOM     40  C   UNL A   1      38.197  31.392  30.120  1.00  0.00     0.049 A 
ATOM     41  N   UNL A   1      39.414  32.524  32.634  1.00  0.00    -0.248 NA
ATOM     42  C   UNL A   1      37.708  34.118  32.680  1.00  0.00     0.031 C 
ATOM     43  C   UNL A   1      37.679  30.836  28.868  1.00  0.00     0.029 A 
ATOM     44  N   UNL A   1      39.292  30.615  30.399  1.00  0.00    -0.354 N 
ATOM     45  C   UNL A   1      39.609  33.378  33.711  1.00  0.00     0.074 A 
ATOM     46  C   UNL A   1      38.569  34.381  33.653  1.00  0.00     0.031 C 
ATOM     47  C   UNL A   1      38.439  29.791  28.504  1.00  0.00     0.029 A 
ATOM     48  C   UNL A   1      39.512  29.621  29.478  1.00  0.00     0.049 A 
ATOM     49  H   UNL A   1      39.867  30.758  31.185  1.00  0.00     0.167 HD
ATOM     50  C   UNL A   1      40.552  33.315  34.680  1.00  0.00     0.037 A 
ATOM     51  C   UNL A   1      40.471  28.677  29.430  1.00  0.00     0.037 A 
ATOM     52  C   UNL A   1      41.567  32.299  34.753  1.00  0.00     0.049 A 
ATOM     53  C   UNL A   1      41.495  28.616  30.529  1.00  0.00     0.074 A 
ATOM     54  C   UNL A   1      42.538  32.115  35.722  1.00  0.00     0.029 A 
ATOM     55  N   UNL A   1      41.737  31.288  33.819  1.00  0.00    -0.354 N 
ATOM     56  N   UNL A   1      41.629  29.390  31.578  1.00  0.00    -0.248 NA
ATOM     57  C   UNL A   1      42.496  27.543  30.441  1.00  0.00     0.031 C 
ATOM     58  C   UNL A   1      43.316  31.012  35.357  1.00  0.00     0.029 A 
ATOM     59  C   UNL A   1      42.804  30.483  34.183  1.00  0.00     0.049 A 
ATOM     60  H   UNL A   1      41.182  31.162  33.016  1.00  0.00     0.167 HD
ATOM     61  C   UNL A   1      42.705  28.880  32.292  1.00  0.00     0.074 A 
ATOM     62  C   UNL A   1      43.180  27.722  31.561  1.00  0.00     0.031 C 
ATOM     63  C   UNL A   1      43.252  29.327  33.450  1.00  0.00     0.037 A 
BRANCH  50  64
ATOM     64  C   UNL A   1      40.517  34.372  35.744  1.00  0.00     0.057 A 
ATOM     65  C   UNL A   1      41.216  35.579  35.607  1.00  0.00     0.134 A 
ATOM     66  C   UNL A   1      39.762  34.192  36.910  1.00  0.00     0.134 A 
ATOM     67  F   UNL A   1      41.971  35.807  34.521  1.00  0.00    -0.206 F 
ATOM     68  C   UNL A   1      41.188  36.557  36.603  1.00  0.00     0.040 A 
ATOM     69  C   UNL A   1      39.705  35.175  37.900  1.00  0.00     0.040 A 
ATOM     70  F   UNL A   1      39.067  33.061  37.104  1.00  0.00    -0.206 F 
ATOM     71  C   UNL A   1      40.425  36.358  37.751  1.00  0.00     0.006 A 
ENDBRANCH  50  64
BRANCH  51  72
ATOM     72  C   UNL A   1      40.483  27.683  28.328  1.00  0.00     0.057 A 
ATOM     73  C   UNL A   1      39.773  26.481  28.434  1.00  0.00     0.134 A 
ATOM     74  C   UNL A   1      41.210  27.900  27.152  1.00  0.00     0.134 A 
ATOM     75  F   UNL A   1      39.072  26.208  29.545  1.00  0.00    -0.206 F 
ATOM     76  C   UNL A   1      39.803  25.520  27.423  1.00  0.00     0.040 A 
ATOM     77  C   UNL A   1      41.230  26.959  26.121  1.00  0.00     0.040 A 
ATOM     78  F   UNL A   1      41.903  29.036  26.985  1.00  0.00    -0.206 F 
ATOM     79  C   UNL A   1      40.532  25.761  26.260  1.00  0.00     0.006 A 
ENDBRANCH  51  72
BRANCH  63  80
ATOM     80  C   UNL A   1      44.393  28.538  34.016  1.00  0.00     0.057 A 
ATOM     81  C   UNL A   1      44.187  27.426  34.841  1.00  0.00     0.134 A 
ATOM     82  C   UNL A   1      45.716  28.881  33.707  1.00  0.00     0.134 A 
ATOM     83  F   UNL A   1      42.945  27.055  35.185  1.00  0.00    -0.206 F 
ATOM     84  C   UNL A   1      45.258  26.697  35.361  1.00  0.00     0.040 A 
ATOM     85  C   UNL A   1      46.794  28.144  34.198  1.00  0.00     0.040 A 
ATOM     86  F   UNL A   1      45.980  29.929  32.914  1.00  0.00    -0.206 F 
ATOM     87  C   UNL A   1      46.566  27.053  35.034  1.00  0.00     0.006 A 
ENDBRANCH  63  80
ENDBRANCH  37  38
ENDBRANCH  29  32
ENDBRANCH  27  28
ENDBRANCH  26  27
ENDBRANCH   1  26
TORSDOF 16
ENDMDL
