MODEL 1
REMARK VINA RESULT:     -12.9      0.000      0.000
REMARK SMILES COc1cccc([C@@H]2[NH2+][C@@](C)(C(=O)NCCCCNC(=O)c3ccc(-c4c5nc(c(-c6c(F)cccc6F)c6ccc([nH]6)c(-c6c(F)cccc6F)c6nc(c(-c7c(F)cccc7F)c7ccc4[nH]7)C=C6)C=C5)cc3)[C@@H]3C(=O)N(C)C(=O)[C@@H]32)c1O
REMARK SMILES IDX 16 1 15 2 14 3 12 4 13 5 10 7 8 8 9 9 83 10 76 13 81 14
REMARK SMILES IDX 11 15 77 16 79 17 82 18 78 19 80 20 7 21 3 22 4 23 84 24
REMARK SMILES IDX 5 25 6 26 2 27 1 28 85 29 17 31 18 32 19 33 20 34 21 36
REMARK SMILES IDX 22 37 23 38 75 39 24 40 74 41 25 42 26 43 27 44 68 45 28 46
REMARK SMILES IDX 73 47 67 48 69 49 29 50 72 51 66 52 65 53 30 55 56 56 39 57
REMARK SMILES IDX 55 58 40 59 43 60 54 61 70 62 41 63 42 64 53 66 71 67 44 68
REMARK SMILES IDX 31 69 32 70 37 71 33 72 34 73 36 74 38 75 35 76 57 77 58 78
REMARK SMILES IDX 63 79 59 80 60 81 62 82 64 83 61 84 45 85 46 86 51 87 47 88
REMARK SMILES IDX 48 89 50 90 52 91 49 92
REMARK H PARENT 14 6 9 11 9 12 85 30 19 35 69 54 43 65
REMARK Flexibility Score: inf
ROOT
ATOM      1  C   UNL A   1      32.346  27.241  25.955  1.00  0.00     0.023 C 
ENDROOT
BRANCH   1   2
ATOM      2  C   UNL A   1      30.928  26.771  25.648  1.00  0.00     0.116 C 
BRANCH   2   3
ATOM      3  N   UNL A   1      30.511  25.678  26.509  1.00  0.00    -0.351 N 
ATOM      4  C   UNL A   1      30.613  24.327  26.323  1.00  0.00     0.281 C 
ATOM      5  O   UNL A   1      30.120  23.604  27.195  1.00  0.00    -0.268 OA
ATOM      6  H   UNL A   1      30.090  25.951  27.356  1.00  0.00     0.163 HD
BRANCH   4   7
ATOM      7  C   UNL A   1      31.339  23.736  25.073  1.00  0.00     0.185 C 
ATOM      8  C   UNL A   1      32.005  21.500  25.660  1.00  0.00     0.232 C 
ATOM      9  N   UNL A   1      30.972  22.301  24.963  1.00  0.00    -0.326 N 
ATOM     10  C   UNL A   1      33.164  22.439  26.012  1.00  0.00     0.161 C 
ATOM     11  H   UNL A   1      30.062  22.143  25.396  1.00  0.00     0.347 HD
ATOM     12  H   UNL A   1      30.918  22.027  23.982  1.00  0.00     0.347 HD
ATOM     13  C   UNL A   1      32.853  23.749  25.303  1.00  0.00     0.169 C 
ATOM     14  C   UNL A   1      34.511  22.057  25.467  1.00  0.00     0.239 C 
ATOM     15  C   UNL A   1      30.916  24.541  23.836  1.00  0.00     0.091 C 
ATOM     16  C   UNL A   1      33.768  23.718  24.101  1.00  0.00     0.240 C 
ATOM     17  N   UNL A   1      34.728  22.771  24.322  1.00  0.00    -0.285 N 
ATOM     18  O   UNL A   1      35.260  21.236  25.967  1.00  0.00    -0.274 OA
ATOM     19  O   UNL A   1      33.721  24.484  23.149  1.00  0.00    -0.274 OA
ATOM     20  C   UNL A   1      35.864  22.554  23.462  1.00  0.00     0.156 C 
BRANCH   8  21
ATOM     21  C   UNL A   1      32.358  20.232  24.896  1.00  0.00     0.056 A 
ATOM     22  C   UNL A   1      33.000  17.866  24.799  1.00  0.00     0.161 A 
ATOM     23  C   UNL A   1      32.908  17.899  23.409  1.00  0.00     0.050 A 
ATOM     24  C   UNL A   1      32.770  19.041  25.524  1.00  0.00     0.166 A 
ATOM     25  C   UNL A   1      32.544  19.078  22.758  1.00  0.00     0.005 A 
ATOM     26  C   UNL A   1      32.256  20.229  23.495  1.00  0.00     0.014 A 
BRANCH  22  27
ATOM     27  O   UNL A   1      33.408  16.683  25.353  1.00  0.00    -0.493 OA
ATOM     28  C   UNL A   1      34.714  16.243  24.975  1.00  0.00     0.278 C 
ENDBRANCH  22  27
BRANCH  24  29
ATOM     29  O   UNL A   1      33.018  19.071  26.874  1.00  0.00    -0.504 OA
ATOM     30  H   UNL A   1      32.351  19.356  27.466  1.00  0.00     0.293 HD
ENDBRANCH  24  29
ENDBRANCH   8  21
ENDBRANCH   4   7
ENDBRANCH   2   3
ENDBRANCH   1   2
BRANCH   1  31
ATOM     31  C   UNL A   1      32.445  28.287  27.064  1.00  0.00     0.023 C 
BRANCH  31  32
ATOM     32  C   UNL A   1      33.851  28.805  27.341  1.00  0.00     0.116 C 
BRANCH  32  33
ATOM     33  N   UNL A   1      33.863  30.146  27.908  1.00  0.00    -0.352 N 
ATOM     34  C   UNL A   1      34.875  30.794  28.575  1.00  0.00     0.251 C 
ATOM     35  H   UNL A   1      33.030  30.659  27.799  1.00  0.00     0.163 HD
ATOM     36  O   UNL A   1      34.673  31.879  29.112  1.00  0.00    -0.269 OA
BRANCH  34  37
ATOM     37  C   UNL A   1      36.203  30.156  28.671  1.00  0.00     0.039 A 
ATOM     38  C   UNL A   1      37.067  30.219  27.576  1.00  0.00     0.014 A 
ATOM     39  C   UNL A   1      36.607  29.535  29.855  1.00  0.00     0.014 A 
ATOM     40  C   UNL A   1      38.369  29.731  27.696  1.00  0.00     0.010 A 
ATOM     41  C   UNL A   1      37.928  29.127  30.001  1.00  0.00     0.010 A 
ATOM     42  C   UNL A   1      38.824  29.222  28.924  1.00  0.00    -0.014 A 
BRANCH  42  43
ATOM     43  C   UNL A   1      40.231  28.784  29.111  1.00  0.00     0.031 A 
ATOM     44  C   UNL A   1      41.244  29.738  29.681  1.00  0.00     0.074 A 
ATOM     45  C   UNL A   1      40.615  27.561  28.694  1.00  0.00     0.049 A 
ATOM     46  N   UNL A   1      42.536  29.584  29.828  1.00  0.00    -0.248 NA
ATOM     47  C   UNL A   1      40.744  31.052  30.117  1.00  0.00     0.031 C 
ATOM     48  C   UNL A   1      39.738  26.558  28.089  1.00  0.00     0.029 A 
ATOM     49  N   UNL A   1      41.849  26.960  28.703  1.00  0.00    -0.354 N 
ATOM     50  C   UNL A   1      43.001  30.783  30.352  1.00  0.00     0.074 A 
ATOM     51  C   UNL A   1      41.865  31.673  30.449  1.00  0.00     0.031 C 
ATOM     52  C   UNL A   1      40.456  25.458  27.808  1.00  0.00     0.029 A 
ATOM     53  C   UNL A   1      41.851  25.695  28.168  1.00  0.00     0.049 A 
ATOM     54  H   UNL A   1      42.657  27.394  29.061  1.00  0.00     0.167 HD
ATOM     55  C   UNL A   1      44.257  31.105  30.740  1.00  0.00     0.037 A 
ATOM     56  C   UNL A   1      42.864  24.828  27.975  1.00  0.00     0.037 A 
ATOM     57  C   UNL A   1      45.381  30.209  30.666  1.00  0.00     0.049 A 
ATOM     58  C   UNL A   1      44.256  25.221  28.390  1.00  0.00     0.074 A 
ATOM     59  C   UNL A   1      46.680  30.421  31.091  1.00  0.00     0.029 A 
ATOM     60  N   UNL A   1      45.339  28.932  30.125  1.00  0.00    -0.354 N 
ATOM     61  N   UNL A   1      44.670  26.332  28.949  1.00  0.00    -0.248 NA
ATOM     62  C   UNL A   1      45.322  24.238  28.151  1.00  0.00     0.031 C 
ATOM     63  C   UNL A   1      47.438  29.294  30.757  1.00  0.00     0.029 A 
ATOM     64  C   UNL A   1      46.597  28.356  30.180  1.00  0.00     0.049 A 
ATOM     65  H   UNL A   1      44.534  28.500  29.756  1.00  0.00     0.167 HD
ATOM     66  C   UNL A   1      46.033  26.168  29.161  1.00  0.00     0.074 A 
ATOM     67  C   UNL A   1      46.375  24.846  28.677  1.00  0.00     0.031 C 
ATOM     68  C   UNL A   1      46.920  27.032  29.711  1.00  0.00     0.037 A 
BRANCH  55  69
ATOM     69  C   UNL A   1      44.486  32.490  31.275  1.00  0.00     0.057 A 
ATOM     70  C   UNL A   1      44.359  32.789  32.638  1.00  0.00     0.134 A 
ATOM     71  C   UNL A   1      44.870  33.531  30.420  1.00  0.00     0.134 A 
ATOM     72  F   UNL A   1      43.984  31.840  33.510  1.00  0.00    -0.206 F 
ATOM     73  C   UNL A   1      44.579  34.078  33.127  1.00  0.00     0.040 A 
ATOM     74  C   UNL A   1      45.123  34.817  30.902  1.00  0.00     0.040 A 
ATOM     75  F   UNL A   1      45.016  33.314  29.104  1.00  0.00    -0.206 F 
ATOM     76  C   UNL A   1      44.970  35.094  32.259  1.00  0.00     0.006 A 
ENDBRANCH  55  69
BRANCH  56  77
ATOM     77  C   UNL A   1      42.603  23.493  27.377  1.00  0.00     0.057 A 
ATOM     78  C   UNL A   1      42.259  22.399  28.181  1.00  0.00     0.134 A 
ATOM     79  C   UNL A   1      42.706  23.272  25.998  1.00  0.00     0.134 A 
ATOM     80  F   UNL A   1      42.163  22.542  29.511  1.00  0.00    -0.206 F 
ATOM     81  C   UNL A   1      42.049  21.130  27.638  1.00  0.00     0.040 A 
ATOM     82  C   UNL A   1      42.472  22.014  25.440  1.00  0.00     0.040 A 
ATOM     83  F   UNL A   1      43.025  24.279  25.173  1.00  0.00    -0.206 F 
ATOM     84  C   UNL A   1      42.151  20.936  26.263  1.00  0.00     0.006 A 
ENDBRANCH  56  77
BRANCH  68  85
ATOM     85  C   UNL A   1      48.337  26.564  29.871  1.00  0.00     0.057 A 
ATOM     86  C   UNL A   1      49.328  26.852  28.924  1.00  0.00     0.134 A 
ATOM     87  C   UNL A   1      48.726  25.863  31.020  1.00  0.00     0.134 A 
ATOM     88  F   UNL A   1      49.020  27.509  27.795  1.00  0.00    -0.206 F 
ATOM     89  C   UNL A   1      50.651  26.444  29.107  1.00  0.00     0.040 A 
ATOM     90  C   UNL A   1      50.050  25.476  31.228  1.00  0.00     0.040 A 
ATOM     91  F   UNL A   1      47.828  25.562  31.971  1.00  0.00    -0.206 F 
ATOM     92  C   UNL A   1      51.016  25.763  30.266  1.00  0.00     0.006 A 
ENDBRANCH  68  85
ENDBRANCH  42  43
ENDBRANCH  34  37
ENDBRANCH  32  33
ENDBRANCH  31  32
ENDBRANCH   1  31
TORSDOF 14
ENDMDL
MODEL 2
REMARK VINA RESULT:     -12.7      3.326      8.740
REMARK SMILES COc1cccc([C@@H]2[NH2+][C@@](C)(C(=O)NCCCCNC(=O)c3ccc(-c4c5nc(c(-c6c(F)cccc6F)c6ccc([nH]6)c(-c6c(F)cccc6F)c6nc(c(-c7c(F)cccc7F)c7ccc4[nH]7)C=C6)C=C5)cc3)[C@@H]3C(=O)N(C)C(=O)[C@@H]32)c1O
REMARK SMILES IDX 16 1 15 2 14 3 12 4 13 5 10 7 8 8 9 9 83 10 76 13 81 14
REMARK SMILES IDX 11 15 77 16 79 17 82 18 78 19 80 20 7 21 3 22 4 23 84 24
REMARK SMILES IDX 5 25 6 26 2 27 1 28 85 29 17 31 18 32 19 33 20 34 21 36
REMARK SMILES IDX 22 37 23 38 75 39 24 40 74 41 25 42 26 43 27 44 68 45 28 46
REMARK SMILES IDX 73 47 67 48 69 49 29 50 72 51 66 52 65 53 30 55 56 56 39 57
REMARK SMILES IDX 55 58 40 59 43 60 54 61 70 62 41 63 42 64 53 66 71 67 44 68
REMARK SMILES IDX 31 69 32 70 37 71 33 72 34 73 36 74 38 75 35 76 57 77 58 78
REMARK SMILES IDX 63 79 59 80 60 81 62 82 64 83 61 84 45 85 46 86 51 87 47 88
REMARK SMILES IDX 48 89 50 90 52 91 49 92
REMARK H PARENT 14 6 9 11 9 12 85 30 19 35 69 54 43 65
REMARK Flexibility Score: inf
ROOT
ATOM      1  C   UNL A   1      35.561  22.199  24.159  1.00  0.00     0.023 C 
ENDROOT
BRANCH   1   2
ATOM      2  C   UNL A   1      34.141  22.694  23.911  1.00  0.00     0.116 C 
BRANCH   2   3
ATOM      3  N   UNL A   1      34.011  23.378  22.635  1.00  0.00    -0.351 N 
ATOM      4  C   UNL A   1      33.083  24.293  22.221  1.00  0.00     0.281 C 
ATOM      5  O   UNL A   1      33.164  24.681  21.052  1.00  0.00    -0.268 OA
ATOM      6  H   UNL A   1      34.695  23.146  21.966  1.00  0.00     0.163 HD
BRANCH   4   7
ATOM      7  C   UNL A   1      31.988  24.832  23.196  1.00  0.00     0.185 C 
ATOM      8  C   UNL A   1      31.457  27.061  22.467  1.00  0.00     0.232 C 
ATOM      9  N   UNL A   1      31.028  25.644  22.407  1.00  0.00    -0.326 N 
ATOM     10  C   UNL A   1      32.576  27.166  23.508  1.00  0.00     0.161 C 
ATOM     11  H   UNL A   1      31.021  25.326  21.438  1.00  0.00     0.347 HD
ATOM     12  H   UNL A   1      30.088  25.545  22.790  1.00  0.00     0.347 HD
ATOM     13  C   UNL A   1      32.621  25.807  24.192  1.00  0.00     0.169 C 
ATOM     14  C   UNL A   1      32.334  28.121  24.642  1.00  0.00     0.239 C 
ATOM     15  C   UNL A   1      31.312  23.634  23.881  1.00  0.00     0.091 C 
ATOM     16  C   UNL A   1      31.918  26.058  25.506  1.00  0.00     0.240 C 
ATOM     17  N   UNL A   1      31.870  27.408  25.711  1.00  0.00    -0.285 N 
ATOM     18  O   UNL A   1      32.513  29.325  24.591  1.00  0.00    -0.274 OA
ATOM     19  O   UNL A   1      31.558  25.198  26.297  1.00  0.00    -0.274 OA
ATOM     20  C   UNL A   1      31.404  28.025  26.928  1.00  0.00     0.156 C 
BRANCH   8  21
ATOM     21  C   UNL A   1      30.277  28.009  22.630  1.00  0.00     0.056 A 
ATOM     22  C   UNL A   1      29.138  30.143  22.225  1.00  0.00     0.161 A 
ATOM     23  C   UNL A   1      28.014  29.671  22.899  1.00  0.00     0.050 A 
ATOM     24  C   UNL A   1      30.272  29.328  22.137  1.00  0.00     0.166 A 
ATOM     25  C   UNL A   1      28.008  28.384  23.436  1.00  0.00     0.005 A 
ATOM     26  C   UNL A   1      29.123  27.555  23.289  1.00  0.00     0.014 A 
BRANCH  22  27
ATOM     27  O   UNL A   1      29.076  31.433  21.770  1.00  0.00    -0.493 OA
ATOM     28  C   UNL A   1      28.400  32.356  22.626  1.00  0.00     0.278 C 
ENDBRANCH  22  27
BRANCH  24  29
ATOM     29  O   UNL A   1      31.440  29.834  21.626  1.00  0.00    -0.504 OA
ATOM     30  H   UNL A   1      32.214  29.306  21.613  1.00  0.00     0.293 HD
ENDBRANCH  24  29
ENDBRANCH   8  21
ENDBRANCH   4   7
ENDBRANCH   2   3
ENDBRANCH   1   2
BRANCH   1  31
ATOM     31  C   UNL A   1      36.625  23.295  24.173  1.00  0.00     0.023 C 
BRANCH  31  32
ATOM     32  C   UNL A   1      37.304  23.521  25.519  1.00  0.00     0.116 C 
BRANCH  32  33
ATOM     33  N   UNL A   1      38.528  22.749  25.676  1.00  0.00    -0.352 N 
ATOM     34  C   UNL A   1      39.717  23.121  26.259  1.00  0.00     0.251 C 
ATOM     35  H   UNL A   1      38.501  21.834  25.314  1.00  0.00     0.163 HD
ATOM     36  O   UNL A   1      40.701  22.392  26.186  1.00  0.00    -0.269 OA
BRANCH  34  37
ATOM     37  C   UNL A   1      39.809  24.424  26.946  1.00  0.00     0.039 A 
ATOM     38  C   UNL A   1      39.278  24.554  28.231  1.00  0.00     0.014 A 
ATOM     39  C   UNL A   1      40.456  25.502  26.337  1.00  0.00     0.014 A 
ATOM     40  C   UNL A   1      39.470  25.741  28.940  1.00  0.00     0.010 A 
ATOM     41  C   UNL A   1      40.719  26.651  27.073  1.00  0.00     0.010 A 
ATOM     42  C   UNL A   1      40.230  26.783  28.383  1.00  0.00    -0.014 A 
BRANCH  42  43
ATOM     43  C   UNL A   1      40.532  28.020  29.149  1.00  0.00     0.031 A 
ATOM     44  C   UNL A   1      41.839  28.148  29.882  1.00  0.00     0.074 A 
ATOM     45  C   UNL A   1      39.602  28.990  29.252  1.00  0.00     0.049 A 
ATOM     46  N   UNL A   1      42.248  29.098  30.685  1.00  0.00    -0.248 NA
ATOM     47  C   UNL A   1      42.802  27.048  29.714  1.00  0.00     0.031 C 
ATOM     48  C   UNL A   1      38.282  28.969  28.620  1.00  0.00     0.029 A 
ATOM     49  N   UNL A   1      39.622  30.179  29.938  1.00  0.00    -0.354 N 
ATOM     50  C   UNL A   1      43.502  28.699  31.130  1.00  0.00     0.074 A 
ATOM     51  C   UNL A   1      43.765  27.400  30.552  1.00  0.00     0.031 C 
ATOM     52  C   UNL A   1      37.628  30.101  28.930  1.00  0.00     0.029 A 
ATOM     53  C   UNL A   1      38.462  30.905  29.817  1.00  0.00     0.049 A 
ATOM     54  H   UNL A   1      40.395  30.482  30.467  1.00  0.00     0.167 HD
ATOM     55  C   UNL A   1      44.366  29.367  31.931  1.00  0.00     0.037 A 
ATOM     56  C   UNL A   1      38.105  32.081  30.370  1.00  0.00     0.037 A 
ATOM     57  C   UNL A   1      44.111  30.671  32.484  1.00  0.00     0.049 A 
ATOM     58  C   UNL A   1      39.074  32.790  31.278  1.00  0.00     0.074 A 
ATOM     59  C   UNL A   1      44.950  31.457  33.255  1.00  0.00     0.029 A 
ATOM     60  N   UNL A   1      42.928  31.378  32.330  1.00  0.00    -0.354 N 
ATOM     61  N   UNL A   1      40.284  32.435  31.635  1.00  0.00    -0.248 NA
ATOM     62  C   UNL A   1      38.628  34.066  31.857  1.00  0.00     0.031 C 
ATOM     63  C   UNL A   1      44.253  32.614  33.615  1.00  0.00     0.029 A 
ATOM     64  C   UNL A   1      43.004  32.578  33.017  1.00  0.00     0.049 A 
ATOM     65  H   UNL A   1      42.150  31.071  31.811  1.00  0.00     0.167 HD
ATOM     66  C   UNL A   1      40.757  33.458  32.449  1.00  0.00     0.074 A 
ATOM     67  C   UNL A   1      39.705  34.450  32.526  1.00  0.00     0.031 C 
ATOM     68  C   UNL A   1      41.956  33.566  33.071  1.00  0.00     0.037 A 
BRANCH  55  69
ATOM     69  C   UNL A   1      45.668  28.695  32.261  1.00  0.00     0.057 A 
ATOM     70  C   UNL A   1      46.813  28.868  31.472  1.00  0.00     0.134 A 
ATOM     71  C   UNL A   1      45.787  27.892  33.402  1.00  0.00     0.134 A 
ATOM     72  F   UNL A   1      46.766  29.616  30.359  1.00  0.00    -0.206 F 
ATOM     73  C   UNL A   1      48.021  28.243  31.790  1.00  0.00     0.040 A 
ATOM     74  C   UNL A   1      46.997  27.287  33.748  1.00  0.00     0.040 A 
ATOM     75  F   UNL A   1      44.732  27.688  34.206  1.00  0.00    -0.206 F 
ATOM     76  C   UNL A   1      48.117  27.457  32.936  1.00  0.00     0.006 A 
ENDBRANCH  55  69
BRANCH  56  77
ATOM     77  C   UNL A   1      36.778  32.676  30.071  1.00  0.00     0.057 A 
ATOM     78  C   UNL A   1      36.614  33.573  29.008  1.00  0.00     0.134 A 
ATOM     79  C   UNL A   1      35.648  32.380  30.842  1.00  0.00     0.134 A 
ATOM     80  F   UNL A   1      37.663  33.911  28.243  1.00  0.00    -0.206 F 
ATOM     81  C   UNL A   1      35.382  34.171  28.737  1.00  0.00     0.040 A 
ATOM     82  C   UNL A   1      34.404  32.950  30.566  1.00  0.00     0.040 A 
ATOM     83  F   UNL A   1      35.735  31.524  31.871  1.00  0.00    -0.206 F 
ATOM     84  C   UNL A   1      34.271  33.856  29.515  1.00  0.00     0.006 A 
ENDBRANCH  56  77
BRANCH  68  85
ATOM     85  C   UNL A   1      42.223  34.821  33.849  1.00  0.00     0.057 A 
ATOM     86  C   UNL A   1      42.819  35.947  33.267  1.00  0.00     0.134 A 
ATOM     87  C   UNL A   1      41.825  34.921  35.189  1.00  0.00     0.134 A 
ATOM     88  F   UNL A   1      43.236  35.913  31.992  1.00  0.00    -0.206 F 
ATOM     89  C   UNL A   1      43.025  37.121  33.995  1.00  0.00     0.040 A 
ATOM     90  C   UNL A   1      41.998  36.098  35.918  1.00  0.00     0.040 A 
ATOM     91  F   UNL A   1      41.240  33.883  35.806  1.00  0.00    -0.206 F 
ATOM     92  C   UNL A   1      42.604  37.202  35.321  1.00  0.00     0.006 A 
ENDBRANCH  68  85
ENDBRANCH  42  43
ENDBRANCH  34  37
ENDBRANCH  32  33
ENDBRANCH  31  32
ENDBRANCH   1  31
TORSDOF 14
ENDMDL
MODEL 3
REMARK VINA RESULT:     -12.6      4.562      9.407
REMARK SMILES COc1cccc([C@@H]2[NH2+][C@@](C)(C(=O)NCCCCNC(=O)c3ccc(-c4c5nc(c(-c6c(F)cccc6F)c6ccc([nH]6)c(-c6c(F)cccc6F)c6nc(c(-c7c(F)cccc7F)c7ccc4[nH]7)C=C6)C=C5)cc3)[C@@H]3C(=O)N(C)C(=O)[C@@H]32)c1O
REMARK SMILES IDX 16 1 15 2 14 3 12 4 13 5 10 7 8 8 9 9 83 10 76 13 81 14
REMARK SMILES IDX 11 15 77 16 79 17 82 18 78 19 80 20 7 21 3 22 4 23 84 24
REMARK SMILES IDX 5 25 6 26 2 27 1 28 85 29 17 31 18 32 19 33 20 34 21 36
REMARK SMILES IDX 22 37 23 38 75 39 24 40 74 41 25 42 26 43 27 44 68 45 28 46
REMARK SMILES IDX 73 47 67 48 69 49 29 50 72 51 66 52 65 53 30 55 56 56 39 57
REMARK SMILES IDX 55 58 40 59 43 60 54 61 70 62 41 63 42 64 53 66 71 67 44 68
REMARK SMILES IDX 31 69 32 70 37 71 33 72 34 73 36 74 38 75 35 76 57 77 58 78
REMARK SMILES IDX 63 79 59 80 60 81 62 82 64 83 61 84 45 85 46 86 51 87 47 88
REMARK SMILES IDX 48 89 50 90 52 91 49 92
REMARK H PARENT 14 6 9 11 9 12 85 30 19 35 69 54 43 65
REMARK Flexibility Score: inf
ROOT
ATOM      1  C   UNL A   1      35.577  24.068  25.245  1.00  0.00     0.023 C 
ENDROOT
BRANCH   1   2
ATOM      2  C   UNL A   1      34.614  23.158  24.492  1.00  0.00     0.116 C 
BRANCH   2   3
ATOM      3  N   UNL A   1      34.374  23.613  23.134  1.00  0.00    -0.351 N 
ATOM      4  C   UNL A   1      33.327  24.329  22.621  1.00  0.00     0.281 C 
ATOM      5  O   UNL A   1      33.336  24.537  21.404  1.00  0.00    -0.268 OA
ATOM      6  H   UNL A   1      35.070  23.368  22.482  1.00  0.00     0.163 HD
BRANCH   4   7
ATOM      7  C   UNL A   1      32.189  24.869  23.544  1.00  0.00     0.185 C 
ATOM      8  C   UNL A   1      31.566  27.024  22.674  1.00  0.00     0.232 C 
ATOM      9  N   UNL A   1      31.207  25.587  22.691  1.00  0.00    -0.326 N 
ATOM     10  C   UNL A   1      32.658  27.244  23.726  1.00  0.00     0.161 C 
ATOM     11  H   UNL A   1      31.234  25.212  21.743  1.00  0.00     0.347 HD
ATOM     12  H   UNL A   1      30.265  25.465  23.063  1.00  0.00     0.347 HD
ATOM     13  C   UNL A   1      32.754  25.931  24.490  1.00  0.00     0.169 C 
ATOM     14  C   UNL A   1      32.349  28.250  24.797  1.00  0.00     0.239 C 
ATOM     15  C   UNL A   1      31.557  23.682  24.286  1.00  0.00     0.091 C 
ATOM     16  C   UNL A   1      32.014  26.224  25.775  1.00  0.00     0.240 C 
ATOM     17  N   UNL A   1      31.898  27.579  25.898  1.00  0.00    -0.285 N 
ATOM     18  O   UNL A   1      32.471  29.457  24.678  1.00  0.00    -0.274 OA
ATOM     19  O   UNL A   1      31.680  25.395  26.609  1.00  0.00    -0.274 OA
ATOM     20  C   UNL A   1      31.379  28.243  27.068  1.00  0.00     0.156 C 
BRANCH   8  21
ATOM     21  C   UNL A   1      30.340  27.921  22.761  1.00  0.00     0.056 A 
ATOM     22  C   UNL A   1      29.121  29.984  22.235  1.00  0.00     0.161 A 
ATOM     23  C   UNL A   1      27.996  29.485  22.887  1.00  0.00     0.050 A 
ATOM     24  C   UNL A   1      30.293  29.220  22.217  1.00  0.00     0.166 A 
ATOM     25  C   UNL A   1      28.028  28.219  23.472  1.00  0.00     0.005 A 
ATOM     26  C   UNL A   1      29.184  27.438  23.395  1.00  0.00     0.014 A 
BRANCH  22  27
ATOM     27  O   UNL A   1      29.018  31.253  21.731  1.00  0.00    -0.493 OA
ATOM     28  C   UNL A   1      28.823  32.287  22.697  1.00  0.00     0.278 C 
ENDBRANCH  22  27
BRANCH  24  29
ATOM     29  O   UNL A   1      31.455  29.761  21.729  1.00  0.00    -0.504 OA
ATOM     30  H   UNL A   1      31.590  30.687  21.761  1.00  0.00     0.293 HD
ENDBRANCH  24  29
ENDBRANCH   8  21
ENDBRANCH   4   7
ENDBRANCH   2   3
ENDBRANCH   1   2
BRANCH   1  31
ATOM     31  C   UNL A   1      37.051  23.688  25.111  1.00  0.00     0.023 C 
BRANCH  31  32
ATOM     32  C   UNL A   1      37.927  24.061  26.301  1.00  0.00     0.116 C 
BRANCH  32  33
ATOM     33  N   UNL A   1      39.348  23.888  26.040  1.00  0.00    -0.352 N 
ATOM     34  C   UNL A   1      40.408  24.638  26.489  1.00  0.00     0.251 C 
ATOM     35  H   UNL A   1      39.582  23.127  25.461  1.00  0.00     0.163 HD
ATOM     36  O   UNL A   1      41.540  24.436  26.062  1.00  0.00    -0.269 OA
BRANCH  34  37
ATOM     37  C   UNL A   1      40.167  25.717  27.468  1.00  0.00     0.039 A 
ATOM     38  C   UNL A   1      39.325  25.473  28.554  1.00  0.00     0.014 A 
ATOM     39  C   UNL A   1      40.808  26.952  27.335  1.00  0.00     0.014 A 
ATOM     40  C   UNL A   1      39.188  26.439  29.552  1.00  0.00     0.010 A 
ATOM     41  C   UNL A   1      40.738  27.878  28.369  1.00  0.00     0.010 A 
ATOM     42  C   UNL A   1      39.929  27.631  29.490  1.00  0.00    -0.014 A 
BRANCH  42  43
ATOM     43  C   UNL A   1      39.878  28.637  30.582  1.00  0.00     0.031 A 
ATOM     44  C   UNL A   1      38.900  29.777  30.507  1.00  0.00     0.074 A 
ATOM     45  C   UNL A   1      40.762  28.572  31.597  1.00  0.00     0.049 A 
ATOM     46  N   UNL A   1      38.768  30.808  31.302  1.00  0.00    -0.248 NA
ATOM     47  C   UNL A   1      37.965  29.772  29.370  1.00  0.00     0.031 C 
ATOM     48  C   UNL A   1      41.786  27.538  31.765  1.00  0.00     0.029 A 
ATOM     49  N   UNL A   1      40.950  29.402  32.674  1.00  0.00    -0.354 N 
ATOM     50  C   UNL A   1      37.754  31.581  30.751  1.00  0.00     0.074 A 
ATOM     51  C   UNL A   1      37.341  30.929  29.528  1.00  0.00     0.031 C 
ATOM     52  C   UNL A   1      42.477  27.783  32.890  1.00  0.00     0.029 A 
ATOM     53  C   UNL A   1      41.979  29.013  33.497  1.00  0.00     0.049 A 
ATOM     54  H   UNL A   1      40.399  30.200  32.842  1.00  0.00     0.167 HD
ATOM     55  C   UNL A   1      37.201  32.719  31.234  1.00  0.00     0.037 A 
ATOM     56  C   UNL A   1      42.475  29.591  34.609  1.00  0.00     0.037 A 
ATOM     57  C   UNL A   1      37.598  33.351  32.464  1.00  0.00     0.049 A 
ATOM     58  C   UNL A   1      41.860  30.870  35.110  1.00  0.00     0.074 A 
ATOM     59  C   UNL A   1      37.057  34.471  33.069  1.00  0.00     0.029 A 
ATOM     60  N   UNL A   1      38.639  32.921  33.274  1.00  0.00    -0.354 N 
ATOM     61  N   UNL A   1      40.856  31.553  34.617  1.00  0.00    -0.248 NA
ATOM     62  C   UNL A   1      42.446  31.457  36.323  1.00  0.00     0.031 C 
ATOM     63  C   UNL A   1      37.806  34.752  34.216  1.00  0.00     0.029 A 
ATOM     64  C   UNL A   1      38.774  33.772  34.359  1.00  0.00     0.049 A 
ATOM     65  H   UNL A   1      39.199  32.129  33.102  1.00  0.00     0.167 HD
ATOM     66  C   UNL A   1      40.666  32.627  35.478  1.00  0.00     0.074 A 
ATOM     67  C   UNL A   1      41.655  32.500  36.528  1.00  0.00     0.031 C 
ATOM     68  C   UNL A   1      39.751  33.624  35.407  1.00  0.00     0.037 A 
BRANCH  55  69
ATOM     69  C   UNL A   1      36.109  33.358  30.424  1.00  0.00     0.057 A 
ATOM     70  C   UNL A   1      36.386  34.170  29.317  1.00  0.00     0.134 A 
ATOM     71  C   UNL A   1      34.763  33.131  30.737  1.00  0.00     0.134 A 
ATOM     72  F   UNL A   1      37.654  34.438  28.968  1.00  0.00    -0.206 F 
ATOM     73  C   UNL A   1      35.364  34.756  28.566  1.00  0.00     0.040 A 
ATOM     74  C   UNL A   1      33.732  33.685  29.976  1.00  0.00     0.040 A 
ATOM     75  F   UNL A   1      34.426  32.358  31.781  1.00  0.00    -0.206 F 
ATOM     76  C   UNL A   1      34.032  34.507  28.891  1.00  0.00     0.006 A 
ENDBRANCH  55  69
BRANCH  56  77
ATOM     77  C   UNL A   1      43.604  28.959  35.340  1.00  0.00     0.057 A 
ATOM     78  C   UNL A   1      43.373  27.980  36.314  1.00  0.00     0.134 A 
ATOM     79  C   UNL A   1      44.934  29.326  35.099  1.00  0.00     0.134 A 
ATOM     80  F   UNL A   1      42.120  27.600  36.604  1.00  0.00    -0.206 F 
ATOM     81  C   UNL A   1      44.420  27.405  37.037  1.00  0.00     0.040 A 
ATOM     82  C   UNL A   1      45.991  28.740  35.795  1.00  0.00     0.040 A 
ATOM     83  F   UNL A   1      45.224  30.253  34.174  1.00  0.00    -0.206 F 
ATOM     84  C   UNL A   1      45.735  27.782  36.775  1.00  0.00     0.006 A 
ENDBRANCH  56  77
BRANCH  68  85
ATOM     85  C   UNL A   1      39.737  34.633  36.518  1.00  0.00     0.057 A 
ATOM     86  C   UNL A   1      39.019  34.427  37.702  1.00  0.00     0.134 A 
ATOM     87  C   UNL A   1      40.501  35.804  36.421  1.00  0.00     0.134 A 
ATOM     88  F   UNL A   1      38.257  33.333  37.854  1.00  0.00    -0.206 F 
ATOM     89  C   UNL A   1      39.048  35.358  38.743  1.00  0.00     0.040 A 
ATOM     90  C   UNL A   1      40.562  36.726  37.466  1.00  0.00     0.040 A 
ATOM     91  F   UNL A   1      41.220  36.059  35.317  1.00  0.00    -0.206 F 
ATOM     92  C   UNL A   1      39.829  36.506  38.630  1.00  0.00     0.006 A 
ENDBRANCH  68  85
ENDBRANCH  42  43
ENDBRANCH  34  37
ENDBRANCH  32  33
ENDBRANCH  31  32
ENDBRANCH   1  31
TORSDOF 14
ENDMDL
