MODEL 1
REMARK VINA RESULT:     -11.9      0.000      0.000
REMARK SMILES CC[C@@H](C(=O)NCCCCNC(=O)c1ccc(-c2c3nc(c(-c4c(F)cccc4F)c4ccc([nH]4)c(-c4c(F)cccc4F)c4nc(c(-c5c(F)cccc5F)c5ccc2[nH]5)C=C4)C=C3)cc1)N1C(=O)/C(=C\c2ccc(C(=O)OC)cc2)SC1=S
REMARK SMILES IDX 7 1 6 2 4 3 5 4 3 6 2 7 1 8 68 9 69 10 84 11 70 12 71 13
REMARK SMILES IDX 83 14 85 15 72 16 73 17 74 18 82 19 75 20 81 21 76 22 77 23
REMARK SMILES IDX 78 24 79 25 80 26 8 27 9 28 10 29 11 30 12 31 13 33 14 34
REMARK SMILES IDX 15 35 67 36 16 37 66 38 17 39 18 40 19 41 60 42 20 43 65 44
REMARK SMILES IDX 59 45 61 46 21 47 64 48 58 49 57 50 22 52 48 53 31 54 47 55
REMARK SMILES IDX 32 56 35 57 46 58 62 59 33 60 34 61 45 63 63 64 36 65 23 66
REMARK SMILES IDX 24 67 29 68 25 69 26 70 28 71 30 72 27 73 49 74 50 75 55 76
REMARK SMILES IDX 51 77 52 78 54 79 56 80 53 81 37 82 38 83 43 84 39 85 40 86
REMARK SMILES IDX 42 87 44 88 41 89
REMARK H PARENT 6 5 11 32 61 51 35 62
REMARK Flexibility Score: inf
ROOT
ATOM      1  C   UNL A   1      35.623  20.151  24.972  1.00  0.00     0.116 C 
ENDROOT
BRANCH   1   2
ATOM      2  N   UNL A   1      34.892  20.784  26.053  1.00  0.00    -0.354 N 
ATOM      3  C   UNL A   1      34.483  22.077  26.221  1.00  0.00     0.243 C 
ATOM      4  O   UNL A   1      33.986  22.366  27.315  1.00  0.00    -0.273 OA
ATOM      5  H   UNL A   1      34.647  20.179  26.790  1.00  0.00     0.163 HD
BRANCH   3   6
ATOM      6  C   UNL A   1      34.604  23.124  25.082  1.00  0.00     0.181 C 
BRANCH   6   7
ATOM      7  C   UNL A   1      35.553  24.297  25.383  1.00  0.00     0.032 C 
ATOM      8  C   UNL A   1      36.951  23.999  25.892  1.00  0.00     0.006 C 
ENDBRANCH   6   7
BRANCH   6   9
ATOM      9  N   UNL A   1      33.193  23.558  24.773  1.00  0.00    -0.280 N 
ATOM     10  C   UNL A   1      32.757  24.722  25.405  1.00  0.00     0.266 C 
ATOM     11  C   UNL A   1      32.313  23.043  23.835  1.00  0.00     0.149 C 
ATOM     12  O   UNL A   1      33.393  25.346  26.244  1.00  0.00    -0.268 OA
ATOM     13  C   UNL A   1      31.402  25.118  24.911  1.00  0.00     0.081 C 
ATOM     14  S   UNL A   1      30.741  23.830  23.993  1.00  0.00    -0.054 SA
ATOM     15  S   UNL A   1      32.489  21.861  22.671  1.00  0.00    -0.052 S 
ATOM     16  C   UNL A   1      30.769  26.293  25.024  1.00  0.00     0.029 C 
BRANCH  16  17
ATOM     17  C   UNL A   1      31.359  27.505  25.583  1.00  0.00    -0.024 A 
ATOM     18  C   UNL A   1      32.009  28.424  24.758  1.00  0.00     0.009 A 
ATOM     19  C   UNL A   1      31.278  27.738  26.962  1.00  0.00     0.009 A 
ATOM     20  C   UNL A   1      32.524  29.603  25.302  1.00  0.00     0.016 A 
ATOM     21  C   UNL A   1      31.793  28.912  27.506  1.00  0.00     0.016 A 
ATOM     22  C   UNL A   1      32.398  29.864  26.675  1.00  0.00     0.060 A 
BRANCH  22  23
ATOM     23  C   UNL A   1      32.887  31.167  27.195  1.00  0.00     0.337 C 
ATOM     24  O   UNL A   1      32.269  32.216  27.086  1.00  0.00    -0.246 OA
BRANCH  23  25
ATOM     25  O   UNL A   1      34.072  31.005  27.834  1.00  0.00    -0.465 OA
ATOM     26  C   UNL A   1      34.889  32.174  27.856  1.00  0.00     0.282 C 
ENDBRANCH  23  25
ENDBRANCH  22  23
ENDBRANCH  16  17
ENDBRANCH   6   9
ENDBRANCH   3   6
ENDBRANCH   1   2
BRANCH   1  27
ATOM     27  C   UNL A   1      37.064  20.671  24.934  1.00  0.00     0.023 C 
BRANCH  27  28
ATOM     28  C   UNL A   1      38.142  19.597  24.979  1.00  0.00     0.023 C 
BRANCH  28  29
ATOM     29  C   UNL A   1      39.390  19.981  25.756  1.00  0.00     0.116 C 
BRANCH  29  30
ATOM     30  N   UNL A   1      40.381  18.915  25.827  1.00  0.00    -0.352 N 
ATOM     31  C   UNL A   1      41.729  19.002  26.092  1.00  0.00     0.251 C 
ATOM     32  H   UNL A   1      40.039  18.007  25.665  1.00  0.00     0.163 HD
ATOM     33  O   UNL A   1      42.448  18.014  25.998  1.00  0.00    -0.269 OA
BRANCH  31  34
ATOM     34  C   UNL A   1      42.307  20.314  26.452  1.00  0.00     0.039 A 
ATOM     35  C   UNL A   1      42.897  21.095  25.457  1.00  0.00     0.014 A 
ATOM     36  C   UNL A   1      42.201  20.795  27.759  1.00  0.00     0.014 A 
ATOM     37  C   UNL A   1      43.304  22.396  25.757  1.00  0.00     0.010 A 
ATOM     38  C   UNL A   1      42.502  22.124  28.026  1.00  0.00     0.010 A 
ATOM     39  C   UNL A   1      43.066  22.937  27.032  1.00  0.00    -0.014 A 
BRANCH  39  40
ATOM     40  C   UNL A   1      43.412  24.343  27.355  1.00  0.00     0.031 A 
ATOM     41  C   UNL A   1      44.847  24.790  27.311  1.00  0.00     0.074 A 
ATOM     42  C   UNL A   1      42.448  25.197  27.755  1.00  0.00     0.049 A 
ATOM     43  N   UNL A   1      45.363  25.951  27.622  1.00  0.00    -0.248 NA
ATOM     44  C   UNL A   1      45.842  23.787  26.893  1.00  0.00     0.031 C 
ATOM     45  C   UNL A   1      41.028  24.870  27.895  1.00  0.00     0.029 A 
ATOM     46  N   UNL A   1      42.520  26.517  28.123  1.00  0.00    -0.354 N 
ATOM     47  C   UNL A   1      46.735  25.811  27.452  1.00  0.00     0.074 A 
ATOM     48  C   UNL A   1      46.979  24.435  27.083  1.00  0.00     0.031 C 
ATOM     49  C   UNL A   1      40.359  25.968  28.284  1.00  0.00     0.029 A 
ATOM     50  C   UNL A   1      41.305  27.063  28.462  1.00  0.00     0.049 A 
ATOM     51  H   UNL A   1      43.363  27.026  28.142  1.00  0.00     0.167 HD
ATOM     52  C   UNL A   1      47.702  26.752  27.561  1.00  0.00     0.037 A 
ATOM     53  C   UNL A   1      40.993  28.306  28.874  1.00  0.00     0.037 A 
ATOM     54  C   UNL A   1      47.452  28.125  27.904  1.00  0.00     0.049 A 
ATOM     55  C   UNL A   1      42.088  29.330  29.000  1.00  0.00     0.074 A 
ATOM     56  C   UNL A   1      48.353  29.172  27.986  1.00  0.00     0.029 A 
ATOM     57  N   UNL A   1      46.206  28.643  28.228  1.00  0.00    -0.354 N 
ATOM     58  N   UNL A   1      43.371  29.204  28.765  1.00  0.00    -0.248 NA
ATOM     59  C   UNL A   1      41.688  30.674  29.444  1.00  0.00     0.031 C 
ATOM     60  C   UNL A   1      47.662  30.311  28.411  1.00  0.00     0.029 A 
ATOM     61  C   UNL A   1      46.319  29.988  28.534  1.00  0.00     0.049 A 
ATOM     62  H   UNL A   1      45.367  28.129  28.238  1.00  0.00     0.167 HD
ATOM     63  C   UNL A   1      43.927  30.456  28.999  1.00  0.00     0.074 A 
ATOM     64  C   UNL A   1      42.838  31.330  29.381  1.00  0.00     0.031 C 
ATOM     65  C   UNL A   1      45.222  30.846  28.905  1.00  0.00     0.037 A 
BRANCH  52  66
ATOM     66  C   UNL A   1      49.118  26.321  27.299  1.00  0.00     0.057 A 
ATOM     67  C   UNL A   1      49.667  26.322  26.010  1.00  0.00     0.134 A 
ATOM     68  C   UNL A   1      49.950  25.919  28.352  1.00  0.00     0.134 A 
ATOM     69  F   UNL A   1      48.922  26.682  24.953  1.00  0.00    -0.206 F 
ATOM     70  C   UNL A   1      50.978  25.910  25.772  1.00  0.00     0.040 A 
ATOM     71  C   UNL A   1      51.273  25.535  28.131  1.00  0.00     0.040 A 
ATOM     72  F   UNL A   1      49.492  25.897  29.613  1.00  0.00    -0.206 F 
ATOM     73  C   UNL A   1      51.789  25.521  26.837  1.00  0.00     0.006 A 
ENDBRANCH  52  66
BRANCH  53  74
ATOM     74  C   UNL A   1      39.581  28.663  29.172  1.00  0.00     0.057 A 
ATOM     75  C   UNL A   1      39.041  28.470  30.449  1.00  0.00     0.134 A 
ATOM     76  C   UNL A   1      38.734  29.191  28.190  1.00  0.00     0.134 A 
ATOM     77  F   UNL A   1      39.797  27.950  31.429  1.00  0.00    -0.206 F 
ATOM     78  C   UNL A   1      37.708  28.765  30.734  1.00  0.00     0.040 A 
ATOM     79  C   UNL A   1      37.406  29.518  28.468  1.00  0.00     0.040 A 
ATOM     80  F   UNL A   1      39.191  29.410  26.948  1.00  0.00    -0.206 F 
ATOM     81  C   UNL A   1      36.887  29.297  29.742  1.00  0.00     0.006 A 
ENDBRANCH  53  74
BRANCH  65  82
ATOM     82  C   UNL A   1      45.527  32.290  29.181  1.00  0.00     0.057 A 
ATOM     83  C   UNL A   1      45.467  33.267  28.179  1.00  0.00     0.134 A 
ATOM     84  C   UNL A   1      45.845  32.714  30.477  1.00  0.00     0.134 A 
ATOM     85  F   UNL A   1      45.180  32.926  26.913  1.00  0.00    -0.206 F 
ATOM     86  C   UNL A   1      45.739  34.608  28.451  1.00  0.00     0.040 A 
ATOM     87  C   UNL A   1      46.087  34.056  30.769  1.00  0.00     0.040 A 
ATOM     88  F   UNL A   1      45.908  31.832  31.487  1.00  0.00    -0.206 F 
ATOM     89  C   UNL A   1      46.042  35.008  29.752  1.00  0.00     0.006 A 
ENDBRANCH  65  82
ENDBRANCH  39  40
ENDBRANCH  31  34
ENDBRANCH  29  30
ENDBRANCH  28  29
ENDBRANCH  27  28
ENDBRANCH   1  27
TORSDOF 16
ENDMDL
MODEL 2
REMARK VINA RESULT:     -11.5      0.540      6.059
REMARK SMILES CC[C@@H](C(=O)NCCCCNC(=O)c1ccc(-c2c3nc(c(-c4c(F)cccc4F)c4ccc([nH]4)c(-c4c(F)cccc4F)c4nc(c(-c5c(F)cccc5F)c5ccc2[nH]5)C=C4)C=C3)cc1)N1C(=O)/C(=C\c2ccc(C(=O)OC)cc2)SC1=S
REMARK SMILES IDX 7 1 6 2 4 3 5 4 3 6 2 7 1 8 68 9 69 10 84 11 70 12 71 13
REMARK SMILES IDX 83 14 85 15 72 16 73 17 74 18 82 19 75 20 81 21 76 22 77 23
REMARK SMILES IDX 78 24 79 25 80 26 8 27 9 28 10 29 11 30 12 31 13 33 14 34
REMARK SMILES IDX 15 35 67 36 16 37 66 38 17 39 18 40 19 41 60 42 20 43 65 44
REMARK SMILES IDX 59 45 61 46 21 47 64 48 58 49 57 50 22 52 48 53 31 54 47 55
REMARK SMILES IDX 32 56 35 57 46 58 62 59 33 60 34 61 45 63 63 64 36 65 23 66
REMARK SMILES IDX 24 67 29 68 25 69 26 70 28 71 30 72 27 73 49 74 50 75 55 76
REMARK SMILES IDX 51 77 52 78 54 79 56 80 53 81 37 82 38 83 43 84 39 85 40 86
REMARK SMILES IDX 42 87 44 88 41 89
REMARK H PARENT 6 5 11 32 61 51 35 62
REMARK Flexibility Score: inf
ROOT
ATOM      1  C   UNL A   1      35.248  20.027  24.990  1.00  0.00     0.116 C 
ENDROOT
BRANCH   1   2
ATOM      2  N   UNL A   1      34.677  20.742  26.115  1.00  0.00    -0.354 N 
ATOM      3  C   UNL A   1      34.430  22.074  26.297  1.00  0.00     0.243 C 
ATOM      4  O   UNL A   1      34.053  22.421  27.421  1.00  0.00    -0.273 OA
ATOM      5  H   UNL A   1      34.423  20.172  26.877  1.00  0.00     0.163 HD
BRANCH   3   6
ATOM      6  C   UNL A   1      34.579  23.096  25.139  1.00  0.00     0.181 C 
BRANCH   6   7
ATOM      7  C   UNL A   1      35.528  24.271  25.434  1.00  0.00     0.032 C 
ATOM      8  C   UNL A   1      36.934  23.974  25.922  1.00  0.00     0.006 C 
ENDBRANCH   6   7
BRANCH   6   9
ATOM      9  N   UNL A   1      33.177  23.529  24.791  1.00  0.00    -0.280 N 
ATOM     10  C   UNL A   1      32.730  24.703  25.398  1.00  0.00     0.266 C 
ATOM     11  C   UNL A   1      32.317  23.005  23.840  1.00  0.00     0.149 C 
ATOM     12  O   UNL A   1      33.349  25.336  26.242  1.00  0.00    -0.268 OA
ATOM     13  C   UNL A   1      31.389  25.096  24.867  1.00  0.00     0.081 C 
ATOM     14  S   UNL A   1      30.745  23.798  23.951  1.00  0.00    -0.054 SA
ATOM     15  S   UNL A   1      32.517  21.807  22.696  1.00  0.00    -0.052 S 
ATOM     16  C   UNL A   1      30.756  26.274  24.949  1.00  0.00     0.029 C 
BRANCH  16  17
ATOM     17  C   UNL A   1      31.337  27.492  25.506  1.00  0.00    -0.024 A 
ATOM     18  C   UNL A   1      32.020  28.392  24.687  1.00  0.00     0.009 A 
ATOM     19  C   UNL A   1      31.214  27.749  26.877  1.00  0.00     0.009 A 
ATOM     20  C   UNL A   1      32.526  29.577  25.227  1.00  0.00     0.016 A 
ATOM     21  C   UNL A   1      31.720  28.930  27.417  1.00  0.00     0.016 A 
ATOM     22  C   UNL A   1      32.358  29.863  26.589  1.00  0.00     0.060 A 
BRANCH  22  23
ATOM     23  C   UNL A   1      32.839  31.172  27.103  1.00  0.00     0.337 C 
ATOM     24  O   UNL A   1      32.162  32.189  27.109  1.00  0.00    -0.246 OA
BRANCH  23  25
ATOM     25  O   UNL A   1      34.099  31.052  27.592  1.00  0.00    -0.465 OA
ATOM     26  C   UNL A   1      34.704  32.290  27.959  1.00  0.00     0.282 C 
ENDBRANCH  23  25
ENDBRANCH  22  23
ENDBRANCH  16  17
ENDBRANCH   6   9
ENDBRANCH   3   6
ENDBRANCH   1   2
BRANCH   1  27
ATOM     27  C   UNL A   1      36.613  20.619  24.625  1.00  0.00     0.023 C 
BRANCH  27  28
ATOM     28  C   UNL A   1      37.776  19.638  24.657  1.00  0.00     0.023 C 
BRANCH  28  29
ATOM     29  C   UNL A   1      38.671  19.752  25.880  1.00  0.00     0.116 C 
BRANCH  29  30
ATOM     30  N   UNL A   1      39.855  18.905  25.814  1.00  0.00    -0.352 N 
ATOM     31  C   UNL A   1      41.170  19.237  26.050  1.00  0.00     0.251 C 
ATOM     32  H   UNL A   1      39.692  17.967  25.567  1.00  0.00     0.163 HD
ATOM     33  O   UNL A   1      42.065  18.428  25.834  1.00  0.00    -0.269 OA
BRANCH  31  34
ATOM     34  C   UNL A   1      41.493  20.597  26.528  1.00  0.00     0.039 A 
ATOM     35  C   UNL A   1      42.155  20.752  27.748  1.00  0.00     0.014 A 
ATOM     36  C   UNL A   1      41.202  21.710  25.736  1.00  0.00     0.014 A 
ATOM     37  C   UNL A   1      42.601  22.018  28.130  1.00  0.00     0.010 A 
ATOM     38  C   UNL A   1      41.744  22.945  26.064  1.00  0.00     0.010 A 
ATOM     39  C   UNL A   1      42.441  23.116  27.269  1.00  0.00    -0.014 A 
BRANCH  39  40
ATOM     40  C   UNL A   1      42.978  24.456  27.612  1.00  0.00     0.031 A 
ATOM     41  C   UNL A   1      42.046  25.536  28.088  1.00  0.00     0.074 A 
ATOM     42  C   UNL A   1      44.287  24.722  27.429  1.00  0.00     0.049 A 
ATOM     43  N   UNL A   1      42.305  26.787  28.373  1.00  0.00    -0.248 NA
ATOM     44  C   UNL A   1      40.626  25.172  28.232  1.00  0.00     0.031 C 
ATOM     45  C   UNL A   1      45.282  23.778  26.918  1.00  0.00     0.029 A 
ATOM     46  N   UNL A   1      45.005  25.871  27.648  1.00  0.00    -0.354 N 
ATOM     47  C   UNL A   1      41.083  27.355  28.713  1.00  0.00     0.074 A 
ATOM     48  C   UNL A   1      40.074  26.337  28.527  1.00  0.00     0.031 C 
ATOM     49  C   UNL A   1      46.485  24.374  26.897  1.00  0.00     0.029 A 
ATOM     50  C   UNL A   1      46.341  25.753  27.350  1.00  0.00     0.049 A 
ATOM     51  H   UNL A   1      44.600  26.702  27.988  1.00  0.00     0.167 HD
ATOM     52  C   UNL A   1      40.828  28.604  29.169  1.00  0.00     0.037 A 
ATOM     53  C   UNL A   1      47.336  26.657  27.431  1.00  0.00     0.037 A 
ATOM     54  C   UNL A   1      41.838  29.606  29.374  1.00  0.00     0.049 A 
ATOM     55  C   UNL A   1      47.024  28.043  27.928  1.00  0.00     0.074 A 
ATOM     56  C   UNL A   1      41.695  30.883  29.887  1.00  0.00     0.029 A 
ATOM     57  N   UNL A   1      43.183  29.445  29.073  1.00  0.00    -0.354 N 
ATOM     58  N   UNL A   1      45.877  28.545  28.316  1.00  0.00    -0.248 NA
ATOM     59  C   UNL A   1      48.149  28.986  28.005  1.00  0.00     0.031 C 
ATOM     60  C   UNL A   1      42.943  31.513  29.845  1.00  0.00     0.029 A 
ATOM     61  C   UNL A   1      43.875  30.607  29.365  1.00  0.00     0.049 A 
ATOM     62  H   UNL A   1      43.584  28.624  28.706  1.00  0.00     0.167 HD
ATOM     63  C   UNL A   1      46.146  29.849  28.713  1.00  0.00     0.074 A 
ATOM     64  C   UNL A   1      47.568  30.054  28.533  1.00  0.00     0.031 C 
ATOM     65  C   UNL A   1      45.294  30.791  29.186  1.00  0.00     0.037 A 
BRANCH  52  66
ATOM     66  C   UNL A   1      39.399  28.948  29.480  1.00  0.00     0.057 A 
ATOM     67  C   UNL A   1      38.854  28.765  30.758  1.00  0.00     0.134 A 
ATOM     68  C   UNL A   1      38.561  29.487  28.495  1.00  0.00     0.134 A 
ATOM     69  F   UNL A   1      39.595  28.239  31.745  1.00  0.00    -0.206 F 
ATOM     70  C   UNL A   1      37.522  29.074  31.038  1.00  0.00     0.040 A 
ATOM     71  C   UNL A   1      37.237  29.831  28.770  1.00  0.00     0.040 A 
ATOM     72  F   UNL A   1      39.017  29.692  27.250  1.00  0.00    -0.206 F 
ATOM     73  C   UNL A   1      36.711  29.617  30.042  1.00  0.00     0.006 A 
ENDBRANCH  52  66
BRANCH  53  74
ATOM     74  C   UNL A   1      48.723  26.278  27.057  1.00  0.00     0.057 A 
ATOM     75  C   UNL A   1      49.600  25.726  27.999  1.00  0.00     0.134 A 
ATOM     76  C   UNL A   1      49.212  26.468  25.759  1.00  0.00     0.134 A 
ATOM     77  F   UNL A   1      49.197  25.536  29.264  1.00  0.00    -0.206 F 
ATOM     78  C   UNL A   1      50.917  25.400  27.671  1.00  0.00     0.040 A 
ATOM     79  C   UNL A   1      50.517  26.120  25.410  1.00  0.00     0.040 A 
ATOM     80  F   UNL A   1      48.420  26.984  24.806  1.00  0.00    -0.206 F 
ATOM     81  C   UNL A   1      51.377  25.592  26.371  1.00  0.00     0.006 A 
ENDBRANCH  53  74
BRANCH  65  82
ATOM     82  C   UNL A   1      45.881  32.115  29.580  1.00  0.00     0.057 A 
ATOM     83  C   UNL A   1      45.983  33.182  28.678  1.00  0.00     0.134 A 
ATOM     84  C   UNL A   1      46.313  32.338  30.894  1.00  0.00     0.134 A 
ATOM     85  F   UNL A   1      45.598  33.031  27.401  1.00  0.00    -0.206 F 
ATOM     86  C   UNL A   1      46.517  34.412  29.061  1.00  0.00     0.040 A 
ATOM     87  C   UNL A   1      46.819  33.573  31.298  1.00  0.00     0.040 A 
ATOM     88  F   UNL A   1      46.233  31.362  31.812  1.00  0.00    -0.206 F 
ATOM     89  C   UNL A   1      46.930  34.613  30.378  1.00  0.00     0.006 A 
ENDBRANCH  65  82
ENDBRANCH  39  40
ENDBRANCH  31  34
ENDBRANCH  29  30
ENDBRANCH  28  29
ENDBRANCH  27  28
ENDBRANCH   1  27
TORSDOF 16
ENDMDL
MODEL 3
REMARK VINA RESULT:     -11.3      4.511     10.094
REMARK SMILES CC[C@@H](C(=O)NCCCCNC(=O)c1ccc(-c2c3nc(c(-c4c(F)cccc4F)c4ccc([nH]4)c(-c4c(F)cccc4F)c4nc(c(-c5c(F)cccc5F)c5ccc2[nH]5)C=C4)C=C3)cc1)N1C(=O)/C(=C\c2ccc(C(=O)OC)cc2)SC1=S
REMARK SMILES IDX 7 1 6 2 4 3 5 4 3 6 2 7 1 8 68 9 69 10 84 11 70 12 71 13
REMARK SMILES IDX 83 14 85 15 72 16 73 17 74 18 82 19 75 20 81 21 76 22 77 23
REMARK SMILES IDX 78 24 79 25 80 26 8 27 9 28 10 29 11 30 12 31 13 33 14 34
REMARK SMILES IDX 15 35 67 36 16 37 66 38 17 39 18 40 19 41 60 42 20 43 65 44
REMARK SMILES IDX 59 45 61 46 21 47 64 48 58 49 57 50 22 52 48 53 31 54 47 55
REMARK SMILES IDX 32 56 35 57 46 58 62 59 33 60 34 61 45 63 63 64 36 65 23 66
REMARK SMILES IDX 24 67 29 68 25 69 26 70 28 71 30 72 27 73 49 74 50 75 55 76
REMARK SMILES IDX 51 77 52 78 54 79 56 80 53 81 37 82 38 83 43 84 39 85 40 86
REMARK SMILES IDX 42 87 44 88 41 89
REMARK H PARENT 6 5 11 32 61 51 35 62
REMARK Flexibility Score: inf
ROOT
ATOM      1  C   UNL A   1      33.902  29.253  26.700  1.00  0.00     0.116 C 
ENDROOT
BRANCH   1   2
ATOM      2  N   UNL A   1      32.852  28.311  27.038  1.00  0.00    -0.354 N 
ATOM      3  C   UNL A   1      31.877  27.742  26.268  1.00  0.00     0.243 C 
ATOM      4  O   UNL A   1      31.026  27.067  26.858  1.00  0.00    -0.273 OA
ATOM      5  H   UNL A   1      32.840  28.034  27.983  1.00  0.00     0.163 HD
BRANCH   3   6
ATOM      6  C   UNL A   1      31.859  27.904  24.725  1.00  0.00     0.181 C 
BRANCH   6   7
ATOM      7  C   UNL A   1      30.884  28.972  24.201  1.00  0.00     0.032 C 
ATOM      8  C   UNL A   1      30.880  29.299  22.719  1.00  0.00     0.006 C 
ENDBRANCH   6   7
BRANCH   6   9
ATOM      9  N   UNL A   1      31.596  26.526  24.172  1.00  0.00    -0.280 N 
ATOM     10  C   UNL A   1      32.707  25.694  24.043  1.00  0.00     0.266 C 
ATOM     11  C   UNL A   1      30.381  25.915  23.908  1.00  0.00     0.149 C 
ATOM     12  O   UNL A   1      33.865  26.031  24.255  1.00  0.00    -0.268 OA
ATOM     13  C   UNL A   1      32.296  24.321  23.620  1.00  0.00     0.081 C 
ATOM     14  S   UNL A   1      30.652  24.352  23.134  1.00  0.00    -0.054 SA
ATOM     15  S   UNL A   1      28.807  26.402  24.171  1.00  0.00    -0.052 S 
ATOM     16  C   UNL A   1      32.987  23.174  23.673  1.00  0.00     0.029 C 
BRANCH  16  17
ATOM     17  C   UNL A   1      34.301  23.024  24.289  1.00  0.00    -0.024 A 
ATOM     18  C   UNL A   1      35.452  22.961  23.501  1.00  0.00     0.009 A 
ATOM     19  C   UNL A   1      34.402  22.932  25.683  1.00  0.00     0.009 A 
ATOM     20  C   UNL A   1      36.705  22.867  24.110  1.00  0.00     0.016 A 
ATOM     21  C   UNL A   1      35.652  22.837  26.291  1.00  0.00     0.016 A 
ATOM     22  C   UNL A   1      36.814  22.828  25.507  1.00  0.00     0.060 A 
BRANCH  22  23
ATOM     23  C   UNL A   1      38.171  22.813  26.112  1.00  0.00     0.337 C 
ATOM     24  O   UNL A   1      38.587  23.678  26.869  1.00  0.00    -0.246 OA
BRANCH  23  25
ATOM     25  O   UNL A   1      38.840  21.694  25.739  1.00  0.00    -0.465 OA
ATOM     26  C   UNL A   1      40.155  21.591  26.282  1.00  0.00     0.282 C 
ENDBRANCH  23  25
ENDBRANCH  22  23
ENDBRANCH  16  17
ENDBRANCH   6   9
ENDBRANCH   3   6
ENDBRANCH   1   2
BRANCH   1  27
ATOM     27  C   UNL A   1      33.920  30.409  27.706  1.00  0.00     0.023 C 
BRANCH  27  28
ATOM     28  C   UNL A   1      32.815  31.440  27.529  1.00  0.00     0.023 C 
BRANCH  28  29
ATOM     29  C   UNL A   1      33.258  32.742  26.881  1.00  0.00     0.116 C 
BRANCH  29  30
ATOM     30  N   UNL A   1      32.746  33.929  27.553  1.00  0.00    -0.352 N 
ATOM     31  C   UNL A   1      33.146  34.488  28.745  1.00  0.00     0.251 C 
ATOM     32  H   UNL A   1      32.013  34.395  27.090  1.00  0.00     0.163 HD
ATOM     33  O   UNL A   1      32.526  35.427  29.231  1.00  0.00    -0.269 OA
BRANCH  31  34
ATOM     34  C   UNL A   1      34.309  33.914  29.454  1.00  0.00     0.039 A 
ATOM     35  C   UNL A   1      34.095  32.996  30.483  1.00  0.00     0.014 A 
ATOM     36  C   UNL A   1      35.607  34.236  29.052  1.00  0.00     0.014 A 
ATOM     37  C   UNL A   1      35.186  32.334  31.049  1.00  0.00     0.010 A 
ATOM     38  C   UNL A   1      36.677  33.497  29.537  1.00  0.00     0.010 A 
ATOM     39  C   UNL A   1      36.481  32.545  30.548  1.00  0.00    -0.014 A 
BRANCH  39  40
ATOM     40  C   UNL A   1      37.649  31.795  31.075  1.00  0.00     0.031 A 
ATOM     41  C   UNL A   1      38.119  32.036  32.483  1.00  0.00     0.074 A 
ATOM     42  C   UNL A   1      38.325  30.953  30.268  1.00  0.00     0.049 A 
ATOM     43  N   UNL A   1      39.155  31.535  33.107  1.00  0.00    -0.248 NA
ATOM     44  C   UNL A   1      37.342  32.994  33.288  1.00  0.00     0.031 C 
ATOM     45  C   UNL A   1      38.004  30.678  28.867  1.00  0.00     0.029 A 
ATOM     46  N   UNL A   1      39.430  30.177  30.512  1.00  0.00    -0.354 N 
ATOM     47  C   UNL A   1      39.158  32.127  34.364  1.00  0.00     0.074 A 
ATOM     48  C   UNL A   1      38.070  33.078  34.389  1.00  0.00     0.031 C 
ATOM     49  C   UNL A   1      38.869  29.769  28.387  1.00  0.00     0.029 A 
ATOM     50  C   UNL A   1      39.831  29.431  29.429  1.00  0.00     0.049 A 
ATOM     51  H   UNL A   1      39.892  30.155  31.381  1.00  0.00     0.167 HD
ATOM     52  C   UNL A   1      39.975  31.878  35.414  1.00  0.00     0.037 A 
ATOM     53  C   UNL A   1      40.861  28.573  29.294  1.00  0.00     0.037 A 
ATOM     54  C   UNL A   1      41.042  30.915  35.392  1.00  0.00     0.049 A 
ATOM     55  C   UNL A   1      41.762  28.324  30.473  1.00  0.00     0.074 A 
ATOM     56  C   UNL A   1      41.891  30.545  36.419  1.00  0.00     0.029 A 
ATOM     57  N   UNL A   1      41.409  30.170  34.281  1.00  0.00    -0.354 N 
ATOM     58  N   UNL A   1      41.710  28.836  31.679  1.00  0.00    -0.248 NA
ATOM     59  C   UNL A   1      42.864  27.372  30.272  1.00  0.00     0.031 C 
ATOM     60  C   UNL A   1      42.807  29.615  35.915  1.00  0.00     0.029 A 
ATOM     61  C   UNL A   1      42.488  29.360  34.591  1.00  0.00     0.049 A 
ATOM     62  H   UNL A   1      40.966  30.211  33.402  1.00  0.00     0.167 HD
ATOM     63  C   UNL A   1      42.747  28.245  32.389  1.00  0.00     0.074 A 
ATOM     64  C   UNL A   1      43.403  27.326  31.482  1.00  0.00     0.031 C 
ATOM     65  C   UNL A   1      43.123  28.444  33.676  1.00  0.00     0.037 A 
BRANCH  52  66
ATOM     66  C   UNL A   1      39.738  32.661  36.675  1.00  0.00     0.057 A 
ATOM     67  C   UNL A   1      38.701  32.340  37.562  1.00  0.00     0.134 A 
ATOM     68  C   UNL A   1      40.567  33.737  37.017  1.00  0.00     0.134 A 
ATOM     69  F   UNL A   1      37.861  31.330  37.290  1.00  0.00    -0.206 F 
ATOM     70  C   UNL A   1      38.478  33.078  38.725  1.00  0.00     0.040 A 
ATOM     71  C   UNL A   1      40.373  34.463  38.193  1.00  0.00     0.040 A 
ATOM     72  F   UNL A   1      41.580  34.098  36.215  1.00  0.00    -0.206 F 
ATOM     73  C   UNL A   1      39.322  34.140  39.047  1.00  0.00     0.006 A 
ENDBRANCH  52  66
BRANCH  53  74
ATOM     74  C   UNL A   1      41.082  27.868  28.006  1.00  0.00     0.057 A 
ATOM     75  C   UNL A   1      40.572  26.582  27.789  1.00  0.00     0.134 A 
ATOM     76  C   UNL A   1      41.815  28.451  26.966  1.00  0.00     0.134 A 
ATOM     77  F   UNL A   1      39.876  25.961  28.754  1.00  0.00    -0.206 F 
ATOM     78  C   UNL A   1      40.804  25.892  26.598  1.00  0.00     0.040 A 
ATOM     79  C   UNL A   1      42.030  27.785  25.758  1.00  0.00     0.040 A 
ATOM     80  F   UNL A   1      42.323  29.685  27.104  1.00  0.00    -0.206 F 
ATOM     81  C   UNL A   1      41.530  26.497  25.575  1.00  0.00     0.006 A 
ENDBRANCH  53  74
BRANCH  65  82
ATOM     82  C   UNL A   1      44.270  27.625  34.193  1.00  0.00     0.057 A 
ATOM     83  C   UNL A   1      45.587  28.099  34.182  1.00  0.00     0.134 A 
ATOM     84  C   UNL A   1      44.044  26.359  34.748  1.00  0.00     0.134 A 
ATOM     85  F   UNL A   1      45.873  29.299  33.654  1.00  0.00    -0.206 F 
ATOM     86  C   UNL A   1      46.642  27.333  34.680  1.00  0.00     0.040 A 
ATOM     87  C   UNL A   1      45.085  25.596  35.278  1.00  0.00     0.040 A 
ATOM     88  F   UNL A   1      42.804  25.848  34.801  1.00  0.00    -0.206 F 
ATOM     89  C   UNL A   1      46.391  26.080  35.238  1.00  0.00     0.006 A 
ENDBRANCH  65  82
ENDBRANCH  39  40
ENDBRANCH  31  34
ENDBRANCH  29  30
ENDBRANCH  28  29
ENDBRANCH  27  28
ENDBRANCH   1  27
TORSDOF 16
ENDMDL
