MODEL 1
REMARK VINA RESULT:     -12.5      0.000      0.000
REMARK SMILES COc1cc(Cl)c2c(c1)C=C(C(=O)NCCCCNC(=O)c1ccc(-c3c4nc(c(-c5c(F)cccc5F)c5ccc([nH]5)c(-c5c(F)cccc5F)c5nc(c(-c6c(F)cccc6F)c6ccc3[nH]6)C=C5)C=C4)cc1)[C@@H](C(F)(F)F)O2
REMARK SMILES IDX 17 1 16 2 15 3 14 4 12 5 13 6 11 8 3 9 4 10 9 11 5 12 8 13
REMARK SMILES IDX 6 14 7 15 10 16 81 17 76 18 2 19 1 20 77 21 78 22 79 23
REMARK SMILES IDX 80 24 18 25 19 26 20 27 21 29 22 30 23 31 75 32 24 33 74 34
REMARK SMILES IDX 25 35 26 36 27 37 68 38 28 39 73 40 67 41 69 42 29 43 72 44
REMARK SMILES IDX 66 45 65 46 30 48 56 49 39 50 55 51 40 52 43 53 54 54 70 55
REMARK SMILES IDX 41 56 42 57 53 59 71 60 44 61 31 62 32 63 37 64 33 65 34 66
REMARK SMILES IDX 36 67 38 68 35 69 57 70 58 71 63 72 59 73 60 74 62 75 64 76
REMARK SMILES IDX 61 77 45 78 46 79 51 80 47 81 48 82 50 83 52 84 49 85
REMARK H PARENT 14 7 19 28 69 47 43 58
REMARK Flexibility Score: inf
ROOT
ATOM      1  C   UNL A   1      37.920  19.718  24.985  1.00  0.00     0.023 C 
ENDROOT
BRANCH   1   2
ATOM      2  C   UNL A   1      36.987  20.888  24.665  1.00  0.00     0.023 C 
BRANCH   2   3
ATOM      3  C   UNL A   1      35.921  21.137  25.727  1.00  0.00     0.116 C 
BRANCH   3   4
ATOM      4  N   UNL A   1      34.783  20.253  25.563  1.00  0.00    -0.352 N 
ATOM      5  C   UNL A   1      33.485  20.374  25.199  1.00  0.00     0.251 C 
ATOM      6  O   UNL A   1      32.838  19.321  25.213  1.00  0.00    -0.270 OA
ATOM      7  H   UNL A   1      35.015  19.319  25.773  1.00  0.00     0.163 HD
BRANCH   5   8
ATOM      8  C   UNL A   1      32.817  21.645  24.791  1.00  0.00     0.067 C 
ATOM      9  C   UNL A   1      32.566  25.273  21.609  1.00  0.00     0.121 A 
ATOM     10  C   UNL A   1      31.461  25.803  22.274  1.00  0.00     0.070 A 
ATOM     11  C   UNL A   1      33.117  24.059  22.022  1.00  0.00     0.058 A 
ATOM     12  C   UNL A   1      30.938  25.135  23.381  1.00  0.00     0.087 A 
ATOM     13  C   UNL A   1      32.605  23.396  23.142  1.00  0.00     0.022 A 
ATOM     14  Cl  UNL A   1      29.571  25.818  24.187  1.00  0.00    -0.080 Cl
ATOM     15  C   UNL A   1      31.519  23.943  23.828  1.00  0.00     0.146 A 
ATOM     16  C   UNL A   1      33.175  22.130  23.588  1.00  0.00     0.025 C 
ATOM     17  O   UNL A   1      30.970  23.311  24.909  1.00  0.00    -0.474 OA
ATOM     18  C   UNL A   1      31.842  22.409  25.643  1.00  0.00     0.314 C 
BRANCH   9  19
ATOM     19  O   UNL A   1      33.141  25.845  20.506  1.00  0.00    -0.497 OA
ATOM     20  C   UNL A   1      32.495  25.515  19.278  1.00  0.00     0.278 C 
ENDBRANCH   9  19
BRANCH  18  21
ATOM     21  C   UNL A   1      32.529  23.177  26.789  1.00  0.00     0.429 C 
ATOM     22  F   UNL A   1      32.770  22.352  27.838  1.00  0.00    -0.167 F 
ATOM     23  F   UNL A   1      33.729  23.690  26.424  1.00  0.00    -0.167 F 
ATOM     24  F   UNL A   1      31.783  24.209  27.244  1.00  0.00    -0.167 F 
ENDBRANCH  18  21
ENDBRANCH   5   8
ENDBRANCH   3   4
ENDBRANCH   2   3
ENDBRANCH   1   2
BRANCH   1  25
ATOM     25  C   UNL A   1      39.181  20.087  25.763  1.00  0.00     0.116 C 
BRANCH  25  26
ATOM     26  N   UNL A   1      40.177  19.025  25.793  1.00  0.00    -0.352 N 
ATOM     27  C   UNL A   1      41.514  19.141  26.084  1.00  0.00     0.251 C 
ATOM     28  H   UNL A   1      39.855  18.119  25.581  1.00  0.00     0.163 HD
ATOM     29  O   UNL A   1      42.271  18.180  26.015  1.00  0.00    -0.269 OA
BRANCH  27  30
ATOM     30  C   UNL A   1      42.025  20.471  26.450  1.00  0.00     0.039 A 
ATOM     31  C   UNL A   1      42.404  21.350  25.433  1.00  0.00     0.014 A 
ATOM     32  C   UNL A   1      42.028  20.867  27.791  1.00  0.00     0.014 A 
ATOM     33  C   UNL A   1      42.737  22.662  25.760  1.00  0.00     0.010 A 
ATOM     34  C   UNL A   1      42.317  22.188  28.108  1.00  0.00     0.010 A 
ATOM     35  C   UNL A   1      42.672  23.093  27.094  1.00  0.00    -0.014 A 
BRANCH  35  36
ATOM     36  C   UNL A   1      43.016  24.484  27.461  1.00  0.00     0.031 A 
ATOM     37  C   UNL A   1      44.454  24.908  27.460  1.00  0.00     0.074 A 
ATOM     38  C   UNL A   1      42.048  25.337  27.841  1.00  0.00     0.049 A 
ATOM     39  N   UNL A   1      44.978  26.056  27.802  1.00  0.00    -0.248 NA
ATOM     40  C   UNL A   1      45.436  23.896  27.037  1.00  0.00     0.031 C 
ATOM     41  C   UNL A   1      40.619  25.026  27.913  1.00  0.00     0.029 A 
ATOM     42  N   UNL A   1      42.126  26.643  28.252  1.00  0.00    -0.354 N 
ATOM     43  C   UNL A   1      46.348  25.903  27.641  1.00  0.00     0.074 A 
ATOM     44  C   UNL A   1      46.579  24.538  27.220  1.00  0.00     0.031 C 
ATOM     45  C   UNL A   1      39.953  26.116  28.333  1.00  0.00     0.029 A 
ATOM     46  C   UNL A   1      40.910  27.191  28.579  1.00  0.00     0.049 A 
ATOM     47  H   UNL A   1      42.973  27.141  28.307  1.00  0.00     0.167 HD
ATOM     48  C   UNL A   1      47.324  26.825  27.805  1.00  0.00     0.037 A 
ATOM     49  C   UNL A   1      40.609  28.423  29.029  1.00  0.00     0.037 A 
ATOM     50  C   UNL A   1      47.091  28.185  28.206  1.00  0.00     0.049 A 
ATOM     51  C   UNL A   1      41.716  29.423  29.223  1.00  0.00     0.074 A 
ATOM     52  C   UNL A   1      48.006  29.211  28.361  1.00  0.00     0.029 A 
ATOM     53  N   UNL A   1      45.844  28.708  28.517  1.00  0.00    -0.354 N 
ATOM     54  N   UNL A   1      43.002  29.285  29.010  1.00  0.00    -0.248 NA
ATOM     55  C   UNL A   1      41.326  30.753  29.715  1.00  0.00     0.031 C 
ATOM     56  C   UNL A   1      47.315  30.350  28.790  1.00  0.00     0.029 A 
ATOM     57  C   UNL A   1      45.967  30.038  28.875  1.00  0.00     0.049 A 
ATOM     58  H   UNL A   1      44.998  28.205  28.488  1.00  0.00     0.167 HD
ATOM     59  C   UNL A   1      43.571  30.515  29.313  1.00  0.00     0.074 A 
ATOM     60  C   UNL A   1      42.489  31.389  29.717  1.00  0.00     0.031 C 
ATOM     61  C   UNL A   1      44.872  30.890  29.261  1.00  0.00     0.037 A 
BRANCH  48  62
ATOM     62  C   UNL A   1      48.729  26.380  27.537  1.00  0.00     0.057 A 
ATOM     63  C   UNL A   1      49.266  26.437  26.246  1.00  0.00     0.134 A 
ATOM     64  C   UNL A   1      49.552  25.897  28.564  1.00  0.00     0.134 A 
ATOM     65  F   UNL A   1      48.530  26.893  25.221  1.00  0.00    -0.206 F 
ATOM     66  C   UNL A   1      50.577  26.035  25.986  1.00  0.00     0.040 A 
ATOM     67  C   UNL A   1      50.870  25.512  28.320  1.00  0.00     0.040 A 
ATOM     68  F   UNL A   1      49.099  25.838  29.825  1.00  0.00    -0.206 F 
ATOM     69  C   UNL A   1      51.385  25.578  27.026  1.00  0.00     0.006 A 
ENDBRANCH  48  62
BRANCH  49  70
ATOM     70  C   UNL A   1      39.202  28.799  29.308  1.00  0.00     0.057 A 
ATOM     71  C   UNL A   1      38.620  28.579  30.561  1.00  0.00     0.134 A 
ATOM     72  C   UNL A   1      38.420  29.425  28.330  1.00  0.00     0.134 A 
ATOM     73  F   UNL A   1      39.318  27.982  31.537  1.00  0.00    -0.206 F 
ATOM     74  C   UNL A   1      37.309  28.975  30.835  1.00  0.00     0.040 A 
ATOM     75  C   UNL A   1      37.115  29.841  28.596  1.00  0.00     0.040 A 
ATOM     76  F   UNL A   1      38.932  29.679  27.117  1.00  0.00    -0.206 F 
ATOM     77  C   UNL A   1      36.556  29.615  29.852  1.00  0.00     0.006 A 
ENDBRANCH  49  70
BRANCH  61  78
ATOM     78  C   UNL A   1      45.184  32.312  29.613  1.00  0.00     0.057 A 
ATOM     79  C   UNL A   1      45.138  33.313  28.637  1.00  0.00     0.134 A 
ATOM     80  C   UNL A   1      45.556  32.682  30.911  1.00  0.00     0.134 A 
ATOM     81  F   UNL A   1      44.793  33.020  27.374  1.00  0.00    -0.206 F 
ATOM     82  C   UNL A   1      45.456  34.638  28.939  1.00  0.00     0.040 A 
ATOM     83  C   UNL A   1      45.857  34.007  31.230  1.00  0.00     0.040 A 
ATOM     84  F   UNL A   1      45.602  31.769  31.893  1.00  0.00    -0.206 F 
ATOM     85  C   UNL A   1      45.812  34.988  30.240  1.00  0.00     0.006 A 
ENDBRANCH  61  78
ENDBRANCH  35  36
ENDBRANCH  27  30
ENDBRANCH  25  26
ENDBRANCH   1  25
TORSDOF 13
ENDMDL
MODEL 2
REMARK VINA RESULT:     -12.4      4.992      9.891
REMARK SMILES COc1cc(Cl)c2c(c1)C=C(C(=O)NCCCCNC(=O)c1ccc(-c3c4nc(c(-c5c(F)cccc5F)c5ccc([nH]5)c(-c5c(F)cccc5F)c5nc(c(-c6c(F)cccc6F)c6ccc3[nH]6)C=C5)C=C4)cc1)[C@@H](C(F)(F)F)O2
REMARK SMILES IDX 17 1 16 2 15 3 14 4 12 5 13 6 11 8 3 9 4 10 9 11 5 12 8 13
REMARK SMILES IDX 6 14 7 15 10 16 81 17 76 18 2 19 1 20 77 21 78 22 79 23
REMARK SMILES IDX 80 24 18 25 19 26 20 27 21 29 22 30 23 31 75 32 24 33 74 34
REMARK SMILES IDX 25 35 26 36 27 37 68 38 28 39 73 40 67 41 69 42 29 43 72 44
REMARK SMILES IDX 66 45 65 46 30 48 56 49 39 50 55 51 40 52 43 53 54 54 70 55
REMARK SMILES IDX 41 56 42 57 53 59 71 60 44 61 31 62 32 63 37 64 33 65 34 66
REMARK SMILES IDX 36 67 38 68 35 69 57 70 58 71 63 72 59 73 60 74 62 75 64 76
REMARK SMILES IDX 61 77 45 78 46 79 51 80 47 81 48 82 50 83 52 84 49 85
REMARK H PARENT 14 7 19 28 69 47 43 58
REMARK Flexibility Score: inf
ROOT
ATOM      1  C   UNL A   1      31.470  31.979  26.858  1.00  0.00     0.023 C 
ENDROOT
BRANCH   1   2
ATOM      2  C   UNL A   1      31.749  30.476  26.798  1.00  0.00     0.023 C 
BRANCH   2   3
ATOM      3  C   UNL A   1      32.364  30.014  25.481  1.00  0.00     0.116 C 
BRANCH   3   4
ATOM      4  N   UNL A   1      31.389  30.004  24.407  1.00  0.00    -0.352 N 
ATOM      5  C   UNL A   1      30.802  29.075  23.617  1.00  0.00     0.251 C 
ATOM      6  O   UNL A   1      30.008  29.524  22.784  1.00  0.00    -0.270 OA
ATOM      7  H   UNL A   1      31.070  30.912  24.198  1.00  0.00     0.163 HD
BRANCH   5   8
ATOM      8  C   UNL A   1      31.041  27.603  23.690  1.00  0.00     0.067 C 
ATOM      9  C   UNL A   1      30.657  23.541  26.280  1.00  0.00     0.121 A 
ATOM     10  C   UNL A   1      31.155  22.794  25.213  1.00  0.00     0.070 A 
ATOM     11  C   UNL A   1      30.423  24.909  26.128  1.00  0.00     0.058 A 
ATOM     12  C   UNL A   1      31.460  23.429  24.010  1.00  0.00     0.087 A 
ATOM     13  C   UNL A   1      30.743  25.551  24.929  1.00  0.00     0.022 A 
ATOM     14  Cl  UNL A   1      32.080  22.477  22.708  1.00  0.00    -0.080 Cl
ATOM     15  C   UNL A   1      31.273  24.809  23.871  1.00  0.00     0.146 A 
ATOM     16  C   UNL A   1      30.509  26.981  24.759  1.00  0.00     0.025 C 
ATOM     17  O   UNL A   1      31.571  25.394  22.671  1.00  0.00    -0.474 OA
ATOM     18  C   UNL A   1      31.855  26.819  22.700  1.00  0.00     0.314 C 
BRANCH   9  19
ATOM     19  O   UNL A   1      30.314  23.008  27.493  1.00  0.00    -0.497 OA
ATOM     20  C   UNL A   1      28.969  22.539  27.562  1.00  0.00     0.278 C 
ENDBRANCH   9  19
BRANCH  18  21
ATOM     21  C   UNL A   1      33.371  27.039  22.869  1.00  0.00     0.429 C 
ATOM     22  F   UNL A   1      34.066  26.026  22.296  1.00  0.00    -0.167 F 
ATOM     23  F   UNL A   1      33.798  28.180  22.276  1.00  0.00    -0.167 F 
ATOM     24  F   UNL A   1      33.744  27.107  24.167  1.00  0.00    -0.167 F 
ENDBRANCH  18  21
ENDBRANCH   5   8
ENDBRANCH   3   4
ENDBRANCH   2   3
ENDBRANCH   1   2
BRANCH   1  25
ATOM     25  C   UNL A   1      32.682  32.853  27.171  1.00  0.00     0.116 C 
BRANCH  25  26
ATOM     26  N   UNL A   1      32.332  34.194  27.620  1.00  0.00    -0.352 N 
ATOM     27  C   UNL A   1      32.977  34.954  28.565  1.00  0.00     0.251 C 
ATOM     28  H   UNL A   1      31.544  34.603  27.196  1.00  0.00     0.163 HD
ATOM     29  O   UNL A   1      32.548  36.049  28.907  1.00  0.00    -0.269 OA
BRANCH  27  30
ATOM     30  C   UNL A   1      34.186  34.394  29.189  1.00  0.00     0.039 A 
ATOM     31  C   UNL A   1      34.056  33.655  30.366  1.00  0.00     0.014 A 
ATOM     32  C   UNL A   1      35.420  34.525  28.547  1.00  0.00     0.014 A 
ATOM     33  C   UNL A   1      35.168  32.990  30.877  1.00  0.00     0.010 A 
ATOM     34  C   UNL A   1      36.517  33.825  29.033  1.00  0.00     0.010 A 
ATOM     35  C   UNL A   1      36.397  33.053  30.200  1.00  0.00    -0.014 A 
BRANCH  35  36
ATOM     36  C   UNL A   1      37.588  32.350  30.722  1.00  0.00     0.031 A 
ATOM     37  C   UNL A   1      38.283  32.888  31.936  1.00  0.00     0.074 A 
ATOM     38  C   UNL A   1      38.067  31.270  30.077  1.00  0.00     0.049 A 
ATOM     39  N   UNL A   1      39.371  32.462  32.523  1.00  0.00    -0.248 NA
ATOM     40  C   UNL A   1      37.685  34.079  32.561  1.00  0.00     0.031 C 
ATOM     41  C   UNL A   1      37.493  30.677  28.868  1.00  0.00     0.029 A 
ATOM     42  N   UNL A   1      39.159  30.487  30.347  1.00  0.00    -0.354 N 
ATOM     43  C   UNL A   1      39.590  33.334  33.581  1.00  0.00     0.074 A 
ATOM     44  C   UNL A   1      38.552  34.341  33.526  1.00  0.00     0.031 C 
ATOM     45  C   UNL A   1      38.234  29.615  28.506  1.00  0.00     0.029 A 
ATOM     46  C   UNL A   1      39.343  29.469  29.444  1.00  0.00     0.049 A 
ATOM     47  H   UNL A   1      39.755  30.639  31.116  1.00  0.00     0.167 HD
ATOM     48  C   UNL A   1      40.555  33.284  34.527  1.00  0.00     0.037 A 
ATOM     49  C   UNL A   1      40.304  28.528  29.385  1.00  0.00     0.037 A 
ATOM     50  C   UNL A   1      41.573  32.273  34.591  1.00  0.00     0.049 A 
ATOM     51  C   UNL A   1      41.376  28.508  30.439  1.00  0.00     0.074 A 
ATOM     52  C   UNL A   1      42.572  32.109  35.533  1.00  0.00     0.029 A 
ATOM     53  N   UNL A   1      41.722  31.251  33.665  1.00  0.00    -0.354 N 
ATOM     54  N   UNL A   1      41.539  29.302  31.469  1.00  0.00    -0.248 NA
ATOM     55  C   UNL A   1      42.397  27.456  30.322  1.00  0.00     0.031 C 
ATOM     56  C   UNL A   1      43.340  30.999  35.165  1.00  0.00     0.029 A 
ATOM     57  C   UNL A   1      42.802  30.458  34.008  1.00  0.00     0.049 A 
ATOM     58  H   UNL A   1      41.143  31.111  32.881  1.00  0.00     0.167 HD
ATOM     59  C   UNL A   1      42.659  28.831  32.140  1.00  0.00     0.074 A 
ATOM     60  C   UNL A   1      43.132  27.676  31.403  1.00  0.00     0.031 C 
ATOM     61  C   UNL A   1      43.245  29.307  33.264  1.00  0.00     0.037 A 
BRANCH  48  62
ATOM     62  C   UNL A   1      40.534  34.357  35.572  1.00  0.00     0.057 A 
ATOM     63  C   UNL A   1      41.272  35.535  35.407  1.00  0.00     0.134 A 
ATOM     64  C   UNL A   1      39.777  34.224  36.744  1.00  0.00     0.134 A 
ATOM     65  F   UNL A   1      42.015  35.725  34.306  1.00  0.00    -0.206 F 
ATOM     66  C   UNL A   1      41.252  36.546  36.369  1.00  0.00     0.040 A 
ATOM     67  C   UNL A   1      39.732  35.236  37.702  1.00  0.00     0.040 A 
ATOM     68  F   UNL A   1      39.033  33.127  36.950  1.00  0.00    -0.206 F 
ATOM     69  C   UNL A   1      40.476  36.401  37.517  1.00  0.00     0.006 A 
ENDBRANCH  48  62
BRANCH  49  70
ATOM     70  C   UNL A   1      40.291  27.508  28.309  1.00  0.00     0.057 A 
ATOM     71  C   UNL A   1      40.954  27.717  27.094  1.00  0.00     0.134 A 
ATOM     72  C   UNL A   1      39.645  26.280  28.491  1.00  0.00     0.134 A 
ATOM     73  F   UNL A   1      41.588  28.875  26.859  1.00  0.00    -0.206 F 
ATOM     74  C   UNL A   1      40.978  26.738  26.099  1.00  0.00     0.040 A 
ATOM     75  C   UNL A   1      39.677  25.285  27.513  1.00  0.00     0.040 A 
ATOM     76  F   UNL A   1      39.011  26.016  29.643  1.00  0.00    -0.206 F 
ATOM     77  C   UNL A   1      40.345  25.514  26.312  1.00  0.00     0.006 A 
ENDBRANCH  49  70
BRANCH  61  78
ATOM     78  C   UNL A   1      44.433  28.557  33.781  1.00  0.00     0.057 A 
ATOM     79  C   UNL A   1      44.270  27.491  34.673  1.00  0.00     0.134 A 
ATOM     80  C   UNL A   1      45.739  28.909  33.419  1.00  0.00     0.134 A 
ATOM     81  F   UNL A   1      43.043  27.109  35.061  1.00  0.00    -0.206 F 
ATOM     82  C   UNL A   1      45.366  26.800  35.190  1.00  0.00     0.040 A 
ATOM     83  C   UNL A   1      46.843  28.213  33.914  1.00  0.00     0.040 A 
ATOM     84  F   UNL A   1      45.958  29.912  32.555  1.00  0.00    -0.206 F 
ATOM     85  C   UNL A   1      46.657  27.159  34.807  1.00  0.00     0.006 A 
ENDBRANCH  61  78
ENDBRANCH  35  36
ENDBRANCH  27  30
ENDBRANCH  25  26
ENDBRANCH   1  25
TORSDOF 13
ENDMDL
MODEL 3
REMARK VINA RESULT:     -12.4      1.608      2.291
REMARK SMILES COc1cc(Cl)c2c(c1)C=C(C(=O)NCCCCNC(=O)c1ccc(-c3c4nc(c(-c5c(F)cccc5F)c5ccc([nH]5)c(-c5c(F)cccc5F)c5nc(c(-c6c(F)cccc6F)c6ccc3[nH]6)C=C5)C=C4)cc1)[C@@H](C(F)(F)F)O2
REMARK SMILES IDX 17 1 16 2 15 3 14 4 12 5 13 6 11 8 3 9 4 10 9 11 5 12 8 13
REMARK SMILES IDX 6 14 7 15 10 16 81 17 76 18 2 19 1 20 77 21 78 22 79 23
REMARK SMILES IDX 80 24 18 25 19 26 20 27 21 29 22 30 23 31 75 32 24 33 74 34
REMARK SMILES IDX 25 35 26 36 27 37 68 38 28 39 73 40 67 41 69 42 29 43 72 44
REMARK SMILES IDX 66 45 65 46 30 48 56 49 39 50 55 51 40 52 43 53 54 54 70 55
REMARK SMILES IDX 41 56 42 57 53 59 71 60 44 61 31 62 32 63 37 64 33 65 34 66
REMARK SMILES IDX 36 67 38 68 35 69 57 70 58 71 63 72 59 73 60 74 62 75 64 76
REMARK SMILES IDX 61 77 45 78 46 79 51 80 47 81 48 82 50 83 52 84 49 85
REMARK H PARENT 14 7 19 28 69 47 43 58
REMARK Flexibility Score: inf
ROOT
ATOM      1  C   UNL A   1      38.092  19.828  25.002  1.00  0.00     0.023 C 
ENDROOT
BRANCH   1   2
ATOM      2  C   UNL A   1      37.299  21.072  24.598  1.00  0.00     0.023 C 
BRANCH   2   3
ATOM      3  C   UNL A   1      37.402  22.222  25.595  1.00  0.00     0.116 C 
BRANCH   3   4
ATOM      4  N   UNL A   1      36.245  22.280  26.468  1.00  0.00    -0.352 N 
ATOM      5  C   UNL A   1      35.018  22.850  26.442  1.00  0.00     0.251 C 
ATOM      6  O   UNL A   1      34.329  22.651  27.447  1.00  0.00    -0.270 OA
ATOM      7  H   UNL A   1      36.392  21.772  27.299  1.00  0.00     0.163 HD
BRANCH   5   8
ATOM      8  C   UNL A   1      34.468  23.665  25.318  1.00  0.00     0.067 C 
ATOM      9  C   UNL A   1      33.158  28.034  23.719  1.00  0.00     0.121 A 
ATOM     10  C   UNL A   1      32.878  27.506  22.459  1.00  0.00     0.070 A 
ATOM     11  C   UNL A   1      33.708  27.220  24.712  1.00  0.00     0.058 A 
ATOM     12  C   UNL A   1      33.109  26.153  22.211  1.00  0.00     0.087 A 
ATOM     13  C   UNL A   1      33.924  25.861  24.471  1.00  0.00     0.022 A 
ATOM     14  Cl  UNL A   1      32.748  25.530  20.641  1.00  0.00    -0.080 Cl
ATOM     15  C   UNL A   1      33.613  25.325  23.220  1.00  0.00     0.146 A 
ATOM     16  C   UNL A   1      34.492  24.999  25.501  1.00  0.00     0.025 C 
ATOM     17  O   UNL A   1      33.838  24.007  22.934  1.00  0.00    -0.474 OA
ATOM     18  C   UNL A   1      33.864  23.096  24.066  1.00  0.00     0.314 C 
BRANCH   9  19
ATOM     19  O   UNL A   1      32.981  29.348  24.055  1.00  0.00    -0.497 OA
ATOM     20  C   UNL A   1      32.930  29.587  25.460  1.00  0.00     0.278 C 
ENDBRANCH   9  19
BRANCH  18  21
ATOM     21  C   UNL A   1      32.453  22.519  24.295  1.00  0.00     0.429 C 
ATOM     22  F   UNL A   1      31.802  23.219  25.256  1.00  0.00    -0.167 F 
ATOM     23  F   UNL A   1      31.679  22.587  23.184  1.00  0.00    -0.167 F 
ATOM     24  F   UNL A   1      32.476  21.223  24.678  1.00  0.00    -0.167 F 
ENDBRANCH  18  21
ENDBRANCH   5   8
ENDBRANCH   3   4
ENDBRANCH   2   3
ENDBRANCH   1   2
BRANCH   1  25
ATOM     25  C   UNL A   1      39.276  20.085  25.931  1.00  0.00     0.116 C 
BRANCH  25  26
ATOM     26  N   UNL A   1      40.285  19.036  25.892  1.00  0.00    -0.352 N 
ATOM     27  C   UNL A   1      41.635  19.165  26.108  1.00  0.00     0.251 C 
ATOM     28  H   UNL A   1      39.962  18.129  25.688  1.00  0.00     0.163 HD
ATOM     29  O   UNL A   1      42.398  18.214  25.984  1.00  0.00    -0.269 OA
BRANCH  27  30
ATOM     30  C   UNL A   1      42.150  20.498  26.459  1.00  0.00     0.039 A 
ATOM     31  C   UNL A   1      42.476  21.386  25.432  1.00  0.00     0.014 A 
ATOM     32  C   UNL A   1      42.209  20.885  27.800  1.00  0.00     0.014 A 
ATOM     33  C   UNL A   1      42.813  22.699  25.752  1.00  0.00     0.010 A 
ATOM     34  C   UNL A   1      42.502  22.207  28.113  1.00  0.00     0.010 A 
ATOM     35  C   UNL A   1      42.803  23.121  27.091  1.00  0.00    -0.014 A 
BRANCH  35  36
ATOM     36  C   UNL A   1      43.151  24.512  27.451  1.00  0.00     0.031 A 
ATOM     37  C   UNL A   1      44.590  24.933  27.444  1.00  0.00     0.074 A 
ATOM     38  C   UNL A   1      42.186  25.369  27.832  1.00  0.00     0.049 A 
ATOM     39  N   UNL A   1      45.118  26.081  27.779  1.00  0.00    -0.248 NA
ATOM     40  C   UNL A   1      45.569  23.918  27.021  1.00  0.00     0.031 C 
ATOM     41  C   UNL A   1      40.757  25.061  27.910  1.00  0.00     0.029 A 
ATOM     42  N   UNL A   1      42.268  26.676  28.238  1.00  0.00    -0.354 N 
ATOM     43  C   UNL A   1      46.487  25.926  27.613  1.00  0.00     0.074 A 
ATOM     44  C   UNL A   1      46.714  24.559  27.196  1.00  0.00     0.031 C 
ATOM     45  C   UNL A   1      40.095  26.154  28.328  1.00  0.00     0.029 A 
ATOM     46  C   UNL A   1      41.055  27.227  28.567  1.00  0.00     0.049 A 
ATOM     47  H   UNL A   1      43.117  27.173  28.288  1.00  0.00     0.167 HD
ATOM     48  C   UNL A   1      47.465  26.846  27.771  1.00  0.00     0.037 A 
ATOM     49  C   UNL A   1      40.758  28.462  29.014  1.00  0.00     0.037 A 
ATOM     50  C   UNL A   1      47.236  28.208  28.167  1.00  0.00     0.049 A 
ATOM     51  C   UNL A   1      41.868  29.461  29.200  1.00  0.00     0.074 A 
ATOM     52  C   UNL A   1      48.154  29.233  28.315  1.00  0.00     0.029 A 
ATOM     53  N   UNL A   1      45.992  28.734  28.481  1.00  0.00    -0.354 N 
ATOM     54  N   UNL A   1      43.153  29.319  28.983  1.00  0.00    -0.248 NA
ATOM     55  C   UNL A   1      41.482  30.793  29.688  1.00  0.00     0.031 C 
ATOM     56  C   UNL A   1      47.467  30.374  28.742  1.00  0.00     0.029 A 
ATOM     57  C   UNL A   1      46.119  30.066  28.834  1.00  0.00     0.049 A 
ATOM     58  H   UNL A   1      45.144  28.233  28.457  1.00  0.00     0.167 HD
ATOM     59  C   UNL A   1      43.726  30.549  29.279  1.00  0.00     0.074 A 
ATOM     60  C   UNL A   1      42.646  31.426  29.684  1.00  0.00     0.031 C 
ATOM     61  C   UNL A   1      45.027  30.921  29.221  1.00  0.00     0.037 A 
BRANCH  48  62
ATOM     62  C   UNL A   1      48.868  26.397  27.499  1.00  0.00     0.057 A 
ATOM     63  C   UNL A   1      49.682  25.919  28.532  1.00  0.00     0.134 A 
ATOM     64  C   UNL A   1      49.412  26.437  26.208  1.00  0.00     0.134 A 
ATOM     65  F   UNL A   1      49.218  25.853  29.789  1.00  0.00    -0.206 F 
ATOM     66  C   UNL A   1      50.987  25.488  28.290  1.00  0.00     0.040 A 
ATOM     67  C   UNL A   1      50.708  25.990  25.950  1.00  0.00     0.040 A 
ATOM     68  F   UNL A   1      48.675  26.867  25.174  1.00  0.00    -0.206 F 
ATOM     69  C   UNL A   1      51.500  25.516  26.994  1.00  0.00     0.006 A 
ENDBRANCH  48  62
BRANCH  49  70
ATOM     70  C   UNL A   1      39.353  28.842  29.296  1.00  0.00     0.057 A 
ATOM     71  C   UNL A   1      38.533  29.398  28.308  1.00  0.00     0.134 A 
ATOM     72  C   UNL A   1      38.788  28.619  30.557  1.00  0.00     0.134 A 
ATOM     73  F   UNL A   1      39.018  29.638  27.082  1.00  0.00    -0.206 F 
ATOM     74  C   UNL A   1      37.197  29.714  28.563  1.00  0.00     0.040 A 
ATOM     75  C   UNL A   1      37.450  28.912  30.820  1.00  0.00     0.040 A 
ATOM     76  F   UNL A   1      39.521  28.069  31.537  1.00  0.00    -0.206 F 
ATOM     77  C   UNL A   1      36.650  29.463  29.820  1.00  0.00     0.006 A 
ENDBRANCH  49  70
BRANCH  61  78
ATOM     78  C   UNL A   1      45.343  32.344  29.566  1.00  0.00     0.057 A 
ATOM     79  C   UNL A   1      45.298  33.341  28.586  1.00  0.00     0.134 A 
ATOM     80  C   UNL A   1      45.718  32.719  30.862  1.00  0.00     0.134 A 
ATOM     81  F   UNL A   1      44.948  33.043  27.325  1.00  0.00    -0.206 F 
ATOM     82  C   UNL A   1      45.619  34.667  28.882  1.00  0.00     0.040 A 
ATOM     83  C   UNL A   1      46.023  34.044  31.174  1.00  0.00     0.040 A 
ATOM     84  F   UNL A   1      45.764  31.810  31.847  1.00  0.00    -0.206 F 
ATOM     85  C   UNL A   1      45.979  35.021  30.181  1.00  0.00     0.006 A 
ENDBRANCH  61  78
ENDBRANCH  35  36
ENDBRANCH  27  30
ENDBRANCH  25  26
ENDBRANCH   1  25
TORSDOF 13
ENDMDL
