MODEL 1
REMARK VINA RESULT:     -11.6      0.000      0.000
REMARK SMILES NC(=O)[C@H]1CC(C(=O)NCCCCNC(=O)c2ccc(-c3c4nc(c(-c5c(F)cccc5F)c5ccc([nH]5)c(-c5c(F)cccc5F)c5nc(c(-c6c(F)cccc6F)c6ccc3[nH]6)C=C5)C=C4)cc2)=NN1c1ccc(F)cc1
REMARK SMILES IDX 12 1 11 2 10 3 9 4 7 5 8 6 6 8 4 9 5 10 72 11 71 12 2 13
REMARK SMILES IDX 1 14 3 17 73 18 74 19 79 20 75 21 78 22 76 23 77 24 13 25
REMARK SMILES IDX 14 26 15 27 16 29 17 30 18 31 70 32 19 33 69 34 20 35 21 36
REMARK SMILES IDX 22 37 63 38 23 39 68 40 62 41 64 42 24 43 67 44 61 45 60 46
REMARK SMILES IDX 25 48 51 49 34 50 50 51 35 52 38 53 49 54 65 55 36 56 37 57
REMARK SMILES IDX 48 59 66 60 39 61 26 62 27 63 32 64 28 65 29 66 31 67 33 68
REMARK SMILES IDX 30 69 52 70 53 71 58 72 54 73 55 74 57 75 59 76 56 77 40 78
REMARK SMILES IDX 41 79 46 80 42 81 43 82 45 83 47 84 44 85
REMARK H PARENT 9 7 1 15 1 16 14 28 64 47 38 58
REMARK Flexibility Score: inf
ROOT
ATOM      1  C   UNL A   1      32.910  28.298  26.001  1.00  0.00     0.023 C 
ENDROOT
BRANCH   1   2
ATOM      2  C   UNL A   1      31.664  27.495  26.389  1.00  0.00     0.023 C 
BRANCH   2   3
ATOM      3  C   UNL A   1      31.553  26.145  25.689  1.00  0.00     0.116 C 
BRANCH   3   4
ATOM      4  N   UNL A   1      30.774  25.203  26.467  1.00  0.00    -0.351 N 
ATOM      5  C   UNL A   1      30.852  23.849  26.685  1.00  0.00     0.267 C 
ATOM      6  O   UNL A   1      29.974  23.337  27.376  1.00  0.00    -0.268 OA
ATOM      7  H   UNL A   1      30.023  25.626  26.943  1.00  0.00     0.163 HD
BRANCH   5   8
ATOM      8  C   UNL A   1      31.977  22.967  26.160  1.00  0.00     0.128 C 
ATOM      9  C   UNL A   1      33.197  21.431  24.911  1.00  0.00     0.203 C 
ATOM     10  C   UNL A   1      31.765  21.879  25.161  1.00  0.00     0.101 C 
ATOM     11  N   UNL A   1      33.969  22.289  25.792  1.00  0.00    -0.252 N 
ATOM     12  N   UNL A   1      33.213  23.166  26.512  1.00  0.00    -0.171 NA
BRANCH   9  13
ATOM     13  C   UNL A   1      33.331  19.951  25.290  1.00  0.00     0.242 C 
ATOM     14  N   UNL A   1      33.220  19.670  26.626  1.00  0.00    -0.368 N 
ATOM     15  H   UNL A   1      33.295  18.740  26.941  1.00  0.00     0.159 HD
ATOM     16  H   UNL A   1      33.064  20.397  27.271  1.00  0.00     0.159 HD
ATOM     17  O   UNL A   1      33.610  19.046  24.509  1.00  0.00    -0.273 OA
ENDBRANCH   9  13
BRANCH  11  18
ATOM     18  C   UNL A   1      35.353  22.386  25.786  1.00  0.00     0.061 A 
ATOM     19  C   UNL A   1      35.978  23.596  26.128  1.00  0.00     0.031 A 
ATOM     20  C   UNL A   1      36.171  21.301  25.434  1.00  0.00     0.031 A 
ATOM     21  C   UNL A   1      37.371  23.708  26.159  1.00  0.00     0.041 A 
ATOM     22  C   UNL A   1      37.564  21.415  25.432  1.00  0.00     0.041 A 
ATOM     23  C   UNL A   1      38.150  22.617  25.807  1.00  0.00     0.123 A 
ATOM     24  F   UNL A   1      39.485  22.720  25.823  1.00  0.00    -0.207 F 
ENDBRANCH  11  18
ENDBRANCH   5   8
ENDBRANCH   3   4
ENDBRANCH   2   3
ENDBRANCH   1   2
BRANCH   1  25
ATOM     25  C   UNL A   1      33.901  28.550  27.134  1.00  0.00     0.116 C 
BRANCH  25  26
ATOM     26  N   UNL A   1      33.813  29.889  27.698  1.00  0.00    -0.352 N 
ATOM     27  C   UNL A   1      34.781  30.605  28.359  1.00  0.00     0.251 C 
ATOM     28  H   UNL A   1      32.945  30.341  27.592  1.00  0.00     0.163 HD
ATOM     29  O   UNL A   1      34.513  31.693  28.860  1.00  0.00    -0.269 OA
BRANCH  27  30
ATOM     30  C   UNL A   1      36.136  30.036  28.497  1.00  0.00     0.039 A 
ATOM     31  C   UNL A   1      37.032  30.166  27.433  1.00  0.00     0.014 A 
ATOM     32  C   UNL A   1      36.531  29.411  29.683  1.00  0.00     0.014 A 
ATOM     33  C   UNL A   1      38.346  29.725  27.584  1.00  0.00     0.010 A 
ATOM     34  C   UNL A   1      37.859  29.041  29.857  1.00  0.00     0.010 A 
ATOM     35  C   UNL A   1      38.780  29.191  28.809  1.00  0.00    -0.014 A 
BRANCH  35  36
ATOM     36  C   UNL A   1      40.192  28.781  29.010  1.00  0.00     0.031 A 
ATOM     37  C   UNL A   1      41.173  29.737  29.629  1.00  0.00     0.074 A 
ATOM     38  C   UNL A   1      40.604  27.574  28.579  1.00  0.00     0.049 A 
ATOM     39  N   UNL A   1      42.456  29.585  29.838  1.00  0.00    -0.248 NA
ATOM     40  C   UNL A   1      40.649  31.050  30.042  1.00  0.00     0.031 C 
ATOM     41  C   UNL A   1      39.761  26.579  27.911  1.00  0.00     0.029 A 
ATOM     42  N   UNL A   1      41.840  26.981  28.629  1.00  0.00    -0.354 N 
ATOM     43  C   UNL A   1      42.893  30.783  30.390  1.00  0.00     0.074 A 
ATOM     44  C   UNL A   1      41.752  31.671  30.431  1.00  0.00     0.031 C 
ATOM     45  C   UNL A   1      40.497  25.490  27.639  1.00  0.00     0.029 A 
ATOM     46  C   UNL A   1      41.869  25.721  28.080  1.00  0.00     0.049 A 
ATOM     47  H   UNL A   1      42.630  27.416  29.022  1.00  0.00     0.167 HD
ATOM     48  C   UNL A   1      44.126  31.104  30.846  1.00  0.00     0.037 A 
ATOM     49  C   UNL A   1      42.890  24.853  27.947  1.00  0.00     0.037 A 
ATOM     50  C   UNL A   1      45.252  30.209  30.830  1.00  0.00     0.049 A 
ATOM     51  C   UNL A   1      44.248  25.230  28.470  1.00  0.00     0.074 A 
ATOM     52  C   UNL A   1      46.527  30.418  31.324  1.00  0.00     0.029 A 
ATOM     53  N   UNL A   1      45.235  28.931  30.291  1.00  0.00    -0.354 N 
ATOM     54  N   UNL A   1      44.630  26.339  29.056  1.00  0.00    -0.248 NA
ATOM     55  C   UNL A   1      45.316  24.231  28.320  1.00  0.00     0.031 C 
ATOM     56  C   UNL A   1      47.295  29.282  31.047  1.00  0.00     0.029 A 
ATOM     57  C   UNL A   1      46.484  28.346  30.425  1.00  0.00     0.049 A 
ATOM     58  H   UNL A   1      44.453  28.503  29.874  1.00  0.00     0.167 HD
ATOM     59  C   UNL A   1      45.970  26.160  29.373  1.00  0.00     0.074 A 
ATOM     60  C   UNL A   1      46.331  24.831  28.925  1.00  0.00     0.031 C 
ATOM     61  C   UNL A   1      46.823  27.017  29.983  1.00  0.00     0.037 A 
BRANCH  48  62
ATOM     62  C   UNL A   1      44.317  32.483  31.409  1.00  0.00     0.057 A 
ATOM     63  C   UNL A   1      44.114  32.760  32.767  1.00  0.00     0.134 A 
ATOM     64  C   UNL A   1      44.737  33.540  30.591  1.00  0.00     0.134 A 
ATOM     65  F   UNL A   1      43.698  31.796  33.604  1.00  0.00    -0.206 F 
ATOM     66  C   UNL A   1      44.294  34.044  33.286  1.00  0.00     0.040 A 
ATOM     67  C   UNL A   1      44.947  34.820  31.104  1.00  0.00     0.040 A 
ATOM     68  F   UNL A   1      44.955  33.342  29.282  1.00  0.00    -0.206 F 
ATOM     69  C   UNL A   1      44.719  35.077  32.454  1.00  0.00     0.006 A 
ENDBRANCH  48  62
BRANCH  49  70
ATOM     70  C   UNL A   1      42.659  23.526  27.322  1.00  0.00     0.057 A 
ATOM     71  C   UNL A   1      42.913  23.316  25.961  1.00  0.00     0.134 A 
ATOM     72  C   UNL A   1      42.176  22.441  28.062  1.00  0.00     0.134 A 
ATOM     73  F   UNL A   1      43.362  24.323  25.196  1.00  0.00    -0.206 F 
ATOM     74  C   UNL A   1      42.675  22.083  25.354  1.00  0.00     0.040 A 
ATOM     75  C   UNL A   1      41.956  21.194  27.473  1.00  0.00     0.040 A 
ATOM     76  F   UNL A   1      41.923  22.574  29.372  1.00  0.00    -0.206 F 
ATOM     77  C   UNL A   1      42.199  21.015  26.113  1.00  0.00     0.006 A 
ENDBRANCH  49  70
BRANCH  61  78
ATOM     78  C   UNL A   1      48.219  26.531  30.241  1.00  0.00     0.057 A 
ATOM     79  C   UNL A   1      48.557  25.832  31.407  1.00  0.00     0.134 A 
ATOM     80  C   UNL A   1      49.227  26.729  29.288  1.00  0.00     0.134 A 
ATOM     81  F   UNL A   1      47.640  25.621  32.363  1.00  0.00    -0.206 F 
ATOM     82  C   UNL A   1      49.855  25.367  31.626  1.00  0.00     0.040 A 
ATOM     83  C   UNL A   1      50.521  26.245  29.484  1.00  0.00     0.040 A 
ATOM     84  F   UNL A   1      48.967  27.382  28.147  1.00  0.00    -0.206 F 
ATOM     85  C   UNL A   1      50.839  25.567  30.660  1.00  0.00     0.006 A 
ENDBRANCH  61  78
ENDBRANCH  35  36
ENDBRANCH  27  30
ENDBRANCH  25  26
ENDBRANCH   1  25
TORSDOF 13
ENDMDL
MODEL 2
REMARK VINA RESULT:     -11.6      1.487      2.345
REMARK SMILES NC(=O)[C@H]1CC(C(=O)NCCCCNC(=O)c2ccc(-c3c4nc(c(-c5c(F)cccc5F)c5ccc([nH]5)c(-c5c(F)cccc5F)c5nc(c(-c6c(F)cccc6F)c6ccc3[nH]6)C=C5)C=C4)cc2)=NN1c1ccc(F)cc1
REMARK SMILES IDX 12 1 11 2 10 3 9 4 7 5 8 6 6 8 4 9 5 10 72 11 71 12 2 13
REMARK SMILES IDX 1 14 3 17 73 18 74 19 79 20 75 21 78 22 76 23 77 24 13 25
REMARK SMILES IDX 14 26 15 27 16 29 17 30 18 31 70 32 19 33 69 34 20 35 21 36
REMARK SMILES IDX 22 37 63 38 23 39 68 40 62 41 64 42 24 43 67 44 61 45 60 46
REMARK SMILES IDX 25 48 51 49 34 50 50 51 35 52 38 53 49 54 65 55 36 56 37 57
REMARK SMILES IDX 48 59 66 60 39 61 26 62 27 63 32 64 28 65 29 66 31 67 33 68
REMARK SMILES IDX 30 69 52 70 53 71 58 72 54 73 55 74 57 75 59 76 56 77 40 78
REMARK SMILES IDX 41 79 46 80 42 81 43 82 45 83 47 84 44 85
REMARK H PARENT 9 7 1 15 1 16 14 28 64 47 38 58
REMARK Flexibility Score: inf
ROOT
ATOM      1  C   UNL A   1      32.557  28.236  26.264  1.00  0.00     0.023 C 
ENDROOT
BRANCH   1   2
ATOM      2  C   UNL A   1      31.508  27.300  26.871  1.00  0.00     0.023 C 
BRANCH   2   3
ATOM      3  C   UNL A   1      31.113  26.138  25.965  1.00  0.00     0.116 C 
BRANCH   3   4
ATOM      4  N   UNL A   1      30.634  25.004  26.728  1.00  0.00    -0.351 N 
ATOM      5  C   UNL A   1      30.855  23.650  26.667  1.00  0.00     0.267 C 
ATOM      6  O   UNL A   1      30.230  22.940  27.452  1.00  0.00    -0.268 OA
ATOM      7  H   UNL A   1      30.014  25.260  27.449  1.00  0.00     0.163 HD
BRANCH   5   8
ATOM      8  C   UNL A   1      31.852  22.993  25.721  1.00  0.00     0.128 C 
ATOM      9  C   UNL A   1      33.738  22.562  24.432  1.00  0.00     0.203 C 
ATOM     10  C   UNL A   1      33.063  23.689  25.196  1.00  0.00     0.101 C 
ATOM     11  N   UNL A   1      32.827  21.446  24.618  1.00  0.00    -0.252 N 
ATOM     12  N   UNL A   1      31.731  21.747  25.371  1.00  0.00    -0.171 NA
BRANCH   9  13
ATOM     13  C   UNL A   1      33.861  22.961  22.957  1.00  0.00     0.242 C 
ATOM     14  N   UNL A   1      32.693  22.956  22.242  1.00  0.00    -0.368 N 
ATOM     15  H   UNL A   1      32.698  23.203  21.289  1.00  0.00     0.159 HD
ATOM     16  H   UNL A   1      31.848  22.707  22.682  1.00  0.00     0.159 HD
ATOM     17  O   UNL A   1      34.918  23.190  22.375  1.00  0.00    -0.273 OA
ENDBRANCH   9  13
BRANCH  11  18
ATOM     18  C   UNL A   1      33.101  20.134  24.259  1.00  0.00     0.061 A 
ATOM     19  C   UNL A   1      32.252  19.452  23.373  1.00  0.00     0.031 A 
ATOM     20  C   UNL A   1      34.212  19.443  24.766  1.00  0.00     0.031 A 
ATOM     21  C   UNL A   1      32.525  18.141  22.973  1.00  0.00     0.041 A 
ATOM     22  C   UNL A   1      34.474  18.122  24.395  1.00  0.00     0.041 A 
ATOM     23  C   UNL A   1      33.632  17.487  23.492  1.00  0.00     0.123 A 
ATOM     24  F   UNL A   1      33.894  16.227  23.122  1.00  0.00    -0.207 F 
ENDBRANCH  11  18
ENDBRANCH   5   8
ENDBRANCH   3   4
ENDBRANCH   2   3
ENDBRANCH   1   2
BRANCH   1  25
ATOM     25  C   UNL A   1      33.714  28.606  27.188  1.00  0.00     0.116 C 
BRANCH  25  26
ATOM     26  N   UNL A   1      33.658  29.977  27.672  1.00  0.00    -0.352 N 
ATOM     27  C   UNL A   1      34.649  30.715  28.272  1.00  0.00     0.251 C 
ATOM     28  H   UNL A   1      32.795  30.436  27.555  1.00  0.00     0.163 HD
ATOM     29  O   UNL A   1      34.408  31.836  28.711  1.00  0.00    -0.269 OA
BRANCH  27  30
ATOM     30  C   UNL A   1      35.998  30.133  28.418  1.00  0.00     0.039 A 
ATOM     31  C   UNL A   1      36.869  30.171  27.327  1.00  0.00     0.014 A 
ATOM     32  C   UNL A   1      36.411  29.587  29.636  1.00  0.00     0.014 A 
ATOM     33  C   UNL A   1      38.180  29.718  27.478  1.00  0.00     0.010 A 
ATOM     34  C   UNL A   1      37.737  29.206  29.805  1.00  0.00     0.010 A 
ATOM     35  C   UNL A   1      38.635  29.265  28.728  1.00  0.00    -0.014 A 
BRANCH  35  36
ATOM     36  C   UNL A   1      40.044  28.845  28.925  1.00  0.00     0.031 A 
ATOM     37  C   UNL A   1      41.042  29.805  29.511  1.00  0.00     0.074 A 
ATOM     38  C   UNL A   1      40.439  27.624  28.519  1.00  0.00     0.049 A 
ATOM     39  N   UNL A   1      42.324  29.645  29.711  1.00  0.00    -0.248 NA
ATOM     40  C   UNL A   1      40.535  31.133  29.898  1.00  0.00     0.031 C 
ATOM     41  C   UNL A   1      39.580  26.622  27.884  1.00  0.00     0.029 A 
ATOM     42  N   UNL A   1      41.670  27.019  28.571  1.00  0.00    -0.354 N 
ATOM     43  C   UNL A   1      42.779  30.851  30.229  1.00  0.00     0.074 A 
ATOM     44  C   UNL A   1      41.649  31.752  30.260  1.00  0.00     0.031 C 
ATOM     45  C   UNL A   1      40.302  25.519  27.631  1.00  0.00     0.029 A 
ATOM     46  C   UNL A   1      41.680  25.746  28.053  1.00  0.00     0.049 A 
ATOM     47  H   UNL A   1      42.468  27.455  28.946  1.00  0.00     0.167 HD
ATOM     48  C   UNL A   1      44.020  31.170  30.666  1.00  0.00     0.037 A 
ATOM     49  C   UNL A   1      42.691  24.864  27.930  1.00  0.00     0.037 A 
ATOM     50  C   UNL A   1      45.137  30.262  30.660  1.00  0.00     0.049 A 
ATOM     51  C   UNL A   1      44.057  25.239  28.430  1.00  0.00     0.074 A 
ATOM     52  C   UNL A   1      46.419  30.470  31.137  1.00  0.00     0.029 A 
ATOM     53  N   UNL A   1      45.101  28.972  30.152  1.00  0.00    -0.354 N 
ATOM     54  N   UNL A   1      44.457  26.358  28.986  1.00  0.00    -0.248 NA
ATOM     55  C   UNL A   1      45.113  24.226  28.294  1.00  0.00     0.031 C 
ATOM     56  C   UNL A   1      47.172  29.319  30.880  1.00  0.00     0.029 A 
ATOM     57  C   UNL A   1      46.345  28.377  30.288  1.00  0.00     0.049 A 
ATOM     58  H   UNL A   1      44.310  28.543  29.754  1.00  0.00     0.167 HD
ATOM     59  C   UNL A   1      45.798  26.172  29.294  1.00  0.00     0.074 A 
ATOM     60  C   UNL A   1      46.141  24.830  28.874  1.00  0.00     0.031 C 
ATOM     61  C   UNL A   1      46.666  27.035  29.875  1.00  0.00     0.037 A 
BRANCH  48  62
ATOM     62  C   UNL A   1      44.232  32.559  31.194  1.00  0.00     0.057 A 
ATOM     63  C   UNL A   1      44.616  33.616  30.360  1.00  0.00     0.134 A 
ATOM     64  C   UNL A   1      44.021  32.850  32.548  1.00  0.00     0.134 A 
ATOM     65  F   UNL A   1      44.848  33.403  29.055  1.00  0.00    -0.206 F 
ATOM     66  C   UNL A   1      44.812  34.906  30.856  1.00  0.00     0.040 A 
ATOM     67  C   UNL A   1      44.185  34.142  33.051  1.00  0.00     0.040 A 
ATOM     68  F   UNL A   1      43.646  31.886  33.402  1.00  0.00    -0.206 F 
ATOM     69  C   UNL A   1      44.588  35.173  32.205  1.00  0.00     0.006 A 
ENDBRANCH  48  62
BRANCH  49  70
ATOM     70  C   UNL A   1      42.440  23.525  27.340  1.00  0.00     0.057 A 
ATOM     71  C   UNL A   1      42.582  23.306  25.964  1.00  0.00     0.134 A 
ATOM     72  C   UNL A   1      42.048  22.437  28.128  1.00  0.00     0.134 A 
ATOM     73  F   UNL A   1      42.940  24.314  25.154  1.00  0.00    -0.206 F 
ATOM     74  C   UNL A   1      42.323  22.060  25.391  1.00  0.00     0.040 A 
ATOM     75  C   UNL A   1      41.809  21.180  27.572  1.00  0.00     0.040 A 
ATOM     76  F   UNL A   1      41.904  22.580  29.454  1.00  0.00    -0.206 F 
ATOM     77  C   UNL A   1      41.939  20.991  26.198  1.00  0.00     0.006 A 
ENDBRANCH  49  70
BRANCH  61  78
ATOM     78  C   UNL A   1      48.060  26.540  30.131  1.00  0.00     0.057 A 
ATOM     79  C   UNL A   1      48.420  25.933  31.340  1.00  0.00     0.134 A 
ATOM     80  C   UNL A   1      49.041  26.635  29.135  1.00  0.00     0.134 A 
ATOM     81  F   UNL A   1      47.530  25.823  32.338  1.00  0.00    -0.206 F 
ATOM     82  C   UNL A   1      49.715  25.458  31.558  1.00  0.00     0.040 A 
ATOM     83  C   UNL A   1      50.330  26.141  29.331  1.00  0.00     0.040 A 
ATOM     84  F   UNL A   1      48.757  27.198  27.951  1.00  0.00    -0.206 F 
ATOM     85  C   UNL A   1      50.671  25.555  30.550  1.00  0.00     0.006 A 
ENDBRANCH  61  78
ENDBRANCH  35  36
ENDBRANCH  27  30
ENDBRANCH  25  26
ENDBRANCH   1  25
TORSDOF 13
ENDMDL
MODEL 3
REMARK VINA RESULT:     -11.5      2.320      7.660
REMARK SMILES NC(=O)[C@H]1CC(C(=O)NCCCCNC(=O)c2ccc(-c3c4nc(c(-c5c(F)cccc5F)c5ccc([nH]5)c(-c5c(F)cccc5F)c5nc(c(-c6c(F)cccc6F)c6ccc3[nH]6)C=C5)C=C4)cc2)=NN1c1ccc(F)cc1
REMARK SMILES IDX 12 1 11 2 10 3 9 4 7 5 8 6 6 8 4 9 5 10 72 11 71 12 2 13
REMARK SMILES IDX 1 14 3 17 73 18 74 19 79 20 75 21 78 22 76 23 77 24 13 25
REMARK SMILES IDX 14 26 15 27 16 29 17 30 18 31 70 32 19 33 69 34 20 35 21 36
REMARK SMILES IDX 22 37 63 38 23 39 68 40 62 41 64 42 24 43 67 44 61 45 60 46
REMARK SMILES IDX 25 48 51 49 34 50 50 51 35 52 38 53 49 54 65 55 36 56 37 57
REMARK SMILES IDX 48 59 66 60 39 61 26 62 27 63 32 64 28 65 29 66 31 67 33 68
REMARK SMILES IDX 30 69 52 70 53 71 58 72 54 73 55 74 57 75 59 76 56 77 40 78
REMARK SMILES IDX 41 79 46 80 42 81 43 82 45 83 47 84 44 85
REMARK H PARENT 9 7 1 15 1 16 14 28 64 47 38 58
REMARK Flexibility Score: inf
ROOT
ATOM      1  C   UNL A   1      37.505  20.018  24.876  1.00  0.00     0.023 C 
ENDROOT
BRANCH   1   2
ATOM      2  C   UNL A   1      36.299  20.935  25.101  1.00  0.00     0.023 C 
BRANCH   2   3
ATOM      3  C   UNL A   1      36.529  22.380  24.670  1.00  0.00     0.116 C 
BRANCH   3   4
ATOM      4  N   UNL A   1      35.793  22.700  23.464  1.00  0.00    -0.351 N 
ATOM      5  C   UNL A   1      34.595  23.322  23.213  1.00  0.00     0.267 C 
ATOM      6  O   UNL A   1      34.226  23.384  22.042  1.00  0.00    -0.268 OA
ATOM      7  H   UNL A   1      36.254  22.409  22.644  1.00  0.00     0.163 HD
BRANCH   5   8
ATOM      8  C   UNL A   1      33.730  23.966  24.288  1.00  0.00     0.128 C 
ATOM      9  C   UNL A   1      32.423  24.302  26.182  1.00  0.00     0.203 C 
ATOM     10  C   UNL A   1      32.995  23.184  25.325  1.00  0.00     0.101 C 
ATOM     11  N   UNL A   1      32.888  25.503  25.510  1.00  0.00    -0.252 N 
ATOM     12  N   UNL A   1      33.640  25.258  24.400  1.00  0.00    -0.171 NA
BRANCH   9  13
ATOM     13  C   UNL A   1      30.893  24.200  26.181  1.00  0.00     0.242 C 
ATOM     14  N   UNL A   1      30.281  24.491  24.991  1.00  0.00    -0.368 N 
ATOM     15  H   UNL A   1      29.301  24.445  24.918  1.00  0.00     0.159 HD
ATOM     16  H   UNL A   1      30.822  24.745  24.208  1.00  0.00     0.159 HD
ATOM     17  O   UNL A   1      30.202  23.969  27.169  1.00  0.00    -0.273 OA
ENDBRANCH   9  13
BRANCH  11  18
ATOM     18  C   UNL A   1      32.776  26.788  26.021  1.00  0.00     0.061 A 
ATOM     19  C   UNL A   1      33.648  27.799  25.588  1.00  0.00     0.031 A 
ATOM     20  C   UNL A   1      31.810  27.121  26.983  1.00  0.00     0.031 A 
ATOM     21  C   UNL A   1      33.534  29.107  26.066  1.00  0.00     0.041 A 
ATOM     22  C   UNL A   1      31.711  28.420  27.489  1.00  0.00     0.041 A 
ATOM     23  C   UNL A   1      32.568  29.404  27.015  1.00  0.00     0.123 A 
ATOM     24  F   UNL A   1      32.460  30.653  27.486  1.00  0.00    -0.207 F 
ENDBRANCH  11  18
ENDBRANCH   5   8
ENDBRANCH   3   4
ENDBRANCH   2   3
ENDBRANCH   1   2
BRANCH   1  25
ATOM     25  C   UNL A   1      38.821  20.512  25.471  1.00  0.00     0.116 C 
BRANCH  25  26
ATOM     26  N   UNL A   1      39.842  19.480  25.564  1.00  0.00    -0.352 N 
ATOM     27  C   UNL A   1      41.132  19.590  26.025  1.00  0.00     0.251 C 
ATOM     28  H   UNL A   1      39.574  18.585  25.255  1.00  0.00     0.163 HD
ATOM     29  O   UNL A   1      41.901  18.637  25.946  1.00  0.00    -0.269 OA
BRANCH  27  30
ATOM     30  C   UNL A   1      41.595  20.877  26.579  1.00  0.00     0.039 A 
ATOM     31  C   UNL A   1      42.080  21.851  25.704  1.00  0.00     0.014 A 
ATOM     32  C   UNL A   1      41.517  21.133  27.951  1.00  0.00     0.014 A 
ATOM     33  C   UNL A   1      42.427  23.108  26.199  1.00  0.00     0.010 A 
ATOM     34  C   UNL A   1      41.792  22.408  28.430  1.00  0.00     0.010 A 
ATOM     35  C   UNL A   1      42.252  23.409  27.560  1.00  0.00    -0.014 A 
BRANCH  35  36
ATOM     36  C   UNL A   1      42.549  24.762  28.092  1.00  0.00     0.031 A 
ATOM     37  C   UNL A   1      43.947  25.113  28.519  1.00  0.00     0.074 A 
ATOM     38  C   UNL A   1      41.550  25.651  28.248  1.00  0.00     0.049 A 
ATOM     39  N   UNL A   1      44.393  26.219  29.056  1.00  0.00    -0.248 NA
ATOM     40  C   UNL A   1      44.974  24.073  28.346  1.00  0.00     0.031 C 
ATOM     41  C   UNL A   1      40.142  25.409  27.924  1.00  0.00     0.029 A 
ATOM     42  N   UNL A   1      41.564  26.936  28.729  1.00  0.00    -0.354 N 
ATOM     43  C   UNL A   1      45.744  26.003  29.299  1.00  0.00     0.074 A 
ATOM     44  C   UNL A   1      46.032  24.643  28.904  1.00  0.00     0.031 C 
ATOM     45  C   UNL A   1      39.434  26.518  28.190  1.00  0.00     0.029 A 
ATOM     46  C   UNL A   1      40.328  27.535  28.734  1.00  0.00     0.049 A 
ATOM     47  H   UNL A   1      42.382  27.385  29.040  1.00  0.00     0.167 HD
ATOM     48  C   UNL A   1      46.666  26.869  29.782  1.00  0.00     0.037 A 
ATOM     49  C   UNL A   1      39.959  28.767  29.135  1.00  0.00     0.037 A 
ATOM     50  C   UNL A   1      46.383  28.231  30.147  1.00  0.00     0.049 A 
ATOM     51  C   UNL A   1      41.003  29.712  29.659  1.00  0.00     0.074 A 
ATOM     52  C   UNL A   1      47.259  29.206  30.589  1.00  0.00     0.029 A 
ATOM     53  N   UNL A   1      45.122  28.810  30.112  1.00  0.00    -0.354 N 
ATOM     54  N   UNL A   1      42.291  29.518  29.814  1.00  0.00    -0.248 NA
ATOM     55  C   UNL A   1      40.545  31.051  30.056  1.00  0.00     0.031 C 
ATOM     56  C   UNL A   1      46.524  30.364  30.860  1.00  0.00     0.029 A 
ATOM     57  C   UNL A   1      45.196  30.126  30.541  1.00  0.00     0.049 A 
ATOM     58  H   UNL A   1      44.299  28.355  29.826  1.00  0.00     0.167 HD
ATOM     59  C   UNL A   1      42.800  30.717  30.295  1.00  0.00     0.074 A 
ATOM     60  C   UNL A   1      41.686  31.635  30.395  1.00  0.00     0.031 C 
ATOM     61  C   UNL A   1      44.078  31.030  30.622  1.00  0.00     0.037 A 
BRANCH  48  62
ATOM     62  C   UNL A   1      48.073  26.366  29.934  1.00  0.00     0.057 A 
ATOM     63  C   UNL A   1      49.008  26.463  28.895  1.00  0.00     0.134 A 
ATOM     64  C   UNL A   1      48.507  25.805  31.141  1.00  0.00     0.134 A 
ATOM     65  F   UNL A   1      48.654  26.978  27.707  1.00  0.00    -0.206 F 
ATOM     66  C   UNL A   1      50.315  25.995  29.041  1.00  0.00     0.040 A 
ATOM     67  C   UNL A   1      49.819  25.359  31.309  1.00  0.00     0.040 A 
ATOM     68  F   UNL A   1      47.665  25.686  32.179  1.00  0.00    -0.206 F 
ATOM     69  C   UNL A   1      50.725  25.447  30.254  1.00  0.00     0.006 A 
ENDBRANCH  48  62
BRANCH  49  70
ATOM     70  C   UNL A   1      38.540  29.190  29.023  1.00  0.00     0.057 A 
ATOM     71  C   UNL A   1      37.677  29.116  30.123  1.00  0.00     0.134 A 
ATOM     72  C   UNL A   1      38.010  29.671  27.820  1.00  0.00     0.134 A 
ATOM     73  F   UNL A   1      38.122  28.648  31.299  1.00  0.00    -0.206 F 
ATOM     74  C   UNL A   1      36.334  29.485  30.026  1.00  0.00     0.040 A 
ATOM     75  C   UNL A   1      36.676  30.066  27.715  1.00  0.00     0.040 A 
ATOM     76  F   UNL A   1      38.788  29.775  26.732  1.00  0.00    -0.206 F 
ATOM     77  C   UNL A   1      35.831  29.965  28.818  1.00  0.00     0.006 A 
ENDBRANCH  49  70
BRANCH  61  78
ATOM     78  C   UNL A   1      44.347  32.434  31.077  1.00  0.00     0.057 A 
ATOM     79  C   UNL A   1      44.329  32.790  32.432  1.00  0.00     0.134 A 
ATOM     80  C   UNL A   1      44.669  33.433  30.149  1.00  0.00     0.134 A 
ATOM     81  F   UNL A   1      44.015  31.883  33.370  1.00  0.00    -0.206 F 
ATOM     82  C   UNL A   1      44.601  34.096  32.844  1.00  0.00     0.040 A 
ATOM     83  C   UNL A   1      44.968  34.734  30.551  1.00  0.00     0.040 A 
ATOM     84  F   UNL A   1      44.712  33.155  28.838  1.00  0.00    -0.206 F 
ATOM     85  C   UNL A   1      44.928  35.070  31.904  1.00  0.00     0.006 A 
ENDBRANCH  61  78
ENDBRANCH  35  36
ENDBRANCH  27  30
ENDBRANCH  25  26
ENDBRANCH   1  25
TORSDOF 13
ENDMDL
