MODEL 1
REMARK VINA RESULT:     -13.2      0.000      0.000
REMARK SMILES O=C(NCCCCNC(=O)[C@H]1CC=CC[C@@H]1C(=O)N[C@@H]1CCCN(c2ccccc2F)C1=O)c1ccc(-c2c3nc(c(-c4c(F)cccc4F)c4ccc([nH]4)c(-c4c(F)cccc4F)c4nc(c(-c5c(F)cccc5F)c5ccc2[nH]5)C=C4)C=C3)cc1
REMARK SMILES IDX 6 1 5 2 4 3 3 4 1 5 2 6 34 8 35 9 87 10 36 11 86 12 37 13
REMARK SMILES IDX 38 14 39 15 80 16 40 17 85 18 79 19 81 20 41 21 84 22 78 23
REMARK SMILES IDX 77 24 42 26 68 27 51 28 67 29 52 30 55 31 66 32 82 33 53 34
REMARK SMILES IDX 54 35 65 37 83 38 56 39 43 40 44 41 49 42 45 43 46 44 48 45
REMARK SMILES IDX 50 46 47 47 69 48 70 49 75 50 71 51 72 52 74 53 76 54 73 55
REMARK SMILES IDX 57 56 58 57 63 58 59 59 60 60 62 61 64 62 61 63 7 64 8 65
REMARK SMILES IDX 9 66 10 68 11 69 12 70 16 71 13 72 15 73 14 74 17 75 18 76
REMARK SMILES IDX 19 77 20 79 21 80 32 81 22 82 24 83 33 84 23 85 25 86 26 87
REMARK SMILES IDX 30 88 27 89 29 90 31 91 28 92
REMARK H PARENT 3 7 81 25 55 36 8 67 19 78
REMARK Flexibility Score: inf
ROOT
ATOM      1  C   UNL A   1      36.056  20.848  25.006  1.00  0.00     0.023 C 
ENDROOT
BRANCH   1   2
ATOM      2  C   UNL A   1      37.332  21.636  24.694  1.00  0.00     0.023 C 
BRANCH   2   3
ATOM      3  C   UNL A   1      38.491  21.472  25.676  1.00  0.00     0.116 C 
BRANCH   3   4
ATOM      4  N   UNL A   1      39.242  20.232  25.534  1.00  0.00    -0.352 N 
ATOM      5  O   UNL A   1      41.023  18.833  25.713  1.00  0.00    -0.269 OA
ATOM      6  C   UNL A   1      40.533  19.939  25.932  1.00  0.00     0.251 C 
ATOM      7  H   UNL A   1      38.762  19.497  25.089  1.00  0.00     0.163 HD
BRANCH   6   8
ATOM      8  C   UNL A   1      41.365  20.989  26.559  1.00  0.00     0.039 A 
ATOM      9  C   UNL A   1      41.435  21.111  27.945  1.00  0.00     0.014 A 
ATOM     10  C   UNL A   1      41.979  21.938  25.735  1.00  0.00     0.014 A 
ATOM     11  C   UNL A   1      41.867  22.312  28.496  1.00  0.00     0.010 A 
ATOM     12  C   UNL A   1      42.510  23.100  26.299  1.00  0.00     0.010 A 
ATOM     13  C   UNL A   1      42.367  23.337  27.672  1.00  0.00    -0.014 A 
BRANCH  13  14
ATOM     14  C   UNL A   1      42.652  24.669  28.263  1.00  0.00     0.031 A 
ATOM     15  C   UNL A   1      44.069  25.075  28.585  1.00  0.00     0.074 A 
ATOM     16  C   UNL A   1      41.645  25.546  28.424  1.00  0.00     0.049 A 
ATOM     17  N   UNL A   1      44.513  26.204  29.081  1.00  0.00    -0.248 NA
ATOM     18  C   UNL A   1      45.128  24.086  28.322  1.00  0.00     0.031 C 
ATOM     19  C   UNL A   1      40.238  25.268  28.127  1.00  0.00     0.029 A 
ATOM     20  N   UNL A   1      41.648  26.850  28.843  1.00  0.00    -0.354 N 
ATOM     21  C   UNL A   1      45.888  26.048  29.218  1.00  0.00     0.074 A 
ATOM     22  C   UNL A   1      46.207  24.711  28.771  1.00  0.00     0.031 C 
ATOM     23  C   UNL A   1      39.524  26.387  28.312  1.00  0.00     0.029 A 
ATOM     24  C   UNL A   1      40.409  27.439  28.801  1.00  0.00     0.049 A 
ATOM     25  H   UNL A   1      42.459  27.319  29.144  1.00  0.00     0.167 HD
ATOM     26  C   UNL A   1      46.800  26.942  29.671  1.00  0.00     0.037 A 
ATOM     27  C   UNL A   1      40.022  28.686  29.127  1.00  0.00     0.037 A 
ATOM     28  C   UNL A   1      46.476  28.283  30.086  1.00  0.00     0.049 A 
ATOM     29  C   UNL A   1      41.050  29.661  29.617  1.00  0.00     0.074 A 
ATOM     30  C   UNL A   1      47.323  29.267  30.564  1.00  0.00     0.029 A 
ATOM     31  N   UNL A   1      45.202  28.830  30.058  1.00  0.00    -0.354 N 
ATOM     32  N   UNL A   1      42.340  29.486  29.772  1.00  0.00    -0.248 NA
ATOM     33  C   UNL A   1      40.572  30.999  29.986  1.00  0.00     0.031 C 
ATOM     34  C   UNL A   1      46.556  30.401  30.853  1.00  0.00     0.029 A 
ATOM     35  C   UNL A   1      45.239  30.137  30.515  1.00  0.00     0.049 A 
ATOM     36  H   UNL A   1      44.392  28.359  29.756  1.00  0.00     0.167 HD
ATOM     37  C   UNL A   1      42.831  30.691  30.255  1.00  0.00     0.074 A 
ATOM     38  C   UNL A   1      41.702  31.596  30.343  1.00  0.00     0.031 C 
ATOM     39  C   UNL A   1      44.101  31.015  30.600  1.00  0.00     0.037 A 
BRANCH  26  40
ATOM     40  C   UNL A   1      48.233  26.499  29.761  1.00  0.00     0.057 A 
ATOM     41  C   UNL A   1      48.706  25.843  30.905  1.00  0.00     0.134 A 
ATOM     42  C   UNL A   1      49.158  26.766  28.744  1.00  0.00     0.134 A 
ATOM     43  F   UNL A   1      47.876  25.561  31.920  1.00  0.00    -0.206 F 
ATOM     44  C   UNL A   1      50.048  25.477  31.039  1.00  0.00     0.040 A 
ATOM     45  C   UNL A   1      50.497  26.384  28.855  1.00  0.00     0.040 A 
ATOM     46  F   UNL A   1      48.769  27.378  27.615  1.00  0.00    -0.206 F 
ATOM     47  C   UNL A   1      50.947  25.745  30.009  1.00  0.00     0.006 A 
ENDBRANCH  26  40
BRANCH  27  48
ATOM     48  C   UNL A   1      38.596  29.062  28.974  1.00  0.00     0.057 A 
ATOM     49  C   UNL A   1      38.104  29.569  27.765  1.00  0.00     0.134 A 
ATOM     50  C   UNL A   1      37.714  29.002  30.057  1.00  0.00     0.134 A 
ATOM     51  F   UNL A   1      38.906  29.663  26.694  1.00  0.00    -0.206 F 
ATOM     52  C   UNL A   1      36.795  30.035  27.648  1.00  0.00     0.040 A 
ATOM     53  C   UNL A   1      36.393  29.443  29.947  1.00  0.00     0.040 A 
ATOM     54  F   UNL A   1      38.125  28.514  31.237  1.00  0.00    -0.206 F 
ATOM     55  C   UNL A   1      35.935  29.974  28.743  1.00  0.00     0.006 A 
ENDBRANCH  27  48
BRANCH  39  56
ATOM     56  C   UNL A   1      44.336  32.409  31.096  1.00  0.00     0.057 A 
ATOM     57  C   UNL A   1      44.234  32.708  32.461  1.00  0.00     0.134 A 
ATOM     58  C   UNL A   1      44.609  33.463  30.216  1.00  0.00     0.134 A 
ATOM     59  F   UNL A   1      43.964  31.742  33.351  1.00  0.00    -0.206 F 
ATOM     60  C   UNL A   1      44.394  34.010  32.932  1.00  0.00     0.040 A 
ATOM     61  C   UNL A   1      44.792  34.766  30.680  1.00  0.00     0.040 A 
ATOM     62  F   UNL A   1      44.728  33.236  28.900  1.00  0.00    -0.206 F 
ATOM     63  C   UNL A   1      44.678  35.043  32.041  1.00  0.00     0.006 A 
ENDBRANCH  39  56
ENDBRANCH  13  14
ENDBRANCH   6   8
ENDBRANCH   3   4
ENDBRANCH   2   3
ENDBRANCH   1   2
BRANCH   1  64
ATOM     64  C   UNL A   1      35.241  21.478  26.136  1.00  0.00     0.116 C 
BRANCH  64  65
ATOM     65  N   UNL A   1      33.798  21.264  26.017  1.00  0.00    -0.356 N 
ATOM     66  C   UNL A   1      32.814  21.563  25.121  1.00  0.00     0.224 C 
ATOM     67  H   UNL A   1      33.441  20.771  26.791  1.00  0.00     0.163 HD
ATOM     68  O   UNL A   1      31.774  20.901  25.256  1.00  0.00    -0.275 OA
BRANCH  66  69
ATOM     69  C   UNL A   1      32.865  22.672  24.049  1.00  0.00     0.095 C 
ATOM     70  C   UNL A   1      31.525  23.088  23.516  1.00  0.00     0.041 C 
ATOM     71  C   UNL A   1      33.563  23.959  24.577  1.00  0.00     0.095 C 
ATOM     72  C   UNL A   1      30.748  23.790  24.600  1.00  0.00    -0.030 C 
ATOM     73  C   UNL A   1      32.816  24.556  25.766  1.00  0.00     0.041 C 
ATOM     74  C   UNL A   1      31.326  24.406  25.642  1.00  0.00    -0.030 C 
BRANCH  71  75
ATOM     75  C   UNL A   1      33.944  24.947  23.454  1.00  0.00     0.224 C 
ATOM     76  O   UNL A   1      34.261  24.448  22.359  1.00  0.00    -0.275 OA
ATOM     77  N   UNL A   1      33.952  26.300  23.436  1.00  0.00    -0.344 N 
ATOM     78  H   UNL A   1      34.292  26.587  22.558  1.00  0.00     0.164 HD
BRANCH  77  79
ATOM     79  C   UNL A   1      33.644  27.528  24.229  1.00  0.00     0.172 C 
ATOM     80  C   UNL A   1      33.725  27.428  25.742  1.00  0.00     0.037 C 
ATOM     81  C   UNL A   1      32.582  28.489  23.623  1.00  0.00     0.249 C 
ATOM     82  C   UNL A   1      33.076  28.624  26.413  1.00  0.00     0.025 C 
ATOM     83  N   UNL A   1      31.510  28.879  24.436  1.00  0.00    -0.308 N 
ATOM     84  O   UNL A   1      32.746  28.880  22.464  1.00  0.00    -0.272 OA
ATOM     85  C   UNL A   1      31.674  28.916  25.894  1.00  0.00     0.126 C 
BRANCH  83  86
ATOM     86  C   UNL A   1      30.211  29.253  23.870  1.00  0.00     0.080 A 
ATOM     87  C   UNL A   1      29.763  30.589  23.918  1.00  0.00     0.029 A 
ATOM     88  C   UNL A   1      29.288  28.320  23.343  1.00  0.00     0.146 A 
ATOM     89  C   UNL A   1      28.501  30.968  23.428  1.00  0.00     0.002 A 
ATOM     90  C   UNL A   1      28.034  28.696  22.851  1.00  0.00     0.041 A 
ATOM     91  F   UNL A   1      29.495  26.999  23.394  1.00  0.00    -0.205 F 
ATOM     92  C   UNL A   1      27.645  30.024  22.877  1.00  0.00     0.003 A 
ENDBRANCH  83  86
ENDBRANCH  77  79
ENDBRANCH  71  75
ENDBRANCH  66  69
ENDBRANCH  64  65
ENDBRANCH   1  64
TORSDOF 14
ENDMDL
MODEL 2
REMARK VINA RESULT:     -13.1      2.925      8.659
REMARK SMILES O=C(NCCCCNC(=O)[C@H]1CC=CC[C@@H]1C(=O)N[C@@H]1CCCN(c2ccccc2F)C1=O)c1ccc(-c2c3nc(c(-c4c(F)cccc4F)c4ccc([nH]4)c(-c4c(F)cccc4F)c4nc(c(-c5c(F)cccc5F)c5ccc2[nH]5)C=C4)C=C3)cc1
REMARK SMILES IDX 6 1 5 2 4 3 3 4 1 5 2 6 34 8 35 9 87 10 36 11 86 12 37 13
REMARK SMILES IDX 38 14 39 15 80 16 40 17 85 18 79 19 81 20 41 21 84 22 78 23
REMARK SMILES IDX 77 24 42 26 68 27 51 28 67 29 52 30 55 31 66 32 82 33 53 34
REMARK SMILES IDX 54 35 65 37 83 38 56 39 43 40 44 41 49 42 45 43 46 44 48 45
REMARK SMILES IDX 50 46 47 47 69 48 70 49 75 50 71 51 72 52 74 53 76 54 73 55
REMARK SMILES IDX 57 56 58 57 63 58 59 59 60 60 62 61 64 62 61 63 7 64 8 65
REMARK SMILES IDX 9 66 10 68 11 69 12 70 16 71 13 72 15 73 14 74 17 75 18 76
REMARK SMILES IDX 19 77 20 79 21 80 32 81 22 82 24 83 33 84 23 85 25 86 26 87
REMARK SMILES IDX 30 88 27 89 29 90 31 91 28 92
REMARK H PARENT 3 7 81 25 55 36 8 67 19 78
REMARK Flexibility Score: inf
ROOT
ATOM      1  C   UNL A   1      31.675  29.721  25.367  1.00  0.00     0.023 C 
ENDROOT
BRANCH   1   2
ATOM      2  C   UNL A   1      32.173  29.763  26.815  1.00  0.00     0.023 C 
BRANCH   2   3
ATOM      3  C   UNL A   1      33.133  30.897  27.172  1.00  0.00     0.116 C 
BRANCH   3   4
ATOM      4  N   UNL A   1      32.505  32.202  27.333  1.00  0.00    -0.352 N 
ATOM      5  O   UNL A   1      32.319  34.366  28.001  1.00  0.00    -0.269 OA
ATOM      6  C   UNL A   1      32.999  33.344  27.936  1.00  0.00     0.251 C 
ATOM      7  H   UNL A   1      31.597  32.282  26.960  1.00  0.00     0.163 HD
BRANCH   6   8
ATOM      8  C   UNL A   1      34.331  33.317  28.581  1.00  0.00     0.039 A 
ATOM      9  C   UNL A   1      35.461  33.764  27.901  1.00  0.00     0.014 A 
ATOM     10  C   UNL A   1      34.454  32.717  29.838  1.00  0.00     0.014 A 
ATOM     11  C   UNL A   1      36.716  33.361  28.342  1.00  0.00     0.010 A 
ATOM     12  C   UNL A   1      35.722  32.406  30.333  1.00  0.00     0.010 A 
ATOM     13  C   UNL A   1      36.855  32.638  29.540  1.00  0.00    -0.014 A 
BRANCH  13  14
ATOM     14  C   UNL A   1      38.179  32.067  29.896  1.00  0.00     0.031 A 
ATOM     15  C   UNL A   1      39.054  32.747  30.920  1.00  0.00     0.074 A 
ATOM     16  C   UNL A   1      38.552  30.891  29.362  1.00  0.00     0.049 A 
ATOM     17  N   UNL A   1      40.228  32.384  31.375  1.00  0.00    -0.248 NA
ATOM     18  C   UNL A   1      38.552  34.000  31.509  1.00  0.00     0.031 C 
ATOM     19  C   UNL A   1      37.776  30.135  28.378  1.00  0.00     0.029 A 
ATOM     20  N   UNL A   1      39.652  30.109  29.592  1.00  0.00    -0.354 N 
ATOM     21  C   UNL A   1      40.615  33.374  32.272  1.00  0.00     0.074 A 
ATOM     22  C   UNL A   1      39.561  34.364  32.287  1.00  0.00     0.031 C 
ATOM     23  C   UNL A   1      38.392  28.969  28.136  1.00  0.00     0.029 A 
ATOM     24  C   UNL A   1      39.636  28.925  28.898  1.00  0.00     0.049 A 
ATOM     25  H   UNL A   1      40.384  30.370  30.198  1.00  0.00     0.167 HD
ATOM     26  C   UNL A   1      41.743  33.446  33.018  1.00  0.00     0.037 A 
ATOM     27  C   UNL A   1      40.526  27.916  28.869  1.00  0.00     0.037 A 
ATOM     28  C   UNL A   1      42.773  32.439  33.019  1.00  0.00     0.049 A 
ATOM     29  C   UNL A   1      41.764  28.014  29.709  1.00  0.00     0.074 A 
ATOM     30  C   UNL A   1      43.958  32.417  33.734  1.00  0.00     0.029 A 
ATOM     31  N   UNL A   1      42.732  31.269  32.275  1.00  0.00    -0.354 N 
ATOM     32  N   UNL A   1      42.129  28.972  30.526  1.00  0.00    -0.248 NA
ATOM     33  C   UNL A   1      42.715  26.899  29.619  1.00  0.00     0.031 C 
ATOM     34  C   UNL A   1      44.647  31.246  33.400  1.00  0.00     0.029 A 
ATOM     35  C   UNL A   1      43.873  30.520  32.510  1.00  0.00     0.049 A 
ATOM     36  H   UNL A   1      42.000  31.010  31.671  1.00  0.00     0.167 HD
ATOM     37  C   UNL A   1      43.351  28.578  31.050  1.00  0.00     0.074 A 
ATOM     38  C   UNL A   1      43.653  27.282  30.477  1.00  0.00     0.031 C 
ATOM     39  C   UNL A   1      44.154  29.235  31.922  1.00  0.00     0.037 A 
BRANCH  26  40
ATOM     40  C   UNL A   1      41.937  34.659  33.883  1.00  0.00     0.057 A 
ATOM     41  C   UNL A   1      41.458  34.679  35.200  1.00  0.00     0.134 A 
ATOM     42  C   UNL A   1      42.547  35.824  33.403  1.00  0.00     0.134 A 
ATOM     43  F   UNL A   1      40.858  33.600  35.723  1.00  0.00    -0.206 F 
ATOM     44  C   UNL A   1      41.571  35.816  36.004  1.00  0.00     0.040 A 
ATOM     45  C   UNL A   1      42.687  36.960  34.204  1.00  0.00     0.040 A 
ATOM     46  F   UNL A   1      43.041  35.869  32.156  1.00  0.00    -0.206 F 
ATOM     47  C   UNL A   1      42.190  36.960  35.507  1.00  0.00     0.006 A 
ENDBRANCH  26  40
BRANCH  27  48
ATOM     48  C   UNL A   1      40.246  26.733  28.020  1.00  0.00     0.057 A 
ATOM     49  C   UNL A   1      39.477  25.663  28.495  1.00  0.00     0.134 A 
ATOM     50  C   UNL A   1      40.812  26.607  26.748  1.00  0.00     0.134 A 
ATOM     51  F   UNL A   1      38.919  25.720  29.714  1.00  0.00    -0.206 F 
ATOM     52  C   UNL A   1      39.308  24.497  27.750  1.00  0.00     0.040 A 
ATOM     53  C   UNL A   1      40.631  25.455  25.980  1.00  0.00     0.040 A 
ATOM     54  F   UNL A   1      41.549  27.604  26.234  1.00  0.00    -0.206 F 
ATOM     55  C   UNL A   1      39.888  24.390  26.487  1.00  0.00     0.006 A 
ENDBRANCH  27  48
BRANCH  39  56
ATOM     56  C   UNL A   1      45.431  28.557  32.315  1.00  0.00     0.057 A 
ATOM     57  C   UNL A   1      45.475  27.705  33.426  1.00  0.00     0.134 A 
ATOM     58  C   UNL A   1      46.626  28.791  31.625  1.00  0.00     0.134 A 
ATOM     59  F   UNL A   1      44.364  27.450  34.133  1.00  0.00    -0.206 F 
ATOM     60  C   UNL A   1      46.667  27.111  33.837  1.00  0.00     0.040 A 
ATOM     61  C   UNL A   1      47.821  28.186  32.016  1.00  0.00     0.040 A 
ATOM     62  F   UNL A   1      46.643  29.591  30.548  1.00  0.00    -0.206 F 
ATOM     63  C   UNL A   1      47.844  27.348  33.130  1.00  0.00     0.006 A 
ENDBRANCH  39  56
ENDBRANCH  13  14
ENDBRANCH   6   8
ENDBRANCH   3   4
ENDBRANCH   2   3
ENDBRANCH   1   2
BRANCH   1  64
ATOM     64  C   UNL A   1      32.736  29.199  24.398  1.00  0.00     0.116 C 
BRANCH  64  65
ATOM     65  N   UNL A   1      32.193  28.414  23.289  1.00  0.00    -0.356 N 
ATOM     66  C   UNL A   1      31.458  27.275  23.137  1.00  0.00     0.224 C 
ATOM     67  H   UNL A   1      32.417  28.816  22.419  1.00  0.00     0.163 HD
ATOM     68  O   UNL A   1      30.934  27.144  22.021  1.00  0.00    -0.275 OA
BRANCH  66  69
ATOM     69  C   UNL A   1      31.301  26.147  24.178  1.00  0.00     0.095 C 
ATOM     70  C   UNL A   1      30.814  24.843  23.618  1.00  0.00     0.041 C 
ATOM     71  C   UNL A   1      32.637  25.851  24.920  1.00  0.00     0.095 C 
ATOM     72  C   UNL A   1      31.877  24.250  22.727  1.00  0.00    -0.030 C 
ATOM     73  C   UNL A   1      33.725  25.388  23.957  1.00  0.00     0.041 C 
ATOM     74  C   UNL A   1      33.182  24.535  22.845  1.00  0.00    -0.030 C 
BRANCH  71  75
ATOM     75  C   UNL A   1      32.449  24.993  26.190  1.00  0.00     0.224 C 
ATOM     76  O   UNL A   1      31.413  25.196  26.849  1.00  0.00    -0.275 OA
ATOM     77  N   UNL A   1      33.212  24.001  26.702  1.00  0.00    -0.344 N 
ATOM     78  H   UNL A   1      32.800  23.711  27.548  1.00  0.00     0.164 HD
BRANCH  77  79
ATOM     79  C   UNL A   1      34.436  23.172  26.486  1.00  0.00     0.172 C 
ATOM     80  C   UNL A   1      35.590  23.805  25.728  1.00  0.00     0.037 C 
ATOM     81  C   UNL A   1      34.210  21.643  26.313  1.00  0.00     0.249 C 
ATOM     82  C   UNL A   1      36.609  22.766  25.298  1.00  0.00     0.025 C 
ATOM     83  N   UNL A   1      34.775  21.018  25.195  1.00  0.00    -0.308 N 
ATOM     84  O   UNL A   1      33.562  21.051  27.180  1.00  0.00    -0.272 OA
ATOM     85  C   UNL A   1      35.984  21.576  24.579  1.00  0.00     0.126 C 
BRANCH  83  86
ATOM     86  C   UNL A   1      34.188  19.809  24.610  1.00  0.00     0.080 A 
ATOM     87  C   UNL A   1      34.907  18.596  24.593  1.00  0.00     0.029 A 
ATOM     88  C   UNL A   1      32.941  19.787  23.943  1.00  0.00     0.146 A 
ATOM     89  C   UNL A   1      34.389  17.434  23.995  1.00  0.00     0.002 A 
ATOM     90  C   UNL A   1      32.423  18.631  23.351  1.00  0.00     0.041 A 
ATOM     91  F   UNL A   1      32.227  20.897  23.721  1.00  0.00    -0.205 F 
ATOM     92  C   UNL A   1      33.139  17.447  23.391  1.00  0.00     0.003 A 
ENDBRANCH  83  86
ENDBRANCH  77  79
ENDBRANCH  71  75
ENDBRANCH  66  69
ENDBRANCH  64  65
ENDBRANCH   1  64
TORSDOF 14
ENDMDL
MODEL 3
REMARK VINA RESULT:     -13.1      0.280      6.029
REMARK SMILES O=C(NCCCCNC(=O)[C@H]1CC=CC[C@@H]1C(=O)N[C@@H]1CCCN(c2ccccc2F)C1=O)c1ccc(-c2c3nc(c(-c4c(F)cccc4F)c4ccc([nH]4)c(-c4c(F)cccc4F)c4nc(c(-c5c(F)cccc5F)c5ccc2[nH]5)C=C4)C=C3)cc1
REMARK SMILES IDX 6 1 5 2 4 3 3 4 1 5 2 6 34 8 35 9 87 10 36 11 86 12 37 13
REMARK SMILES IDX 38 14 39 15 80 16 40 17 85 18 79 19 81 20 41 21 84 22 78 23
REMARK SMILES IDX 77 24 42 26 68 27 51 28 67 29 52 30 55 31 66 32 82 33 53 34
REMARK SMILES IDX 54 35 65 37 83 38 56 39 43 40 44 41 49 42 45 43 46 44 48 45
REMARK SMILES IDX 50 46 47 47 69 48 70 49 75 50 71 51 72 52 74 53 76 54 73 55
REMARK SMILES IDX 57 56 58 57 63 58 59 59 60 60 62 61 64 62 61 63 7 64 8 65
REMARK SMILES IDX 9 66 10 68 11 69 12 70 16 71 13 72 15 73 14 74 17 75 18 76
REMARK SMILES IDX 19 77 20 79 21 80 32 81 22 82 24 83 33 84 23 85 25 86 26 87
REMARK SMILES IDX 30 88 27 89 29 90 31 91 28 92
REMARK H PARENT 3 7 81 25 55 36 8 67 19 78
REMARK Flexibility Score: inf
ROOT
ATOM      1  C   UNL A   1      35.998  20.928  25.202  1.00  0.00     0.023 C 
ENDROOT
BRANCH   1   2
ATOM      2  C   UNL A   1      37.213  21.792  24.851  1.00  0.00     0.023 C 
BRANCH   2   3
ATOM      3  C   UNL A   1      38.438  21.644  25.751  1.00  0.00     0.116 C 
BRANCH   3   4
ATOM      4  N   UNL A   1      39.151  20.380  25.611  1.00  0.00    -0.352 N 
ATOM      5  O   UNL A   1      40.893  18.932  25.779  1.00  0.00    -0.269 OA
ATOM      6  C   UNL A   1      40.438  20.054  25.994  1.00  0.00     0.251 C 
ATOM      7  H   UNL A   1      38.643  19.656  25.179  1.00  0.00     0.163 HD
BRANCH   6   8
ATOM      8  C   UNL A   1      41.309  21.085  26.599  1.00  0.00     0.039 A 
ATOM      9  C   UNL A   1      41.262  21.346  27.967  1.00  0.00     0.014 A 
ATOM     10  C   UNL A   1      42.090  21.882  25.755  1.00  0.00     0.014 A 
ATOM     11  C   UNL A   1      41.760  22.555  28.440  1.00  0.00     0.010 A 
ATOM     12  C   UNL A   1      42.680  23.045  26.255  1.00  0.00     0.010 A 
ATOM     13  C   UNL A   1      42.433  23.437  27.578  1.00  0.00    -0.014 A 
BRANCH  13  14
ATOM     14  C   UNL A   1      42.795  24.794  28.063  1.00  0.00     0.031 A 
ATOM     15  C   UNL A   1      41.722  25.824  28.320  1.00  0.00     0.074 A 
ATOM     16  C   UNL A   1      44.078  25.065  28.358  1.00  0.00     0.049 A 
ATOM     17  N   UNL A   1      41.844  27.050  28.766  1.00  0.00    -0.248 NA
ATOM     18  C   UNL A   1      40.332  25.433  28.034  1.00  0.00     0.031 C 
ATOM     19  C   UNL A   1      45.195  24.138  28.170  1.00  0.00     0.029 A 
ATOM     20  N   UNL A   1      44.657  26.179  28.907  1.00  0.00    -0.354 N 
ATOM     21  C   UNL A   1      40.560  27.582  28.783  1.00  0.00     0.074 A 
ATOM     22  C   UNL A   1      39.672  26.555  28.286  1.00  0.00     0.031 C 
ATOM     23  C   UNL A   1      46.313  24.696  28.654  1.00  0.00     0.029 A 
ATOM     24  C   UNL A   1      46.005  26.042  29.126  1.00  0.00     0.049 A 
ATOM     25  H   UNL A   1      44.155  26.998  29.123  1.00  0.00     0.167 HD
ATOM     26  C   UNL A   1      40.159  28.812  29.183  1.00  0.00     0.037 A 
ATOM     27  C   UNL A   1      46.899  26.905  29.643  1.00  0.00     0.037 A 
ATOM     28  C   UNL A   1      41.047  29.818  29.706  1.00  0.00     0.049 A 
ATOM     29  C   UNL A   1      46.431  28.258  30.087  1.00  0.00     0.074 A 
ATOM     30  C   UNL A   1      40.744  31.099  30.136  1.00  0.00     0.029 A 
ATOM     31  N   UNL A   1      42.413  29.649  29.882  1.00  0.00    -0.354 N 
ATOM     32  N   UNL A   1      45.218  28.756  30.064  1.00  0.00    -0.248 NA
ATOM     33  C   UNL A   1      47.450  29.171  30.617  1.00  0.00     0.031 C 
ATOM     34  C   UNL A   1      41.933  31.714  30.544  1.00  0.00     0.029 A 
ATOM     35  C   UNL A   1      42.967  30.804  30.409  1.00  0.00     0.049 A 
ATOM     36  H   UNL A   1      42.912  28.830  29.665  1.00  0.00     0.167 HD
ATOM     37  C   UNL A   1      45.326  30.040  30.579  1.00  0.00     0.074 A 
ATOM     38  C   UNL A   1      46.719  30.234  30.927  1.00  0.00     0.031 C 
ATOM     39  C   UNL A   1      44.359  30.975  30.741  1.00  0.00     0.037 A 
BRANCH  26  40
ATOM     40  C   UNL A   1      38.700  29.152  29.056  1.00  0.00     0.057 A 
ATOM     41  C   UNL A   1      38.178  29.606  27.837  1.00  0.00     0.134 A 
ATOM     42  C   UNL A   1      37.824  29.082  30.145  1.00  0.00     0.134 A 
ATOM     43  F   UNL A   1      38.962  29.703  26.754  1.00  0.00    -0.206 F 
ATOM     44  C   UNL A   1      36.840  29.987  27.710  1.00  0.00     0.040 A 
ATOM     45  C   UNL A   1      36.478  29.438  30.026  1.00  0.00     0.040 A 
ATOM     46  F   UNL A   1      38.255  28.643  31.337  1.00  0.00    -0.206 F 
ATOM     47  C   UNL A   1      35.985  29.900  28.806  1.00  0.00     0.006 A 
ENDBRANCH  26  40
BRANCH  27  48
ATOM     48  C   UNL A   1      48.314  26.484  29.774  1.00  0.00     0.057 A 
ATOM     49  C   UNL A   1      48.774  25.828  30.923  1.00  0.00     0.134 A 
ATOM     50  C   UNL A   1      49.256  26.802  28.791  1.00  0.00     0.134 A 
ATOM     51  F   UNL A   1      47.920  25.508  31.906  1.00  0.00    -0.206 F 
ATOM     52  C   UNL A   1      50.126  25.535  31.105  1.00  0.00     0.040 A 
ATOM     53  C   UNL A   1      50.608  26.493  28.949  1.00  0.00     0.040 A 
ATOM     54  F   UNL A   1      48.873  27.420  27.663  1.00  0.00    -0.206 F 
ATOM     55  C   UNL A   1      51.048  25.869  30.115  1.00  0.00     0.006 A 
ENDBRANCH  27  48
BRANCH  39  56
ATOM     56  C   UNL A   1      44.775  32.289  31.328  1.00  0.00     0.057 A 
ATOM     57  C   UNL A   1      44.724  32.501  32.712  1.00  0.00     0.134 A 
ATOM     58  C   UNL A   1      45.172  33.360  30.519  1.00  0.00     0.134 A 
ATOM     59  F   UNL A   1      44.341  31.516  33.538  1.00  0.00    -0.206 F 
ATOM     60  C   UNL A   1      45.054  33.736  33.269  1.00  0.00     0.040 A 
ATOM     61  C   UNL A   1      45.525  34.593  31.067  1.00  0.00     0.040 A 
ATOM     62  F   UNL A   1      45.248  33.213  29.188  1.00  0.00    -0.206 F 
ATOM     63  C   UNL A   1      45.459  34.785  32.447  1.00  0.00     0.006 A 
ENDBRANCH  39  56
ENDBRANCH  13  14
ENDBRANCH   6   8
ENDBRANCH   3   4
ENDBRANCH   2   3
ENDBRANCH   1   2
BRANCH   1  64
ATOM     64  C   UNL A   1      35.136  21.549  26.301  1.00  0.00     0.116 C 
BRANCH  64  65
ATOM     65  N   UNL A   1      33.697  21.372  26.098  1.00  0.00    -0.356 N 
ATOM     66  C   UNL A   1      32.782  21.664  25.130  1.00  0.00     0.224 C 
ATOM     67  H   UNL A   1      33.277  20.921  26.865  1.00  0.00     0.163 HD
ATOM     68  O   UNL A   1      31.716  21.039  25.222  1.00  0.00    -0.275 OA
BRANCH  66  69
ATOM     69  C   UNL A   1      32.935  22.728  24.023  1.00  0.00     0.095 C 
ATOM     70  C   UNL A   1      31.681  23.011  23.249  1.00  0.00     0.041 C 
ATOM     71  C   UNL A   1      33.435  24.089  24.589  1.00  0.00     0.095 C 
ATOM     72  C   UNL A   1      30.679  23.691  24.146  1.00  0.00    -0.030 C 
ATOM     73  C   UNL A   1      32.452  24.672  25.601  1.00  0.00     0.041 C 
ATOM     74  C   UNL A   1      31.021  24.395  25.235  1.00  0.00    -0.030 C 
BRANCH  71  75
ATOM     75  C   UNL A   1      33.931  25.058  23.494  1.00  0.00     0.224 C 
ATOM     76  O   UNL A   1      34.302  24.543  22.424  1.00  0.00    -0.275 OA
ATOM     77  N   UNL A   1      33.991  26.409  23.476  1.00  0.00    -0.344 N 
ATOM     78  H   UNL A   1      34.402  26.680  22.624  1.00  0.00     0.164 HD
BRANCH  77  79
ATOM     79  C   UNL A   1      33.677  27.651  24.244  1.00  0.00     0.172 C 
ATOM     80  C   UNL A   1      33.765  27.583  25.759  1.00  0.00     0.037 C 
ATOM     81  C   UNL A   1      32.604  28.591  23.624  1.00  0.00     0.249 C 
ATOM     82  C   UNL A   1      33.110  28.788  26.408  1.00  0.00     0.025 C 
ATOM     83  N   UNL A   1      31.533  28.988  24.434  1.00  0.00    -0.308 N 
ATOM     84  O   UNL A   1      32.760  28.958  22.457  1.00  0.00    -0.272 OA
ATOM     85  C   UNL A   1      31.703  29.058  25.889  1.00  0.00     0.126 C 
BRANCH  83  86
ATOM     86  C   UNL A   1      30.228  29.340  23.866  1.00  0.00     0.080 A 
ATOM     87  C   UNL A   1      29.737  30.659  23.955  1.00  0.00     0.029 A 
ATOM     88  C   UNL A   1      29.341  28.397  23.298  1.00  0.00     0.146 A 
ATOM     89  C   UNL A   1      28.469  31.014  23.463  1.00  0.00     0.002 A 
ATOM     90  C   UNL A   1      28.080  28.749  22.805  1.00  0.00     0.041 A 
ATOM     91  F   UNL A   1      29.590  27.082  23.307  1.00  0.00    -0.205 F 
ATOM     92  C   UNL A   1      27.648  30.062  22.872  1.00  0.00     0.003 A 
ENDBRANCH  83  86
ENDBRANCH  77  79
ENDBRANCH  71  75
ENDBRANCH  66  69
ENDBRANCH  64  65
ENDBRANCH   1  64
TORSDOF 14
ENDMDL
