MODEL 1
REMARK VINA RESULT:     -10.7      0.000      0.000
REMARK SMILES CC[C@](C)(NC(=O)CCSc1ccccc1Cl)C(=O)NCCCCNC(=O)c1ccc(-c2c3nc(c(-c4c(F)cccc4F)c4ccc([nH]4)c(-c4c(F)cccc4F)c4nc(c(-c5c(F)cccc5F)c5ccc2[nH]5)C=C4)C=C3)cc1
REMARK SMILES IDX 21 1 20 2 18 3 19 4 3 6 4 7 2 8 1 9 5 10 6 11 7 13 8 14 9 15
REMARK SMILES IDX 10 16 11 17 12 18 16 19 13 20 15 21 17 22 14 23 22 24 23 25
REMARK SMILES IDX 24 26 25 27 26 28 27 30 28 31 29 32 81 33 30 34 80 35 31 36
REMARK SMILES IDX 32 37 33 38 74 39 34 40 79 41 73 42 75 43 35 44 78 45 72 46
REMARK SMILES IDX 71 47 36 49 62 50 45 51 61 52 46 53 49 54 60 55 76 56 47 57
REMARK SMILES IDX 48 58 59 60 77 61 50 62 37 63 38 64 43 65 39 66 40 67 42 68
REMARK SMILES IDX 44 69 41 70 63 71 64 72 69 73 65 74 66 75 68 76 70 77 67 78
REMARK SMILES IDX 51 79 52 80 57 81 53 82 54 83 56 84 58 85 55 86
REMARK H PARENT 20 5 5 12 25 29 75 48 49 59
REMARK Flexibility Score: inf
ROOT
ATOM      1  C   UNL A   1      36.181  21.999  25.778  1.00  0.00     0.116 C 
ENDROOT
BRANCH   1   2
ATOM      2  N   UNL A   1      35.246  21.972  26.887  1.00  0.00    -0.354 N 
ATOM      3  C   UNL A   1      34.036  22.561  27.068  1.00  0.00     0.245 C 
ATOM      4  O   UNL A   1      33.414  22.220  28.079  1.00  0.00    -0.272 OA
ATOM      5  H   UNL A   1      35.544  21.425  27.650  1.00  0.00     0.163 HD
BRANCH   3   6
ATOM      6  C   UNL A   1      33.418  23.500  25.996  1.00  0.00     0.116 C 
ATOM      7  C   UNL A   1      34.353  24.700  25.802  1.00  0.00     0.045 C 
BRANCH   6   8
ATOM      8  C   UNL A   1      32.075  24.030  26.600  1.00  0.00     0.035 C 
ATOM      9  C   UNL A   1      30.828  23.205  26.300  1.00  0.00     0.007 C 
ENDBRANCH   6   8
BRANCH   6  10
ATOM     10  N   UNL A   1      33.179  22.753  24.737  1.00  0.00    -0.342 N 
ATOM     11  C   UNL A   1      32.949  23.154  23.460  1.00  0.00     0.221 C 
ATOM     12  H   UNL A   1      33.188  21.775  24.850  1.00  0.00     0.164 HD
ATOM     13  O   UNL A   1      32.882  22.279  22.593  1.00  0.00    -0.275 OA
BRANCH  11  14
ATOM     14  C   UNL A   1      32.864  24.609  23.090  1.00  0.00     0.111 C 
BRANCH  14  15
ATOM     15  C   UNL A   1      31.444  25.175  23.055  1.00  0.00     0.085 C 
BRANCH  15  16
ATOM     16  S   UNL A   1      31.225  27.005  23.014  1.00  0.00    -0.124 SA
BRANCH  16  17
ATOM     17  C   UNL A   1      31.945  27.555  24.567  1.00  0.00     0.026 A 
ATOM     18  C   UNL A   1      31.200  27.472  25.751  1.00  0.00     0.016 A 
ATOM     19  C   UNL A   1      33.250  28.078  24.650  1.00  0.00     0.054 A 
ATOM     20  C   UNL A   1      31.773  27.773  26.989  1.00  0.00     0.001 A 
ATOM     21  C   UNL A   1      33.832  28.353  25.894  1.00  0.00     0.022 A 
ATOM     22  Cl  UNL A   1      34.203  28.470  23.258  1.00  0.00    -0.083 Cl
ATOM     23  C   UNL A   1      33.099  28.183  27.065  1.00  0.00     0.002 A 
ENDBRANCH  16  17
ENDBRANCH  15  16
ENDBRANCH  14  15
ENDBRANCH  11  14
ENDBRANCH   6  10
ENDBRANCH   3   6
ENDBRANCH   1   2
BRANCH   1  24
ATOM     24  C   UNL A   1      36.394  20.623  25.152  1.00  0.00     0.023 C 
BRANCH  24  25
ATOM     25  C   UNL A   1      37.829  20.307  24.732  1.00  0.00     0.023 C 
BRANCH  25  26
ATOM     26  C   UNL A   1      38.877  20.391  25.831  1.00  0.00     0.116 C 
BRANCH  26  27
ATOM     27  N   UNL A   1      39.922  19.389  25.730  1.00  0.00    -0.352 N 
ATOM     28  C   UNL A   1      41.245  19.515  26.079  1.00  0.00     0.251 C 
ATOM     29  H   UNL A   1      39.652  18.515  25.366  1.00  0.00     0.163 HD
ATOM     30  O   UNL A   1      42.034  18.601  25.900  1.00  0.00    -0.269 OA
BRANCH  28  31
ATOM     31  C   UNL A   1      41.708  20.809  26.626  1.00  0.00     0.039 A 
ATOM     32  C   UNL A   1      42.119  21.797  25.731  1.00  0.00     0.014 A 
ATOM     33  C   UNL A   1      41.659  21.062  28.000  1.00  0.00     0.014 A 
ATOM     34  C   UNL A   1      42.433  23.067  26.213  1.00  0.00     0.010 A 
ATOM     35  C   UNL A   1      41.901  22.349  28.468  1.00  0.00     0.010 A 
ATOM     36  C   UNL A   1      42.297  23.361  27.580  1.00  0.00    -0.014 A 
BRANCH  36  37
ATOM     37  C   UNL A   1      42.585  24.721  28.097  1.00  0.00     0.031 A 
ATOM     38  C   UNL A   1      43.987  25.086  28.493  1.00  0.00     0.074 A 
ATOM     39  C   UNL A   1      41.581  25.603  28.257  1.00  0.00     0.049 A 
ATOM     40  N   UNL A   1      44.437  26.201  29.008  1.00  0.00    -0.248 NA
ATOM     41  C   UNL A   1      45.017  24.049  28.313  1.00  0.00     0.031 C 
ATOM     42  C   UNL A   1      40.171  25.347  27.955  1.00  0.00     0.029 A 
ATOM     43  N   UNL A   1      41.592  26.895  28.717  1.00  0.00    -0.354 N 
ATOM     44  C   UNL A   1      45.792  25.993  29.231  1.00  0.00     0.074 A 
ATOM     45  C   UNL A   1      46.082  24.630  28.846  1.00  0.00     0.031 C 
ATOM     46  C   UNL A   1      39.458  26.457  28.212  1.00  0.00     0.029 A 
ATOM     47  C   UNL A   1      40.353  27.489  28.727  1.00  0.00     0.049 A 
ATOM     48  H   UNL A   1      42.411  27.355  29.014  1.00  0.00     0.167 HD
ATOM     49  C   UNL A   1      46.718  26.867  29.690  1.00  0.00     0.037 A 
ATOM     50  C   UNL A   1      39.983  28.726  29.106  1.00  0.00     0.037 A 
ATOM     51  C   UNL A   1      46.432  28.234  30.037  1.00  0.00     0.049 A 
ATOM     52  C   UNL A   1      41.032  29.683  29.602  1.00  0.00     0.074 A 
ATOM     53  C   UNL A   1      47.310  29.222  30.447  1.00  0.00     0.029 A 
ATOM     54  N   UNL A   1      45.168  28.805  30.014  1.00  0.00    -0.354 N 
ATOM     55  N   UNL A   1      42.323  29.496  29.739  1.00  0.00    -0.248 NA
ATOM     56  C   UNL A   1      40.574  31.025  29.989  1.00  0.00     0.031 C 
ATOM     57  C   UNL A   1      46.570  30.381  30.708  1.00  0.00     0.029 A 
ATOM     58  C   UNL A   1      45.239  30.126  30.419  1.00  0.00     0.049 A 
ATOM     59  H   UNL A   1      44.342  28.338  29.748  1.00  0.00     0.167 HD
ATOM     60  C   UNL A   1      42.835  30.701  30.201  1.00  0.00     0.074 A 
ATOM     61  C   UNL A   1      41.717  31.616  30.308  1.00  0.00     0.031 C 
ATOM     62  C   UNL A   1      44.115  31.023  30.509  1.00  0.00     0.037 A 
BRANCH  49  63
ATOM     63  C   UNL A   1      48.125  26.370  29.836  1.00  0.00     0.057 A 
ATOM     64  C   UNL A   1      48.584  25.789  31.026  1.00  0.00     0.134 A 
ATOM     65  C   UNL A   1      49.028  26.457  28.770  1.00  0.00     0.134 A 
ATOM     66  F   UNL A   1      47.774  25.690  32.090  1.00  0.00    -0.206 F 
ATOM     67  C   UNL A   1      49.898  25.335  31.159  1.00  0.00     0.040 A 
ATOM     68  C   UNL A   1      50.337  25.983  28.881  1.00  0.00     0.040 A 
ATOM     69  F   UNL A   1      48.654  26.999  27.601  1.00  0.00    -0.206 F 
ATOM     70  C   UNL A   1      50.777  25.427  30.081  1.00  0.00     0.006 A 
ENDBRANCH  49  63
BRANCH  50  71
ATOM     71  C   UNL A   1      38.563  29.145  29.002  1.00  0.00     0.057 A 
ATOM     72  C   UNL A   1      38.035  29.604  27.790  1.00  0.00     0.134 A 
ATOM     73  C   UNL A   1      37.704  29.104  30.105  1.00  0.00     0.134 A 
ATOM     74  F   UNL A   1      38.814  29.684  26.702  1.00  0.00    -0.206 F 
ATOM     75  C   UNL A   1      36.709  30.025  27.682  1.00  0.00     0.040 A 
ATOM     76  C   UNL A   1      36.368  29.500  30.007  1.00  0.00     0.040 A 
ATOM     77  F   UNL A   1      38.146  28.666  31.293  1.00  0.00    -0.206 F 
ATOM     78  C   UNL A   1      35.870  29.969  28.794  1.00  0.00     0.006 A 
ENDBRANCH  50  71
BRANCH  62  79
ATOM     79  C   UNL A   1      44.379  32.429  30.958  1.00  0.00     0.057 A 
ATOM     80  C   UNL A   1      44.673  33.452  30.049  1.00  0.00     0.134 A 
ATOM     81  C   UNL A   1      44.298  32.769  32.315  1.00  0.00     0.134 A 
ATOM     82  F   UNL A   1      44.780  33.187  28.738  1.00  0.00    -0.206 F 
ATOM     83  C   UNL A   1      44.896  34.762  30.475  1.00  0.00     0.040 A 
ATOM     84  C   UNL A   1      44.493  34.079  32.750  1.00  0.00     0.040 A 
ATOM     85  F   UNL A   1      44.012  31.835  33.235  1.00  0.00    -0.206 F 
ATOM     86  C   UNL A   1      44.799  35.079  31.829  1.00  0.00     0.006 A 
ENDBRANCH  62  79
ENDBRANCH  36  37
ENDBRANCH  28  31
ENDBRANCH  26  27
ENDBRANCH  25  26
ENDBRANCH  24  25
ENDBRANCH   1  24
TORSDOF 17
ENDMDL
MODEL 2
REMARK VINA RESULT:     -10.4      1.753      2.561
REMARK SMILES CC[C@](C)(NC(=O)CCSc1ccccc1Cl)C(=O)NCCCCNC(=O)c1ccc(-c2c3nc(c(-c4c(F)cccc4F)c4ccc([nH]4)c(-c4c(F)cccc4F)c4nc(c(-c5c(F)cccc5F)c5ccc2[nH]5)C=C4)C=C3)cc1
REMARK SMILES IDX 21 1 20 2 18 3 19 4 3 6 4 7 2 8 1 9 5 10 6 11 7 13 8 14 9 15
REMARK SMILES IDX 10 16 11 17 12 18 16 19 13 20 15 21 17 22 14 23 22 24 23 25
REMARK SMILES IDX 24 26 25 27 26 28 27 30 28 31 29 32 81 33 30 34 80 35 31 36
REMARK SMILES IDX 32 37 33 38 74 39 34 40 79 41 73 42 75 43 35 44 78 45 72 46
REMARK SMILES IDX 71 47 36 49 62 50 45 51 61 52 46 53 49 54 60 55 76 56 47 57
REMARK SMILES IDX 48 58 59 60 77 61 50 62 37 63 38 64 43 65 39 66 40 67 42 68
REMARK SMILES IDX 44 69 41 70 63 71 64 72 69 73 65 74 66 75 68 76 70 77 67 78
REMARK SMILES IDX 51 79 52 80 57 81 53 82 54 83 56 84 58 85 55 86
REMARK H PARENT 20 5 5 12 25 29 75 48 49 59
REMARK Flexibility Score: inf
ROOT
ATOM      1  C   UNL A   1      35.664  20.844  24.816  1.00  0.00     0.116 C 
ENDROOT
BRANCH   1   2
ATOM      2  N   UNL A   1      35.146  21.193  26.126  1.00  0.00    -0.354 N 
ATOM      3  C   UNL A   1      33.889  21.472  26.559  1.00  0.00     0.245 C 
ATOM      4  O   UNL A   1      33.753  21.591  27.781  1.00  0.00    -0.272 OA
ATOM      5  H   UNL A   1      35.832  21.236  26.831  1.00  0.00     0.163 HD
BRANCH   3   6
ATOM      6  C   UNL A   1      32.679  21.501  25.586  1.00  0.00     0.116 C 
ATOM      7  C   UNL A   1      32.490  20.096  25.000  1.00  0.00     0.045 C 
BRANCH   6   8
ATOM      8  C   UNL A   1      33.081  22.460  24.416  1.00  0.00     0.035 C 
ATOM      9  C   UNL A   1      32.629  22.047  23.019  1.00  0.00     0.007 C 
ENDBRANCH   6   8
BRANCH   6  10
ATOM     10  N   UNL A   1      31.470  21.995  26.288  1.00  0.00    -0.342 N 
ATOM     11  C   UNL A   1      31.136  23.207  26.802  1.00  0.00     0.221 C 
ATOM     12  H   UNL A   1      30.772  21.310  26.404  1.00  0.00     0.164 HD
ATOM     13  O   UNL A   1      29.995  23.340  27.251  1.00  0.00    -0.275 OA
BRANCH  11  14
ATOM     14  C   UNL A   1      32.083  24.374  26.755  1.00  0.00     0.111 C 
BRANCH  14  15
ATOM     15  C   UNL A   1      31.415  25.726  26.504  1.00  0.00     0.085 C 
BRANCH  15  16
ATOM     16  S   UNL A   1      32.408  27.069  25.723  1.00  0.00    -0.124 SA
BRANCH  16  17
ATOM     17  C   UNL A   1      32.453  26.611  23.986  1.00  0.00     0.026 A 
ATOM     18  C   UNL A   1      33.624  26.072  23.435  1.00  0.00     0.016 A 
ATOM     19  C   UNL A   1      31.343  26.771  23.133  1.00  0.00     0.054 A 
ATOM     20  C   UNL A   1      33.653  25.590  22.125  1.00  0.00     0.001 A 
ATOM     21  C   UNL A   1      31.365  26.262  21.828  1.00  0.00     0.022 A 
ATOM     22  Cl  UNL A   1      29.916  27.638  23.592  1.00  0.00    -0.083 Cl
ATOM     23  C   UNL A   1      32.514  25.655  21.330  1.00  0.00     0.002 A 
ENDBRANCH  16  17
ENDBRANCH  15  16
ENDBRANCH  14  15
ENDBRANCH  11  14
ENDBRANCH   6  10
ENDBRANCH   3   6
ENDBRANCH   1   2
BRANCH   1  24
ATOM     24  C   UNL A   1      37.167  21.081  24.694  1.00  0.00     0.023 C 
BRANCH  24  25
ATOM     25  C   UNL A   1      38.049  19.861  24.956  1.00  0.00     0.023 C 
BRANCH  25  26
ATOM     26  C   UNL A   1      39.232  20.083  25.886  1.00  0.00     0.116 C 
BRANCH  26  27
ATOM     27  N   UNL A   1      40.245  19.046  25.813  1.00  0.00    -0.352 N 
ATOM     28  C   UNL A   1      41.593  19.171  26.042  1.00  0.00     0.251 C 
ATOM     29  H   UNL A   1      39.928  18.146  25.569  1.00  0.00     0.163 HD
ATOM     30  O   UNL A   1      42.347  18.221  25.902  1.00  0.00    -0.269 OA
BRANCH  28  31
ATOM     31  C   UNL A   1      42.125  20.502  26.407  1.00  0.00     0.039 A 
ATOM     32  C   UNL A   1      42.407  21.406  25.382  1.00  0.00     0.014 A 
ATOM     33  C   UNL A   1      42.266  20.871  27.748  1.00  0.00     0.014 A 
ATOM     34  C   UNL A   1      42.782  22.709  25.706  1.00  0.00     0.010 A 
ATOM     35  C   UNL A   1      42.569  22.191  28.066  1.00  0.00     0.010 A 
ATOM     36  C   UNL A   1      42.836  23.120  27.048  1.00  0.00    -0.014 A 
BRANCH  36  37
ATOM     37  C   UNL A   1      43.190  24.516  27.402  1.00  0.00     0.031 A 
ATOM     38  C   UNL A   1      44.625  24.957  27.349  1.00  0.00     0.074 A 
ATOM     39  C   UNL A   1      42.232  25.365  27.819  1.00  0.00     0.049 A 
ATOM     40  N   UNL A   1      45.146  26.115  27.663  1.00  0.00    -0.248 NA
ATOM     41  C   UNL A   1      45.610  23.954  26.912  1.00  0.00     0.031 C 
ATOM     42  C   UNL A   1      40.811  25.037  27.961  1.00  0.00     0.029 A 
ATOM     43  N   UNL A   1      42.309  26.679  28.204  1.00  0.00    -0.354 N 
ATOM     44  C   UNL A   1      46.515  25.973  27.481  1.00  0.00     0.074 A 
ATOM     45  C   UNL A   1      46.752  24.604  27.081  1.00  0.00     0.031 C 
ATOM     46  C   UNL A   1      40.148  26.130  28.374  1.00  0.00     0.029 A 
ATOM     47  C   UNL A   1      41.097  27.223  28.558  1.00  0.00     0.049 A 
ATOM     48  H   UNL A   1      43.153  27.186  28.226  1.00  0.00     0.167 HD
ATOM     49  C   UNL A   1      47.487  26.907  27.609  1.00  0.00     0.037 A 
ATOM     50  C   UNL A   1      40.790  28.463  28.981  1.00  0.00     0.037 A 
ATOM     51  C   UNL A   1      47.243  28.278  27.971  1.00  0.00     0.049 A 
ATOM     52  C   UNL A   1      41.886  29.486  29.104  1.00  0.00     0.074 A 
ATOM     53  C   UNL A   1      48.148  29.321  28.063  1.00  0.00     0.029 A 
ATOM     54  N   UNL A   1      46.000  28.796  28.303  1.00  0.00    -0.354 N 
ATOM     55  N   UNL A   1      43.167  29.358  28.859  1.00  0.00    -0.248 NA
ATOM     56  C   UNL A   1      41.491  30.827  29.558  1.00  0.00     0.031 C 
ATOM     57  C   UNL A   1      47.457  30.461  28.486  1.00  0.00     0.029 A 
ATOM     58  C   UNL A   1      46.116  30.139  28.616  1.00  0.00     0.049 A 
ATOM     59  H   UNL A   1      45.159  28.283  28.313  1.00  0.00     0.167 HD
ATOM     60  C   UNL A   1      43.727  30.605  29.100  1.00  0.00     0.074 A 
ATOM     61  C   UNL A   1      42.644  31.480  29.499  1.00  0.00     0.031 C 
ATOM     62  C   UNL A   1      45.022  30.994  29.001  1.00  0.00     0.037 A 
BRANCH  49  63
ATOM     63  C   UNL A   1      48.900  26.475  27.349  1.00  0.00     0.057 A 
ATOM     64  C   UNL A   1      49.726  25.996  28.375  1.00  0.00     0.134 A 
ATOM     65  C   UNL A   1      49.435  26.521  26.057  1.00  0.00     0.134 A 
ATOM     66  F   UNL A   1      49.279  25.941  29.639  1.00  0.00    -0.206 F 
ATOM     67  C   UNL A   1      51.043  25.602  28.129  1.00  0.00     0.040 A 
ATOM     68  C   UNL A   1      50.741  26.105  25.793  1.00  0.00     0.040 A 
ATOM     69  F   UNL A   1      48.698  26.965  25.028  1.00  0.00    -0.206 F 
ATOM     70  C   UNL A   1      51.552  25.652  26.832  1.00  0.00     0.006 A 
ENDBRANCH  49  63
BRANCH  50  71
ATOM     71  C   UNL A   1      39.382  28.818  29.287  1.00  0.00     0.057 A 
ATOM     72  C   UNL A   1      38.546  29.360  28.305  1.00  0.00     0.134 A 
ATOM     73  C   UNL A   1      38.841  28.634  30.564  1.00  0.00     0.134 A 
ATOM     74  F   UNL A   1      39.014  29.578  27.066  1.00  0.00    -0.206 F 
ATOM     75  C   UNL A   1      37.228  29.723  28.584  1.00  0.00     0.040 A 
ATOM     76  C   UNL A   1      37.516  28.972  30.852  1.00  0.00     0.040 A 
ATOM     77  F   UNL A   1      39.587  28.111  31.548  1.00  0.00    -0.206 F 
ATOM     78  C   UNL A   1      36.709  29.525  29.861  1.00  0.00     0.006 A 
ENDBRANCH  50  71
BRANCH  62  79
ATOM     79  C   UNL A   1      45.331  32.431  29.295  1.00  0.00     0.057 A 
ATOM     80  C   UNL A   1      45.720  32.856  30.571  1.00  0.00     0.134 A 
ATOM     81  C   UNL A   1      45.278  33.393  28.278  1.00  0.00     0.134 A 
ATOM     82  F   UNL A   1      45.777  31.986  31.590  1.00  0.00    -0.206 F 
ATOM     83  C   UNL A   1      46.027  34.193  30.830  1.00  0.00     0.040 A 
ATOM     84  C   UNL A   1      45.606  34.726  28.519  1.00  0.00     0.040 A 
ATOM     85  F   UNL A   1      44.919  33.047  27.032  1.00  0.00    -0.206 F 
ATOM     86  C   UNL A   1      45.977  35.131  29.799  1.00  0.00     0.006 A 
ENDBRANCH  62  79
ENDBRANCH  36  37
ENDBRANCH  28  31
ENDBRANCH  26  27
ENDBRANCH  25  26
ENDBRANCH  24  25
ENDBRANCH   1  24
TORSDOF 17
ENDMDL
MODEL 3
REMARK VINA RESULT:     -10.4      4.329      9.246
REMARK SMILES CC[C@](C)(NC(=O)CCSc1ccccc1Cl)C(=O)NCCCCNC(=O)c1ccc(-c2c3nc(c(-c4c(F)cccc4F)c4ccc([nH]4)c(-c4c(F)cccc4F)c4nc(c(-c5c(F)cccc5F)c5ccc2[nH]5)C=C4)C=C3)cc1
REMARK SMILES IDX 21 1 20 2 18 3 19 4 3 6 4 7 2 8 1 9 5 10 6 11 7 13 8 14 9 15
REMARK SMILES IDX 10 16 11 17 12 18 16 19 13 20 15 21 17 22 14 23 22 24 23 25
REMARK SMILES IDX 24 26 25 27 26 28 27 30 28 31 29 32 81 33 30 34 80 35 31 36
REMARK SMILES IDX 32 37 33 38 74 39 34 40 79 41 73 42 75 43 35 44 78 45 72 46
REMARK SMILES IDX 71 47 36 49 62 50 45 51 61 52 46 53 49 54 60 55 76 56 47 57
REMARK SMILES IDX 48 58 59 60 77 61 50 62 37 63 38 64 43 65 39 66 40 67 42 68
REMARK SMILES IDX 44 69 41 70 63 71 64 72 69 73 65 74 66 75 68 76 70 77 67 78
REMARK SMILES IDX 51 79 52 80 57 81 53 82 54 83 56 84 58 85 55 86
REMARK H PARENT 20 5 5 12 25 29 75 48 49 59
REMARK Flexibility Score: inf
ROOT
ATOM      1  C   UNL A   1      31.496  29.930  25.021  1.00  0.00     0.116 C 
ENDROOT
BRANCH   1   2
ATOM      2  N   UNL A   1      32.714  29.703  24.265  1.00  0.00    -0.354 N 
ATOM      3  C   UNL A   1      33.219  28.590  23.673  1.00  0.00     0.245 C 
ATOM      4  O   UNL A   1      34.221  28.759  22.971  1.00  0.00    -0.272 OA
ATOM      5  H   UNL A   1      33.277  30.504  24.162  1.00  0.00     0.163 HD
BRANCH   3   6
ATOM      6  C   UNL A   1      32.498  27.218  23.766  1.00  0.00     0.116 C 
ATOM      7  C   UNL A   1      31.066  27.383  23.242  1.00  0.00     0.045 C 
BRANCH   6   8
ATOM      8  C   UNL A   1      32.415  26.870  25.290  1.00  0.00     0.035 C 
ATOM      9  C   UNL A   1      33.741  26.805  26.041  1.00  0.00     0.007 C 
ENDBRANCH   6   8
BRANCH   6  10
ATOM     10  N   UNL A   1      33.263  26.186  23.025  1.00  0.00    -0.342 N 
ATOM     11  C   UNL A   1      33.033  24.870  22.781  1.00  0.00     0.221 C 
ATOM     12  H   UNL A   1      34.100  26.521  22.632  1.00  0.00     0.164 HD
ATOM     13  O   UNL A   1      33.820  24.283  22.034  1.00  0.00    -0.275 OA
BRANCH  11  14
ATOM     14  C   UNL A   1      31.823  24.163  23.326  1.00  0.00     0.111 C 
BRANCH  14  15
ATOM     15  C   UNL A   1      32.121  22.844  24.037  1.00  0.00     0.085 C 
BRANCH  15  16
ATOM     16  S   UNL A   1      32.947  22.896  25.685  1.00  0.00    -0.124 SA
BRANCH  16  17
ATOM     17  C   UNL A   1      34.672  22.559  25.307  1.00  0.00     0.026 A 
ATOM     18  C   UNL A   1      35.589  23.616  25.229  1.00  0.00     0.016 A 
ATOM     19  C   UNL A   1      35.155  21.256  25.082  1.00  0.00     0.054 A 
ATOM     20  C   UNL A   1      36.956  23.378  25.063  1.00  0.00     0.001 A 
ATOM     21  C   UNL A   1      36.529  21.016  24.943  1.00  0.00     0.022 A 
ATOM     22  Cl  UNL A   1      34.118  19.880  24.904  1.00  0.00    -0.083 Cl
ATOM     23  C   UNL A   1      37.431  22.076  24.952  1.00  0.00     0.002 A 
ENDBRANCH  16  17
ENDBRANCH  15  16
ENDBRANCH  14  15
ENDBRANCH  11  14
ENDBRANCH   6  10
ENDBRANCH   3   6
ENDBRANCH   1   2
BRANCH   1  24
ATOM     24  C   UNL A   1      31.767  30.406  26.447  1.00  0.00     0.023 C 
BRANCH  24  25
ATOM     25  C   UNL A   1      31.480  31.883  26.712  1.00  0.00     0.023 C 
BRANCH  25  26
ATOM     26  C   UNL A   1      32.662  32.716  27.184  1.00  0.00     0.116 C 
BRANCH  26  27
ATOM     27  N   UNL A   1      32.306  34.051  27.625  1.00  0.00    -0.352 N 
ATOM     28  C   UNL A   1      32.962  34.836  28.543  1.00  0.00     0.251 C 
ATOM     29  H   UNL A   1      31.498  34.442  27.220  1.00  0.00     0.163 HD
ATOM     30  O   UNL A   1      32.528  35.932  28.859  1.00  0.00    -0.269 OA
BRANCH  28  31
ATOM     31  C   UNL A   1      34.179  34.298  29.188  1.00  0.00     0.039 A 
ATOM     32  C   UNL A   1      34.030  33.505  30.326  1.00  0.00     0.014 A 
ATOM     33  C   UNL A   1      35.440  34.513  28.624  1.00  0.00     0.014 A 
ATOM     34  C   UNL A   1      35.149  32.878  30.873  1.00  0.00     0.010 A 
ATOM     35  C   UNL A   1      36.541  33.828  29.128  1.00  0.00     0.010 A 
ATOM     36  C   UNL A   1      36.406  33.010  30.260  1.00  0.00    -0.014 A 
BRANCH  36  37
ATOM     37  C   UNL A   1      37.595  32.312  30.808  1.00  0.00     0.031 A 
ATOM     38  C   UNL A   1      38.240  32.814  32.068  1.00  0.00     0.074 A 
ATOM     39  C   UNL A   1      38.121  31.265  30.145  1.00  0.00     0.049 A 
ATOM     40  N   UNL A   1      39.309  32.375  32.681  1.00  0.00    -0.248 NA
ATOM     41  C   UNL A   1      37.617  33.984  32.710  1.00  0.00     0.031 C 
ATOM     42  C   UNL A   1      37.613  30.717  28.884  1.00  0.00     0.029 A 
ATOM     43  N   UNL A   1      39.202  30.474  30.438  1.00  0.00    -0.354 N 
ATOM     44  C   UNL A   1      39.496  33.224  33.764  1.00  0.00     0.074 A 
ATOM     45  C   UNL A   1      38.464  34.234  33.696  1.00  0.00     0.031 C 
ATOM     46  C   UNL A   1      38.366  29.663  28.529  1.00  0.00     0.029 A 
ATOM     47  C   UNL A   1      39.427  29.481  29.515  1.00  0.00     0.049 A 
ATOM     48  H   UNL A   1      39.766  30.605  31.234  1.00  0.00     0.167 HD
ATOM     49  C   UNL A   1      40.428  33.153  34.744  1.00  0.00     0.037 A 
ATOM     50  C   UNL A   1      40.379  28.531  29.473  1.00  0.00     0.037 A 
ATOM     51  C   UNL A   1      41.430  32.124  34.828  1.00  0.00     0.049 A 
ATOM     52  C   UNL A   1      41.396  28.465  30.578  1.00  0.00     0.074 A 
ATOM     53  C   UNL A   1      42.378  31.921  35.815  1.00  0.00     0.029 A 
ATOM     54  N   UNL A   1      41.613  31.123  33.885  1.00  0.00    -0.354 N 
ATOM     55  N   UNL A   1      41.518  29.231  31.636  1.00  0.00    -0.248 NA
ATOM     56  C   UNL A   1      42.405  27.400  30.488  1.00  0.00     0.031 C 
ATOM     57  C   UNL A   1      43.158  30.819  35.450  1.00  0.00     0.029 A 
ATOM     58  C   UNL A   1      42.669  30.310  34.257  1.00  0.00     0.049 A 
ATOM     59  H   UNL A   1      41.070  31.009  33.071  1.00  0.00     0.167 HD
ATOM     60  C   UNL A   1      42.596  28.725  32.350  1.00  0.00     0.074 A 
ATOM     61  C   UNL A   1      43.085  27.579  31.612  1.00  0.00     0.031 C 
ATOM     62  C   UNL A   1      43.133  29.168  33.513  1.00  0.00     0.037 A 
BRANCH  49  63
ATOM     63  C   UNL A   1      40.400  34.214  35.803  1.00  0.00     0.057 A 
ATOM     64  C   UNL A   1      41.135  35.401  35.680  1.00  0.00     0.134 A 
ATOM     65  C   UNL A   1      39.615  34.057  36.952  1.00  0.00     0.134 A 
ATOM     66  F   UNL A   1      41.918  35.607  34.611  1.00  0.00    -0.206 F 
ATOM     67  C   UNL A   1      41.111  36.382  36.672  1.00  0.00     0.040 A 
ATOM     68  C   UNL A   1      39.562  35.042  37.940  1.00  0.00     0.040 A 
ATOM     69  F   UNL A   1      38.884  32.947  37.132  1.00  0.00    -0.206 F 
ATOM     70  C   UNL A   1      40.318  36.206  37.805  1.00  0.00     0.006 A 
ENDBRANCH  49  63
BRANCH  50  71
ATOM     71  C   UNL A   1      40.399  27.544  28.364  1.00  0.00     0.057 A 
ATOM     72  C   UNL A   1      39.690  26.342  28.457  1.00  0.00     0.134 A 
ATOM     73  C   UNL A   1      41.129  27.773  27.192  1.00  0.00     0.134 A 
ATOM     74  F   UNL A   1      38.987  26.058  29.564  1.00  0.00    -0.206 F 
ATOM     75  C   UNL A   1      39.719  25.393  27.434  1.00  0.00     0.040 A 
ATOM     76  C   UNL A   1      41.150  26.843  26.151  1.00  0.00     0.040 A 
ATOM     77  F   UNL A   1      41.824  28.910  27.037  1.00  0.00    -0.206 F 
ATOM     78  C   UNL A   1      40.448  25.645  26.275  1.00  0.00     0.006 A 
ENDBRANCH  50  71
BRANCH  62  79
ATOM     79  C   UNL A   1      44.287  28.393  34.074  1.00  0.00     0.057 A 
ATOM     80  C   UNL A   1      45.615  28.741  33.797  1.00  0.00     0.134 A 
ATOM     81  C   UNL A   1      44.066  27.310  34.934  1.00  0.00     0.134 A 
ATOM     82  F   UNL A   1      45.893  29.759  32.969  1.00  0.00    -0.206 F 
ATOM     83  C   UNL A   1      46.683  28.026  34.341  1.00  0.00     0.040 A 
ATOM     84  C   UNL A   1      45.125  26.604  35.505  1.00  0.00     0.040 A 
ATOM     85  F   UNL A   1      42.817  26.932  35.245  1.00  0.00    -0.206 F 
ATOM     86  C   UNL A   1      46.438  26.958  35.204  1.00  0.00     0.006 A 
ENDBRANCH  62  79
ENDBRANCH  36  37
ENDBRANCH  28  31
ENDBRANCH  26  27
ENDBRANCH  25  26
ENDBRANCH  24  25
ENDBRANCH   1  24
TORSDOF 17
ENDMDL
