MODEL 1
REMARK VINA RESULT:     -10.8      0.000      0.000
REMARK SMILES Cc1cscc1CNC(=O)CC(C)(C)C(=O)NCCCCNC(=O)c1ccc(-c2c3nc(c(-c4c(F)cccc4F)c4ccc([nH]4)c(-c4c(F)cccc4F)c4nc(c(-c5c(F)cccc5F)c5ccc2[nH]5)C=C4)C=C3)cc1
REMARK SMILES IDX 18 1 17 2 15 3 16 4 12 6 13 7 14 8 11 9 9 10 8 11 10 13 7 14
REMARK SMILES IDX 6 15 1 16 2 17 3 18 4 19 5 20 19 21 20 22 21 23 22 24 23 25
REMARK SMILES IDX 24 27 25 28 26 29 78 30 27 31 77 32 28 33 29 34 30 35 71 36
REMARK SMILES IDX 31 37 76 38 70 39 72 40 32 41 75 42 69 43 68 44 33 46 59 47
REMARK SMILES IDX 42 48 58 49 43 50 46 51 57 52 73 53 44 54 45 55 56 57 74 58
REMARK SMILES IDX 47 59 34 60 35 61 40 62 36 63 37 64 39 65 41 66 38 67 60 68
REMARK SMILES IDX 61 69 66 70 62 71 63 72 65 73 67 74 64 75 48 76 49 77 54 78
REMARK SMILES IDX 50 79 51 80 53 81 55 82 52 83
REMARK H PARENT 17 5 8 12 22 26 72 45 46 56
REMARK Flexibility Score: inf
ROOT
ATOM      1  C   UNL A   1      32.298  29.913  25.653  1.00  0.00     0.116 C 
ENDROOT
BRANCH   1   2
ATOM      2  N   UNL A   1      33.048  29.686  24.435  1.00  0.00    -0.356 N 
ATOM      3  C   UNL A   1      33.390  28.561  23.753  1.00  0.00     0.226 C 
ATOM      4  O   UNL A   1      34.067  28.766  22.744  1.00  0.00    -0.274 OA
ATOM      5  H   UNL A   1      33.377  30.514  24.017  1.00  0.00     0.163 HD
BRANCH   3   6
ATOM      6  C   UNL A   1      33.050  27.134  24.237  1.00  0.00     0.052 C 
ATOM      7  C   UNL A   1      31.538  26.864  24.325  1.00  0.00     0.022 C 
ATOM      8  C   UNL A   1      33.652  26.972  25.652  1.00  0.00     0.022 C 
BRANCH   6   9
ATOM      9  C   UNL A   1      33.712  26.047  23.324  1.00  0.00     0.116 C 
BRANCH   9  10
ATOM     10  C   UNL A   1      32.896  25.354  22.238  1.00  0.00     0.221 C 
ATOM     11  N   UNL A   1      32.557  24.043  22.309  1.00  0.00    -0.352 N 
ATOM     12  H   UNL A   1      31.889  23.761  21.644  1.00  0.00     0.163 HD
ATOM     13  O   UNL A   1      32.588  25.954  21.205  1.00  0.00    -0.275 OA
BRANCH  11  14
ATOM     14  C   UNL A   1      33.002  22.990  23.187  1.00  0.00     0.152 C 
BRANCH  14  15
ATOM     15  C   UNL A   1      32.386  23.127  24.553  1.00  0.00    -0.015 A 
ATOM     16  C   UNL A   1      34.647  23.352  25.843  1.00  0.00     0.045 C 
ATOM     17  C   UNL A   1      33.153  23.311  25.770  1.00  0.00    -0.035 A 
ATOM     18  C   UNL A   1      32.331  23.451  26.873  1.00  0.00     0.068 A 
ATOM     19  S   UNL A   1      30.675  23.358  26.482  1.00  0.00    -0.152 S 
ATOM     20  C   UNL A   1      31.028  23.117  24.832  1.00  0.00     0.070 A 
ENDBRANCH  14  15
ENDBRANCH  11  14
ENDBRANCH   9  10
ENDBRANCH   6   9
ENDBRANCH   3   6
ENDBRANCH   1   2
BRANCH   1  21
ATOM     21  C   UNL A   1      31.049  30.755  25.416  1.00  0.00     0.023 C 
BRANCH  21  22
ATOM     22  C   UNL A   1      31.012  32.094  26.149  1.00  0.00     0.023 C 
BRANCH  22  23
ATOM     23  C   UNL A   1      32.295  32.481  26.876  1.00  0.00     0.116 C 
BRANCH  23  24
ATOM     24  N   UNL A   1      32.266  33.832  27.417  1.00  0.00    -0.352 N 
ATOM     25  C   UNL A   1      33.102  34.427  28.331  1.00  0.00     0.251 C 
ATOM     26  H   UNL A   1      31.539  34.404  27.078  1.00  0.00     0.163 HD
ATOM     27  O   UNL A   1      32.855  35.552  28.755  1.00  0.00    -0.269 OA
BRANCH  25  28
ATOM     28  C   UNL A   1      34.280  33.692  28.833  1.00  0.00     0.039 A 
ATOM     29  C   UNL A   1      35.549  34.250  28.655  1.00  0.00     0.014 A 
ATOM     30  C   UNL A   1      34.131  32.476  29.505  1.00  0.00     0.014 A 
ATOM     31  C   UNL A   1      36.661  33.628  29.224  1.00  0.00     0.010 A 
ATOM     32  C   UNL A   1      35.228  31.901  30.137  1.00  0.00     0.010 A 
ATOM     33  C   UNL A   1      36.503  32.473  30.007  1.00  0.00    -0.014 A 
BRANCH  33  34
ATOM     34  C   UNL A   1      37.657  31.849  30.702  1.00  0.00     0.031 A 
ATOM     35  C   UNL A   1      38.453  30.772  30.020  1.00  0.00     0.074 A 
ATOM     36  C   UNL A   1      37.944  32.202  31.971  1.00  0.00     0.049 A 
ATOM     37  N   UNL A   1      39.431  30.042  30.490  1.00  0.00    -0.248 NA
ATOM     38  C   UNL A   1      38.081  30.454  28.632  1.00  0.00     0.031 C 
ATOM     39  C   UNL A   1      37.218  33.200  32.760  1.00  0.00     0.029 A 
ATOM     40  N   UNL A   1      38.918  31.749  32.825  1.00  0.00    -0.354 N 
ATOM     41  C   UNL A   1      39.784  29.176  29.464  1.00  0.00     0.074 A 
ATOM     42  C   UNL A   1      38.877  29.430  28.365  1.00  0.00     0.031 C 
ATOM     43  C   UNL A   1      37.783  33.295  33.975  1.00  0.00     0.029 A 
ATOM     44  C   UNL A   1      38.884  32.344  34.064  1.00  0.00     0.049 A 
ATOM     45  H   UNL A   1      39.577  31.062  32.575  1.00  0.00     0.167 HD
ATOM     46  C   UNL A   1      40.791  28.272  29.427  1.00  0.00     0.037 A 
ATOM     47  C   UNL A   1      39.652  32.136  35.151  1.00  0.00     0.037 A 
ATOM     48  C   UNL A   1      41.704  28.033  30.511  1.00  0.00     0.049 A 
ATOM     49  C   UNL A   1      40.756  31.117  35.087  1.00  0.00     0.074 A 
ATOM     50  C   UNL A   1      42.777  27.158  30.560  1.00  0.00     0.029 A 
ATOM     51  N   UNL A   1      41.656  28.676  31.739  1.00  0.00    -0.354 N 
ATOM     52  N   UNL A   1      41.110  30.343  34.090  1.00  0.00    -0.248 NA
ATOM     53  C   UNL A   1      41.571  30.946  36.298  1.00  0.00     0.031 C 
ATOM     54  C   UNL A   1      43.360  27.253  31.828  1.00  0.00     0.029 A 
ATOM     55  C   UNL A   1      42.675  28.214  32.555  1.00  0.00     0.049 A 
ATOM     56  H   UNL A   1      40.995  29.360  31.992  1.00  0.00     0.167 HD
ATOM     57  C   UNL A   1      42.205  29.618  34.543  1.00  0.00     0.074 A 
ATOM     58  C   UNL A   1      42.465  30.055  35.898  1.00  0.00     0.031 C 
ATOM     59  C   UNL A   1      42.929  28.674  33.894  1.00  0.00     0.037 A 
BRANCH  46  60
ATOM     60  C   UNL A   1      40.963  27.486  28.161  1.00  0.00     0.057 A 
ATOM     61  C   UNL A   1      40.297  26.269  27.957  1.00  0.00     0.134 A 
ATOM     62  C   UNL A   1      41.775  27.959  27.123  1.00  0.00     0.134 A 
ATOM     63  F   UNL A   1      39.515  25.754  28.919  1.00  0.00    -0.206 F 
ATOM     64  C   UNL A   1      40.451  25.541  26.778  1.00  0.00     0.040 A 
ATOM     65  C   UNL A   1      41.917  27.252  25.928  1.00  0.00     0.040 A 
ATOM     66  F   UNL A   1      42.438  29.119  27.251  1.00  0.00    -0.206 F 
ATOM     67  C   UNL A   1      41.259  26.035  25.755  1.00  0.00     0.006 A 
ENDBRANCH  46  60
BRANCH  47  68
ATOM     68  C   UNL A   1      39.420  32.918  36.392  1.00  0.00     0.057 A 
ATOM     69  C   UNL A   1      38.490  32.493  37.348  1.00  0.00     0.134 A 
ATOM     70  C   UNL A   1      40.096  34.119  36.639  1.00  0.00     0.134 A 
ATOM     71  F   UNL A   1      37.797  31.360  37.159  1.00  0.00    -0.206 F 
ATOM     72  C   UNL A   1      38.220  33.246  38.491  1.00  0.00     0.040 A 
ATOM     73  C   UNL A   1      39.853  34.870  37.790  1.00  0.00     0.040 A 
ATOM     74  F   UNL A   1      41.004  34.577  35.765  1.00  0.00    -0.206 F 
ATOM     75  C   UNL A   1      38.906  34.438  38.716  1.00  0.00     0.006 A 
ENDBRANCH  47  68
BRANCH  59  76
ATOM     76  C   UNL A   1      44.097  28.084  34.627  1.00  0.00     0.057 A 
ATOM     77  C   UNL A   1      43.978  26.915  35.388  1.00  0.00     0.134 A 
ATOM     78  C   UNL A   1      45.364  28.677  34.540  1.00  0.00     0.134 A 
ATOM     79  F   UNL A   1      42.789  26.308  35.522  1.00  0.00    -0.206 F 
ATOM     80  C   UNL A   1      45.075  26.366  36.054  1.00  0.00     0.040 A 
ATOM     81  C   UNL A   1      46.472  28.123  35.182  1.00  0.00     0.040 A 
ATOM     82  F   UNL A   1      45.545  29.794  33.821  1.00  0.00    -0.206 F 
ATOM     83  C   UNL A   1      46.328  26.968  35.947  1.00  0.00     0.006 A 
ENDBRANCH  59  76
ENDBRANCH  33  34
ENDBRANCH  25  28
ENDBRANCH  23  24
ENDBRANCH  22  23
ENDBRANCH  21  22
ENDBRANCH   1  21
TORSDOF 15
ENDMDL
MODEL 2
REMARK VINA RESULT:     -10.6      1.167      1.470
REMARK SMILES Cc1cscc1CNC(=O)CC(C)(C)C(=O)NCCCCNC(=O)c1ccc(-c2c3nc(c(-c4c(F)cccc4F)c4ccc([nH]4)c(-c4c(F)cccc4F)c4nc(c(-c5c(F)cccc5F)c5ccc2[nH]5)C=C4)C=C3)cc1
REMARK SMILES IDX 18 1 17 2 15 3 16 4 12 6 13 7 14 8 11 9 9 10 8 11 10 13 7 14
REMARK SMILES IDX 6 15 1 16 2 17 3 18 4 19 5 20 19 21 20 22 21 23 22 24 23 25
REMARK SMILES IDX 24 27 25 28 26 29 78 30 27 31 77 32 28 33 29 34 30 35 71 36
REMARK SMILES IDX 31 37 76 38 70 39 72 40 32 41 75 42 69 43 68 44 33 46 59 47
REMARK SMILES IDX 42 48 58 49 43 50 46 51 57 52 73 53 44 54 45 55 56 57 74 58
REMARK SMILES IDX 47 59 34 60 35 61 40 62 36 63 37 64 39 65 41 66 38 67 60 68
REMARK SMILES IDX 61 69 66 70 62 71 63 72 65 73 67 74 64 75 48 76 49 77 54 78
REMARK SMILES IDX 50 79 51 80 53 81 55 82 52 83
REMARK H PARENT 17 5 8 12 22 26 72 45 46 56
REMARK Flexibility Score: inf
ROOT
ATOM      1  C   UNL A   1      33.070  29.751  25.998  1.00  0.00     0.116 C 
ENDROOT
BRANCH   1   2
ATOM      2  N   UNL A   1      32.895  29.711  24.562  1.00  0.00    -0.356 N 
ATOM      3  C   UNL A   1      32.533  28.725  23.700  1.00  0.00     0.226 C 
ATOM      4  O   UNL A   1      32.511  29.068  22.516  1.00  0.00    -0.274 OA
ATOM      5  H   UNL A   1      33.075  30.572  24.120  1.00  0.00     0.163 HD
BRANCH   3   6
ATOM      6  C   UNL A   1      32.261  27.268  24.136  1.00  0.00     0.052 C 
ATOM      7  C   UNL A   1      31.265  27.157  25.304  1.00  0.00     0.022 C 
ATOM      8  C   UNL A   1      33.609  26.665  24.594  1.00  0.00     0.022 C 
BRANCH   6   9
ATOM      9  C   UNL A   1      31.747  26.398  22.940  1.00  0.00     0.116 C 
BRANCH   9  10
ATOM     10  C   UNL A   1      32.731  25.598  22.092  1.00  0.00     0.221 C 
ATOM     11  N   UNL A   1      32.766  24.243  22.105  1.00  0.00    -0.352 N 
ATOM     12  H   UNL A   1      33.315  23.845  21.391  1.00  0.00     0.163 HD
ATOM     13  O   UNL A   1      33.594  26.172  21.422  1.00  0.00    -0.275 OA
BRANCH  11  14
ATOM     14  C   UNL A   1      32.140  23.282  22.978  1.00  0.00     0.152 C 
BRANCH  14  15
ATOM     15  C   UNL A   1      32.888  23.163  24.278  1.00  0.00    -0.015 A 
ATOM     16  C   UNL A   1      30.818  23.586  25.815  1.00  0.00     0.045 C 
ATOM     17  C   UNL A   1      32.265  23.287  25.582  1.00  0.00    -0.035 A 
ATOM     18  C   UNL A   1      33.178  23.091  26.601  1.00  0.00     0.068 A 
ATOM     19  S   UNL A   1      34.752  22.772  26.031  1.00  0.00    -0.152 S 
ATOM     20  C   UNL A   1      34.243  22.902  24.410  1.00  0.00     0.070 A 
ENDBRANCH  14  15
ENDBRANCH  11  14
ENDBRANCH   9  10
ENDBRANCH   6   9
ENDBRANCH   3   6
ENDBRANCH   1   2
BRANCH   1  21
ATOM     21  C   UNL A   1      31.840  30.296  26.718  1.00  0.00     0.023 C 
BRANCH  21  22
ATOM     22  C   UNL A   1      31.668  31.813  26.666  1.00  0.00     0.023 C 
BRANCH  22  23
ATOM     23  C   UNL A   1      32.818  32.625  27.254  1.00  0.00     0.116 C 
BRANCH  23  24
ATOM     24  N   UNL A   1      32.444  33.991  27.592  1.00  0.00    -0.352 N 
ATOM     25  C   UNL A   1      32.992  34.844  28.519  1.00  0.00     0.251 C 
ATOM     26  H   UNL A   1      31.686  34.357  27.081  1.00  0.00     0.163 HD
ATOM     27  O   UNL A   1      32.470  35.932  28.744  1.00  0.00    -0.269 OA
BRANCH  25  28
ATOM     28  C   UNL A   1      34.192  34.431  29.275  1.00  0.00     0.039 A 
ATOM     29  C   UNL A   1      34.027  33.838  30.530  1.00  0.00     0.014 A 
ATOM     30  C   UNL A   1      35.470  34.597  28.735  1.00  0.00     0.014 A 
ATOM     31  C   UNL A   1      35.140  33.336  31.206  1.00  0.00     0.010 A 
ATOM     32  C   UNL A   1      36.566  34.028  29.375  1.00  0.00     0.010 A 
ATOM     33  C   UNL A   1      36.411  33.387  30.613  1.00  0.00    -0.014 A 
BRANCH  33  34
ATOM     34  C   UNL A   1      37.593  32.774  31.270  1.00  0.00     0.031 A 
ATOM     35  C   UNL A   1      38.258  31.575  30.654  1.00  0.00     0.074 A 
ATOM     36  C   UNL A   1      38.024  33.252  32.454  1.00  0.00     0.049 A 
ATOM     37  N   UNL A   1      39.238  30.842  31.118  1.00  0.00    -0.248 NA
ATOM     38  C   UNL A   1      37.733  31.122  29.356  1.00  0.00     0.031 C 
ATOM     39  C   UNL A   1      37.435  34.381  33.179  1.00  0.00     0.029 A 
ATOM     40  N   UNL A   1      39.052  32.840  33.264  1.00  0.00    -0.354 N 
ATOM     41  C   UNL A   1      39.439  29.842  30.176  1.00  0.00     0.074 A 
ATOM     42  C   UNL A   1      38.442  30.024  29.144  1.00  0.00     0.031 C 
ATOM     43  C   UNL A   1      38.122  34.581  34.315  1.00  0.00     0.029 A 
ATOM     44  C   UNL A   1      39.174  33.576  34.417  1.00  0.00     0.049 A 
ATOM     45  H   UNL A   1      39.645  32.087  33.039  1.00  0.00     0.167 HD
ATOM     46  C   UNL A   1      40.387  28.875  30.158  1.00  0.00     0.037 A 
ATOM     47  C   UNL A   1      40.034  33.447  35.447  1.00  0.00     0.037 A 
ATOM     48  C   UNL A   1      41.390  28.705  31.174  1.00  0.00     0.049 A 
ATOM     49  C   UNL A   1      41.070  32.357  35.406  1.00  0.00     0.074 A 
ATOM     50  C   UNL A   1      42.414  27.774  31.231  1.00  0.00     0.029 A 
ATOM     51  N   UNL A   1      41.499  29.489  32.313  1.00  0.00    -0.354 N 
ATOM     52  N   UNL A   1      41.281  31.451  34.483  1.00  0.00    -0.248 NA
ATOM     53  C   UNL A   1      41.991  32.276  36.549  1.00  0.00     0.031 C 
ATOM     54  C   UNL A   1      43.124  27.978  32.418  1.00  0.00     0.029 A 
ATOM     55  C   UNL A   1      42.568  29.059  33.081  1.00  0.00     0.049 A 
ATOM     56  H   UNL A   1      40.904  30.240  32.540  1.00  0.00     0.167 HD
ATOM     57  C   UNL A   1      42.375  30.714  34.918  1.00  0.00     0.074 A 
ATOM     58  C   UNL A   1      42.792  31.287  36.179  1.00  0.00     0.031 C 
ATOM     59  C   UNL A   1      42.979  29.655  34.325  1.00  0.00     0.037 A 
BRANCH  46  60
ATOM     60  C   UNL A   1      40.390  27.937  28.987  1.00  0.00     0.057 A 
ATOM     61  C   UNL A   1      39.619  26.766  28.985  1.00  0.00     0.134 A 
ATOM     62  C   UNL A   1      41.143  28.218  27.840  1.00  0.00     0.134 A 
ATOM     63  F   UNL A   1      38.887  26.433  30.059  1.00  0.00    -0.206 F 
ATOM     64  C   UNL A   1      39.616  25.897  27.894  1.00  0.00     0.040 A 
ATOM     65  C   UNL A   1      41.127  27.368  26.733  1.00  0.00     0.040 A 
ATOM     66  F   UNL A   1      41.899  29.324  27.775  1.00  0.00    -0.206 F 
ATOM     67  C   UNL A   1      40.367  26.200  26.760  1.00  0.00     0.006 A 
ENDBRANCH  46  60
BRANCH  47  68
ATOM     68  C   UNL A   1      39.969  34.381  36.598  1.00  0.00     0.057 A 
ATOM     69  C   UNL A   1      39.213  34.072  37.735  1.00  0.00     0.134 A 
ATOM     70  C   UNL A   1      40.633  35.614  36.581  1.00  0.00     0.134 A 
ATOM     71  F   UNL A   1      38.540  32.915  37.804  1.00  0.00    -0.206 F 
ATOM     72  C   UNL A   1      39.097  34.966  38.801  1.00  0.00     0.040 A 
ATOM     73  C   UNL A   1      40.545  36.506  37.650  1.00  0.00     0.040 A 
ATOM     74  F   UNL A   1      41.379  35.967  35.523  1.00  0.00    -0.206 F 
ATOM     75  C   UNL A   1      39.767  36.187  38.761  1.00  0.00     0.006 A 
ENDBRANCH  47  68
BRANCH  59  76
ATOM     76  C   UNL A   1      44.180  29.080  35.014  1.00  0.00     0.057 A 
ATOM     77  C   UNL A   1      44.070  28.050  35.957  1.00  0.00     0.134 A 
ATOM     78  C   UNL A   1      45.467  29.539  34.702  1.00  0.00     0.134 A 
ATOM     79  F   UNL A   1      42.865  27.577  36.309  1.00  0.00    -0.206 F 
ATOM     80  C   UNL A   1      45.196  27.512  36.581  1.00  0.00     0.040 A 
ATOM     81  C   UNL A   1      46.601  28.992  35.301  1.00  0.00     0.040 A 
ATOM     82  F   UNL A   1      45.640  30.518  33.801  1.00  0.00    -0.206 F 
ATOM     83  C   UNL A   1      46.467  27.979  36.249  1.00  0.00     0.006 A 
ENDBRANCH  59  76
ENDBRANCH  33  34
ENDBRANCH  25  28
ENDBRANCH  23  24
ENDBRANCH  22  23
ENDBRANCH  21  22
ENDBRANCH   1  21
TORSDOF 15
ENDMDL
MODEL 3
REMARK VINA RESULT:     -10.6      4.404      9.251
REMARK SMILES Cc1cscc1CNC(=O)CC(C)(C)C(=O)NCCCCNC(=O)c1ccc(-c2c3nc(c(-c4c(F)cccc4F)c4ccc([nH]4)c(-c4c(F)cccc4F)c4nc(c(-c5c(F)cccc5F)c5ccc2[nH]5)C=C4)C=C3)cc1
REMARK SMILES IDX 18 1 17 2 15 3 16 4 12 6 13 7 14 8 11 9 9 10 8 11 10 13 7 14
REMARK SMILES IDX 6 15 1 16 2 17 3 18 4 19 5 20 19 21 20 22 21 23 22 24 23 25
REMARK SMILES IDX 24 27 25 28 26 29 78 30 27 31 77 32 28 33 29 34 30 35 71 36
REMARK SMILES IDX 31 37 76 38 70 39 72 40 32 41 75 42 69 43 68 44 33 46 59 47
REMARK SMILES IDX 42 48 58 49 43 50 46 51 57 52 73 53 44 54 45 55 56 57 74 58
REMARK SMILES IDX 47 59 34 60 35 61 40 62 36 63 37 64 39 65 41 66 38 67 60 68
REMARK SMILES IDX 61 69 66 70 62 71 63 72 65 73 67 74 64 75 48 76 49 77 54 78
REMARK SMILES IDX 50 79 51 80 53 81 55 82 52 83
REMARK H PARENT 17 5 8 12 22 26 72 45 46 56
REMARK Flexibility Score: inf
ROOT
ATOM      1  C   UNL A   1      35.428  22.036  24.569  1.00  0.00     0.116 C 
ENDROOT
BRANCH   1   2
ATOM      2  N   UNL A   1      34.703  22.658  23.482  1.00  0.00    -0.356 N 
ATOM      3  C   UNL A   1      33.421  23.088  23.348  1.00  0.00     0.226 C 
ATOM      4  O   UNL A   1      33.155  23.558  22.241  1.00  0.00    -0.274 OA
ATOM      5  H   UNL A   1      35.249  22.799  22.674  1.00  0.00     0.163 HD
BRANCH   3   6
ATOM      6  C   UNL A   1      32.347  22.921  24.447  1.00  0.00     0.052 C 
ATOM      7  C   UNL A   1      32.126  21.457  24.866  1.00  0.00     0.022 C 
ATOM      8  C   UNL A   1      31.017  23.466  23.877  1.00  0.00     0.022 C 
BRANCH   6   9
ATOM      9  C   UNL A   1      32.690  23.771  25.717  1.00  0.00     0.116 C 
BRANCH   9  10
ATOM     10  C   UNL A   1      31.574  24.358  26.574  1.00  0.00     0.221 C 
ATOM     11  N   UNL A   1      31.298  25.685  26.597  1.00  0.00    -0.352 N 
ATOM     12  H   UNL A   1      30.453  25.916  27.046  1.00  0.00     0.163 HD
ATOM     13  O   UNL A   1      30.935  23.643  27.349  1.00  0.00    -0.275 OA
BRANCH  11  14
ATOM     14  C   UNL A   1      32.024  26.819  26.080  1.00  0.00     0.152 C 
BRANCH  14  15
ATOM     15  C   UNL A   1      31.206  27.568  25.063  1.00  0.00    -0.015 A 
ATOM     16  C   UNL A   1      32.146  29.932  25.655  1.00  0.00     0.045 C 
ATOM     17  C   UNL A   1      31.282  29.002  24.863  1.00  0.00    -0.035 A 
ATOM     18  C   UNL A   1      30.455  29.416  23.835  1.00  0.00     0.068 A 
ATOM     19  S   UNL A   1      29.591  28.133  23.119  1.00  0.00    -0.152 S 
ATOM     20  C   UNL A   1      30.300  27.001  24.178  1.00  0.00     0.070 A 
ENDBRANCH  14  15
ENDBRANCH  11  14
ENDBRANCH   9  10
ENDBRANCH   6   9
ENDBRANCH   3   6
ENDBRANCH   1   2
BRANCH   1  21
ATOM     21  C   UNL A   1      36.905  21.838  24.243  1.00  0.00     0.023 C 
BRANCH  21  22
ATOM     22  C   UNL A   1      37.536  20.566  24.804  1.00  0.00     0.023 C 
BRANCH  22  23
ATOM     23  C   UNL A   1      38.701  20.778  25.765  1.00  0.00     0.116 C 
BRANCH  23  24
ATOM     24  N   UNL A   1      39.698  19.719  25.703  1.00  0.00    -0.352 N 
ATOM     25  C   UNL A   1      41.034  19.756  26.021  1.00  0.00     0.251 C 
ATOM     26  H   UNL A   1      39.366  18.848  25.386  1.00  0.00     0.163 HD
ATOM     27  O   UNL A   1      41.750  18.784  25.800  1.00  0.00    -0.269 OA
BRANCH  25  28
ATOM     28  C   UNL A   1      41.617  20.985  26.595  1.00  0.00     0.039 A 
ATOM     29  C   UNL A   1      42.123  21.959  25.730  1.00  0.00     0.014 A 
ATOM     30  C   UNL A   1      41.632  21.192  27.977  1.00  0.00     0.014 A 
ATOM     31  C   UNL A   1      42.570  23.176  26.247  1.00  0.00     0.010 A 
ATOM     32  C   UNL A   1      42.005  22.433  28.483  1.00  0.00     0.010 A 
ATOM     33  C   UNL A   1      42.473  23.438  27.623  1.00  0.00    -0.014 A 
BRANCH  33  34
ATOM     34  C   UNL A   1      42.851  24.760  28.184  1.00  0.00     0.031 A 
ATOM     35  C   UNL A   1      41.803  25.816  28.393  1.00  0.00     0.074 A 
ATOM     36  C   UNL A   1      44.146  25.032  28.439  1.00  0.00     0.049 A 
ATOM     37  N   UNL A   1      41.944  27.057  28.782  1.00  0.00    -0.248 NA
ATOM     38  C   UNL A   1      40.412  25.434  28.100  1.00  0.00     0.031 C 
ATOM     39  C   UNL A   1      45.264  24.109  28.234  1.00  0.00     0.029 A 
ATOM     40  N   UNL A   1      44.742  26.173  28.915  1.00  0.00    -0.354 N 
ATOM     41  C   UNL A   1      40.668  27.604  28.770  1.00  0.00     0.074 A 
ATOM     42  C   UNL A   1      39.772  26.579  28.281  1.00  0.00     0.031 C 
ATOM     43  C   UNL A   1      46.407  24.714  28.599  1.00  0.00     0.029 A 
ATOM     44  C   UNL A   1      46.108  26.075  29.028  1.00  0.00     0.049 A 
ATOM     45  H   UNL A   1      44.238  26.985  29.152  1.00  0.00     0.167 HD
ATOM     46  C   UNL A   1      40.272  28.839  29.161  1.00  0.00     0.037 A 
ATOM     47  C   UNL A   1      47.017  26.986  29.425  1.00  0.00     0.037 A 
ATOM     48  C   UNL A   1      41.159  29.852  29.665  1.00  0.00     0.049 A 
ATOM     49  C   UNL A   1      46.552  28.354  29.842  1.00  0.00     0.074 A 
ATOM     50  C   UNL A   1      40.852  31.125  30.115  1.00  0.00     0.029 A 
ATOM     51  N   UNL A   1      42.533  29.704  29.792  1.00  0.00    -0.354 N 
ATOM     52  N   UNL A   1      45.335  28.839  29.875  1.00  0.00    -0.248 NA
ATOM     53  C   UNL A   1      47.588  29.301  30.281  1.00  0.00     0.031 C 
ATOM     54  C   UNL A   1      42.043  31.757  30.487  1.00  0.00     0.029 A 
ATOM     55  C   UNL A   1      43.087  30.864  30.306  1.00  0.00     0.049 A 
ATOM     56  H   UNL A   1      43.038  28.894  29.552  1.00  0.00     0.167 HD
ATOM     57  C   UNL A   1      45.455  30.133  30.367  1.00  0.00     0.074 A 
ATOM     58  C   UNL A   1      46.861  30.352  30.631  1.00  0.00     0.031 C 
ATOM     59  C   UNL A   1      44.487  31.057  30.580  1.00  0.00     0.037 A 
BRANCH  46  60
ATOM     60  C   UNL A   1      38.808  29.153  29.071  1.00  0.00     0.057 A 
ATOM     61  C   UNL A   1      37.972  29.074  30.194  1.00  0.00     0.134 A 
ATOM     62  C   UNL A   1      38.232  29.566  27.864  1.00  0.00     0.134 A 
ATOM     63  F   UNL A   1      38.460  28.670  31.377  1.00  0.00    -0.206 F 
ATOM     64  C   UNL A   1      36.612  29.372  30.114  1.00  0.00     0.040 A 
ATOM     65  C   UNL A   1      36.877  29.892  27.778  1.00  0.00     0.040 A 
ATOM     66  F   UNL A   1      38.975  29.668  26.753  1.00  0.00    -0.206 F 
ATOM     67  C   UNL A   1      36.061  29.789  28.903  1.00  0.00     0.006 A 
ENDBRANCH  46  60
BRANCH  47  68
ATOM     68  C   UNL A   1      48.460  26.637  29.466  1.00  0.00     0.057 A 
ATOM     69  C   UNL A   1      49.017  26.006  30.585  1.00  0.00     0.134 A 
ATOM     70  C   UNL A   1      49.321  26.950  28.407  1.00  0.00     0.134 A 
ATOM     71  F   UNL A   1      48.247  25.698  31.639  1.00  0.00    -0.206 F 
ATOM     72  C   UNL A   1      50.382  25.724  30.661  1.00  0.00     0.040 A 
ATOM     73  C   UNL A   1      50.682  26.651  28.460  1.00  0.00     0.040 A 
ATOM     74  F   UNL A   1      48.847  27.549  27.304  1.00  0.00    -0.206 F 
ATOM     75  C   UNL A   1      51.218  26.045  29.595  1.00  0.00     0.006 A 
ENDBRANCH  47  68
BRANCH  59  76
ATOM     76  C   UNL A   1      44.912  32.371  31.165  1.00  0.00     0.057 A 
ATOM     77  C   UNL A   1      45.269  33.458  30.359  1.00  0.00     0.134 A 
ATOM     78  C   UNL A   1      44.929  32.558  32.554  1.00  0.00     0.134 A 
ATOM     79  F   UNL A   1      45.286  33.338  29.023  1.00  0.00    -0.206 F 
ATOM     80  C   UNL A   1      45.648  34.681  30.915  1.00  0.00     0.040 A 
ATOM     81  C   UNL A   1      45.283  33.783  33.119  1.00  0.00     0.040 A 
ATOM     82  F   UNL A   1      44.590  31.557  33.380  1.00  0.00    -0.206 F 
ATOM     83  C   UNL A   1      45.650  34.847  32.299  1.00  0.00     0.006 A 
ENDBRANCH  59  76
ENDBRANCH  33  34
ENDBRANCH  25  28
ENDBRANCH  23  24
ENDBRANCH  22  23
ENDBRANCH  21  22
ENDBRANCH   1  21
TORSDOF 15
ENDMDL
