MODEL 1
REMARK VINA RESULT:     -11.9      0.000      0.000
REMARK SMILES C[C@@H](C(=O)NCCCCNC(=O)c1ccc(-c2c3nc(c(-c4c(F)cccc4F)c4ccc([nH]4)c(-c4c(F)cccc4F)c4nc(c(-c5c(F)cccc5F)c5ccc2[nH]5)C=C4)C=C3)cc1)c1cc(C(=O)c2ccccc2)ccc1O
REMARK SMILES IDX 7 1 6 2 5 3 3 4 4 5 2 7 1 8 67 9 68 10 80 11 69 12 79 13
REMARK SMILES IDX 78 14 81 15 70 17 71 18 72 19 73 20 77 21 74 22 76 23 75 24
REMARK SMILES IDX 8 25 9 26 10 27 11 28 12 30 13 31 14 32 66 33 15 34 65 35
REMARK SMILES IDX 16 36 17 37 18 38 59 39 19 40 64 41 58 42 60 43 20 44 63 45
REMARK SMILES IDX 57 46 56 47 21 49 47 50 30 51 46 52 31 53 34 54 45 55 61 56
REMARK SMILES IDX 32 57 33 58 44 60 62 61 35 62 22 63 23 64 28 65 24 66 25 67
REMARK SMILES IDX 27 68 29 69 26 70 48 71 49 72 54 73 50 74 51 75 53 76 55 77
REMARK SMILES IDX 52 78 36 79 37 80 42 81 38 82 39 83 41 84 43 85 40 86
REMARK H PARENT 5 6 81 16 10 29 60 48 34 59
REMARK Flexibility Score: inf
ROOT
ATOM      1  C   UNL A   1      37.056  21.999  24.087  1.00  0.00     0.023 C 
ENDROOT
BRANCH   1   2
ATOM      2  C   UNL A   1      35.621  22.422  24.418  1.00  0.00     0.116 C 
BRANCH   2   3
ATOM      3  N   UNL A   1      35.028  23.135  23.305  1.00  0.00    -0.356 N 
ATOM      4  C   UNL A   1      33.828  22.947  22.688  1.00  0.00     0.227 C 
ATOM      5  O   UNL A   1      33.667  23.529  21.610  1.00  0.00    -0.274 OA
ATOM      6  H   UNL A   1      35.575  23.867  22.939  1.00  0.00     0.163 HD
BRANCH   4   7
ATOM      7  C   UNL A   1      32.745  22.055  23.320  1.00  0.00     0.109 C 
ATOM      8  C   UNL A   1      31.827  21.417  22.274  1.00  0.00     0.023 C 
BRANCH   7   9
ATOM      9  C   UNL A   1      31.889  22.793  24.351  1.00  0.00     0.007 A 
ATOM     10  C   UNL A   1      31.641  24.169  24.180  1.00  0.00     0.020 A 
ATOM     11  C   UNL A   1      31.390  22.183  25.511  1.00  0.00     0.119 A 
ATOM     12  C   UNL A   1      30.929  24.902  25.145  1.00  0.00     0.023 A 
ATOM     13  C   UNL A   1      30.690  22.899  26.476  1.00  0.00     0.047 A 
ATOM     14  C   UNL A   1      30.444  24.256  26.287  1.00  0.00     0.016 A 
BRANCH  11  15
ATOM     15  O   UNL A   1      31.535  20.844  25.743  1.00  0.00    -0.508 OA
ATOM     16  H   UNL A   1      31.463  20.237  25.035  1.00  0.00     0.293 HD
ENDBRANCH  11  15
BRANCH  12  17
ATOM     17  C   UNL A   1      30.679  26.350  24.900  1.00  0.00     0.193 C 
ATOM     18  O   UNL A   1      29.659  26.708  24.318  1.00  0.00    -0.289 OA
BRANCH  17  19
ATOM     19  C   UNL A   1      31.633  27.380  25.374  1.00  0.00     0.022 A 
ATOM     20  C   UNL A   1      31.387  28.718  25.054  1.00  0.00     0.012 A 
ATOM     21  C   UNL A   1      32.759  27.031  26.127  1.00  0.00     0.012 A 
ATOM     22  C   UNL A   1      32.243  29.712  25.529  1.00  0.00     0.001 A 
ATOM     23  C   UNL A   1      33.612  28.028  26.601  1.00  0.00     0.001 A 
ATOM     24  C   UNL A   1      33.349  29.367  26.308  1.00  0.00     0.000 A 
ENDBRANCH  17  19
ENDBRANCH  12  17
ENDBRANCH   7   9
ENDBRANCH   4   7
ENDBRANCH   2   3
ENDBRANCH   1   2
BRANCH   1  25
ATOM     25  C   UNL A   1      37.531  20.726  24.797  1.00  0.00     0.023 C 
BRANCH  25  26
ATOM     26  C   UNL A   1      38.720  20.906  25.735  1.00  0.00     0.116 C 
BRANCH  26  27
ATOM     27  N   UNL A   1      39.664  19.802  25.671  1.00  0.00    -0.352 N 
ATOM     28  C   UNL A   1      40.999  19.787  25.995  1.00  0.00     0.251 C 
ATOM     29  H   UNL A   1      39.296  18.947  25.350  1.00  0.00     0.163 HD
ATOM     30  O   UNL A   1      41.683  18.794  25.765  1.00  0.00    -0.269 OA
BRANCH  28  31
ATOM     31  C   UNL A   1      41.619  20.989  26.590  1.00  0.00     0.039 A 
ATOM     32  C   UNL A   1      42.117  21.980  25.740  1.00  0.00     0.014 A 
ATOM     33  C   UNL A   1      41.670  21.154  27.976  1.00  0.00     0.014 A 
ATOM     34  C   UNL A   1      42.588  23.179  26.279  1.00  0.00     0.010 A 
ATOM     35  C   UNL A   1      42.088  22.371  28.509  1.00  0.00     0.010 A 
ATOM     36  C   UNL A   1      42.530  23.401  27.664  1.00  0.00    -0.014 A 
BRANCH  36  37
ATOM     37  C   UNL A   1      42.870  24.721  28.252  1.00  0.00     0.031 A 
ATOM     38  C   UNL A   1      41.800  25.753  28.469  1.00  0.00     0.074 A 
ATOM     39  C   UNL A   1      44.163  25.027  28.481  1.00  0.00     0.049 A 
ATOM     40  N   UNL A   1      41.924  27.004  28.833  1.00  0.00    -0.248 NA
ATOM     41  C   UNL A   1      40.413  25.331  28.219  1.00  0.00     0.031 C 
ATOM     42  C   UNL A   1      45.298  24.127  28.263  1.00  0.00     0.029 A 
ATOM     43  N   UNL A   1      44.743  26.192  28.918  1.00  0.00    -0.354 N 
ATOM     44  C   UNL A   1      40.637  27.525  28.830  1.00  0.00     0.074 A 
ATOM     45  C   UNL A   1      39.750  26.465  28.404  1.00  0.00     0.031 C 
ATOM     46  C   UNL A   1      46.436  24.775  28.560  1.00  0.00     0.029 A 
ATOM     47  C   UNL A   1      46.117  26.143  28.952  1.00  0.00     0.049 A 
ATOM     48  H   UNL A   1      44.226  26.986  29.183  1.00  0.00     0.167 HD
ATOM     49  C   UNL A   1      40.235  28.774  29.164  1.00  0.00     0.037 A 
ATOM     50  C   UNL A   1      47.020  27.102  29.236  1.00  0.00     0.037 A 
ATOM     51  C   UNL A   1      41.115  29.814  29.628  1.00  0.00     0.049 A 
ATOM     52  C   UNL A   1      46.541  28.480  29.599  1.00  0.00     0.074 A 
ATOM     53  C   UNL A   1      40.784  31.074  30.096  1.00  0.00     0.029 A 
ATOM     54  N   UNL A   1      42.496  29.719  29.672  1.00  0.00    -0.354 N 
ATOM     55  N   UNL A   1      45.315  28.932  29.683  1.00  0.00    -0.248 NA
ATOM     56  C   UNL A   1      47.573  29.482  29.905  1.00  0.00     0.031 C 
ATOM     57  C   UNL A   1      41.970  31.759  30.381  1.00  0.00     0.029 A 
ATOM     58  C   UNL A   1      43.036  30.911  30.126  1.00  0.00     0.049 A 
ATOM     59  H   UNL A   1      43.016  28.922  29.420  1.00  0.00     0.167 HD
ATOM     60  C   UNL A   1      45.425  30.263  30.064  1.00  0.00     0.074 A 
ATOM     61  C   UNL A   1      46.838  30.541  30.214  1.00  0.00     0.031 C 
ATOM     62  C   UNL A   1      44.444  31.173  30.271  1.00  0.00     0.037 A 
BRANCH  49  63
ATOM     63  C   UNL A   1      38.775  29.094  29.045  1.00  0.00     0.057 A 
ATOM     64  C   UNL A   1      37.914  29.032  30.147  1.00  0.00     0.134 A 
ATOM     65  C   UNL A   1      38.243  29.542  27.829  1.00  0.00     0.134 A 
ATOM     66  F   UNL A   1      38.361  28.604  31.337  1.00  0.00    -0.206 F 
ATOM     67  C   UNL A   1      36.569  29.391  30.041  1.00  0.00     0.040 A 
ATOM     68  C   UNL A   1      36.906  29.924  27.716  1.00  0.00     0.040 A 
ATOM     69  F   UNL A   1      39.017  29.629  26.737  1.00  0.00    -0.206 F 
ATOM     70  C   UNL A   1      36.064  29.848  28.825  1.00  0.00     0.006 A 
ENDBRANCH  49  63
BRANCH  50  71
ATOM     71  C   UNL A   1      48.472  26.802  29.170  1.00  0.00     0.057 A 
ATOM     72  C   UNL A   1      49.202  27.020  27.997  1.00  0.00     0.134 A 
ATOM     73  C   UNL A   1      49.156  26.270  30.268  1.00  0.00     0.134 A 
ATOM     74  F   UNL A   1      48.595  27.509  26.905  1.00  0.00    -0.206 F 
ATOM     75  C   UNL A   1      50.557  26.699  27.910  1.00  0.00     0.040 A 
ATOM     76  C   UNL A   1      50.517  25.966  30.203  1.00  0.00     0.040 A 
ATOM     77  F   UNL A   1      48.513  26.042  31.423  1.00  0.00    -0.206 F 
ATOM     78  C   UNL A   1      51.220  26.173  29.018  1.00  0.00     0.006 A 
ENDBRANCH  50  71
BRANCH  62  79
ATOM     79  C   UNL A   1      44.860  32.549  30.693  1.00  0.00     0.057 A 
ATOM     80  C   UNL A   1      45.057  33.573  29.760  1.00  0.00     0.134 A 
ATOM     81  C   UNL A   1      45.015  32.866  32.048  1.00  0.00     0.134 A 
ATOM     82  F   UNL A   1      44.939  33.329  28.446  1.00  0.00    -0.206 F 
ATOM     83  C   UNL A   1      45.407  34.864  30.159  1.00  0.00     0.040 A 
ATOM     84  C   UNL A   1      45.341  34.157  32.462  1.00  0.00     0.040 A 
ATOM     85  F   UNL A   1      44.833  31.929  32.991  1.00  0.00    -0.206 F 
ATOM     86  C   UNL A   1      45.542  35.160  31.515  1.00  0.00     0.006 A 
ENDBRANCH  62  79
ENDBRANCH  36  37
ENDBRANCH  28  31
ENDBRANCH  26  27
ENDBRANCH  25  26
ENDBRANCH   1  25
TORSDOF 15
ENDMDL
MODEL 2
REMARK VINA RESULT:     -11.9      4.272      9.724
REMARK SMILES C[C@@H](C(=O)NCCCCNC(=O)c1ccc(-c2c3nc(c(-c4c(F)cccc4F)c4ccc([nH]4)c(-c4c(F)cccc4F)c4nc(c(-c5c(F)cccc5F)c5ccc2[nH]5)C=C4)C=C3)cc1)c1cc(C(=O)c2ccccc2)ccc1O
REMARK SMILES IDX 7 1 6 2 5 3 3 4 4 5 2 7 1 8 67 9 68 10 80 11 69 12 79 13
REMARK SMILES IDX 78 14 81 15 70 17 71 18 72 19 73 20 77 21 74 22 76 23 75 24
REMARK SMILES IDX 8 25 9 26 10 27 11 28 12 30 13 31 14 32 66 33 15 34 65 35
REMARK SMILES IDX 16 36 17 37 18 38 59 39 19 40 64 41 58 42 60 43 20 44 63 45
REMARK SMILES IDX 57 46 56 47 21 49 47 50 30 51 46 52 31 53 34 54 45 55 61 56
REMARK SMILES IDX 32 57 33 58 44 60 62 61 35 62 22 63 23 64 28 65 24 66 25 67
REMARK SMILES IDX 27 68 29 69 26 70 48 71 49 72 54 73 50 74 51 75 53 76 55 77
REMARK SMILES IDX 52 78 36 79 37 80 42 81 38 82 39 83 41 84 43 85 40 86
REMARK H PARENT 5 6 81 16 10 29 60 48 34 59
REMARK Flexibility Score: inf
ROOT
ATOM      1  C   UNL A   1      34.052  34.970  28.369  1.00  0.00     0.023 C 
ENDROOT
BRANCH   1   2
ATOM      2  C   UNL A   1      33.961  35.418  29.831  1.00  0.00     0.116 C 
BRANCH   2   3
ATOM      3  N   UNL A   1      33.680  34.290  30.696  1.00  0.00    -0.356 N 
ATOM      4  C   UNL A   1      34.537  33.429  31.314  1.00  0.00     0.227 C 
ATOM      5  O   UNL A   1      34.036  32.408  31.798  1.00  0.00    -0.274 OA
ATOM      6  H   UNL A   1      32.725  34.119  30.863  1.00  0.00     0.163 HD
BRANCH   4   7
ATOM      7  C   UNL A   1      36.042  33.735  31.397  1.00  0.00     0.109 C 
ATOM      8  C   UNL A   1      36.792  33.336  30.123  1.00  0.00     0.023 C 
BRANCH   7   9
ATOM      9  C   UNL A   1      36.721  33.079  32.601  1.00  0.00     0.007 A 
ATOM     10  C   UNL A   1      37.175  31.751  32.494  1.00  0.00     0.020 A 
ATOM     11  C   UNL A   1      36.853  33.712  33.846  1.00  0.00     0.119 A 
ATOM     12  C   UNL A   1      37.730  31.084  33.600  1.00  0.00     0.023 A 
ATOM     13  C   UNL A   1      37.394  33.061  34.949  1.00  0.00     0.047 A 
ATOM     14  C   UNL A   1      37.848  31.752  34.824  1.00  0.00     0.016 A 
BRANCH  11  15
ATOM     15  O   UNL A   1      36.489  35.016  34.036  1.00  0.00    -0.508 OA
ATOM     16  H   UNL A   1      37.119  35.638  34.338  1.00  0.00     0.293 HD
ENDBRANCH  11  15
BRANCH  12  17
ATOM     17  C   UNL A   1      38.213  29.686  33.422  1.00  0.00     0.193 C 
ATOM     18  O   UNL A   1      37.408  28.762  33.342  1.00  0.00    -0.289 OA
BRANCH  17  19
ATOM     19  C   UNL A   1      39.660  29.388  33.310  1.00  0.00     0.022 A 
ATOM     20  C   UNL A   1      40.578  30.348  33.743  1.00  0.00     0.012 A 
ATOM     21  C   UNL A   1      40.109  28.171  32.783  1.00  0.00     0.012 A 
ATOM     22  C   UNL A   1      41.945  30.073  33.693  1.00  0.00     0.001 A 
ATOM     23  C   UNL A   1      41.476  27.900  32.736  1.00  0.00     0.001 A 
ATOM     24  C   UNL A   1      42.392  28.847  33.198  1.00  0.00     0.000 A 
ENDBRANCH  17  19
ENDBRANCH  12  17
ENDBRANCH   7   9
ENDBRANCH   4   7
ENDBRANCH   2   3
ENDBRANCH   1   2
BRANCH   1  25
ATOM     25  C   UNL A   1      33.452  33.589  28.082  1.00  0.00     0.023 C 
BRANCH  25  26
ATOM     26  C   UNL A   1      34.464  32.471  27.854  1.00  0.00     0.116 C 
BRANCH  26  27
ATOM     27  N   UNL A   1      33.850  31.153  27.800  1.00  0.00    -0.352 N 
ATOM     28  C   UNL A   1      34.439  29.920  27.935  1.00  0.00     0.251 C 
ATOM     29  H   UNL A   1      32.878  31.144  27.644  1.00  0.00     0.163 HD
ATOM     30  O   UNL A   1      33.790  28.897  27.740  1.00  0.00    -0.269 OA
BRANCH  28  31
ATOM     31  C   UNL A   1      35.873  29.830  28.281  1.00  0.00     0.039 A 
ATOM     32  C   UNL A   1      36.230  29.506  29.593  1.00  0.00     0.014 A 
ATOM     33  C   UNL A   1      36.856  30.025  27.307  1.00  0.00     0.014 A 
ATOM     34  C   UNL A   1      37.572  29.289  29.909  1.00  0.00     0.010 A 
ATOM     35  C   UNL A   1      38.187  29.754  27.611  1.00  0.00     0.010 A 
ATOM     36  C   UNL A   1      38.554  29.364  28.908  1.00  0.00    -0.014 A 
BRANCH  36  37
ATOM     37  C   UNL A   1      39.964  28.982  29.175  1.00  0.00     0.031 A 
ATOM     38  C   UNL A   1      40.938  29.997  29.702  1.00  0.00     0.074 A 
ATOM     39  C   UNL A   1      40.390  27.751  28.831  1.00  0.00     0.049 A 
ATOM     40  N   UNL A   1      42.233  29.893  29.859  1.00  0.00    -0.248 NA
ATOM     41  C   UNL A   1      40.388  31.310  30.076  1.00  0.00     0.031 C 
ATOM     42  C   UNL A   1      39.550  26.692  28.264  1.00  0.00     0.029 A 
ATOM     43  N   UNL A   1      41.641  27.190  28.879  1.00  0.00    -0.354 N 
ATOM     44  C   UNL A   1      42.656  31.130  30.325  1.00  0.00     0.074 A 
ATOM     45  C   UNL A   1      41.487  31.978  30.401  1.00  0.00     0.031 C 
ATOM     46  C   UNL A   1      40.312  25.616  28.010  1.00  0.00     0.029 A 
ATOM     47  C   UNL A   1      41.695  25.918  28.359  1.00  0.00     0.049 A 
ATOM     48  H   UNL A   1      42.427  27.654  29.250  1.00  0.00     0.167 HD
ATOM     49  C   UNL A   1      43.908  31.517  30.667  1.00  0.00     0.037 A 
ATOM     50  C   UNL A   1      42.746  25.099  28.158  1.00  0.00     0.037 A 
ATOM     51  C   UNL A   1      45.061  30.657  30.631  1.00  0.00     0.049 A 
ATOM     52  C   UNL A   1      44.123  25.558  28.546  1.00  0.00     0.074 A 
ATOM     53  C   UNL A   1      46.348  30.927  31.065  1.00  0.00     0.029 A 
ATOM     54  N   UNL A   1      45.071  29.369  30.123  1.00  0.00    -0.354 N 
ATOM     55  N   UNL A   1      44.495  26.699  29.072  1.00  0.00    -0.248 NA
ATOM     56  C   UNL A   1      45.228  24.618  28.308  1.00  0.00     0.031 C 
ATOM     57  C   UNL A   1      47.148  29.816  30.778  1.00  0.00     0.029 A 
ATOM     58  C   UNL A   1      46.350  28.842  30.200  1.00  0.00     0.049 A 
ATOM     59  H   UNL A   1      44.286  28.897  29.762  1.00  0.00     0.167 HD
ATOM     60  C   UNL A   1      45.870  26.608  29.243  1.00  0.00     0.074 A 
ATOM     61  C   UNL A   1      46.266  25.294  28.781  1.00  0.00     0.031 C 
ATOM     62  C   UNL A   1      46.728  27.533  29.737  1.00  0.00     0.037 A 
BRANCH  49  63
ATOM     63  C   UNL A   1      44.104  32.933  31.117  1.00  0.00     0.057 A 
ATOM     64  C   UNL A   1      44.198  33.991  30.205  1.00  0.00     0.134 A 
ATOM     65  C   UNL A   1      44.125  33.249  32.481  1.00  0.00     0.134 A 
ATOM     66  F   UNL A   1      44.192  33.753  28.884  1.00  0.00    -0.206 F 
ATOM     67  C   UNL A   1      44.319  35.313  30.634  1.00  0.00     0.040 A 
ATOM     68  C   UNL A   1      44.224  34.569  32.923  1.00  0.00     0.040 A 
ATOM     69  F   UNL A   1      44.034  32.281  33.406  1.00  0.00    -0.206 F 
ATOM     70  C   UNL A   1      44.324  35.606  31.996  1.00  0.00     0.006 A 
ENDBRANCH  49  63
BRANCH  50  71
ATOM     71  C   UNL A   1      42.543  23.764  27.542  1.00  0.00     0.057 A 
ATOM     72  C   UNL A   1      42.344  22.626  28.332  1.00  0.00     0.134 A 
ATOM     73  C   UNL A   1      42.567  23.591  26.154  1.00  0.00     0.134 A 
ATOM     74  F   UNL A   1      42.332  22.727  29.670  1.00  0.00    -0.206 F 
ATOM     75  C   UNL A   1      42.197  21.360  27.765  1.00  0.00     0.040 A 
ATOM     76  C   UNL A   1      42.398  22.334  25.572  1.00  0.00     0.040 A 
ATOM     77  F   UNL A   1      42.749  24.643  25.342  1.00  0.00    -0.206 F 
ATOM     78  C   UNL A   1      42.221  21.211  26.379  1.00  0.00     0.006 A 
ENDBRANCH  50  71
BRANCH  62  79
ATOM     79  C   UNL A   1      48.175  27.153  29.817  1.00  0.00     0.057 A 
ATOM     80  C   UNL A   1      48.680  26.412  30.891  1.00  0.00     0.134 A 
ATOM     81  C   UNL A   1      49.061  27.488  28.786  1.00  0.00     0.134 A 
ATOM     82  F   UNL A   1      47.886  26.073  31.918  1.00  0.00    -0.206 F 
ATOM     83  C   UNL A   1      50.021  26.027  30.944  1.00  0.00     0.040 A 
ATOM     84  C   UNL A   1      50.398  27.090  28.814  1.00  0.00     0.040 A 
ATOM     85  F   UNL A   1      48.637  28.192  27.725  1.00  0.00    -0.206 F 
ATOM     86  C   UNL A   1      50.882  26.359  29.898  1.00  0.00     0.006 A 
ENDBRANCH  62  79
ENDBRANCH  36  37
ENDBRANCH  28  31
ENDBRANCH  26  27
ENDBRANCH  25  26
ENDBRANCH   1  25
TORSDOF 15
ENDMDL
MODEL 3
REMARK VINA RESULT:     -11.8      3.565      8.533
REMARK SMILES C[C@@H](C(=O)NCCCCNC(=O)c1ccc(-c2c3nc(c(-c4c(F)cccc4F)c4ccc([nH]4)c(-c4c(F)cccc4F)c4nc(c(-c5c(F)cccc5F)c5ccc2[nH]5)C=C4)C=C3)cc1)c1cc(C(=O)c2ccccc2)ccc1O
REMARK SMILES IDX 7 1 6 2 5 3 3 4 4 5 2 7 1 8 67 9 68 10 80 11 69 12 79 13
REMARK SMILES IDX 78 14 81 15 70 17 71 18 72 19 73 20 77 21 74 22 76 23 75 24
REMARK SMILES IDX 8 25 9 26 10 27 11 28 12 30 13 31 14 32 66 33 15 34 65 35
REMARK SMILES IDX 16 36 17 37 18 38 59 39 19 40 64 41 58 42 60 43 20 44 63 45
REMARK SMILES IDX 57 46 56 47 21 49 47 50 30 51 46 52 31 53 34 54 45 55 61 56
REMARK SMILES IDX 32 57 33 58 44 60 62 61 35 62 22 63 23 64 28 65 24 66 25 67
REMARK SMILES IDX 27 68 29 69 26 70 48 71 49 72 54 73 50 74 51 75 53 76 55 77
REMARK SMILES IDX 52 78 36 79 37 80 42 81 38 82 39 83 41 84 43 85 40 86
REMARK H PARENT 5 6 81 16 10 29 60 48 34 59
REMARK Flexibility Score: inf
ROOT
ATOM      1  C   UNL A   1      31.880  28.962  27.345  1.00  0.00     0.023 C 
ENDROOT
BRANCH   1   2
ATOM      2  C   UNL A   1      32.179  27.843  26.344  1.00  0.00     0.116 C 
BRANCH   2   3
ATOM      3  N   UNL A   1      31.343  26.687  26.603  1.00  0.00    -0.356 N 
ATOM      4  C   UNL A   1      30.304  26.182  25.880  1.00  0.00     0.227 C 
ATOM      5  O   UNL A   1      29.605  25.333  26.444  1.00  0.00    -0.274 OA
ATOM      6  H   UNL A   1      31.559  26.192  27.426  1.00  0.00     0.163 HD
BRANCH   4   7
ATOM      7  C   UNL A   1      30.038  26.654  24.441  1.00  0.00     0.109 C 
ATOM      8  C   UNL A   1      28.596  26.399  23.996  1.00  0.00     0.023 C 
BRANCH   7   9
ATOM      9  C   UNL A   1      30.993  26.030  23.420  1.00  0.00     0.007 A 
ATOM     10  C   UNL A   1      31.656  24.831  23.744  1.00  0.00     0.020 A 
ATOM     11  C   UNL A   1      31.302  26.632  22.192  1.00  0.00     0.119 A 
ATOM     12  C   UNL A   1      32.601  24.268  22.870  1.00  0.00     0.023 A 
ATOM     13  C   UNL A   1      32.240  26.088  21.321  1.00  0.00     0.047 A 
ATOM     14  C   UNL A   1      32.879  24.896  21.652  1.00  0.00     0.016 A 
BRANCH  11  15
ATOM     15  O   UNL A   1      30.675  27.769  21.766  1.00  0.00    -0.508 OA
ATOM     16  H   UNL A   1      29.856  28.020  22.143  1.00  0.00     0.293 HD
ENDBRANCH  11  15
BRANCH  12  17
ATOM     17  C   UNL A   1      33.256  22.986  23.256  1.00  0.00     0.193 C 
ATOM     18  O   UNL A   1      32.742  21.915  22.947  1.00  0.00    -0.289 OA
BRANCH  17  19
ATOM     19  C   UNL A   1      34.543  22.978  23.990  1.00  0.00     0.022 A 
ATOM     20  C   UNL A   1      34.522  23.086  25.383  1.00  0.00     0.012 A 
ATOM     21  C   UNL A   1      35.762  22.865  23.311  1.00  0.00     0.012 A 
ATOM     22  C   UNL A   1      35.716  23.032  26.101  1.00  0.00     0.001 A 
ATOM     23  C   UNL A   1      36.955  22.811  24.033  1.00  0.00     0.001 A 
ATOM     24  C   UNL A   1      36.929  22.887  25.427  1.00  0.00     0.000 A 
ENDBRANCH  17  19
ENDBRANCH  12  17
ENDBRANCH   7   9
ENDBRANCH   4   7
ENDBRANCH   2   3
ENDBRANCH   1   2
BRANCH   1  25
ATOM     25  C   UNL A   1      31.763  30.361  26.729  1.00  0.00     0.023 C 
BRANCH  25  26
ATOM     26  C   UNL A   1      32.899  31.321  27.068  1.00  0.00     0.116 C 
BRANCH  26  27
ATOM     27  N   UNL A   1      32.434  32.669  27.356  1.00  0.00    -0.352 N 
ATOM     28  C   UNL A   1      33.026  33.642  28.124  1.00  0.00     0.251 C 
ATOM     29  H   UNL A   1      31.575  32.919  26.943  1.00  0.00     0.163 HD
ATOM     30  O   UNL A   1      32.435  34.690  28.362  1.00  0.00    -0.269 OA
BRANCH  28  31
ATOM     31  C   UNL A   1      34.368  33.404  28.694  1.00  0.00     0.039 A 
ATOM     32  C   UNL A   1      34.469  32.766  29.934  1.00  0.00     0.014 A 
ATOM     33  C   UNL A   1      35.518  33.772  27.992  1.00  0.00     0.014 A 
ATOM     34  C   UNL A   1      35.727  32.416  30.429  1.00  0.00     0.010 A 
ATOM     35  C   UNL A   1      36.767  33.373  28.460  1.00  0.00     0.010 A 
ATOM     36  C   UNL A   1      36.880  32.674  29.672  1.00  0.00    -0.014 A 
BRANCH  36  37
ATOM     37  C   UNL A   1      38.212  32.171  30.094  1.00  0.00     0.031 A 
ATOM     38  C   UNL A   1      38.733  30.866  29.564  1.00  0.00     0.074 A 
ATOM     39  C   UNL A   1      38.897  32.838  31.044  1.00  0.00     0.049 A 
ATOM     40  N   UNL A   1      39.800  30.197  29.923  1.00  0.00    -0.248 NA
ATOM     41  C   UNL A   1      37.938  30.214  28.512  1.00  0.00     0.031 C 
ATOM     42  C   UNL A   1      38.472  34.091  31.673  1.00  0.00     0.029 A 
ATOM     43  N   UNL A   1      40.082  32.539  31.670  1.00  0.00    -0.354 N 
ATOM     44  C   UNL A   1      39.790  29.037  29.162  1.00  0.00     0.074 A 
ATOM     45  C   UNL A   1      38.600  29.078  28.340  1.00  0.00     0.031 C 
ATOM     46  C   UNL A   1      39.378  34.448  32.598  1.00  0.00     0.029 A 
ATOM     47  C   UNL A   1      40.424  33.434  32.656  1.00  0.00     0.049 A 
ATOM     48  H   UNL A   1      40.634  31.758  31.436  1.00  0.00     0.167 HD
ATOM     49  C   UNL A   1      40.699  28.034  29.145  1.00  0.00     0.037 A 
ATOM     50  C   UNL A   1      41.450  33.423  33.530  1.00  0.00     0.037 A 
ATOM     51  C   UNL A   1      41.903  28.017  29.933  1.00  0.00     0.049 A 
ATOM     52  C   UNL A   1      42.441  32.294  33.488  1.00  0.00     0.074 A 
ATOM     53  C   UNL A   1      42.939  27.099  29.900  1.00  0.00     0.029 A 
ATOM     54  N   UNL A   1      42.228  28.953  30.900  1.00  0.00    -0.354 N 
ATOM     55  N   UNL A   1      42.469  31.250  32.699  1.00  0.00    -0.248 NA
ATOM     56  C   UNL A   1      43.541  32.340  34.462  1.00  0.00     0.031 C 
ATOM     57  C   UNL A   1      43.870  27.455  30.881  1.00  0.00     0.029 A 
ATOM     58  C   UNL A   1      43.432  28.615  31.498  1.00  0.00     0.049 A 
ATOM     59  H   UNL A   1      41.685  29.741  31.130  1.00  0.00     0.167 HD
ATOM     60  C   UNL A   1      43.594  30.524  33.068  1.00  0.00     0.074 A 
ATOM     61  C   UNL A   1      44.233  31.256  34.141  1.00  0.00     0.031 C 
ATOM     62  C   UNL A   1      44.055  29.355  32.564  1.00  0.00     0.037 A 
BRANCH  49  63
ATOM     63  C   UNL A   1      40.436  26.865  28.244  1.00  0.00     0.057 A 
ATOM     64  C   UNL A   1      39.542  25.848  28.597  1.00  0.00     0.134 A 
ATOM     65  C   UNL A   1      41.030  26.797  26.977  1.00  0.00     0.134 A 
ATOM     66  F   UNL A   1      38.947  25.852  29.800  1.00  0.00    -0.206 F 
ATOM     67  C   UNL A   1      39.256  24.795  27.726  1.00  0.00     0.040 A 
ATOM     68  C   UNL A   1      40.736  25.761  26.089  1.00  0.00     0.040 A 
ATOM     69  F   UNL A   1      41.892  27.744  26.577  1.00  0.00    -0.206 F 
ATOM     70  C   UNL A   1      39.847  24.755  26.465  1.00  0.00     0.006 A 
ENDBRANCH  49  63
BRANCH  50  71
ATOM     71  C   UNL A   1      41.585  34.507  34.535  1.00  0.00     0.057 A 
ATOM     72  C   UNL A   1      42.255  35.697  34.229  1.00  0.00     0.134 A 
ATOM     73  C   UNL A   1      41.069  34.370  35.828  1.00  0.00     0.134 A 
ATOM     74  F   UNL A   1      42.788  35.877  33.011  1.00  0.00    -0.206 F 
ATOM     75  C   UNL A   1      42.427  36.703  35.180  1.00  0.00     0.040 A 
ATOM     76  C   UNL A   1      41.213  35.378  36.783  1.00  0.00     0.040 A 
ATOM     77  F   UNL A   1      40.412  33.255  36.182  1.00  0.00    -0.206 F 
ATOM     78  C   UNL A   1      41.902  36.547  36.461  1.00  0.00     0.006 A 
ENDBRANCH  50  71
BRANCH  62  79
ATOM     79  C   UNL A   1      45.316  28.801  33.155  1.00  0.00     0.057 A 
ATOM     80  C   UNL A   1      46.576  29.171  32.672  1.00  0.00     0.134 A 
ATOM     81  C   UNL A   1      45.270  27.929  34.250  1.00  0.00     0.134 A 
ATOM     82  F   UNL A   1      46.686  29.991  31.616  1.00  0.00    -0.206 F 
ATOM     83  C   UNL A   1      47.749  28.684  33.249  1.00  0.00     0.040 A 
ATOM     84  C   UNL A   1      46.435  27.453  34.851  1.00  0.00     0.040 A 
ATOM     85  F   UNL A   1      44.093  27.542  34.763  1.00  0.00    -0.206 F 
ATOM     86  C   UNL A   1      47.680  27.828  34.349  1.00  0.00     0.006 A 
ENDBRANCH  62  79
ENDBRANCH  36  37
ENDBRANCH  28  31
ENDBRANCH  26  27
ENDBRANCH  25  26
ENDBRANCH   1  25
TORSDOF 15
ENDMDL
