MODEL 1
REMARK VINA RESULT:     -11.9      0.000      0.000
REMARK SMILES Cc1ccccc1OCC(=O)c1nc(C)c(C(=O)NCCCCNC(=O)c2ccc(-c3c4nc(c(-c5c(F)cccc5F)c5ccc([nH]5)c(-c5c(F)cccc5F)c5nc(c(-c6c(F)cccc6F)c6ccc3[nH]6)C=C5)C=C4)cc2)s1
REMARK SMILES IDX 20 1 19 2 17 3 18 4 16 6 12 7 13 8 81 9 14 10 15 11 10 12
REMARK SMILES IDX 11 13 9 14 8 15 7 16 1 17 2 18 3 19 4 20 6 21 5 22 21 23
REMARK SMILES IDX 22 24 23 25 24 26 25 27 26 29 27 30 28 31 80 32 29 33 79 34
REMARK SMILES IDX 30 35 31 36 32 37 73 38 33 39 78 40 72 41 74 42 34 43 77 44
REMARK SMILES IDX 71 45 70 46 35 48 61 49 44 50 60 51 45 52 48 53 59 54 75 55
REMARK SMILES IDX 46 56 47 57 58 59 76 60 49 61 36 62 37 63 42 64 38 65 39 66
REMARK SMILES IDX 41 67 43 68 40 69 62 70 63 71 68 72 64 73 65 74 67 75 69 76
REMARK SMILES IDX 66 77 50 78 51 79 56 80 52 81 53 82 55 83 57 84 54 85
REMARK H PARENT 19 5 24 28 74 47 48 58
REMARK Flexibility Score: inf
ROOT
ATOM      1  C   UNL A   1      31.974  29.663  24.901  1.00  0.00     0.116 C 
ENDROOT
BRANCH   1   2
ATOM      2  N   UNL A   1      30.872  29.119  24.147  1.00  0.00    -0.351 N 
ATOM      3  C   UNL A   1      30.720  28.080  23.265  1.00  0.00     0.263 C 
ATOM      4  O   UNL A   1      29.546  27.983  22.880  1.00  0.00    -0.268 OA
ATOM      5  H   UNL A   1      30.032  29.607  24.302  1.00  0.00     0.163 HD
BRANCH   3   6
ATOM      6  C   UNL A   1      31.768  27.170  22.798  1.00  0.00     0.115 A 
ATOM      7  C   UNL A   1      32.792  24.987  22.212  1.00  0.00     0.164 A 
ATOM      8  N   UNL A   1      33.638  25.971  22.029  1.00  0.00    -0.237 NA
ATOM      9  S   UNL A   1      31.274  25.480  22.778  1.00  0.00    -0.105 S 
ATOM     10  C   UNL A   1      33.081  27.211  22.326  1.00  0.00     0.062 A 
ATOM     11  C   UNL A   1      34.042  28.307  22.065  1.00  0.00     0.068 C 
BRANCH   7  12
ATOM     12  C   UNL A   1      33.177  23.615  21.901  1.00  0.00     0.228 C 
ATOM     13  O   UNL A   1      33.632  23.292  20.794  1.00  0.00    -0.288 OA
BRANCH  12  14
ATOM     14  C   UNL A   1      32.925  22.498  22.913  1.00  0.00     0.313 C 
BRANCH  14  15
ATOM     15  O   UNL A   1      33.357  22.589  24.244  1.00  0.00    -0.485 OA
BRANCH  15  16
ATOM     16  C   UNL A   1      34.613  22.946  24.627  1.00  0.00     0.122 A 
ATOM     17  C   UNL A   1      34.302  25.311  25.650  1.00  0.00     0.048 C 
ATOM     18  C   UNL A   1      35.098  24.102  25.252  1.00  0.00    -0.009 A 
ATOM     19  C   UNL A   1      36.470  24.149  25.596  1.00  0.00     0.007 A 
ATOM     20  C   UNL A   1      37.348  23.111  25.286  1.00  0.00     0.001 A 
ATOM     21  C   UNL A   1      35.517  21.913  24.310  1.00  0.00     0.047 A 
ATOM     22  C   UNL A   1      36.871  21.990  24.629  1.00  0.00     0.004 A 
ENDBRANCH  15  16
ENDBRANCH  14  15
ENDBRANCH  12  14
ENDBRANCH   7  12
ENDBRANCH   3   6
ENDBRANCH   1   2
BRANCH   1  23
ATOM     23  C   UNL A   1      31.570  30.015  26.341  1.00  0.00     0.023 C 
BRANCH  23  24
ATOM     24  C   UNL A   1      32.404  31.114  27.001  1.00  0.00     0.023 C 
BRANCH  24  25
ATOM     25  C   UNL A   1      33.707  30.591  27.586  1.00  0.00     0.116 C 
BRANCH  25  26
ATOM     26  N   UNL A   1      34.508  31.575  28.315  1.00  0.00    -0.352 N 
ATOM     27  C   UNL A   1      35.717  31.439  28.978  1.00  0.00     0.251 C 
ATOM     28  H   UNL A   1      34.123  32.481  28.340  1.00  0.00     0.163 HD
ATOM     29  O   UNL A   1      36.164  32.368  29.610  1.00  0.00    -0.269 OA
BRANCH  27  30
ATOM     30  C   UNL A   1      36.547  30.207  28.786  1.00  0.00     0.039 A 
ATOM     31  C   UNL A   1      36.671  29.326  29.870  1.00  0.00     0.014 A 
ATOM     32  C   UNL A   1      37.368  30.045  27.679  1.00  0.00     0.014 A 
ATOM     33  C   UNL A   1      37.792  28.502  29.960  1.00  0.00     0.010 A 
ATOM     34  C   UNL A   1      38.548  29.350  27.831  1.00  0.00     0.010 A 
ATOM     35  C   UNL A   1      38.792  28.629  29.002  1.00  0.00    -0.014 A 
BRANCH  35  36
ATOM     36  C   UNL A   1      40.167  28.186  29.193  1.00  0.00     0.031 A 
ATOM     37  C   UNL A   1      40.642  26.910  28.615  1.00  0.00     0.074 A 
ATOM     38  C   UNL A   1      41.056  29.034  29.762  1.00  0.00     0.049 A 
ATOM     39  N   UNL A   1      41.704  26.297  29.013  1.00  0.00    -0.248 NA
ATOM     40  C   UNL A   1      39.945  26.205  27.542  1.00  0.00     0.031 C 
ATOM     41  C   UNL A   1      42.513  28.947  29.721  1.00  0.00     0.029 A 
ATOM     42  N   UNL A   1      40.799  30.073  30.668  1.00  0.00    -0.354 N 
ATOM     43  C   UNL A   1      41.980  25.305  28.104  1.00  0.00     0.074 A 
ATOM     44  C   UNL A   1      40.832  25.254  27.231  1.00  0.00     0.031 C 
ATOM     45  C   UNL A   1      43.022  29.663  30.734  1.00  0.00     0.029 A 
ATOM     46  C   UNL A   1      41.906  30.114  31.544  1.00  0.00     0.049 A 
ATOM     47  H   UNL A   1      40.006  30.657  30.689  1.00  0.00     0.167 HD
ATOM     48  C   UNL A   1      43.205  24.711  28.106  1.00  0.00     0.037 A 
ATOM     49  C   UNL A   1      41.770  29.873  32.879  1.00  0.00     0.037 A 
ATOM     50  C   UNL A   1      44.056  25.237  29.165  1.00  0.00     0.049 A 
ATOM     51  C   UNL A   1      42.569  28.692  33.377  1.00  0.00     0.074 A 
ATOM     52  C   UNL A   1      45.033  26.219  29.183  1.00  0.00     0.029 A 
ATOM     53  N   UNL A   1      43.727  24.984  30.490  1.00  0.00    -0.354 N 
ATOM     54  N   UNL A   1      43.057  27.766  32.598  1.00  0.00    -0.248 NA
ATOM     55  C   UNL A   1      42.876  28.448  34.784  1.00  0.00     0.031 C 
ATOM     56  C   UNL A   1      45.262  26.586  30.531  1.00  0.00     0.029 A 
ATOM     57  C   UNL A   1      44.440  25.814  31.331  1.00  0.00     0.049 A 
ATOM     58  H   UNL A   1      43.077  24.307  30.788  1.00  0.00     0.167 HD
ATOM     59  C   UNL A   1      43.707  26.820  33.350  1.00  0.00     0.074 A 
ATOM     60  C   UNL A   1      43.582  27.304  34.711  1.00  0.00     0.031 C 
ATOM     61  C   UNL A   1      44.283  25.723  32.774  1.00  0.00     0.037 A 
BRANCH  48  62
ATOM     62  C   UNL A   1      43.692  23.853  26.973  1.00  0.00     0.057 A 
ATOM     63  C   UNL A   1      44.432  24.397  25.907  1.00  0.00     0.134 A 
ATOM     64  C   UNL A   1      43.431  22.477  26.869  1.00  0.00     0.134 A 
ATOM     65  F   UNL A   1      44.811  25.682  25.894  1.00  0.00    -0.206 F 
ATOM     66  C   UNL A   1      44.807  23.651  24.784  1.00  0.00     0.040 A 
ATOM     67  C   UNL A   1      43.755  21.729  25.729  1.00  0.00     0.040 A 
ATOM     68  F   UNL A   1      42.867  21.801  27.881  1.00  0.00    -0.206 F 
ATOM     69  C   UNL A   1      44.440  22.319  24.676  1.00  0.00     0.006 A 
ENDBRANCH  48  62
BRANCH  49  70
ATOM     70  C   UNL A   1      40.471  30.343  33.423  1.00  0.00     0.057 A 
ATOM     71  C   UNL A   1      40.315  31.721  33.655  1.00  0.00     0.134 A 
ATOM     72  C   UNL A   1      39.306  29.581  33.300  1.00  0.00     0.134 A 
ATOM     73  F   UNL A   1      41.395  32.508  33.782  1.00  0.00    -0.206 F 
ATOM     74  C   UNL A   1      39.060  32.335  33.639  1.00  0.00     0.040 A 
ATOM     75  C   UNL A   1      38.042  30.185  33.290  1.00  0.00     0.040 A 
ATOM     76  F   UNL A   1      39.375  28.265  33.050  1.00  0.00    -0.206 F 
ATOM     77  C   UNL A   1      37.920  31.569  33.416  1.00  0.00     0.006 A 
ENDBRANCH  49  70
BRANCH  61  78
ATOM     78  C   UNL A   1      44.830  24.495  33.473  1.00  0.00     0.057 A 
ATOM     79  C   UNL A   1      46.192  24.203  33.621  1.00  0.00     0.134 A 
ATOM     80  C   UNL A   1      43.959  23.625  34.174  1.00  0.00     0.134 A 
ATOM     81  F   UNL A   1      47.142  24.992  33.105  1.00  0.00    -0.206 F 
ATOM     82  C   UNL A   1      46.651  23.108  34.368  1.00  0.00     0.040 A 
ATOM     83  C   UNL A   1      44.407  22.566  34.968  1.00  0.00     0.040 A 
ATOM     84  F   UNL A   1      42.626  23.778  34.144  1.00  0.00    -0.206 F 
ATOM     85  C   UNL A   1      45.761  22.295  35.059  1.00  0.00     0.006 A 
ENDBRANCH  61  78
ENDBRANCH  35  36
ENDBRANCH  27  30
ENDBRANCH  25  26
ENDBRANCH  24  25
ENDBRANCH  23  24
ENDBRANCH   1  23
TORSDOF 15
ENDMDL
MODEL 2
REMARK VINA RESULT:     -11.6      3.726      9.106
REMARK SMILES Cc1ccccc1OCC(=O)c1nc(C)c(C(=O)NCCCCNC(=O)c2ccc(-c3c4nc(c(-c5c(F)cccc5F)c5ccc([nH]5)c(-c5c(F)cccc5F)c5nc(c(-c6c(F)cccc6F)c6ccc3[nH]6)C=C5)C=C4)cc2)s1
REMARK SMILES IDX 20 1 19 2 17 3 18 4 16 6 12 7 13 8 81 9 14 10 15 11 10 12
REMARK SMILES IDX 11 13 9 14 8 15 7 16 1 17 2 18 3 19 4 20 6 21 5 22 21 23
REMARK SMILES IDX 22 24 23 25 24 26 25 27 26 29 27 30 28 31 80 32 29 33 79 34
REMARK SMILES IDX 30 35 31 36 32 37 73 38 33 39 78 40 72 41 74 42 34 43 77 44
REMARK SMILES IDX 71 45 70 46 35 48 61 49 44 50 60 51 45 52 48 53 59 54 75 55
REMARK SMILES IDX 46 56 47 57 58 59 76 60 49 61 36 62 37 63 42 64 38 65 39 66
REMARK SMILES IDX 41 67 43 68 40 69 62 70 63 71 68 72 64 73 65 74 67 75 69 76
REMARK SMILES IDX 66 77 50 78 51 79 56 80 52 81 53 82 55 83 57 84 54 85
REMARK H PARENT 19 5 24 28 74 47 48 58
REMARK Flexibility Score: inf
ROOT
ATOM      1  C   UNL A   1      36.521  22.709  24.495  1.00  0.00     0.116 C 
ENDROOT
BRANCH   1   2
ATOM      2  N   UNL A   1      35.723  22.972  23.323  1.00  0.00    -0.351 N 
ATOM      3  C   UNL A   1      34.379  23.050  23.063  1.00  0.00     0.263 C 
ATOM      4  O   UNL A   1      34.164  23.328  21.875  1.00  0.00    -0.268 OA
ATOM      5  H   UNL A   1      36.270  23.132  22.522  1.00  0.00     0.163 HD
BRANCH   3   6
ATOM      6  C   UNL A   1      33.290  22.842  24.020  1.00  0.00     0.115 A 
ATOM      7  C   UNL A   1      31.464  23.494  25.568  1.00  0.00     0.164 A 
ATOM      8  N   UNL A   1      31.617  22.192  25.538  1.00  0.00    -0.237 NA
ATOM      9  S   UNL A   1      32.530  24.336  24.559  1.00  0.00    -0.105 S 
ATOM     10  C   UNL A   1      32.619  21.797  24.658  1.00  0.00     0.062 A 
ATOM     11  C   UNL A   1      32.737  20.321  24.608  1.00  0.00     0.068 C 
BRANCH   7  12
ATOM     12  C   UNL A   1      30.422  24.095  26.393  1.00  0.00     0.228 C 
ATOM     13  O   UNL A   1      29.818  23.455  27.266  1.00  0.00    -0.288 OA
BRANCH  12  14
ATOM     14  C   UNL A   1      29.963  25.529  26.126  1.00  0.00     0.313 C 
BRANCH  14  15
ATOM     15  O   UNL A   1      30.521  26.626  26.798  1.00  0.00    -0.485 OA
BRANCH  15  16
ATOM     16  C   UNL A   1      31.403  27.504  26.247  1.00  0.00     0.122 A 
ATOM     17  C   UNL A   1      30.408  27.990  23.899  1.00  0.00     0.048 C 
ATOM     18  C   UNL A   1      31.414  28.147  25.001  1.00  0.00    -0.009 A 
ATOM     19  C   UNL A   1      32.447  29.080  24.742  1.00  0.00     0.007 A 
ATOM     20  C   UNL A   1      33.466  29.332  25.660  1.00  0.00     0.001 A 
ATOM     21  C   UNL A   1      32.448  27.763  27.155  1.00  0.00     0.047 A 
ATOM     22  C   UNL A   1      33.473  28.661  26.869  1.00  0.00     0.004 A 
ENDBRANCH  15  16
ENDBRANCH  14  15
ENDBRANCH  12  14
ENDBRANCH   7  12
ENDBRANCH   3   6
ENDBRANCH   1   2
BRANCH   1  23
ATOM     23  C   UNL A   1      37.007  21.253  24.547  1.00  0.00     0.023 C 
BRANCH  23  24
ATOM     24  C   UNL A   1      38.298  21.025  25.334  1.00  0.00     0.023 C 
BRANCH  24  25
ATOM     25  C   UNL A   1      38.727  22.250  26.127  1.00  0.00     0.116 C 
BRANCH  25  26
ATOM     26  N   UNL A   1      40.170  22.402  26.315  1.00  0.00    -0.352 N 
ATOM     27  C   UNL A   1      40.933  23.535  26.550  1.00  0.00     0.251 C 
ATOM     28  H   UNL A   1      40.682  21.563  26.264  1.00  0.00     0.163 HD
ATOM     29  O   UNL A   1      42.139  23.453  26.575  1.00  0.00    -0.269 OA
BRANCH  27  30
ATOM     30  C   UNL A   1      40.271  24.824  26.930  1.00  0.00     0.039 A 
ATOM     31  C   UNL A   1      40.517  25.947  26.127  1.00  0.00     0.014 A 
ATOM     32  C   UNL A   1      39.638  24.986  28.154  1.00  0.00     0.014 A 
ATOM     33  C   UNL A   1      40.403  27.222  26.678  1.00  0.00     0.010 A 
ATOM     34  C   UNL A   1      39.669  26.228  28.751  1.00  0.00     0.010 A 
ATOM     35  C   UNL A   1      40.115  27.340  28.034  1.00  0.00    -0.014 A 
BRANCH  35  36
ATOM     36  C   UNL A   1      40.393  28.531  28.828  1.00  0.00     0.031 A 
ATOM     37  C   UNL A   1      39.332  29.522  29.109  1.00  0.00     0.074 A 
ATOM     38  C   UNL A   1      41.591  28.637  29.450  1.00  0.00     0.049 A 
ATOM     39  N   UNL A   1      39.568  30.730  29.493  1.00  0.00    -0.248 NA
ATOM     40  C   UNL A   1      37.907  29.238  28.963  1.00  0.00     0.031 C 
ATOM     41  C   UNL A   1      41.938  29.530  30.552  1.00  0.00     0.029 A 
ATOM     42  N   UNL A   1      42.814  28.064  29.074  1.00  0.00    -0.354 N 
ATOM     43  C   UNL A   1      38.377  31.279  29.901  1.00  0.00     0.074 A 
ATOM     44  C   UNL A   1      37.363  30.330  29.509  1.00  0.00     0.031 C 
ATOM     45  C   UNL A   1      43.271  29.676  30.593  1.00  0.00     0.029 A 
ATOM     46  C   UNL A   1      43.812  28.997  29.431  1.00  0.00     0.049 A 
ATOM     47  H   UNL A   1      42.949  27.187  28.646  1.00  0.00     0.167 HD
ATOM     48  C   UNL A   1      38.381  32.422  30.640  1.00  0.00     0.037 A 
ATOM     49  C   UNL A   1      44.610  29.583  28.493  1.00  0.00     0.037 A 
ATOM     50  C   UNL A   1      39.732  32.921  30.854  1.00  0.00     0.049 A 
ATOM     51  C   UNL A   1      44.497  31.088  28.439  1.00  0.00     0.074 A 
ATOM     52  C   UNL A   1      40.631  32.780  31.898  1.00  0.00     0.029 A 
ATOM     53  N   UNL A   1      40.458  33.399  29.771  1.00  0.00    -0.354 N 
ATOM     54  N   UNL A   1      43.504  31.759  28.956  1.00  0.00    -0.248 NA
ATOM     55  C   UNL A   1      45.477  31.959  27.796  1.00  0.00     0.031 C 
ATOM     56  C   UNL A   1      41.915  33.140  31.425  1.00  0.00     0.029 A 
ATOM     57  C   UNL A   1      41.793  33.517  30.100  1.00  0.00     0.049 A 
ATOM     58  H   UNL A   1      40.075  33.624  28.892  1.00  0.00     0.167 HD
ATOM     59  C   UNL A   1      43.676  33.100  28.720  1.00  0.00     0.074 A 
ATOM     60  C   UNL A   1      44.937  33.174  28.008  1.00  0.00     0.031 C 
ATOM     61  C   UNL A   1      42.756  34.021  29.133  1.00  0.00     0.037 A 
BRANCH  48  62
ATOM     62  C   UNL A   1      37.168  32.914  31.378  1.00  0.00     0.057 A 
ATOM     63  C   UNL A   1      36.204  33.724  30.747  1.00  0.00     0.134 A 
ATOM     64  C   UNL A   1      36.916  32.642  32.732  1.00  0.00     0.134 A 
ATOM     65  F   UNL A   1      36.277  34.020  29.443  1.00  0.00    -0.206 F 
ATOM     66  C   UNL A   1      35.122  34.289  31.431  1.00  0.00     0.040 A 
ATOM     67  C   UNL A   1      35.865  33.241  33.443  1.00  0.00     0.040 A 
ATOM     68  F   UNL A   1      37.668  31.766  33.415  1.00  0.00    -0.206 F 
ATOM     69  C   UNL A   1      34.967  34.076  32.792  1.00  0.00     0.006 A 
ENDBRANCH  48  62
BRANCH  49  70
ATOM     70  C   UNL A   1      44.912  28.686  27.348  1.00  0.00     0.057 A 
ATOM     71  C   UNL A   1      45.927  27.728  27.514  1.00  0.00     0.134 A 
ATOM     72  C   UNL A   1      43.985  28.464  26.326  1.00  0.00     0.134 A 
ATOM     73  F   UNL A   1      46.848  27.883  28.477  1.00  0.00    -0.206 F 
ATOM     74  C   UNL A   1      45.946  26.538  26.781  1.00  0.00     0.040 A 
ATOM     75  C   UNL A   1      43.999  27.279  25.580  1.00  0.00     0.040 A 
ATOM     76  F   UNL A   1      42.973  29.320  26.126  1.00  0.00    -0.206 F 
ATOM     77  C   UNL A   1      44.954  26.294  25.836  1.00  0.00     0.006 A 
ENDBRANCH  49  70
BRANCH  61  78
ATOM     78  C   UNL A   1      42.688  35.488  28.760  1.00  0.00     0.057 A 
ATOM     79  C   UNL A   1      43.028  36.544  29.616  1.00  0.00     0.134 A 
ATOM     80  C   UNL A   1      42.414  35.873  27.424  1.00  0.00     0.134 A 
ATOM     81  F   UNL A   1      43.412  36.332  30.880  1.00  0.00    -0.206 F 
ATOM     82  C   UNL A   1      43.049  37.881  29.189  1.00  0.00     0.040 A 
ATOM     83  C   UNL A   1      42.489  37.195  26.975  1.00  0.00     0.040 A 
ATOM     84  F   UNL A   1      42.085  34.978  26.480  1.00  0.00    -0.206 F 
ATOM     85  C   UNL A   1      42.796  38.210  27.863  1.00  0.00     0.006 A 
ENDBRANCH  61  78
ENDBRANCH  35  36
ENDBRANCH  27  30
ENDBRANCH  25  26
ENDBRANCH  24  25
ENDBRANCH  23  24
ENDBRANCH   1  23
TORSDOF 15
ENDMDL
MODEL 3
REMARK VINA RESULT:     -11.6      1.087      1.486
REMARK SMILES Cc1ccccc1OCC(=O)c1nc(C)c(C(=O)NCCCCNC(=O)c2ccc(-c3c4nc(c(-c5c(F)cccc5F)c5ccc([nH]5)c(-c5c(F)cccc5F)c5nc(c(-c6c(F)cccc6F)c6ccc3[nH]6)C=C5)C=C4)cc2)s1
REMARK SMILES IDX 20 1 19 2 17 3 18 4 16 6 12 7 13 8 81 9 14 10 15 11 10 12
REMARK SMILES IDX 11 13 9 14 8 15 7 16 1 17 2 18 3 19 4 20 6 21 5 22 21 23
REMARK SMILES IDX 22 24 23 25 24 26 25 27 26 29 27 30 28 31 80 32 29 33 79 34
REMARK SMILES IDX 30 35 31 36 32 37 73 38 33 39 78 40 72 41 74 42 34 43 77 44
REMARK SMILES IDX 71 45 70 46 35 48 61 49 44 50 60 51 45 52 48 53 59 54 75 55
REMARK SMILES IDX 46 56 47 57 58 59 76 60 49 61 36 62 37 63 42 64 38 65 39 66
REMARK SMILES IDX 41 67 43 68 40 69 62 70 63 71 68 72 64 73 65 74 67 75 69 76
REMARK SMILES IDX 66 77 50 78 51 79 56 80 52 81 53 82 55 83 57 84 54 85
REMARK H PARENT 19 5 24 28 74 47 48 58
REMARK Flexibility Score: inf
ROOT
ATOM      1  C   UNL A   1      32.934  29.570  25.251  1.00  0.00     0.116 C 
ENDROOT
BRANCH   1   2
ATOM      2  N   UNL A   1      33.474  29.323  23.937  1.00  0.00    -0.351 N 
ATOM      3  C   UNL A   1      33.390  28.297  23.032  1.00  0.00     0.263 C 
ATOM      4  O   UNL A   1      34.027  28.552  22.000  1.00  0.00    -0.268 OA
ATOM      5  H   UNL A   1      34.035  30.064  23.615  1.00  0.00     0.163 HD
BRANCH   3   6
ATOM      6  C   UNL A   1      32.660  27.039  23.202  1.00  0.00     0.115 A 
ATOM      7  C   UNL A   1      32.367  24.580  23.353  1.00  0.00     0.164 A 
ATOM      8  N   UNL A   1      31.221  25.202  23.488  1.00  0.00    -0.237 NA
ATOM      9  S   UNL A   1      33.689  25.612  23.124  1.00  0.00    -0.105 S 
ATOM     10  C   UNL A   1      31.360  26.585  23.433  1.00  0.00     0.062 A 
ATOM     11  C   UNL A   1      30.059  27.264  23.637  1.00  0.00     0.068 C 
BRANCH   7  12
ATOM     12  C   UNL A   1      32.431  23.125  23.438  1.00  0.00     0.228 C 
ATOM     13  O   UNL A   1      32.524  22.408  22.431  1.00  0.00    -0.288 OA
BRANCH  12  14
ATOM     14  C   UNL A   1      32.272  22.427  24.789  1.00  0.00     0.313 C 
BRANCH  14  15
ATOM     15  O   UNL A   1      33.235  22.538  25.802  1.00  0.00    -0.485 OA
BRANCH  15  16
ATOM     16  C   UNL A   1      34.573  22.368  25.618  1.00  0.00     0.122 A 
ATOM     17  C   UNL A   1      34.786  19.890  24.875  1.00  0.00     0.048 C 
ATOM     18  C   UNL A   1      35.317  21.254  25.206  1.00  0.00    -0.009 A 
ATOM     19  C   UNL A   1      36.713  21.411  25.035  1.00  0.00     0.007 A 
ATOM     20  C   UNL A   1      37.364  22.614  25.311  1.00  0.00     0.001 A 
ATOM     21  C   UNL A   1      35.249  23.570  25.905  1.00  0.00     0.047 A 
ATOM     22  C   UNL A   1      36.628  23.697  25.760  1.00  0.00     0.004 A 
ENDBRANCH  15  16
ENDBRANCH  14  15
ENDBRANCH  12  14
ENDBRANCH   7  12
ENDBRANCH   3   6
ENDBRANCH   1   2
BRANCH   1  23
ATOM     23  C   UNL A   1      33.785  28.923  26.355  1.00  0.00     0.023 C 
BRANCH  23  24
ATOM     24  C   UNL A   1      33.944  29.757  27.627  1.00  0.00     0.023 C 
BRANCH  24  25
ATOM     25  C   UNL A   1      34.561  31.122  27.362  1.00  0.00     0.116 C 
BRANCH  25  26
ATOM     26  N   UNL A   1      35.159  31.777  28.525  1.00  0.00    -0.352 N 
ATOM     27  C   UNL A   1      36.129  31.332  29.410  1.00  0.00     0.251 C 
ATOM     28  H   UNL A   1      34.815  32.681  28.711  1.00  0.00     0.163 HD
ATOM     29  O   UNL A   1      36.413  32.000  30.376  1.00  0.00    -0.269 OA
BRANCH  27  30
ATOM     30  C   UNL A   1      36.936  30.111  29.090  1.00  0.00     0.039 A 
ATOM     31  C   UNL A   1      37.029  29.114  30.072  1.00  0.00     0.014 A 
ATOM     32  C   UNL A   1      37.766  30.054  27.980  1.00  0.00     0.014 A 
ATOM     33  C   UNL A   1      38.132  28.261  30.080  1.00  0.00     0.010 A 
ATOM     34  C   UNL A   1      38.930  29.322  28.065  1.00  0.00     0.010 A 
ATOM     35  C   UNL A   1      39.146  28.471  29.152  1.00  0.00    -0.014 A 
BRANCH  35  36
ATOM     36  C   UNL A   1      40.509  27.980  29.305  1.00  0.00     0.031 A 
ATOM     37  C   UNL A   1      40.928  26.698  28.698  1.00  0.00     0.074 A 
ATOM     38  C   UNL A   1      41.438  28.790  29.866  1.00  0.00     0.049 A 
ATOM     39  N   UNL A   1      41.978  26.044  29.063  1.00  0.00    -0.248 NA
ATOM     40  C   UNL A   1      40.185  26.033  27.631  1.00  0.00     0.031 C 
ATOM     41  C   UNL A   1      42.890  28.656  29.790  1.00  0.00     0.029 A 
ATOM     42  N   UNL A   1      41.236  29.824  30.792  1.00  0.00    -0.354 N 
ATOM     43  C   UNL A   1      42.201  25.058  28.134  1.00  0.00     0.074 A 
ATOM     44  C   UNL A   1      41.032  25.058  27.287  1.00  0.00     0.031 C 
ATOM     45  C   UNL A   1      43.445  29.340  30.801  1.00  0.00     0.029 A 
ATOM     46  C   UNL A   1      42.363  29.815  31.643  1.00  0.00     0.049 A 
ATOM     47  H   UNL A   1      40.463  30.433  30.839  1.00  0.00     0.167 HD
ATOM     48  C   UNL A   1      43.405  24.424  28.100  1.00  0.00     0.037 A 
ATOM     49  C   UNL A   1      42.249  29.558  32.977  1.00  0.00     0.037 A 
ATOM     50  C   UNL A   1      44.296  24.906  29.147  1.00  0.00     0.049 A 
ATOM     51  C   UNL A   1      43.018  28.345  33.441  1.00  0.00     0.074 A 
ATOM     52  C   UNL A   1      45.305  25.855  29.157  1.00  0.00     0.029 A 
ATOM     53  N   UNL A   1      43.988  24.644  30.475  1.00  0.00    -0.354 N 
ATOM     54  N   UNL A   1      43.458  27.415  32.637  1.00  0.00    -0.248 NA
ATOM     55  C   UNL A   1      43.348  28.069  34.836  1.00  0.00     0.031 C 
ATOM     56  C   UNL A   1      45.577  26.194  30.504  1.00  0.00     0.029 A 
ATOM     57  C   UNL A   1      44.747  25.438  31.312  1.00  0.00     0.049 A 
ATOM     58  H   UNL A   1      43.323  23.985  30.778  1.00  0.00     0.167 HD
ATOM     59  C   UNL A   1      44.092  26.437  33.361  1.00  0.00     0.074 A 
ATOM     60  C   UNL A   1      44.014  26.904  34.731  1.00  0.00     0.031 C 
ATOM     61  C   UNL A   1      44.619  25.330  32.757  1.00  0.00     0.037 A 
BRANCH  48  62
ATOM     62  C   UNL A   1      43.838  23.567  26.945  1.00  0.00     0.057 A 
ATOM     63  C   UNL A   1      44.647  24.081  25.914  1.00  0.00     0.134 A 
ATOM     64  C   UNL A   1      43.457  22.226  26.783  1.00  0.00     0.134 A 
ATOM     65  F   UNL A   1      45.139  25.327  25.957  1.00  0.00    -0.206 F 
ATOM     66  C   UNL A   1      44.978  23.346  24.770  1.00  0.00     0.040 A 
ATOM     67  C   UNL A   1      43.738  21.493  25.622  1.00  0.00     0.040 A 
ATOM     68  F   UNL A   1      42.813  21.566  27.758  1.00  0.00    -0.206 F 
ATOM     69  C   UNL A   1      44.496  22.057  24.605  1.00  0.00     0.006 A 
ENDBRANCH  48  62
BRANCH  49  70
ATOM     70  C   UNL A   1      40.978  30.063  33.557  1.00  0.00     0.057 A 
ATOM     71  C   UNL A   1      40.901  31.428  33.885  1.00  0.00     0.134 A 
ATOM     72  C   UNL A   1      39.772  29.378  33.386  1.00  0.00     0.134 A 
ATOM     73  F   UNL A   1      42.023  32.142  34.062  1.00  0.00    -0.206 F 
ATOM     74  C   UNL A   1      39.683  32.112  33.916  1.00  0.00     0.040 A 
ATOM     75  C   UNL A   1      38.544  30.053  33.422  1.00  0.00     0.040 A 
ATOM     76  F   UNL A   1      39.765  28.082  33.045  1.00  0.00    -0.206 F 
ATOM     77  C   UNL A   1      38.501  31.429  33.644  1.00  0.00     0.006 A 
ENDBRANCH  49  70
BRANCH  61  78
ATOM     78  C   UNL A   1      45.140  24.075  33.425  1.00  0.00     0.057 A 
ATOM     79  C   UNL A   1      46.409  23.950  34.008  1.00  0.00     0.134 A 
ATOM     80  C   UNL A   1      44.279  22.970  33.640  1.00  0.00     0.134 A 
ATOM     81  F   UNL A   1      47.298  24.950  33.981  1.00  0.00    -0.206 F 
ATOM     82  C   UNL A   1      46.806  22.801  34.708  1.00  0.00     0.040 A 
ATOM     83  C   UNL A   1      44.645  21.845  34.385  1.00  0.00     0.040 A 
ATOM     84  F   UNL A   1      43.028  22.940  33.158  1.00  0.00    -0.206 F 
ATOM     85  C   UNL A   1      45.920  21.751  34.914  1.00  0.00     0.006 A 
ENDBRANCH  61  78
ENDBRANCH  35  36
ENDBRANCH  27  30
ENDBRANCH  25  26
ENDBRANCH  24  25
ENDBRANCH  23  24
ENDBRANCH   1  23
TORSDOF 15
ENDMDL
