MODEL 1
REMARK VINA RESULT:     -13.2      0.000      0.000
REMARK SMILES O=C(NCCCCNC(=O)[C@H](c1c[nH]c2cc(F)ccc12)[NH+]1CC[NH+](CC(=O)N2CCOCC2)CC1)c1ccc(-c2c3nc(c(-c4c(F)cccc4F)c4ccc([nH]4)c(-c4c(F)cccc4F)c4nc(c(-c5c(F)cccc5F)c5ccc2[nH]5)C=C4)C=C3)cc1
REMARK SMILES IDX 6 1 5 2 4 3 3 4 1 5 2 6 37 8 38 9 90 10 39 11 89 12 40 13
REMARK SMILES IDX 41 14 42 15 83 16 43 17 88 18 82 19 84 20 44 21 87 22 81 23
REMARK SMILES IDX 80 24 45 26 71 27 54 28 70 29 55 30 58 31 69 32 85 33 56 34
REMARK SMILES IDX 57 35 68 37 86 38 59 39 46 40 47 41 52 42 48 43 49 44 51 45
REMARK SMILES IDX 53 46 50 47 72 48 73 49 78 50 74 51 75 52 77 53 79 54 76 55
REMARK SMILES IDX 60 56 61 57 66 58 62 59 63 60 65 61 67 62 64 63 7 64 8 65
REMARK SMILES IDX 9 66 10 68 11 69 22 70 23 71 36 72 24 74 35 75 25 76 26 78
REMARK SMILES IDX 27 79 28 80 29 81 30 82 34 83 31 84 33 85 32 86 12 87 13 88
REMARK SMILES IDX 21 89 14 90 15 91 20 92 16 94 19 95 17 96 18 97
REMARK H PARENT 3 7 84 25 58 36 8 67 22 73 25 77 14 93
REMARK Flexibility Score: inf
ROOT
ATOM      1  C   UNL A   1      36.153  21.850  24.257  1.00  0.00     0.023 C 
ENDROOT
BRANCH   1   2
ATOM      2  C   UNL A   1      36.880  20.702  24.920  1.00  0.00     0.023 C 
BRANCH   2   3
ATOM      3  C   UNL A   1      38.219  21.136  25.475  1.00  0.00     0.116 C 
BRANCH   3   4
ATOM      4  N   UNL A   1      39.161  20.033  25.550  1.00  0.00    -0.352 N 
ATOM      5  O   UNL A   1      41.155  19.003  25.711  1.00  0.00    -0.269 OA
ATOM      6  C   UNL A   1      40.481  20.013  25.924  1.00  0.00     0.251 C 
ATOM      7  H   UNL A   1      38.792  19.157  25.291  1.00  0.00     0.163 HD
BRANCH   6   8
ATOM      8  C   UNL A   1      41.105  21.188  26.572  1.00  0.00     0.039 A 
ATOM      9  C   UNL A   1      41.646  22.214  25.803  1.00  0.00     0.014 A 
ATOM     10  C   UNL A   1      41.087  21.316  27.965  1.00  0.00     0.014 A 
ATOM     11  C   UNL A   1      42.338  23.251  26.400  1.00  0.00     0.010 A 
ATOM     12  C   UNL A   1      41.606  22.470  28.566  1.00  0.00     0.010 A 
ATOM     13  C   UNL A   1      42.231  23.450  27.781  1.00  0.00    -0.014 A 
BRANCH  13  14
ATOM     14  C   UNL A   1      42.612  24.782  28.310  1.00  0.00     0.031 A 
ATOM     15  C   UNL A   1      44.033  25.134  28.621  1.00  0.00     0.074 A 
ATOM     16  C   UNL A   1      41.627  25.693  28.470  1.00  0.00     0.049 A 
ATOM     17  N   UNL A   1      44.508  26.253  29.103  1.00  0.00    -0.248 NA
ATOM     18  C   UNL A   1      45.050  24.099  28.381  1.00  0.00     0.031 C 
ATOM     19  C   UNL A   1      40.200  25.444  28.219  1.00  0.00     0.029 A 
ATOM     20  N   UNL A   1      41.662  27.013  28.836  1.00  0.00    -0.354 N 
ATOM     21  C   UNL A   1      45.871  26.047  29.265  1.00  0.00     0.074 A 
ATOM     22  C   UNL A   1      46.147  24.693  28.833  1.00  0.00     0.031 C 
ATOM     23  C   UNL A   1      39.520  26.589  28.337  1.00  0.00     0.029 A 
ATOM     24  C   UNL A   1      40.431  27.624  28.794  1.00  0.00     0.049 A 
ATOM     25  H   UNL A   1      42.488  27.477  29.103  1.00  0.00     0.167 HD
ATOM     26  C   UNL A   1      46.797  26.915  29.742  1.00  0.00     0.037 A 
ATOM     27  C   UNL A   1      40.060  28.872  29.126  1.00  0.00     0.037 A 
ATOM     28  C   UNL A   1      46.501  28.266  30.147  1.00  0.00     0.049 A 
ATOM     29  C   UNL A   1      41.106  29.805  29.648  1.00  0.00     0.074 A 
ATOM     30  C   UNL A   1      47.369  29.236  30.620  1.00  0.00     0.029 A 
ATOM     31  N   UNL A   1      45.236  28.840  30.126  1.00  0.00    -0.354 N 
ATOM     32  N   UNL A   1      42.391  29.595  29.799  1.00  0.00    -0.248 NA
ATOM     33  C   UNL A   1      40.654  31.135  30.068  1.00  0.00     0.031 C 
ATOM     34  C   UNL A   1      46.624  30.380  30.924  1.00  0.00     0.029 A 
ATOM     35  C   UNL A   1      45.298  30.143  30.596  1.00  0.00     0.049 A 
ATOM     36  H   UNL A   1      44.416  28.389  29.823  1.00  0.00     0.167 HD
ATOM     37  C   UNL A   1      42.904  30.764  30.334  1.00  0.00     0.074 A 
ATOM     38  C   UNL A   1      41.794  31.691  30.450  1.00  0.00     0.031 C 
ATOM     39  C   UNL A   1      44.177  31.042  30.707  1.00  0.00     0.037 A 
BRANCH  26  40
ATOM     40  C   UNL A   1      48.205  26.417  29.886  1.00  0.00     0.057 A 
ATOM     41  C   UNL A   1      48.661  25.792  31.054  1.00  0.00     0.134 A 
ATOM     42  C   UNL A   1      49.113  26.538  28.825  1.00  0.00     0.134 A 
ATOM     43  F   UNL A   1      47.849  25.655  32.113  1.00  0.00    -0.206 F 
ATOM     44  C   UNL A   1      49.973  25.325  31.168  1.00  0.00     0.040 A 
ATOM     45  C   UNL A   1      50.418  26.055  28.918  1.00  0.00     0.040 A 
ATOM     46  F   UNL A   1      48.741  27.123  27.675  1.00  0.00    -0.206 F 
ATOM     47  C   UNL A   1      50.853  25.450  30.095  1.00  0.00     0.006 A 
ENDBRANCH  26  40
BRANCH  27  48
ATOM     48  C   UNL A   1      38.636  29.275  29.013  1.00  0.00     0.057 A 
ATOM     49  C   UNL A   1      38.085  29.658  27.786  1.00  0.00     0.134 A 
ATOM     50  C   UNL A   1      37.779  29.243  30.123  1.00  0.00     0.134 A 
ATOM     51  F   UNL A   1      38.854  29.721  26.690  1.00  0.00    -0.206 F 
ATOM     52  C   UNL A   1      36.736  30.000  27.667  1.00  0.00     0.040 A 
ATOM     53  C   UNL A   1      36.423  29.552  30.012  1.00  0.00     0.040 A 
ATOM     54  F   UNL A   1      38.242  28.872  31.325  1.00  0.00    -0.206 F 
ATOM     55  C   UNL A   1      35.899  29.938  28.781  1.00  0.00     0.006 A 
ENDBRANCH  27  48
BRANCH  39  56
ATOM     56  C   UNL A   1      44.425  32.414  31.254  1.00  0.00     0.057 A 
ATOM     57  C   UNL A   1      44.352  32.684  32.627  1.00  0.00     0.134 A 
ATOM     58  C   UNL A   1      44.748  33.474  30.398  1.00  0.00     0.134 A 
ATOM     59  F   UNL A   1      44.025  31.714  33.494  1.00  0.00    -0.206 F 
ATOM     60  C   UNL A   1      44.568  33.968  33.126  1.00  0.00     0.040 A 
ATOM     61  C   UNL A   1      44.992  34.756  30.888  1.00  0.00     0.040 A 
ATOM     62  F   UNL A   1      44.835  33.277  29.074  1.00  0.00    -0.206 F 
ATOM     63  C   UNL A   1      44.895  35.007  32.256  1.00  0.00     0.006 A 
ENDBRANCH  39  56
ENDBRANCH  13  14
ENDBRANCH   6   8
ENDBRANCH   3   4
ENDBRANCH   2   3
ENDBRANCH   1   2
BRANCH   1  64
ATOM     64  C   UNL A   1      35.831  23.050  25.132  1.00  0.00     0.116 C 
BRANCH  64  65
ATOM     65  N   UNL A   1      35.254  24.137  24.376  1.00  0.00    -0.351 N 
ATOM     66  C   UNL A   1      33.966  24.449  24.068  1.00  0.00     0.283 C 
ATOM     67  H   UNL A   1      35.916  24.769  24.015  1.00  0.00     0.163 HD
ATOM     68  O   UNL A   1      33.836  25.480  23.388  1.00  0.00    -0.268 OA
BRANCH  66  69
ATOM     69  C   UNL A   1      32.706  23.654  24.484  1.00  0.00     0.308 C 
BRANCH  69  70
ATOM     70  N   UNL A   1      31.568  24.426  25.040  1.00  0.00    -0.312 N 
ATOM     71  C   UNL A   1      30.413  24.782  24.215  1.00  0.00     0.325 C 
ATOM     72  C   UNL A   1      31.964  25.397  26.074  1.00  0.00     0.325 C 
ATOM     73  H   UNL A   1      31.075  23.667  25.508  1.00  0.00     0.349 HD
ATOM     74  C   UNL A   1      30.025  26.303  24.116  1.00  0.00     0.325 C 
ATOM     75  C   UNL A   1      31.257  26.771  26.052  1.00  0.00     0.325 C 
ATOM     76  N   UNL A   1      31.102  27.150  24.651  1.00  0.00    -0.318 N 
ATOM     77  H   UNL A   1      31.962  26.965  24.135  1.00  0.00     0.348 HD
BRANCH  76  78
ATOM     78  C   UNL A   1      31.021  28.588  24.374  1.00  0.00     0.364 C 
BRANCH  78  79
ATOM     79  C   UNL A   1      30.438  28.852  22.950  1.00  0.00     0.277 C 
ATOM     80  O   UNL A   1      30.750  28.099  22.021  1.00  0.00    -0.268 OA
ATOM     81  N   UNL A   1      29.546  29.908  22.740  1.00  0.00    -0.333 N 
ATOM     82  C   UNL A   1      29.153  30.863  23.770  1.00  0.00     0.148 C 
ATOM     83  C   UNL A   1      29.306  30.367  21.368  1.00  0.00     0.148 C 
ATOM     84  C   UNL A   1      27.845  31.601  23.469  1.00  0.00     0.181 C 
ATOM     85  C   UNL A   1      27.973  31.096  21.186  1.00  0.00     0.181 C 
ATOM     86  O   UNL A   1      27.830  32.145  22.148  1.00  0.00    -0.378 OA
ENDBRANCH  78  79
ENDBRANCH  76  78
ENDBRANCH  69  70
BRANCH  69  87
ATOM     87  C   UNL A   1      32.323  22.455  23.639  1.00  0.00     0.044 A 
ATOM     88  C   UNL A   1      32.041  22.371  22.284  1.00  0.00     0.094 A 
ATOM     89  C   UNL A   1      32.424  21.088  24.094  1.00  0.00     0.009 A 
ATOM     90  N   UNL A   1      31.901  21.054  21.933  1.00  0.00    -0.361 N 
ATOM     91  C   UNL A   1      32.196  20.249  23.003  1.00  0.00     0.049 A 
ATOM     92  C   UNL A   1      32.771  20.499  25.330  1.00  0.00     0.014 A 
ATOM     93  H   UNL A   1      31.629  20.734  21.043  1.00  0.00     0.166 HD
ATOM     94  C   UNL A   1      32.309  18.857  23.077  1.00  0.00     0.065 A 
ATOM     95  C   UNL A   1      32.903  19.110  25.422  1.00  0.00     0.040 A 
ATOM     96  C   UNL A   1      32.679  18.315  24.307  1.00  0.00     0.125 A 
ATOM     97  F   UNL A   1      32.835  16.988  24.410  1.00  0.00    -0.207 F 
ENDBRANCH  69  87
ENDBRANCH  66  69
ENDBRANCH  64  65
ENDBRANCH   1  64
TORSDOF 15
ENDMDL
MODEL 2
REMARK VINA RESULT:     -13.1      2.798      8.608
REMARK SMILES O=C(NCCCCNC(=O)[C@H](c1c[nH]c2cc(F)ccc12)[NH+]1CC[NH+](CC(=O)N2CCOCC2)CC1)c1ccc(-c2c3nc(c(-c4c(F)cccc4F)c4ccc([nH]4)c(-c4c(F)cccc4F)c4nc(c(-c5c(F)cccc5F)c5ccc2[nH]5)C=C4)C=C3)cc1
REMARK SMILES IDX 6 1 5 2 4 3 3 4 1 5 2 6 37 8 38 9 90 10 39 11 89 12 40 13
REMARK SMILES IDX 41 14 42 15 83 16 43 17 88 18 82 19 84 20 44 21 87 22 81 23
REMARK SMILES IDX 80 24 45 26 71 27 54 28 70 29 55 30 58 31 69 32 85 33 56 34
REMARK SMILES IDX 57 35 68 37 86 38 59 39 46 40 47 41 52 42 48 43 49 44 51 45
REMARK SMILES IDX 53 46 50 47 72 48 73 49 78 50 74 51 75 52 77 53 79 54 76 55
REMARK SMILES IDX 60 56 61 57 66 58 62 59 63 60 65 61 67 62 64 63 7 64 8 65
REMARK SMILES IDX 9 66 10 68 11 69 22 70 23 71 36 72 24 74 35 75 25 76 26 78
REMARK SMILES IDX 27 79 28 80 29 81 30 82 34 83 31 84 33 85 32 86 12 87 13 88
REMARK SMILES IDX 21 89 14 90 15 91 20 92 16 94 19 95 17 96 18 97
REMARK H PARENT 3 7 84 25 58 36 8 67 22 73 25 77 14 93
REMARK Flexibility Score: inf
ROOT
ATOM      1  C   UNL A   1      32.288  28.841  27.222  1.00  0.00     0.023 C 
ENDROOT
BRANCH   1   2
ATOM      2  C   UNL A   1      33.266  29.940  26.880  1.00  0.00     0.023 C 
BRANCH   2   3
ATOM      3  C   UNL A   1      34.615  29.708  27.526  1.00  0.00     0.116 C 
BRANCH   3   4
ATOM      4  N   UNL A   1      34.819  30.563  28.682  1.00  0.00    -0.352 N 
ATOM      5  O   UNL A   1      35.738  31.279  30.608  1.00  0.00    -0.269 OA
ATOM      6  C   UNL A   1      35.864  30.625  29.569  1.00  0.00     0.251 C 
ATOM      7  H   UNL A   1      34.090  31.201  28.858  1.00  0.00     0.163 HD
BRANCH   6   8
ATOM      8  C   UNL A   1      37.134  29.914  29.299  1.00  0.00     0.039 A 
ATOM      9  C   UNL A   1      37.788  30.076  28.081  1.00  0.00     0.014 A 
ATOM     10  C   UNL A   1      37.729  29.134  30.295  1.00  0.00     0.014 A 
ATOM     11  C   UNL A   1      38.905  29.321  27.777  1.00  0.00     0.010 A 
ATOM     12  C   UNL A   1      38.972  28.532  30.059  1.00  0.00     0.010 A 
ATOM     13  C   UNL A   1      39.570  28.630  28.795  1.00  0.00    -0.014 A 
BRANCH  13  14
ATOM     14  C   UNL A   1      40.968  28.204  28.531  1.00  0.00     0.031 A 
ATOM     15  C   UNL A   1      41.303  26.812  28.098  1.00  0.00     0.074 A 
ATOM     16  C   UNL A   1      41.937  29.137  28.661  1.00  0.00     0.049 A 
ATOM     17  N   UNL A   1      42.480  26.299  27.847  1.00  0.00    -0.248 NA
ATOM     18  C   UNL A   1      40.186  25.869  27.941  1.00  0.00     0.031 C 
ATOM     19  C   UNL A   1      41.719  30.522  29.103  1.00  0.00     0.029 A 
ATOM     20  N   UNL A   1      43.281  29.092  28.400  1.00  0.00    -0.354 N 
ATOM     21  C   UNL A   1      42.254  24.963  27.546  1.00  0.00     0.074 A 
ATOM     22  C   UNL A   1      40.826  24.744  27.647  1.00  0.00     0.031 C 
ATOM     23  C   UNL A   1      42.857  31.213  28.984  1.00  0.00     0.029 A 
ATOM     24  C   UNL A   1      43.913  30.299  28.582  1.00  0.00     0.049 A 
ATOM     25  H   UNL A   1      43.747  28.275  28.111  1.00  0.00     0.167 HD
ATOM     26  C   UNL A   1      43.165  24.013  27.223  1.00  0.00     0.037 A 
ATOM     27  C   UNL A   1      45.211  30.634  28.478  1.00  0.00     0.037 A 
ATOM     28  C   UNL A   1      44.580  24.260  27.108  1.00  0.00     0.049 A 
ATOM     29  C   UNL A   1      46.190  29.561  28.120  1.00  0.00     0.074 A 
ATOM     30  C   UNL A   1      45.587  23.375  26.763  1.00  0.00     0.029 A 
ATOM     31  N   UNL A   1      45.191  25.488  27.336  1.00  0.00    -0.354 N 
ATOM     32  N   UNL A   1      45.961  28.302  27.841  1.00  0.00    -0.248 NA
ATOM     33  C   UNL A   1      47.605  29.946  28.087  1.00  0.00     0.031 C 
ATOM     34  C   UNL A   1      46.808  24.054  26.822  1.00  0.00     0.029 A 
ATOM     35  C   UNL A   1      46.561  25.376  27.158  1.00  0.00     0.049 A 
ATOM     36  H   UNL A   1      44.720  26.314  27.588  1.00  0.00     0.167 HD
ATOM     37  C   UNL A   1      47.202  27.738  27.599  1.00  0.00     0.074 A 
ATOM     38  C   UNL A   1      48.177  28.804  27.734  1.00  0.00     0.031 C 
ATOM     39  C   UNL A   1      47.510  26.452  27.304  1.00  0.00     0.037 A 
BRANCH  26  40
ATOM     40  C   UNL A   1      42.664  22.614  27.010  1.00  0.00     0.057 A 
ATOM     41  C   UNL A   1      42.633  22.017  25.744  1.00  0.00     0.134 A 
ATOM     42  C   UNL A   1      42.233  21.842  28.097  1.00  0.00     0.134 A 
ATOM     43  F   UNL A   1      43.018  22.703  24.658  1.00  0.00    -0.206 F 
ATOM     44  C   UNL A   1      42.173  20.709  25.564  1.00  0.00     0.040 A 
ATOM     45  C   UNL A   1      41.794  20.527  27.934  1.00  0.00     0.040 A 
ATOM     46  F   UNL A   1      42.240  22.351  29.340  1.00  0.00    -0.206 F 
ATOM     47  C   UNL A   1      41.758  19.959  26.663  1.00  0.00     0.006 A 
ENDBRANCH  26  40
BRANCH  27  48
ATOM     48  C   UNL A   1      45.640  32.026  28.763  1.00  0.00     0.057 A 
ATOM     49  C   UNL A   1      45.696  32.989  27.750  1.00  0.00     0.134 A 
ATOM     50  C   UNL A   1      45.962  32.438  30.063  1.00  0.00     0.134 A 
ATOM     51  F   UNL A   1      45.413  32.655  26.483  1.00  0.00    -0.206 F 
ATOM     52  C   UNL A   1      46.063  34.310  28.019  1.00  0.00     0.040 A 
ATOM     53  C   UNL A   1      46.298  33.761  30.352  1.00  0.00     0.040 A 
ATOM     54  F   UNL A   1      45.915  31.566  31.081  1.00  0.00    -0.206 F 
ATOM     55  C   UNL A   1      46.355  34.701  29.325  1.00  0.00     0.006 A 
ENDBRANCH  27  48
BRANCH  39  56
ATOM     56  C   UNL A   1      48.960  26.146  27.090  1.00  0.00     0.057 A 
ATOM     57  C   UNL A   1      49.554  26.239  25.825  1.00  0.00     0.134 A 
ATOM     58  C   UNL A   1      49.773  25.763  28.164  1.00  0.00     0.134 A 
ATOM     59  F   UNL A   1      48.821  26.580  24.753  1.00  0.00    -0.206 F 
ATOM     60  C   UNL A   1      50.901  25.937  25.630  1.00  0.00     0.040 A 
ATOM     61  C   UNL A   1      51.127  25.484  27.987  1.00  0.00     0.040 A 
ATOM     62  F   UNL A   1      49.263  25.659  29.400  1.00  0.00    -0.206 F 
ATOM     63  C   UNL A   1      51.693  25.564  26.715  1.00  0.00     0.006 A 
ENDBRANCH  39  56
ENDBRANCH  13  14
ENDBRANCH   6   8
ENDBRANCH   3   4
ENDBRANCH   2   3
ENDBRANCH   1   2
BRANCH   1  64
ATOM     64  C   UNL A   1      32.605  27.453  26.687  1.00  0.00     0.116 C 
BRANCH  64  65
ATOM     65  N   UNL A   1      31.497  26.541  26.846  1.00  0.00    -0.351 N 
ATOM     66  C   UNL A   1      30.633  25.994  25.950  1.00  0.00     0.283 C 
ATOM     67  H   UNL A   1      31.337  26.264  27.777  1.00  0.00     0.163 HD
ATOM     68  O   UNL A   1      29.787  25.233  26.449  1.00  0.00    -0.268 OA
BRANCH  66  69
ATOM     69  C   UNL A   1      30.623  26.234  24.421  1.00  0.00     0.308 C 
BRANCH  69  70
ATOM     70  N   UNL A   1      31.260  25.203  23.567  1.00  0.00    -0.312 N 
ATOM     71  C   UNL A   1      30.702  23.855  23.453  1.00  0.00     0.325 C 
ATOM     72  C   UNL A   1      32.728  25.316  23.501  1.00  0.00     0.325 C 
ATOM     73  H   UNL A   1      30.892  25.497  22.663  1.00  0.00     0.349 HD
ATOM     74  C   UNL A   1      31.643  22.642  23.792  1.00  0.00     0.325 C 
ATOM     75  C   UNL A   1      33.533  23.998  23.526  1.00  0.00     0.325 C 
ATOM     76  N   UNL A   1      32.865  23.105  24.466  1.00  0.00    -0.318 N 
ATOM     77  H   UNL A   1      32.610  23.609  25.316  1.00  0.00     0.348 HD
BRANCH  76  78
ATOM     78  C   UNL A   1      33.707  22.084  25.099  1.00  0.00     0.364 C 
BRANCH  78  79
ATOM     79  C   UNL A   1      34.960  22.730  25.770  1.00  0.00     0.277 C 
ATOM     80  O   UNL A   1      34.814  23.724  26.491  1.00  0.00    -0.268 OA
ATOM     81  N   UNL A   1      36.227  22.166  25.585  1.00  0.00    -0.333 N 
ATOM     82  C   UNL A   1      36.491  21.018  24.726  1.00  0.00     0.148 C 
ATOM     83  C   UNL A   1      37.411  22.973  25.899  1.00  0.00     0.148 C 
ATOM     84  C   UNL A   1      37.802  20.292  25.044  1.00  0.00     0.181 C 
ATOM     85  C   UNL A   1      38.661  22.142  26.194  1.00  0.00     0.181 C 
ATOM     86  O   UNL A   1      38.904  21.196  25.149  1.00  0.00    -0.378 OA
ENDBRANCH  78  79
ENDBRANCH  76  78
ENDBRANCH  69  70
BRANCH  69  87
ATOM     87  C   UNL A   1      29.400  26.903  23.825  1.00  0.00     0.044 A 
ATOM     88  C   UNL A   1      28.053  26.683  24.072  1.00  0.00     0.094 A 
ATOM     89  C   UNL A   1      29.451  28.106  23.029  1.00  0.00     0.009 A 
ATOM     90  N   UNL A   1      27.313  27.633  23.417  1.00  0.00    -0.361 N 
ATOM     91  C   UNL A   1      28.144  28.552  22.830  1.00  0.00     0.049 A 
ATOM     92  C   UNL A   1      30.511  28.896  22.531  1.00  0.00     0.014 A 
ATOM     93  H   UNL A   1      26.330  27.652  23.376  1.00  0.00     0.166 HD
ATOM     94  C   UNL A   1      27.841  29.749  22.173  1.00  0.00     0.065 A 
ATOM     95  C   UNL A   1      30.229  30.103  21.883  1.00  0.00     0.040 A 
ATOM     96  C   UNL A   1      28.914  30.514  21.719  1.00  0.00     0.125 A 
ATOM     97  F   UNL A   1      28.667  31.686  21.118  1.00  0.00    -0.207 F 
ENDBRANCH  69  87
ENDBRANCH  66  69
ENDBRANCH  64  65
ENDBRANCH   1  64
TORSDOF 15
ENDMDL
MODEL 3
REMARK VINA RESULT:     -13.1      0.278      5.875
REMARK SMILES O=C(NCCCCNC(=O)[C@H](c1c[nH]c2cc(F)ccc12)[NH+]1CC[NH+](CC(=O)N2CCOCC2)CC1)c1ccc(-c2c3nc(c(-c4c(F)cccc4F)c4ccc([nH]4)c(-c4c(F)cccc4F)c4nc(c(-c5c(F)cccc5F)c5ccc2[nH]5)C=C4)C=C3)cc1
REMARK SMILES IDX 6 1 5 2 4 3 3 4 1 5 2 6 37 8 38 9 90 10 39 11 89 12 40 13
REMARK SMILES IDX 41 14 42 15 83 16 43 17 88 18 82 19 84 20 44 21 87 22 81 23
REMARK SMILES IDX 80 24 45 26 71 27 54 28 70 29 55 30 58 31 69 32 85 33 56 34
REMARK SMILES IDX 57 35 68 37 86 38 59 39 46 40 47 41 52 42 48 43 49 44 51 45
REMARK SMILES IDX 53 46 50 47 72 48 73 49 78 50 74 51 75 52 77 53 79 54 76 55
REMARK SMILES IDX 60 56 61 57 66 58 62 59 63 60 65 61 67 62 64 63 7 64 8 65
REMARK SMILES IDX 9 66 10 68 11 69 22 70 23 71 36 72 24 74 35 75 25 76 26 78
REMARK SMILES IDX 27 79 28 80 29 81 30 82 34 83 31 84 33 85 32 86 12 87 13 88
REMARK SMILES IDX 21 89 14 90 15 91 20 92 16 94 19 95 17 96 18 97
REMARK H PARENT 3 7 84 25 58 36 8 67 22 73 25 77 14 93
REMARK Flexibility Score: inf
ROOT
ATOM      1  C   UNL A   1      36.020  21.650  24.396  1.00  0.00     0.023 C 
ENDROOT
BRANCH   1   2
ATOM      2  C   UNL A   1      36.856  20.538  24.987  1.00  0.00     0.023 C 
BRANCH   2   3
ATOM      3  C   UNL A   1      38.236  21.022  25.374  1.00  0.00     0.116 C 
BRANCH   3   4
ATOM      4  N   UNL A   1      39.177  19.925  25.521  1.00  0.00    -0.352 N 
ATOM      5  O   UNL A   1      41.168  18.909  25.779  1.00  0.00    -0.269 OA
ATOM      6  C   UNL A   1      40.486  19.925  25.932  1.00  0.00     0.251 C 
ATOM      7  H   UNL A   1      38.817  19.039  25.289  1.00  0.00     0.163 HD
BRANCH   6   8
ATOM      8  C   UNL A   1      41.090  21.128  26.547  1.00  0.00     0.039 A 
ATOM      9  C   UNL A   1      41.603  22.147  25.751  1.00  0.00     0.014 A 
ATOM     10  C   UNL A   1      41.082  21.287  27.937  1.00  0.00     0.014 A 
ATOM     11  C   UNL A   1      42.278  23.212  26.318  1.00  0.00     0.010 A 
ATOM     12  C   UNL A   1      41.581  22.465  28.507  1.00  0.00     0.010 A 
ATOM     13  C   UNL A   1      42.177  23.440  27.694  1.00  0.00    -0.014 A 
BRANCH  13  14
ATOM     14  C   UNL A   1      42.534  24.792  28.190  1.00  0.00     0.031 A 
ATOM     15  C   UNL A   1      41.499  25.841  28.447  1.00  0.00     0.074 A 
ATOM     16  C   UNL A   1      43.839  25.038  28.442  1.00  0.00     0.049 A 
ATOM     17  N   UNL A   1      41.669  27.068  28.866  1.00  0.00    -0.248 NA
ATOM     18  C   UNL A   1      40.097  25.480  28.187  1.00  0.00     0.031 C 
ATOM     19  C   UNL A   1      44.936  24.089  28.202  1.00  0.00     0.029 A 
ATOM     20  N   UNL A   1      44.470  26.124  28.988  1.00  0.00    -0.354 N 
ATOM     21  C   UNL A   1      40.406  27.642  28.879  1.00  0.00     0.074 A 
ATOM     22  C   UNL A   1      39.477  26.629  28.423  1.00  0.00     0.031 C 
ATOM     23  C   UNL A   1      46.075  24.591  28.690  1.00  0.00     0.029 A 
ATOM     24  C   UNL A   1      45.822  25.943  29.160  1.00  0.00     0.049 A 
ATOM     25  H   UNL A   1      44.000  26.954  29.233  1.00  0.00     0.167 HD
ATOM     26  C   UNL A   1      40.065  28.905  29.233  1.00  0.00     0.037 A 
ATOM     27  C   UNL A   1      46.770  26.783  29.608  1.00  0.00     0.037 A 
ATOM     28  C   UNL A   1      41.005  29.891  29.705  1.00  0.00     0.049 A 
ATOM     29  C   UNL A   1      46.359  28.169  29.992  1.00  0.00     0.074 A 
ATOM     30  C   UNL A   1      40.761  31.191  30.114  1.00  0.00     0.029 A 
ATOM     31  N   UNL A   1      42.373  29.684  29.831  1.00  0.00    -0.354 N 
ATOM     32  N   UNL A   1      45.161  28.699  29.995  1.00  0.00    -0.248 NA
ATOM     33  C   UNL A   1      47.430  29.082  30.408  1.00  0.00     0.031 C 
ATOM     34  C   UNL A   1      41.985  31.782  30.447  1.00  0.00     0.029 A 
ATOM     35  C   UNL A   1      42.987  30.838  30.292  1.00  0.00     0.049 A 
ATOM     36  H   UNL A   1      42.838  28.842  29.623  1.00  0.00     0.167 HD
ATOM     37  C   UNL A   1      45.329  30.009  30.412  1.00  0.00     0.074 A 
ATOM     38  C   UNL A   1      46.744  30.181  30.683  1.00  0.00     0.031 C 
ATOM     39  C   UNL A   1      44.399  30.985  30.547  1.00  0.00     0.037 A 
BRANCH  26  40
ATOM     40  C   UNL A   1      38.625  29.302  29.088  1.00  0.00     0.057 A 
ATOM     41  C   UNL A   1      38.079  29.697  27.860  1.00  0.00     0.134 A 
ATOM     42  C   UNL A   1      37.762  29.259  30.192  1.00  0.00     0.134 A 
ATOM     43  F   UNL A   1      38.850  29.773  26.766  1.00  0.00    -0.206 F 
ATOM     44  C   UNL A   1      36.732  30.054  27.740  1.00  0.00     0.040 A 
ATOM     45  C   UNL A   1      36.411  29.590  30.080  1.00  0.00     0.040 A 
ATOM     46  F   UNL A   1      38.218  28.885  31.398  1.00  0.00    -0.206 F 
ATOM     47  C   UNL A   1      35.894  29.995  28.851  1.00  0.00     0.006 A 
ENDBRANCH  26  40
BRANCH  27  48
ATOM     48  C   UNL A   1      48.184  26.338  29.668  1.00  0.00     0.057 A 
ATOM     49  C   UNL A   1      49.054  26.539  28.590  1.00  0.00     0.134 A 
ATOM     50  C   UNL A   1      48.713  25.742  30.821  1.00  0.00     0.134 A 
ATOM     51  F   UNL A   1      48.606  27.091  27.454  1.00  0.00    -0.206 F 
ATOM     52  C   UNL A   1      50.396  26.157  28.656  1.00  0.00     0.040 A 
ATOM     53  C   UNL A   1      50.059  25.386  30.911  1.00  0.00     0.040 A 
ATOM     54  F   UNL A   1      47.935  25.535  31.893  1.00  0.00    -0.206 F 
ATOM     55  C   UNL A   1      50.904  25.588  29.823  1.00  0.00     0.006 A 
ENDBRANCH  27  48
BRANCH  39  56
ATOM     56  C   UNL A   1      44.893  32.314  31.029  1.00  0.00     0.057 A 
ATOM     57  C   UNL A   1      44.971  32.621  32.393  1.00  0.00     0.134 A 
ATOM     58  C   UNL A   1      45.303  33.293  30.116  1.00  0.00     0.134 A 
ATOM     59  F   UNL A   1      44.571  31.731  33.314  1.00  0.00    -0.206 F 
ATOM     60  C   UNL A   1      45.417  33.867  32.832  1.00  0.00     0.040 A 
ATOM     61  C   UNL A   1      45.776  34.533  30.544  1.00  0.00     0.040 A 
ATOM     62  F   UNL A   1      45.255  33.057  28.796  1.00  0.00    -0.206 F 
ATOM     63  C   UNL A   1      45.827  34.825  31.906  1.00  0.00     0.006 A 
ENDBRANCH  39  56
ENDBRANCH  13  14
ENDBRANCH   6   8
ENDBRANCH   3   4
ENDBRANCH   2   3
ENDBRANCH   1   2
BRANCH   1  64
ATOM     64  C   UNL A   1      35.627  22.781  25.333  1.00  0.00     0.116 C 
BRANCH  64  65
ATOM     65  N   UNL A   1      35.131  23.933  24.619  1.00  0.00    -0.351 N 
ATOM     66  C   UNL A   1      33.874  24.312  24.265  1.00  0.00     0.283 C 
ATOM     67  H   UNL A   1      35.833  24.561  24.334  1.00  0.00     0.163 HD
ATOM     68  O   UNL A   1      33.816  25.388  23.646  1.00  0.00    -0.268 OA
BRANCH  66  69
ATOM     69  C   UNL A   1      32.565  23.541  24.562  1.00  0.00     0.308 C 
BRANCH  69  70
ATOM     70  N   UNL A   1      31.399  24.334  25.023  1.00  0.00    -0.312 N 
ATOM     71  C   UNL A   1      30.331  24.724  24.103  1.00  0.00     0.325 C 
ATOM     72  C   UNL A   1      31.722  25.285  26.101  1.00  0.00     0.325 C 
ATOM     73  H   UNL A   1      30.851  23.581  25.437  1.00  0.00     0.349 HD
ATOM     74  C   UNL A   1      29.986  26.255  23.989  1.00  0.00     0.325 C 
ATOM     75  C   UNL A   1      31.051  26.674  26.032  1.00  0.00     0.325 C 
ATOM     76  N   UNL A   1      31.029  27.071  24.627  1.00  0.00    -0.318 N 
ATOM     77  H   UNL A   1      31.928  26.872  24.188  1.00  0.00     0.348 HD
BRANCH  76  78
ATOM     78  C   UNL A   1      31.005  28.513  24.362  1.00  0.00     0.364 C 
BRANCH  78  79
ATOM     79  C   UNL A   1      30.435  28.811  22.939  1.00  0.00     0.277 C 
ATOM     80  O   UNL A   1      30.754  28.079  21.995  1.00  0.00    -0.268 OA
ATOM     81  N   UNL A   1      29.546  29.873  22.745  1.00  0.00    -0.333 N 
ATOM     82  C   UNL A   1      29.145  30.804  23.794  1.00  0.00     0.148 C 
ATOM     83  C   UNL A   1      29.318  30.364  21.382  1.00  0.00     0.148 C 
ATOM     84  C   UNL A   1      27.841  31.550  23.499  1.00  0.00     0.181 C 
ATOM     85  C   UNL A   1      27.988  31.099  21.205  1.00  0.00     0.181 C 
ATOM     86  O   UNL A   1      27.838  32.126  22.190  1.00  0.00    -0.378 OA
ENDBRANCH  78  79
ENDBRANCH  76  78
ENDBRANCH  69  70
BRANCH  69  87
ATOM     87  C   UNL A   1      32.234  22.357  23.676  1.00  0.00     0.044 A 
ATOM     88  C   UNL A   1      31.996  22.302  22.311  1.00  0.00     0.094 A 
ATOM     89  C   UNL A   1      32.347  20.981  24.099  1.00  0.00     0.009 A 
ATOM     90  N   UNL A   1      31.893  20.992  21.923  1.00  0.00    -0.361 N 
ATOM     91  C   UNL A   1      32.170  20.166  22.981  1.00  0.00     0.049 A 
ATOM     92  C   UNL A   1      32.667  20.368  25.331  1.00  0.00     0.014 A 
ATOM     93  H   UNL A   1      31.656  20.689  21.017  1.00  0.00     0.166 HD
ATOM     94  C   UNL A   1      32.309  18.774  23.025  1.00  0.00     0.065 A 
ATOM     95  C   UNL A   1      32.823  18.979  25.393  1.00  0.00     0.040 A 
ATOM     96  C   UNL A   1      32.650  18.209  24.252  1.00  0.00     0.125 A 
ATOM     97  F   UNL A   1      32.830  16.883  24.327  1.00  0.00    -0.207 F 
ENDBRANCH  69  87
ENDBRANCH  66  69
ENDBRANCH  64  65
ENDBRANCH   1  64
TORSDOF 15
ENDMDL
