MODEL 1
REMARK VINA RESULT:     -13.2      0.000      0.000
REMARK SMILES CCc1cc(OCCC(=O)NCCCCNC(=O)c2ccc(-c3c4nc(c(-c5c(F)cccc5F)c5ccc([nH]5)c(-c5c(F)cccc5F)c5nc(c(-c6c(F)cccc6F)c6ccc3[nH]6)C=C5)C=C4)cc2)nc(-c2cnccn2)n1
REMARK SMILES IDX 12 1 11 2 9 3 10 4 8 6 7 7 6 8 5 9 3 10 4 11 81 12 74 13
REMARK SMILES IDX 73 14 2 15 1 16 75 17 76 18 80 19 77 20 79 21 78 22 13 23
REMARK SMILES IDX 14 24 15 25 16 26 17 27 18 29 19 30 20 31 72 32 21 33 71 34
REMARK SMILES IDX 22 35 23 36 24 37 65 38 25 39 70 40 64 41 66 42 26 43 69 44
REMARK SMILES IDX 63 45 62 46 27 48 53 49 36 50 52 51 37 52 40 53 51 54 67 55
REMARK SMILES IDX 38 56 39 57 50 59 68 60 41 61 28 62 29 63 34 64 30 65 31 66
REMARK SMILES IDX 33 67 35 68 32 69 54 70 55 71 60 72 56 73 57 74 59 75 61 76
REMARK SMILES IDX 58 77 42 78 43 79 48 80 44 81 45 82 47 83 49 84 46 85
REMARK H PARENT 11 5 16 28 66 47 40 58
REMARK Flexibility Score: inf
ROOT
ATOM      1  C   UNL A   1      31.601  27.159  24.662  1.00  0.00     0.116 C 
ENDROOT
BRANCH   1   2
ATOM      2  N   UNL A   1      32.624  26.100  25.213  1.00  0.00    -0.356 N 
ATOM      3  C   UNL A   1      32.382  24.980  25.947  1.00  0.00     0.223 C 
ATOM      4  O   UNL A   1      33.311  24.452  26.558  1.00  0.00    -0.275 OA
ATOM      5  H   UNL A   1      33.569  26.270  24.995  1.00  0.00     0.163 HD
BRANCH   3   6
ATOM      6  C   UNL A   1      30.973  24.426  25.974  1.00  0.00     0.141 C 
BRANCH   6   7
ATOM      7  C   UNL A   1      30.724  23.148  25.159  1.00  0.00     0.241 C 
BRANCH   7   8
ATOM      8  O   UNL A   1      31.280  23.071  23.829  1.00  0.00    -0.477 OA
BRANCH   8   9
ATOM      9  C   UNL A   1      32.368  22.224  23.691  1.00  0.00     0.217 A 
ATOM     10  C   UNL A   1      35.320  22.129  24.176  1.00  0.00     0.048 A 
ATOM     11  C   UNL A   1      33.922  22.961  23.504  1.00  0.00     0.092 A 
ATOM     12  N   UNL A   1      35.069  20.591  25.060  1.00  0.00    -0.231 NA
ATOM     13  C   UNL A   1      33.436  19.810  25.094  1.00  0.00     0.183 A 
ATOM     14  N   UNL A   1      32.101  20.687  24.442  1.00  0.00    -0.192 NA
BRANCH  10  15
ATOM     15  C   UNL A   1      36.688  22.655  23.777  1.00  0.00     0.053 C 
ATOM     16  C   UNL A   1      37.397  23.391  24.927  1.00  0.00     0.011 C 
ENDBRANCH  10  15
BRANCH  13  17
ATOM     17  C   UNL A   1      33.202  18.307  24.845  1.00  0.00     0.126 A 
ATOM     18  C   UNL A   1      33.975  17.593  23.939  1.00  0.00     0.143 A 
ATOM     19  N   UNL A   1      32.496  17.577  25.751  1.00  0.00    -0.250 NA
ATOM     20  N   UNL A   1      34.030  16.223  23.877  1.00  0.00    -0.261 NA
ATOM     21  C   UNL A   1      32.535  16.227  25.714  1.00  0.00     0.132 A 
ATOM     22  C   UNL A   1      33.292  15.558  24.790  1.00  0.00     0.131 A 
ENDBRANCH  13  17
ENDBRANCH   8   9
ENDBRANCH   7   8
ENDBRANCH   6   7
ENDBRANCH   3   6
ENDBRANCH   1   2
BRANCH   1  23
ATOM     23  C   UNL A   1      31.757  29.344  24.528  1.00  0.00     0.023 C 
BRANCH  23  24
ATOM     24  C   UNL A   1      31.401  30.565  25.896  1.00  0.00     0.023 C 
BRANCH  24  25
ATOM     25  C   UNL A   1      32.446  31.325  26.935  1.00  0.00     0.116 C 
BRANCH  25  26
ATOM     26  N   UNL A   1      32.318  32.795  27.220  1.00  0.00    -0.352 N 
ATOM     27  C   UNL A   1      32.976  33.638  28.080  1.00  0.00     0.251 C 
ATOM     28  H   UNL A   1      31.623  33.241  26.683  1.00  0.00     0.163 HD
ATOM     29  O   UNL A   1      32.526  34.697  28.493  1.00  0.00    -0.269 OA
BRANCH  27  30
ATOM     30  C   UNL A   1      34.338  33.226  28.371  1.00  0.00     0.039 A 
ATOM     31  C   UNL A   1      35.428  34.083  28.233  1.00  0.00     0.014 A 
ATOM     32  C   UNL A   1      34.405  32.002  29.032  1.00  0.00     0.014 A 
ATOM     33  C   UNL A   1      36.601  33.751  28.899  1.00  0.00     0.010 A 
ATOM     34  C   UNL A   1      35.526  31.724  29.760  1.00  0.00     0.010 A 
ATOM     35  C   UNL A   1      36.625  32.596  29.695  1.00  0.00    -0.014 A 
BRANCH  35  36
ATOM     36  C   UNL A   1      37.816  32.134  30.412  1.00  0.00     0.031 A 
ATOM     37  C   UNL A   1      38.583  31.023  29.770  1.00  0.00     0.074 A 
ATOM     38  C   UNL A   1      38.037  32.550  31.669  1.00  0.00     0.049 A 
ATOM     39  N   UNL A   1      39.468  30.222  30.291  1.00  0.00    -0.248 NA
ATOM     40  C   UNL A   1      38.236  30.719  28.366  1.00  0.00     0.031 C 
ATOM     41  C   UNL A   1      37.276  33.582  32.378  1.00  0.00     0.029 A 
ATOM     42  N   UNL A   1      38.947  32.111  32.590  1.00  0.00    -0.354 N 
ATOM     43  C   UNL A   1      39.762  29.309  29.289  1.00  0.00     0.074 A 
ATOM     44  C   UNL A   1      38.902  29.596  28.165  1.00  0.00     0.031 C 
ATOM     45  C   UNL A   1      37.761  33.701  33.626  1.00  0.00     0.029 A 
ATOM     46  C   UNL A   1      38.831  32.727  33.812  1.00  0.00     0.049 A 
ATOM     47  H   UNL A   1      39.622  31.420  32.396  1.00  0.00     0.167 HD
ATOM     48  C   UNL A   1      40.697  28.336  29.302  1.00  0.00     0.037 A 
ATOM     49  C   UNL A   1      39.518  32.499  34.946  1.00  0.00     0.037 A 
ATOM     50  C   UNL A   1      41.549  28.096  30.431  1.00  0.00     0.049 A 
ATOM     51  C   UNL A   1      40.567  31.417  34.931  1.00  0.00     0.074 A 
ATOM     52  C   UNL A   1      42.574  27.182  30.562  1.00  0.00     0.029 A 
ATOM     53  N   UNL A   1      41.466  28.793  31.630  1.00  0.00    -0.354 N 
ATOM     54  N   UNL A   1      40.902  30.601  33.956  1.00  0.00    -0.248 NA
ATOM     55  C   UNL A   1      41.338  31.224  36.165  1.00  0.00     0.031 C 
ATOM     56  C   UNL A   1      43.090  27.301  31.856  1.00  0.00     0.029 A 
ATOM     57  C   UNL A   1      42.418  28.323  32.512  1.00  0.00     0.049 A 
ATOM     58  H   UNL A   1      40.823  29.514  31.822  1.00  0.00     0.167 HD
ATOM     59  C   UNL A   1      41.945  29.826  34.447  1.00  0.00     0.074 A 
ATOM     60  C   UNL A   1      42.194  30.280  35.801  1.00  0.00     0.031 C 
ATOM     61  C   UNL A   1      42.639  28.828  33.844  1.00  0.00     0.037 A 
BRANCH  48  62
ATOM     62  C   UNL A   1      40.839  27.505  28.063  1.00  0.00     0.057 A 
ATOM     63  C   UNL A   1      40.169  26.282  27.916  1.00  0.00     0.134 A 
ATOM     64  C   UNL A   1      41.666  27.918  27.013  1.00  0.00     0.134 A 
ATOM     65  F   UNL A   1      39.381  25.816  28.899  1.00  0.00    -0.206 F 
ATOM     66  C   UNL A   1      40.339  25.485  26.785  1.00  0.00     0.040 A 
ATOM     67  C   UNL A   1      41.820  27.143  25.861  1.00  0.00     0.040 A 
ATOM     68  F   UNL A   1      42.343  29.072  27.091  1.00  0.00    -0.206 F 
ATOM     69  C   UNL A   1      41.163  25.920  25.750  1.00  0.00     0.006 A 
ENDBRANCH  48  62
BRANCH  49  70
ATOM     70  C   UNL A   1      39.273  33.315  36.163  1.00  0.00     0.057 A 
ATOM     71  C   UNL A   1      39.914  34.549  36.338  1.00  0.00     0.134 A 
ATOM     72  C   UNL A   1      38.423  32.885  37.188  1.00  0.00     0.134 A 
ATOM     73  F   UNL A   1      40.749  35.013  35.396  1.00  0.00    -0.206 F 
ATOM     74  C   UNL A   1      39.750  35.305  37.500  1.00  0.00     0.040 A 
ATOM     75  C   UNL A   1      38.228  33.644  38.345  1.00  0.00     0.040 A 
ATOM     76  F   UNL A   1      37.764  31.722  37.082  1.00  0.00    -0.206 F 
ATOM     77  C   UNL A   1      38.904  34.853  38.508  1.00  0.00     0.006 A 
ENDBRANCH  49  70
BRANCH  61  78
ATOM     78  C   UNL A   1      43.754  28.203  34.628  1.00  0.00     0.057 A 
ATOM     79  C   UNL A   1      45.057  28.711  34.590  1.00  0.00     0.134 A 
ATOM     80  C   UNL A   1      43.497  27.122  35.480  1.00  0.00     0.134 A 
ATOM     81  F   UNL A   1      45.366  29.739  33.785  1.00  0.00    -0.206 F 
ATOM     82  C   UNL A   1      46.075  28.150  35.361  1.00  0.00     0.040 A 
ATOM     83  C   UNL A   1      44.499  26.574  36.279  1.00  0.00     0.040 A 
ATOM     84  F   UNL A   1      42.264  26.601  35.569  1.00  0.00    -0.206 F 
ATOM     85  C   UNL A   1      45.794  27.085  36.215  1.00  0.00     0.006 A 
ENDBRANCH  61  78
ENDBRANCH  35  36
ENDBRANCH  27  30
ENDBRANCH  25  26
ENDBRANCH  24  25
ENDBRANCH  23  24
ENDBRANCH   1  23
TORSDOF 16
ENDMDL
MODEL 2
REMARK VINA RESULT:     -13.2      2.672      7.451
REMARK SMILES CCc1cc(OCCC(=O)NCCCCNC(=O)c2ccc(-c3c4nc(c(-c5c(F)cccc5F)c5ccc([nH]5)c(-c5c(F)cccc5F)c5nc(c(-c6c(F)cccc6F)c6ccc3[nH]6)C=C5)C=C4)cc2)nc(-c2cnccn2)n1
REMARK SMILES IDX 12 1 11 2 9 3 10 4 8 6 7 7 6 8 5 9 3 10 4 11 81 12 74 13
REMARK SMILES IDX 73 14 2 15 1 16 75 17 76 18 80 19 77 20 79 21 78 22 13 23
REMARK SMILES IDX 14 24 15 25 16 26 17 27 18 29 19 30 20 31 72 32 21 33 71 34
REMARK SMILES IDX 22 35 23 36 24 37 65 38 25 39 70 40 64 41 66 42 26 43 69 44
REMARK SMILES IDX 63 45 62 46 27 48 53 49 36 50 52 51 37 52 40 53 51 54 67 55
REMARK SMILES IDX 38 56 39 57 50 59 68 60 41 61 28 62 29 63 34 64 30 65 31 66
REMARK SMILES IDX 33 67 35 68 32 69 54 70 55 71 60 72 56 73 57 74 59 75 61 76
REMARK SMILES IDX 58 77 42 78 43 79 48 80 44 81 45 82 47 83 49 84 46 85
REMARK H PARENT 11 5 16 28 66 47 40 58
REMARK Flexibility Score: inf
ROOT
ATOM      1  C   UNL A   1      39.789  22.459  26.520  1.00  0.00     0.116 C 
ENDROOT
BRANCH   1   2
ATOM      2  N   UNL A   1      39.021  21.330  25.742  1.00  0.00    -0.356 N 
ATOM      3  C   UNL A   1      37.777  21.367  25.190  1.00  0.00     0.223 C 
ATOM      4  O   UNL A   1      37.216  20.309  24.908  1.00  0.00    -0.275 OA
ATOM      5  H   UNL A   1      39.508  20.480  25.638  1.00  0.00     0.163 HD
BRANCH   3   6
ATOM      6  C   UNL A   1      37.140  22.717  24.940  1.00  0.00     0.141 C 
BRANCH   6   7
ATOM      7  C   UNL A   1      36.700  23.010  23.498  1.00  0.00     0.241 C 
BRANCH   7   8
ATOM      8  O   UNL A   1      35.287  23.128  23.228  1.00  0.00    -0.477 OA
BRANCH   8   9
ATOM      9  C   UNL A   1      34.456  22.498  24.143  1.00  0.00     0.217 A 
ATOM     10  C   UNL A   1      31.964  22.967  25.731  1.00  0.00     0.048 A 
ATOM     11  C   UNL A   1      33.557  23.512  25.219  1.00  0.00     0.092 A 
ATOM     12  N   UNL A   1      31.327  21.424  25.083  1.00  0.00    -0.231 NA
ATOM     13  C   UNL A   1      32.380  20.350  24.074  1.00  0.00     0.183 A 
ATOM     14  N   UNL A   1      33.921  20.951  23.583  1.00  0.00    -0.192 NA
BRANCH  10  15
ATOM     15  C   UNL A   1      31.309  23.735  26.867  1.00  0.00     0.053 C 
ATOM     16  C   UNL A   1      30.642  25.038  26.393  1.00  0.00     0.011 C 
ENDBRANCH  10  15
BRANCH  13  17
ATOM     17  C   UNL A   1      32.491  18.826  24.277  1.00  0.00     0.126 A 
ATOM     18  C   UNL A   1      32.880  17.984  23.242  1.00  0.00     0.143 A 
ATOM     19  N   UNL A   1      32.567  18.318  25.536  1.00  0.00    -0.250 NA
ATOM     20  N   UNL A   1      33.284  16.684  23.412  1.00  0.00    -0.261 NA
ATOM     21  C   UNL A   1      32.964  17.041  25.731  1.00  0.00     0.132 A 
ATOM     22  C   UNL A   1      33.318  16.235  24.683  1.00  0.00     0.131 A 
ENDBRANCH  13  17
ENDBRANCH   8   9
ENDBRANCH   7   8
ENDBRANCH   6   7
ENDBRANCH   3   6
ENDBRANCH   1   2
BRANCH   1  23
ATOM     23  C   UNL A   1      41.146  22.324  28.240  1.00  0.00     0.023 C 
BRANCH  23  24
ATOM     24  C   UNL A   1      42.747  23.259  28.463  1.00  0.00     0.023 C 
BRANCH  24  25
ATOM     25  C   UNL A   1      43.191  24.751  27.891  1.00  0.00     0.116 C 
BRANCH  25  26
ATOM     26  N   UNL A   1      42.703  25.242  26.557  1.00  0.00    -0.352 N 
ATOM     27  C   UNL A   1      41.530  25.828  26.154  1.00  0.00     0.251 C 
ATOM     28  H   UNL A   1      43.354  25.119  25.829  1.00  0.00     0.163 HD
ATOM     29  O   UNL A   1      41.110  25.820  25.005  1.00  0.00    -0.269 OA
BRANCH  27  30
ATOM     30  C   UNL A   1      40.868  26.588  27.199  1.00  0.00     0.039 A 
ATOM     31  C   UNL A   1      39.921  26.025  28.053  1.00  0.00     0.014 A 
ATOM     32  C   UNL A   1      41.454  27.832  27.420  1.00  0.00     0.014 A 
ATOM     33  C   UNL A   1      39.649  26.686  29.244  1.00  0.00     0.010 A 
ATOM     34  C   UNL A   1      41.256  28.432  28.630  1.00  0.00     0.010 A 
ATOM     35  C   UNL A   1      40.353  27.862  29.542  1.00  0.00    -0.014 A 
BRANCH  35  36
ATOM     36  C   UNL A   1      40.121  28.656  30.751  1.00  0.00     0.031 A 
ATOM     37  C   UNL A   1      39.098  29.742  30.642  1.00  0.00     0.074 A 
ATOM     38  C   UNL A   1      40.957  28.537  31.795  1.00  0.00     0.049 A 
ATOM     39  N   UNL A   1      38.901  30.772  31.414  1.00  0.00    -0.248 NA
ATOM     40  C   UNL A   1      38.235  29.703  29.443  1.00  0.00     0.031 C 
ATOM     41  C   UNL A   1      42.024  27.543  31.930  1.00  0.00     0.029 A 
ATOM     42  N   UNL A   1      41.063  29.299  32.925  1.00  0.00    -0.354 N 
ATOM     43  C   UNL A   1      37.913  31.511  30.782  1.00  0.00     0.074 A 
ATOM     44  C   UNL A   1      37.614  30.866  29.526  1.00  0.00     0.031 C 
ATOM     45  C   UNL A   1      42.673  27.753  33.088  1.00  0.00     0.029 A 
ATOM     46  C   UNL A   1      42.095  28.919  33.748  1.00  0.00     0.049 A 
ATOM     47  H   UNL A   1      40.457  30.047  33.131  1.00  0.00     0.167 HD
ATOM     48  C   UNL A   1      37.288  32.619  31.236  1.00  0.00     0.037 A 
ATOM     49  C   UNL A   1      42.515  29.479  34.897  1.00  0.00     0.037 A 
ATOM     50  C   UNL A   1      37.598  33.219  32.501  1.00  0.00     0.049 A 
ATOM     51  C   UNL A   1      41.791  30.706  35.390  1.00  0.00     0.074 A 
ATOM     52  C   UNL A   1      37.008  34.308  33.110  1.00  0.00     0.029 A 
ATOM     53  N   UNL A   1      38.594  32.762  33.356  1.00  0.00    -0.354 N 
ATOM     54  N   UNL A   1      40.801  31.365  34.831  1.00  0.00    -0.248 NA
ATOM     55  C   UNL A   1      42.235  31.266  36.672  1.00  0.00     0.031 C 
ATOM     56  C   UNL A   1      37.672  34.533  34.319  1.00  0.00     0.029 A 
ATOM     57  C   UNL A   1      38.642  33.554  34.485  1.00  0.00     0.049 A 
ATOM     58  H   UNL A   1      39.179  31.989  33.181  1.00  0.00     0.167 HD
ATOM     59  C   UNL A   1      40.481  32.392  35.709  1.00  0.00     0.074 A 
ATOM     60  C   UNL A   1      41.374  32.259  36.843  1.00  0.00     0.031 C 
ATOM     61  C   UNL A   1      39.538  33.362  35.598  1.00  0.00     0.037 A 
BRANCH  48  62
ATOM     62  C   UNL A   1      36.219  33.207  30.367  1.00  0.00     0.057 A 
ATOM     63  C   UNL A   1      36.530  33.970  29.232  1.00  0.00     0.134 A 
ATOM     64  C   UNL A   1      34.866  33.028  30.672  1.00  0.00     0.134 A 
ATOM     65  F   UNL A   1      37.810  34.203  28.898  1.00  0.00    -0.206 F 
ATOM     66  C   UNL A   1      35.537  34.559  28.451  1.00  0.00     0.040 A 
ATOM     67  C   UNL A   1      33.861  33.586  29.880  1.00  0.00     0.040 A 
ATOM     68  F   UNL A   1      34.497  32.317  31.748  1.00  0.00    -0.206 F 
ATOM     69  C   UNL A   1      34.196  34.361  28.771  1.00  0.00     0.006 A 
ENDBRANCH  48  62
BRANCH  49  70
ATOM     70  C   UNL A   1      43.632  28.882  35.672  1.00  0.00     0.057 A 
ATOM     71  C   UNL A   1      43.396  27.849  36.588  1.00  0.00     0.134 A 
ATOM     72  C   UNL A   1      44.951  29.335  35.544  1.00  0.00     0.134 A 
ATOM     73  F   UNL A   1      42.153  27.377  36.764  1.00  0.00    -0.206 F 
ATOM     74  C   UNL A   1      44.419  27.315  37.375  1.00  0.00     0.040 A 
ATOM     75  C   UNL A   1      45.989  28.791  36.305  1.00  0.00     0.040 A 
ATOM     76  F   UNL A   1      45.253  30.310  34.675  1.00  0.00    -0.206 F 
ATOM     77  C   UNL A   1      45.721  27.786  37.233  1.00  0.00     0.006 A 
ENDBRANCH  49  70
BRANCH  61  78
ATOM     78  C   UNL A   1      39.401  34.313  36.748  1.00  0.00     0.057 A 
ATOM     79  C   UNL A   1      38.680  33.980  37.900  1.00  0.00     0.134 A 
ATOM     80  C   UNL A   1      40.057  35.550  36.723  1.00  0.00     0.134 A 
ATOM     81  F   UNL A   1      38.021  32.814  37.978  1.00  0.00    -0.206 F 
ATOM     82  C   UNL A   1      38.599  34.854  38.983  1.00  0.00     0.040 A 
ATOM     83  C   UNL A   1      40.011  36.419  37.812  1.00  0.00     0.040 A 
ATOM     84  F   UNL A   1      40.776  35.920  35.652  1.00  0.00    -0.206 F 
ATOM     85  C   UNL A   1      39.275  36.073  38.944  1.00  0.00     0.006 A 
ENDBRANCH  61  78
ENDBRANCH  35  36
ENDBRANCH  27  30
ENDBRANCH  25  26
ENDBRANCH  24  25
ENDBRANCH  23  24
ENDBRANCH   1  23
TORSDOF 16
ENDMDL
MODEL 3
REMARK VINA RESULT:     -13.1      2.699      8.083
REMARK SMILES CCc1cc(OCCC(=O)NCCCCNC(=O)c2ccc(-c3c4nc(c(-c5c(F)cccc5F)c5ccc([nH]5)c(-c5c(F)cccc5F)c5nc(c(-c6c(F)cccc6F)c6ccc3[nH]6)C=C5)C=C4)cc2)nc(-c2cnccn2)n1
REMARK SMILES IDX 12 1 11 2 9 3 10 4 8 6 7 7 6 8 5 9 3 10 4 11 81 12 74 13
REMARK SMILES IDX 73 14 2 15 1 16 75 17 76 18 80 19 77 20 79 21 78 22 13 23
REMARK SMILES IDX 14 24 15 25 16 26 17 27 18 29 19 30 20 31 72 32 21 33 71 34
REMARK SMILES IDX 22 35 23 36 24 37 65 38 25 39 70 40 64 41 66 42 26 43 69 44
REMARK SMILES IDX 63 45 62 46 27 48 53 49 36 50 52 51 37 52 40 53 51 54 67 55
REMARK SMILES IDX 38 56 39 57 50 59 68 60 41 61 28 62 29 63 34 64 30 65 31 66
REMARK SMILES IDX 33 67 35 68 32 69 54 70 55 71 60 72 56 73 57 74 59 75 61 76
REMARK SMILES IDX 58 77 42 78 43 79 48 80 44 81 45 82 47 83 49 84 46 85
REMARK H PARENT 11 5 16 28 66 47 40 58
REMARK Flexibility Score: inf
ROOT
ATOM      1  C   UNL A   1      35.223  21.429  24.716  1.00  0.00     0.116 C 
ENDROOT
BRANCH   1   2
ATOM      2  N   UNL A   1      33.860  21.894  25.346  1.00  0.00    -0.356 N 
ATOM      3  C   UNL A   1      32.951  22.781  24.856  1.00  0.00     0.223 C 
ATOM      4  O   UNL A   1      32.113  23.262  25.618  1.00  0.00    -0.275 OA
ATOM      5  H   UNL A   1      33.632  21.486  26.213  1.00  0.00     0.163 HD
BRANCH   3   6
ATOM      6  C   UNL A   1      33.008  23.133  23.385  1.00  0.00     0.141 C 
BRANCH   6   7
ATOM      7  C   UNL A   1      34.229  23.940  22.921  1.00  0.00     0.241 C 
BRANCH   7   8
ATOM      8  O   UNL A   1      34.009  25.271  22.407  1.00  0.00    -0.477 OA
BRANCH   8   9
ATOM      9  C   UNL A   1      33.212  26.086  23.197  1.00  0.00     0.217 A 
ATOM     10  C   UNL A   1      33.404  28.083  25.417  1.00  0.00     0.048 A 
ATOM     11  C   UNL A   1      33.819  26.503  24.762  1.00  0.00     0.092 A 
ATOM     12  N   UNL A   1      32.420  29.200  24.421  1.00  0.00    -0.231 NA
ATOM     13  C   UNL A   1      31.703  28.643  22.855  1.00  0.00     0.183 A 
ATOM     14  N   UNL A   1      32.169  27.094  22.253  1.00  0.00    -0.192 NA
BRANCH  10  15
ATOM     15  C   UNL A   1      33.723  28.323  26.882  1.00  0.00     0.053 C 
ATOM     16  C   UNL A   1      34.922  29.268  27.080  1.00  0.00     0.011 C 
ENDBRANCH  10  15
BRANCH  13  17
ATOM     17  C   UNL A   1      30.244  28.911  22.439  1.00  0.00     0.126 A 
ATOM     18  C   UNL A   1      29.178  28.348  23.129  1.00  0.00     0.143 A 
ATOM     19  N   UNL A   1      29.957  29.971  21.635  1.00  0.00    -0.250 NA
ATOM     20  N   UNL A   1      27.874  28.762  23.014  1.00  0.00    -0.261 NA
ATOM     21  C   UNL A   1      28.682  30.400  21.506  1.00  0.00     0.132 A 
ATOM     22  C   UNL A   1      27.654  29.804  22.186  1.00  0.00     0.131 A 
ENDBRANCH  13  17
ENDBRANCH   8   9
ENDBRANCH   7   8
ENDBRANCH   6   7
ENDBRANCH   3   6
ENDBRANCH   1   2
BRANCH   1  23
ATOM     23  C   UNL A   1      37.279  21.680  25.443  1.00  0.00     0.023 C 
BRANCH  23  24
ATOM     24  C   UNL A   1      38.097  23.292  25.913  1.00  0.00     0.023 C 
BRANCH  24  25
ATOM     25  C   UNL A   1      39.506  23.562  26.746  1.00  0.00     0.116 C 
BRANCH  25  26
ATOM     26  N   UNL A   1      40.616  24.375  26.141  1.00  0.00    -0.352 N 
ATOM     27  C   UNL A   1      40.847  25.724  26.068  1.00  0.00     0.251 C 
ATOM     28  H   UNL A   1      41.315  23.830  25.713  1.00  0.00     0.163 HD
ATOM     29  O   UNL A   1      41.559  26.262  25.231  1.00  0.00    -0.269 OA
BRANCH  27  30
ATOM     30  C   UNL A   1      40.267  26.476  27.167  1.00  0.00     0.039 A 
ATOM     31  C   UNL A   1      39.463  25.884  28.140  1.00  0.00     0.014 A 
ATOM     32  C   UNL A   1      40.798  27.758  27.288  1.00  0.00     0.014 A 
ATOM     33  C   UNL A   1      39.292  26.564  29.339  1.00  0.00     0.010 A 
ATOM     34  C   UNL A   1      40.706  28.381  28.500  1.00  0.00     0.010 A 
ATOM     35  C   UNL A   1      39.953  27.787  29.525  1.00  0.00    -0.014 A 
BRANCH  35  36
ATOM     36  C   UNL A   1      39.817  28.602  30.735  1.00  0.00     0.031 A 
ATOM     37  C   UNL A   1      38.831  29.725  30.666  1.00  0.00     0.074 A 
ATOM     38  C   UNL A   1      40.701  28.461  31.735  1.00  0.00     0.049 A 
ATOM     39  N   UNL A   1      38.715  30.770  31.435  1.00  0.00    -0.248 NA
ATOM     40  C   UNL A   1      37.905  29.707  29.515  1.00  0.00     0.031 C 
ATOM     41  C   UNL A   1      41.735  27.427  31.825  1.00  0.00     0.029 A 
ATOM     42  N   UNL A   1      40.896  29.230  32.848  1.00  0.00    -0.354 N 
ATOM     43  C   UNL A   1      37.723  31.541  30.847  1.00  0.00     0.074 A 
ATOM     44  C   UNL A   1      37.334  30.894  29.616  1.00  0.00     0.031 C 
ATOM     45  C   UNL A   1      42.452  27.624  32.945  1.00  0.00     0.029 A 
ATOM     46  C   UNL A   1      41.955  28.818  33.620  1.00  0.00     0.049 A 
ATOM     47  H   UNL A   1      40.331  30.003  33.076  1.00  0.00     0.167 HD
ATOM     48  C   UNL A   1      37.167  32.676  31.319  1.00  0.00     0.037 A 
ATOM     49  C   UNL A   1      42.456  29.373  34.738  1.00  0.00     0.037 A 
ATOM     50  C   UNL A   1      37.566  33.276  32.559  1.00  0.00     0.049 A 
ATOM     51  C   UNL A   1      41.807  30.633  35.254  1.00  0.00     0.074 A 
ATOM     52  C   UNL A   1      37.052  34.394  33.184  1.00  0.00     0.029 A 
ATOM     53  N   UNL A   1      38.588  32.790  33.365  1.00  0.00    -0.354 N 
ATOM     54  N   UNL A   1      40.815  31.324  34.739  1.00  0.00    -0.248 NA
ATOM     55  C   UNL A   1      42.340  31.188  36.504  1.00  0.00     0.031 C 
ATOM     56  C   UNL A   1      37.787  34.605  34.354  1.00  0.00     0.029 A 
ATOM     57  C   UNL A   1      38.726  33.591  34.481  1.00  0.00     0.049 A 
ATOM     58  H   UNL A   1      39.133  31.994  33.169  1.00  0.00     0.167 HD
ATOM     59  C   UNL A   1      40.581  32.371  35.620  1.00  0.00     0.074 A 
ATOM     60  C   UNL A   1      41.527  32.215  36.708  1.00  0.00     0.031 C 
ATOM     61  C   UNL A   1      39.672  33.376  35.547  1.00  0.00     0.037 A 
BRANCH  48  62
ATOM     62  C   UNL A   1      36.077  33.297  30.500  1.00  0.00     0.057 A 
ATOM     63  C   UNL A   1      36.354  34.017  29.329  1.00  0.00     0.134 A 
ATOM     64  C   UNL A   1      34.738  33.193  30.891  1.00  0.00     0.134 A 
ATOM     65  F   UNL A   1      37.622  34.177  28.914  1.00  0.00    -0.206 F 
ATOM     66  C   UNL A   1      35.345  34.636  28.594  1.00  0.00     0.040 A 
ATOM     67  C   UNL A   1      33.714  33.782  30.146  1.00  0.00     0.040 A 
ATOM     68  F   UNL A   1      34.401  32.526  32.005  1.00  0.00    -0.206 F 
ATOM     69  C   UNL A   1      34.018  34.513  28.999  1.00  0.00     0.006 A 
ENDBRANCH  48  62
BRANCH  49  70
ATOM     70  C   UNL A   1      43.590  28.741  35.461  1.00  0.00     0.057 A 
ATOM     71  C   UNL A   1      44.913  29.093  35.164  1.00  0.00     0.134 A 
ATOM     72  C   UNL A   1      43.393  27.760  36.440  1.00  0.00     0.134 A 
ATOM     73  F   UNL A   1      45.169  30.020  34.228  1.00  0.00    -0.206 F 
ATOM     74  C   UNL A   1      45.997  28.469  35.784  1.00  0.00     0.040 A 
ATOM     75  C   UNL A   1      44.468  27.147  37.088  1.00  0.00     0.040 A 
ATOM     76  F   UNL A   1      42.153  27.385  36.787  1.00  0.00    -0.206 F 
ATOM     77  C   UNL A   1      45.776  27.492  36.751  1.00  0.00     0.006 A 
ENDBRANCH  49  70
BRANCH  61  78
ATOM     78  C   UNL A   1      39.632  34.343  36.692  1.00  0.00     0.057 A 
ATOM     79  C   UNL A   1      40.307  35.568  36.647  1.00  0.00     0.134 A 
ATOM     80  C   UNL A   1      38.851  34.068  37.821  1.00  0.00     0.134 A 
ATOM     81  F   UNL A   1      41.080  35.883  35.597  1.00  0.00    -0.206 F 
ATOM     82  C   UNL A   1      40.223  36.480  37.699  1.00  0.00     0.040 A 
ATOM     83  C   UNL A   1      38.732  34.986  38.863  1.00  0.00     0.040 A 
ATOM     84  F   UNL A   1      38.169  32.917  37.915  1.00  0.00    -0.206 F 
ATOM     85  C   UNL A   1      39.426  36.194  38.806  1.00  0.00     0.006 A 
ENDBRANCH  61  78
ENDBRANCH  35  36
ENDBRANCH  27  30
ENDBRANCH  25  26
ENDBRANCH  24  25
ENDBRANCH  23  24
ENDBRANCH   1  23
TORSDOF 16
ENDMDL
