MODEL 1
REMARK VINA RESULT:     -10.6      0.000      0.000
REMARK SMILES C=CC[N@@H+](CC(=O)NCCCCNC(=O)c1ccc(-c2c3nc(c(-c4c(F)cccc4F)c4ccc([nH]4)c(-c4c(F)cccc4F)c4nc(c(-c5c(F)cccc5F)c5ccc2[nH]5)C=C4)C=C3)cc1)C[C@H]1CCC[C@H](C)C1
REMARK SMILES IDX 10 1 9 2 8 3 6 4 7 5 5 7 4 8 3 10 2 11 1 12 70 13 71 14
REMARK SMILES IDX 72 15 77 16 73 17 75 18 74 19 76 20 11 21 12 22 13 23 14 24
REMARK SMILES IDX 15 26 16 27 17 28 69 29 18 30 68 31 19 32 20 33 21 34 62 35
REMARK SMILES IDX 22 36 67 37 61 38 63 39 23 40 66 41 60 42 59 43 24 45 50 46
REMARK SMILES IDX 33 47 49 48 34 49 37 50 48 51 64 52 35 53 36 54 47 56 65 57
REMARK SMILES IDX 38 58 25 59 26 60 31 61 27 62 28 63 30 64 32 65 29 66 51 67
REMARK SMILES IDX 52 68 57 69 53 70 54 71 56 72 58 73 55 74 39 75 40 76 45 77
REMARK SMILES IDX 41 78 42 79 44 80 46 81 43 82
REMARK H PARENT 8 6 4 9 13 25 63 44 37 55
REMARK Flexibility Score: inf
ROOT
ATOM      1  C   UNL A   1      31.733  30.423  26.358  1.00  0.00     0.023 C 
ENDROOT
BRANCH   1   2
ATOM      2  C   UNL A   1      33.191  29.956  26.237  1.00  0.00     0.116 C 
BRANCH   2   3
ATOM      3  N   UNL A   1      33.624  29.695  24.879  1.00  0.00    -0.351 N 
ATOM      4  C   UNL A   1      33.394  28.648  24.037  1.00  0.00     0.275 C 
ATOM      5  O   UNL A   1      33.675  28.843  22.848  1.00  0.00    -0.269 OA
ATOM      6  H   UNL A   1      34.188  30.405  24.494  1.00  0.00     0.163 HD
BRANCH   4   7
ATOM      7  C   UNL A   1      32.770  27.315  24.478  1.00  0.00     0.363 C 
BRANCH   7   8
ATOM      8  N   UNL A   1      31.296  27.220  24.499  1.00  0.00    -0.324 N 
ATOM      9  H   UNL A   1      30.983  28.178  24.653  1.00  0.00     0.348 HD
BRANCH   8  10
ATOM     10  C   UNL A   1      30.768  26.569  25.678  1.00  0.00     0.290 C 
BRANCH  10  11
ATOM     11  C   UNL A   1      30.550  25.090  25.660  1.00  0.00     0.025 C 
ATOM     12  C   UNL A   1      31.185  24.233  26.475  1.00  0.00     0.010 C 
ENDBRANCH  10  11
ENDBRANCH   8  10
BRANCH   8  13
ATOM     13  C   UNL A   1      30.563  27.195  23.231  1.00  0.00     0.266 C 
BRANCH  13  14
ATOM     14  C   UNL A   1      29.487  28.263  22.929  1.00  0.00     0.044 C 
ATOM     15  C   UNL A   1      28.114  27.930  23.510  1.00  0.00     0.009 C 
ATOM     16  C   UNL A   1      29.897  29.664  23.417  1.00  0.00     0.012 C 
ATOM     17  C   UNL A   1      27.055  28.952  23.106  1.00  0.00     0.001 C 
ATOM     18  C   UNL A   1      28.869  30.740  23.012  1.00  0.00    -0.014 C 
ATOM     19  C   UNL A   1      27.462  30.365  23.503  1.00  0.00     0.003 C 
ATOM     20  C   UNL A   1      28.875  30.999  21.500  1.00  0.00     0.007 C 
ENDBRANCH  13  14
ENDBRANCH   8  13
ENDBRANCH   7   8
ENDBRANCH   4   7
ENDBRANCH   2   3
ENDBRANCH   1   2
BRANCH   1  21
ATOM     21  C   UNL A   1      31.533  31.899  26.658  1.00  0.00     0.023 C 
BRANCH  21  22
ATOM     22  C   UNL A   1      32.755  32.560  27.251  1.00  0.00     0.116 C 
BRANCH  22  23
ATOM     23  N   UNL A   1      32.530  33.970  27.544  1.00  0.00    -0.352 N 
ATOM     24  C   UNL A   1      33.080  34.761  28.523  1.00  0.00     0.251 C 
ATOM     25  H   UNL A   1      31.886  34.424  26.952  1.00  0.00     0.163 HD
ATOM     26  O   UNL A   1      32.627  35.869  28.756  1.00  0.00    -0.269 OA
BRANCH  24  27
ATOM     27  C   UNL A   1      34.221  34.236  29.297  1.00  0.00     0.039 A 
ATOM     28  C   UNL A   1      33.981  33.414  30.399  1.00  0.00     0.014 A 
ATOM     29  C   UNL A   1      35.526  34.528  28.898  1.00  0.00     0.014 A 
ATOM     30  C   UNL A   1      35.062  32.836  31.063  1.00  0.00     0.010 A 
ATOM     31  C   UNL A   1      36.584  33.845  29.468  1.00  0.00     0.010 A 
ATOM     32  C   UNL A   1      36.367  33.019  30.577  1.00  0.00    -0.014 A 
BRANCH  32  33
ATOM     33  C   UNL A   1      37.538  32.403  31.241  1.00  0.00     0.031 A 
ATOM     34  C   UNL A   1      38.238  31.248  30.577  1.00  0.00     0.074 A 
ATOM     35  C   UNL A   1      37.918  32.832  32.458  1.00  0.00     0.049 A 
ATOM     36  N   UNL A   1      39.224  30.514  31.021  1.00  0.00    -0.248 NA
ATOM     37  C   UNL A   1      37.731  30.831  29.257  1.00  0.00     0.031 C 
ATOM     38  C   UNL A   1      37.269  33.899  33.225  1.00  0.00     0.029 A 
ATOM     39  N   UNL A   1      38.941  32.417  33.269  1.00  0.00    -0.354 N 
ATOM     40  C   UNL A   1      39.434  29.542  30.050  1.00  0.00     0.074 A 
ATOM     41  C   UNL A   1      38.428  29.730  29.032  1.00  0.00     0.031 C 
ATOM     42  C   UNL A   1      37.932  34.078  34.378  1.00  0.00     0.029 A 
ATOM     43  C   UNL A   1      39.024  33.114  34.450  1.00  0.00     0.049 A 
ATOM     44  H   UNL A   1      39.557  31.688  33.029  1.00  0.00     0.167 HD
ATOM     45  C   UNL A   1      40.403  28.600  29.996  1.00  0.00     0.037 A 
ATOM     46  C   UNL A   1      39.887  32.982  35.475  1.00  0.00     0.037 A 
ATOM     47  C   UNL A   1      41.426  28.454  30.994  1.00  0.00     0.049 A 
ATOM     48  C   UNL A   1      40.967  31.940  35.382  1.00  0.00     0.074 A 
ATOM     49  C   UNL A   1      42.503  27.585  31.003  1.00  0.00     0.029 A 
ATOM     50  N   UNL A   1      41.500  29.201  32.161  1.00  0.00    -0.354 N 
ATOM     51  N   UNL A   1      41.205  31.081  34.421  1.00  0.00    -0.248 NA
ATOM     52  C   UNL A   1      41.903  31.856  36.510  1.00  0.00     0.031 C 
ATOM     53  C   UNL A   1      43.199  27.773  32.201  1.00  0.00     0.029 A 
ATOM     54  C   UNL A   1      42.590  28.797  32.910  1.00  0.00     0.049 A 
ATOM     55  H   UNL A   1      40.869  29.912  32.417  1.00  0.00     0.167 HD
ATOM     56  C   UNL A   1      42.334  30.372  34.814  1.00  0.00     0.074 A 
ATOM     57  C   UNL A   1      42.741  30.917  36.094  1.00  0.00     0.031 C 
ATOM     58  C   UNL A   1      42.977  29.363  34.178  1.00  0.00     0.037 A 
BRANCH  45  59
ATOM     59  C   UNL A   1      40.403  27.672  28.816  1.00  0.00     0.057 A 
ATOM     60  C   UNL A   1      41.164  27.933  27.667  1.00  0.00     0.134 A 
ATOM     61  C   UNL A   1      39.649  26.493  28.834  1.00  0.00     0.134 A 
ATOM     62  F   UNL A   1      41.897  29.052  27.575  1.00  0.00    -0.206 F 
ATOM     63  C   UNL A   1      41.151  27.070  26.569  1.00  0.00     0.040 A 
ATOM     64  C   UNL A   1      39.651  25.607  27.756  1.00  0.00     0.040 A 
ATOM     65  F   UNL A   1      38.898  26.181  29.902  1.00  0.00    -0.206 F 
ATOM     66  C   UNL A   1      40.398  25.897  26.616  1.00  0.00     0.006 A 
ENDBRANCH  45  59
BRANCH  46  67
ATOM     67  C   UNL A   1      39.783  33.875  36.658  1.00  0.00     0.057 A 
ATOM     68  C   UNL A   1      40.462  35.097  36.701  1.00  0.00     0.134 A 
ATOM     69  C   UNL A   1      39.007  33.528  37.771  1.00  0.00     0.134 A 
ATOM     70  F   UNL A   1      41.230  35.480  35.671  1.00  0.00    -0.206 F 
ATOM     71  C   UNL A   1      40.396  35.933  37.819  1.00  0.00     0.040 A 
ATOM     72  C   UNL A   1      38.911  34.366  38.883  1.00  0.00     0.040 A 
ATOM     73  F   UNL A   1      38.322  32.376  37.787  1.00  0.00    -0.206 F 
ATOM     74  C   UNL A   1      39.614  35.569  38.912  1.00  0.00     0.006 A 
ENDBRANCH  46  67
BRANCH  58  75
ATOM     75  C   UNL A   1      44.204  28.809  34.837  1.00  0.00     0.057 A 
ATOM     76  C   UNL A   1      44.147  27.713  35.707  1.00  0.00     0.134 A 
ATOM     77  C   UNL A   1      45.466  29.352  34.560  1.00  0.00     0.134 A 
ATOM     78  F   UNL A   1      42.968  27.155  36.022  1.00  0.00    -0.206 F 
ATOM     79  C   UNL A   1      45.299  27.192  36.297  1.00  0.00     0.040 A 
ATOM     80  C   UNL A   1      46.627  28.820  35.120  1.00  0.00     0.040 A 
ATOM     81  F   UNL A   1      45.591  30.395  33.726  1.00  0.00    -0.206 F 
ATOM     82  C   UNL A   1      46.544  27.742  35.997  1.00  0.00     0.006 A 
ENDBRANCH  58  75
ENDBRANCH  32  33
ENDBRANCH  24  27
ENDBRANCH  22  23
ENDBRANCH  21  22
ENDBRANCH   1  21
TORSDOF 16
ENDMDL
MODEL 2
REMARK VINA RESULT:     -10.5      0.739      6.311
REMARK SMILES C=CC[N@@H+](CC(=O)NCCCCNC(=O)c1ccc(-c2c3nc(c(-c4c(F)cccc4F)c4ccc([nH]4)c(-c4c(F)cccc4F)c4nc(c(-c5c(F)cccc5F)c5ccc2[nH]5)C=C4)C=C3)cc1)C[C@H]1CCC[C@H](C)C1
REMARK SMILES IDX 10 1 9 2 8 3 6 4 7 5 5 7 4 8 3 10 2 11 1 12 70 13 71 14
REMARK SMILES IDX 72 15 77 16 73 17 75 18 74 19 76 20 11 21 12 22 13 23 14 24
REMARK SMILES IDX 15 26 16 27 17 28 69 29 18 30 68 31 19 32 20 33 21 34 62 35
REMARK SMILES IDX 22 36 67 37 61 38 63 39 23 40 66 41 60 42 59 43 24 45 50 46
REMARK SMILES IDX 33 47 49 48 34 49 37 50 48 51 64 52 35 53 36 54 47 56 65 57
REMARK SMILES IDX 38 58 25 59 26 60 31 61 27 62 28 63 30 64 32 65 29 66 51 67
REMARK SMILES IDX 52 68 57 69 53 70 54 71 56 72 58 73 55 74 39 75 40 76 45 77
REMARK SMILES IDX 41 78 42 79 44 80 46 81 43 82
REMARK H PARENT 8 6 4 9 13 25 63 44 37 55
REMARK Flexibility Score: inf
ROOT
ATOM      1  C   UNL A   1      31.637  30.501  26.386  1.00  0.00     0.023 C 
ENDROOT
BRANCH   1   2
ATOM      2  C   UNL A   1      33.091  30.008  26.413  1.00  0.00     0.116 C 
BRANCH   2   3
ATOM      3  N   UNL A   1      33.639  29.693  25.109  1.00  0.00    -0.351 N 
ATOM      4  C   UNL A   1      33.486  28.608  24.297  1.00  0.00     0.275 C 
ATOM      5  O   UNL A   1      33.865  28.753  23.128  1.00  0.00    -0.269 OA
ATOM      6  H   UNL A   1      34.230  30.390  24.742  1.00  0.00     0.163 HD
BRANCH   4   7
ATOM      7  C   UNL A   1      32.835  27.290  24.743  1.00  0.00     0.363 C 
BRANCH   7   8
ATOM      8  N   UNL A   1      31.376  27.147  24.555  1.00  0.00    -0.324 N 
ATOM      9  H   UNL A   1      31.004  28.076  24.745  1.00  0.00     0.348 HD
BRANCH   8  10
ATOM     10  C   UNL A   1      30.725  26.376  25.590  1.00  0.00     0.290 C 
BRANCH  10  11
ATOM     11  C   UNL A   1      30.241  24.995  25.279  1.00  0.00     0.025 C 
ATOM     12  C   UNL A   1      30.907  23.879  25.613  1.00  0.00     0.010 C 
ENDBRANCH  10  11
ENDBRANCH   8  10
BRANCH   8  13
ATOM     13  C   UNL A   1      30.820  27.214  23.201  1.00  0.00     0.266 C 
BRANCH  13  14
ATOM     14  C   UNL A   1      29.691  28.215  22.869  1.00  0.00     0.044 C 
ATOM     15  C   UNL A   1      28.335  27.828  23.457  1.00  0.00     0.009 C 
ATOM     16  C   UNL A   1      30.027  29.649  23.318  1.00  0.00     0.012 C 
ATOM     17  C   UNL A   1      27.226  28.782  23.024  1.00  0.00     0.001 C 
ATOM     18  C   UNL A   1      28.945  30.658  22.882  1.00  0.00    -0.014 C 
ATOM     19  C   UNL A   1      27.558  30.225  23.382  1.00  0.00     0.003 C 
ATOM     20  C   UNL A   1      28.941  30.876  21.364  1.00  0.00     0.007 C 
ENDBRANCH  13  14
ENDBRANCH   8  13
ENDBRANCH   7   8
ENDBRANCH   4   7
ENDBRANCH   2   3
ENDBRANCH   1   2
BRANCH   1  21
ATOM     21  C   UNL A   1      31.418  31.944  26.805  1.00  0.00     0.023 C 
BRANCH  21  22
ATOM     22  C   UNL A   1      32.703  32.692  27.070  1.00  0.00     0.116 C 
BRANCH  22  23
ATOM     23  N   UNL A   1      32.463  34.053  27.533  1.00  0.00    -0.352 N 
ATOM     24  C   UNL A   1      33.055  34.747  28.561  1.00  0.00     0.251 C 
ATOM     25  H   UNL A   1      31.772  34.549  27.037  1.00  0.00     0.163 HD
ATOM     26  O   UNL A   1      32.590  35.807  28.945  1.00  0.00    -0.269 OA
BRANCH  24  27
ATOM     27  C   UNL A   1      34.255  34.175  29.200  1.00  0.00     0.039 A 
ATOM     28  C   UNL A   1      34.114  33.387  30.342  1.00  0.00     0.014 A 
ATOM     29  C   UNL A   1      35.513  34.391  28.635  1.00  0.00     0.014 A 
ATOM     30  C   UNL A   1      35.239  32.764  30.880  1.00  0.00     0.010 A 
ATOM     31  C   UNL A   1      36.599  33.663  29.085  1.00  0.00     0.010 A 
ATOM     32  C   UNL A   1      36.481  32.868  30.233  1.00  0.00    -0.014 A 
BRANCH  32  33
ATOM     33  C   UNL A   1      37.692  32.203  30.760  1.00  0.00     0.031 A 
ATOM     34  C   UNL A   1      38.332  32.726  32.018  1.00  0.00     0.074 A 
ATOM     35  C   UNL A   1      38.248  31.187  30.075  1.00  0.00     0.049 A 
ATOM     36  N   UNL A   1      39.438  32.345  32.602  1.00  0.00    -0.248 NA
ATOM     37  C   UNL A   1      37.665  33.860  32.683  1.00  0.00     0.031 C 
ATOM     38  C   UNL A   1      37.751  30.643  28.808  1.00  0.00     0.029 A 
ATOM     39  N   UNL A   1      39.360  30.433  30.344  1.00  0.00    -0.354 N 
ATOM     40  C   UNL A   1      39.607  33.206  33.679  1.00  0.00     0.074 A 
ATOM     41  C   UNL A   1      38.536  34.174  33.627  1.00  0.00     0.031 C 
ATOM     42  C   UNL A   1      38.535  29.620  28.431  1.00  0.00     0.029 A 
ATOM     43  C   UNL A   1      39.610  29.464  29.404  1.00  0.00     0.049 A 
ATOM     44  H   UNL A   1      39.927  30.575  31.136  1.00  0.00     0.167 HD
ATOM     45  C   UNL A   1      40.550  33.169  34.648  1.00  0.00     0.037 A 
ATOM     46  C   UNL A   1      40.600  28.554  29.339  1.00  0.00     0.037 A 
ATOM     47  C   UNL A   1      41.583  32.173  34.714  1.00  0.00     0.049 A 
ATOM     48  C   UNL A   1      41.625  28.522  30.438  1.00  0.00     0.074 A 
ATOM     49  C   UNL A   1      42.546  31.993  35.691  1.00  0.00     0.029 A 
ATOM     50  N   UNL A   1      41.784  31.184  33.762  1.00  0.00    -0.354 N 
ATOM     51  N   UNL A   1      41.727  29.289  31.496  1.00  0.00    -0.248 NA
ATOM     52  C   UNL A   1      42.667  27.491  30.339  1.00  0.00     0.031 C 
ATOM     53  C   UNL A   1      43.360  30.924  35.305  1.00  0.00     0.029 A 
ATOM     54  C   UNL A   1      42.871  30.404  34.116  1.00  0.00     0.049 A 
ATOM     55  H   UNL A   1      41.236  31.057  32.955  1.00  0.00     0.167 HD
ATOM     56  C   UNL A   1      42.827  28.819  32.204  1.00  0.00     0.074 A 
ATOM     57  C   UNL A   1      43.345  27.688  31.461  1.00  0.00     0.031 C 
ATOM     58  C   UNL A   1      43.360  29.278  33.362  1.00  0.00     0.037 A 
BRANCH  45  59
ATOM     59  C   UNL A   1      40.494  34.227  35.712  1.00  0.00     0.057 A 
ATOM     60  C   UNL A   1      41.165  35.451  35.577  1.00  0.00     0.134 A 
ATOM     61  C   UNL A   1      39.745  34.029  36.878  1.00  0.00     0.134 A 
ATOM     62  F   UNL A   1      41.915  35.701  34.493  1.00  0.00    -0.206 F 
ATOM     63  C   UNL A   1      41.116  36.426  36.575  1.00  0.00     0.040 A 
ATOM     64  C   UNL A   1      39.663  35.008  37.869  1.00  0.00     0.040 A 
ATOM     65  F   UNL A   1      39.077  32.881  37.072  1.00  0.00    -0.206 F 
ATOM     66  C   UNL A   1      40.356  36.208  37.723  1.00  0.00     0.006 A 
ENDBRANCH  45  59
BRANCH  46  67
ATOM     67  C   UNL A   1      40.651  27.587  28.213  1.00  0.00     0.057 A 
ATOM     68  C   UNL A   1      41.371  27.873  27.048  1.00  0.00     0.134 A 
ATOM     69  C   UNL A   1      39.982  26.358  28.272  1.00  0.00     0.134 A 
ATOM     70  F   UNL A   1      42.022  29.038  26.925  1.00  0.00    -0.206 F 
ATOM     71  C   UNL A   1      41.404  26.984  25.970  1.00  0.00     0.040 A 
ATOM     72  C   UNL A   1      40.030  25.449  27.213  1.00  0.00     0.040 A 
ATOM     73  F   UNL A   1      39.286  26.018  29.366  1.00  0.00    -0.206 F 
ATOM     74  C   UNL A   1      40.735  25.766  26.054  1.00  0.00     0.006 A 
ENDBRANCH  46  67
BRANCH  58  75
ATOM     75  C   UNL A   1      44.541  28.537  33.913  1.00  0.00     0.057 A 
ATOM     76  C   UNL A   1      44.393  27.413  34.736  1.00  0.00     0.134 A 
ATOM     77  C   UNL A   1      45.844  28.926  33.577  1.00  0.00     0.134 A 
ATOM     78  F   UNL A   1      43.171  26.996  35.104  1.00  0.00    -0.206 F 
ATOM     79  C   UNL A   1      45.499  26.718  35.225  1.00  0.00     0.040 A 
ATOM     80  C   UNL A   1      46.957  28.221  34.035  1.00  0.00     0.040 A 
ATOM     81  F   UNL A   1      46.056  29.987  32.783  1.00  0.00    -0.206 F 
ATOM     82  C   UNL A   1      46.786  27.118  34.867  1.00  0.00     0.006 A 
ENDBRANCH  58  75
ENDBRANCH  32  33
ENDBRANCH  24  27
ENDBRANCH  22  23
ENDBRANCH  21  22
ENDBRANCH   1  21
TORSDOF 16
ENDMDL
MODEL 3
REMARK VINA RESULT:     -10.4      5.433     10.291
REMARK SMILES C=CC[N@@H+](CC(=O)NCCCCNC(=O)c1ccc(-c2c3nc(c(-c4c(F)cccc4F)c4ccc([nH]4)c(-c4c(F)cccc4F)c4nc(c(-c5c(F)cccc5F)c5ccc2[nH]5)C=C4)C=C3)cc1)C[C@H]1CCC[C@H](C)C1
REMARK SMILES IDX 10 1 9 2 8 3 6 4 7 5 5 7 4 8 3 10 2 11 1 12 70 13 71 14
REMARK SMILES IDX 72 15 77 16 73 17 75 18 74 19 76 20 11 21 12 22 13 23 14 24
REMARK SMILES IDX 15 26 16 27 17 28 69 29 18 30 68 31 19 32 20 33 21 34 62 35
REMARK SMILES IDX 22 36 67 37 61 38 63 39 23 40 66 41 60 42 59 43 24 45 50 46
REMARK SMILES IDX 33 47 49 48 34 49 37 50 48 51 64 52 35 53 36 54 47 56 65 57
REMARK SMILES IDX 38 58 25 59 26 60 31 61 27 62 28 63 30 64 32 65 29 66 51 67
REMARK SMILES IDX 52 68 57 69 53 70 54 71 56 72 58 73 55 74 39 75 40 76 45 77
REMARK SMILES IDX 41 78 42 79 44 80 46 81 43 82
REMARK H PARENT 8 6 4 9 13 25 63 44 37 55
REMARK Flexibility Score: inf
ROOT
ATOM      1  C   UNL A   1      36.709  21.008  24.995  1.00  0.00     0.023 C 
ENDROOT
BRANCH   1   2
ATOM      2  C   UNL A   1      36.894  22.406  24.386  1.00  0.00     0.116 C 
BRANCH   2   3
ATOM      3  N   UNL A   1      35.974  22.715  23.310  1.00  0.00    -0.351 N 
ATOM      4  C   UNL A   1      34.679  23.141  23.316  1.00  0.00     0.275 C 
ATOM      5  O   UNL A   1      34.252  23.578  22.239  1.00  0.00    -0.269 OA
ATOM      6  H   UNL A   1      36.354  22.596  22.410  1.00  0.00     0.163 HD
BRANCH   4   7
ATOM      7  C   UNL A   1      33.787  23.155  24.566  1.00  0.00     0.363 C 
BRANCH   7   8
ATOM      8  N   UNL A   1      32.791  22.074  24.712  1.00  0.00    -0.324 N 
ATOM      9  H   UNL A   1      32.817  21.583  23.819  1.00  0.00     0.348 HD
BRANCH   8  10
ATOM     10  C   UNL A   1      31.422  22.537  24.729  1.00  0.00     0.290 C 
BRANCH  10  11
ATOM     11  C   UNL A   1      30.661  22.523  26.017  1.00  0.00     0.025 C 
ATOM     12  C   UNL A   1      30.408  23.622  26.744  1.00  0.00     0.010 C 
ENDBRANCH  10  11
ENDBRANCH   8  10
BRANCH   8  13
ATOM     13  C   UNL A   1      33.177  20.834  25.391  1.00  0.00     0.266 C 
BRANCH  13  14
ATOM     14  C   UNL A   1      32.964  19.467  24.702  1.00  0.00     0.044 C 
ATOM     15  C   UNL A   1      32.605  19.576  23.221  1.00  0.00     0.009 C 
ATOM     16  C   UNL A   1      34.188  18.543  24.842  1.00  0.00     0.012 C 
ATOM     17  C   UNL A   1      32.302  18.216  22.601  1.00  0.00     0.001 C 
ATOM     18  C   UNL A   1      33.923  17.143  24.249  1.00  0.00    -0.014 C 
ATOM     19  C   UNL A   1      33.462  17.245  22.787  1.00  0.00     0.003 C 
ATOM     20  C   UNL A   1      32.920  16.344  25.091  1.00  0.00     0.007 C 
ENDBRANCH  13  14
ENDBRANCH   8  13
ENDBRANCH   7   8
ENDBRANCH   4   7
ENDBRANCH   2   3
ENDBRANCH   1   2
BRANCH   1  21
ATOM     21  C   UNL A   1      37.904  20.076  24.887  1.00  0.00     0.023 C 
BRANCH  21  22
ATOM     22  C   UNL A   1      39.069  20.494  25.752  1.00  0.00     0.116 C 
BRANCH  22  23
ATOM     23  N   UNL A   1      40.085  19.453  25.847  1.00  0.00    -0.352 N 
ATOM     24  C   UNL A   1      41.428  19.560  26.116  1.00  0.00     0.251 C 
ATOM     25  H   UNL A   1      39.761  18.535  25.696  1.00  0.00     0.163 HD
ATOM     26  O   UNL A   1      42.173  18.608  25.955  1.00  0.00    -0.269 OA
BRANCH  24  27
ATOM     27  C   UNL A   1      41.953  20.855  26.588  1.00  0.00     0.039 A 
ATOM     28  C   UNL A   1      42.364  21.809  25.656  1.00  0.00     0.014 A 
ATOM     29  C   UNL A   1      41.994  21.133  27.955  1.00  0.00     0.014 A 
ATOM     30  C   UNL A   1      42.760  23.069  26.103  1.00  0.00     0.010 A 
ATOM     31  C   UNL A   1      42.251  22.421  28.384  1.00  0.00     0.010 A 
ATOM     32  C   UNL A   1      42.669  23.393  27.466  1.00  0.00    -0.014 A 
BRANCH  32  33
ATOM     33  C   UNL A   1      43.058  24.727  27.976  1.00  0.00     0.031 A 
ATOM     34  C   UNL A   1      41.992  25.757  28.235  1.00  0.00     0.074 A 
ATOM     35  C   UNL A   1      44.360  25.028  28.134  1.00  0.00     0.049 A 
ATOM     36  N   UNL A   1      42.120  27.006  28.600  1.00  0.00    -0.248 NA
ATOM     37  C   UNL A   1      40.596  25.342  28.006  1.00  0.00     0.031 C 
ATOM     38  C   UNL A   1      45.482  24.129  27.848  1.00  0.00     0.029 A 
ATOM     39  N   UNL A   1      44.962  26.180  28.568  1.00  0.00    -0.354 N 
ATOM     40  C   UNL A   1      40.831  27.524  28.619  1.00  0.00     0.074 A 
ATOM     41  C   UNL A   1      39.944  26.483  28.157  1.00  0.00     0.031 C 
ATOM     42  C   UNL A   1      46.633  24.752  28.150  1.00  0.00     0.029 A 
ATOM     43  C   UNL A   1      46.333  26.104  28.608  1.00  0.00     0.049 A 
ATOM     44  H   UNL A   1      44.459  26.986  28.825  1.00  0.00     0.167 HD
ATOM     45  C   UNL A   1      40.421  28.748  29.023  1.00  0.00     0.037 A 
ATOM     46  C   UNL A   1      47.242  27.027  28.973  1.00  0.00     0.037 A 
ATOM     47  C   UNL A   1      41.310  29.759  29.524  1.00  0.00     0.049 A 
ATOM     48  C   UNL A   1      46.759  28.374  29.436  1.00  0.00     0.074 A 
ATOM     49  C   UNL A   1      40.997  31.008  30.031  1.00  0.00     0.029 A 
ATOM     50  N   UNL A   1      42.690  29.634  29.583  1.00  0.00    -0.354 N 
ATOM     51  N   UNL A   1      45.531  28.825  29.527  1.00  0.00    -0.248 NA
ATOM     52  C   UNL A   1      47.787  29.336  29.853  1.00  0.00     0.031 C 
ATOM     53  C   UNL A   1      42.193  31.657  30.351  1.00  0.00     0.029 A 
ATOM     54  C   UNL A   1      43.247  30.792  30.096  1.00  0.00     0.049 A 
ATOM     55  H   UNL A   1      43.198  28.839  29.300  1.00  0.00     0.167 HD
ATOM     56  C   UNL A   1      45.636  30.113  30.038  1.00  0.00     0.074 A 
ATOM     57  C   UNL A   1      47.047  30.361  30.253  1.00  0.00     0.031 C 
ATOM     58  C   UNL A   1      44.655  31.009  30.307  1.00  0.00     0.037 A 
BRANCH  45  59
ATOM     59  C   UNL A   1      38.952  29.047  28.947  1.00  0.00     0.057 A 
ATOM     60  C   UNL A   1      38.110  28.919  30.061  1.00  0.00     0.134 A 
ATOM     61  C   UNL A   1      38.373  29.488  27.751  1.00  0.00     0.134 A 
ATOM     62  F   UNL A   1      38.594  28.485  31.234  1.00  0.00    -0.206 F 
ATOM     63  C   UNL A   1      36.743  29.189  29.980  1.00  0.00     0.040 A 
ATOM     64  C   UNL A   1      37.014  29.791  27.665  1.00  0.00     0.040 A 
ATOM     65  F   UNL A   1      39.120  29.634  26.646  1.00  0.00    -0.206 F 
ATOM     66  C   UNL A   1      36.192  29.634  28.779  1.00  0.00     0.006 A 
ENDBRANCH  45  59
BRANCH  46  67
ATOM     67  C   UNL A   1      48.691  26.700  28.944  1.00  0.00     0.057 A 
ATOM     68  C   UNL A   1      49.319  26.108  30.046  1.00  0.00     0.134 A 
ATOM     69  C   UNL A   1      49.481  26.972  27.821  1.00  0.00     0.134 A 
ATOM     70  F   UNL A   1      48.619  25.835  31.156  1.00  0.00    -0.206 F 
ATOM     71  C   UNL A   1      50.686  25.823  30.043  1.00  0.00     0.040 A 
ATOM     72  C   UNL A   1      50.843  26.666  27.794  1.00  0.00     0.040 A 
ATOM     73  F   UNL A   1      48.936  27.526  26.728  1.00  0.00    -0.206 F 
ATOM     74  C   UNL A   1      51.451  26.098  28.912  1.00  0.00     0.006 A 
ENDBRANCH  46  67
BRANCH  58  75
ATOM     75  C   UNL A   1      45.072  32.324  30.894  1.00  0.00     0.057 A 
ATOM     76  C   UNL A   1      45.358  33.437  30.092  1.00  0.00     0.134 A 
ATOM     77  C   UNL A   1      45.144  32.491  32.283  1.00  0.00     0.134 A 
ATOM     78  F   UNL A   1      45.319  33.338  28.754  1.00  0.00    -0.206 F 
ATOM     79  C   UNL A   1      45.724  34.662  30.650  1.00  0.00     0.040 A 
ATOM     80  C   UNL A   1      45.478  33.720  32.854  1.00  0.00     0.040 A 
ATOM     81  F   UNL A   1      44.871  31.469  33.108  1.00  0.00    -0.206 F 
ATOM     82  C   UNL A   1      45.776  34.807  32.036  1.00  0.00     0.006 A 
ENDBRANCH  58  75
ENDBRANCH  32  33
ENDBRANCH  24  27
ENDBRANCH  22  23
ENDBRANCH  21  22
ENDBRANCH   1  21
TORSDOF 16
ENDMDL
