MODEL 1
REMARK VINA RESULT:     -13.2      0.000      0.000
REMARK SMILES Cc1nc(NC(=O)[C@H]2[C@@H]3CC[C@@H](C3)[C@@H]2C(=O)NCCCCNC(=O)c2ccc(-c3c4nc(c(-c5c(F)cccc5F)c5ccc([nH]5)c(-c5c(F)cccc5F)c5nc(c(-c6c(F)cccc6F)c6ccc3[nH]6)C=C5)C=C4)cc2)sc1-c1ccccc1
REMARK SMILES IDX 19 1 18 2 17 3 15 4 16 5 14 7 8 8 9 9 10 10 13 11 12 12
REMARK SMILES IDX 11 13 6 14 5 15 7 17 4 18 1 19 2 20 3 21 80 22 79 23 81 24
REMARK SMILES IDX 82 25 86 26 83 27 85 28 84 29 20 30 21 31 22 32 23 33 24 35
REMARK SMILES IDX 25 36 26 37 78 38 27 39 77 40 28 41 29 42 30 43 71 44 31 45
REMARK SMILES IDX 76 46 70 47 72 48 32 49 75 50 69 51 68 52 33 54 59 55 42 56
REMARK SMILES IDX 58 57 43 58 46 59 57 60 73 61 44 62 45 63 56 65 74 66 47 67
REMARK SMILES IDX 34 68 35 69 40 70 36 71 37 72 39 73 41 74 38 75 60 76 61 77
REMARK SMILES IDX 66 78 62 79 63 80 65 81 67 82 64 83 48 84 49 85 54 86 50 87
REMARK SMILES IDX 51 88 53 89 55 90 52 91
REMARK H PARENT 17 6 5 16 22 34 72 53 46 64
REMARK Flexibility Score: inf
ROOT
ATOM      1  C   UNL A   1      31.642  30.764  26.053  1.00  0.00     0.023 C 
ENDROOT
BRANCH   1   2
ATOM      2  C   UNL A   1      32.215  29.746  27.033  1.00  0.00     0.116 C 
BRANCH   2   3
ATOM      3  N   UNL A   1      32.973  28.684  26.405  1.00  0.00    -0.356 N 
ATOM      4  C   UNL A   1      32.609  27.606  25.655  1.00  0.00     0.224 C 
ATOM      5  O   UNL A   1      33.545  26.998  25.128  1.00  0.00    -0.275 OA
ATOM      6  H   UNL A   1      33.944  28.756  26.549  1.00  0.00     0.163 HD
BRANCH   4   7
ATOM      7  C   UNL A   1      31.141  27.159  25.496  1.00  0.00     0.094 C 
ATOM      8  C   UNL A   1      31.049  25.606  25.265  1.00  0.00     0.094 C 
ATOM      9  C   UNL A   1      30.403  25.564  23.836  1.00  0.00     0.002 C 
ATOM     10  C   UNL A   1      31.359  26.135  22.768  1.00  0.00     0.005 C 
ATOM     11  C   UNL A   1      29.364  26.674  23.954  1.00  0.00     0.009 C 
ATOM     12  C   UNL A   1      30.414  27.737  24.255  1.00  0.00     0.002 C 
ATOM     13  C   UNL A   1      31.307  27.644  23.015  1.00  0.00     0.005 C 
BRANCH   8  14
ATOM     14  C   UNL A   1      30.171  24.712  26.185  1.00  0.00     0.230 C 
ATOM     15  N   UNL A   1      30.406  23.425  26.528  1.00  0.00    -0.302 N 
ATOM     16  H   UNL A   1      29.831  23.059  27.239  1.00  0.00     0.172 HD
ATOM     17  O   UNL A   1      29.136  25.186  26.680  1.00  0.00    -0.274 OA
BRANCH  15  18
ATOM     18  C   UNL A   1      31.330  22.575  26.021  1.00  0.00     0.190 A 
ATOM     19  C   UNL A   1      32.291  19.978  23.808  1.00  0.00     0.068 C 
ATOM     20  C   UNL A   1      32.322  21.061  24.809  1.00  0.00     0.058 A 
ATOM     21  N   UNL A   1      31.121  21.514  25.302  1.00  0.00    -0.225 NA
ATOM     22  C   UNL A   1      33.432  21.799  25.186  1.00  0.00     0.059 A 
ATOM     23  S   UNL A   1      32.964  23.002  26.305  1.00  0.00    -0.096 S 
BRANCH  22  24
ATOM     24  C   UNL A   1      34.778  21.636  24.656  1.00  0.00    -0.006 A 
ATOM     25  C   UNL A   1      35.326  22.634  23.843  1.00  0.00     0.009 A 
ATOM     26  C   UNL A   1      35.620  20.668  25.223  1.00  0.00     0.009 A 
ATOM     27  C   UNL A   1      36.706  22.700  23.649  1.00  0.00     0.001 A 
ATOM     28  C   UNL A   1      37.001  20.735  25.027  1.00  0.00     0.001 A 
ATOM     29  C   UNL A   1      37.543  21.762  24.256  1.00  0.00     0.000 A 
ENDBRANCH  22  24
ENDBRANCH  15  18
ENDBRANCH   8  14
ENDBRANCH   4   7
ENDBRANCH   2   3
ENDBRANCH   1   2
BRANCH   1  30
ATOM     30  C   UNL A   1      31.376  32.152  26.645  1.00  0.00     0.023 C 
BRANCH  30  31
ATOM     31  C   UNL A   1      32.573  32.799  27.319  1.00  0.00     0.116 C 
BRANCH  31  32
ATOM     32  N   UNL A   1      32.349  34.207  27.594  1.00  0.00    -0.352 N 
ATOM     33  C   UNL A   1      32.944  34.998  28.543  1.00  0.00     0.251 C 
ATOM     34  H   UNL A   1      31.682  34.652  27.024  1.00  0.00     0.163 HD
ATOM     35  O   UNL A   1      32.484  36.099  28.811  1.00  0.00    -0.269 OA
BRANCH  33  36
ATOM     36  C   UNL A   1      34.140  34.493  29.248  1.00  0.00     0.039 A 
ATOM     37  C   UNL A   1      33.988  33.908  30.506  1.00  0.00     0.014 A 
ATOM     38  C   UNL A   1      35.400  34.581  28.651  1.00  0.00     0.014 A 
ATOM     39  C   UNL A   1      35.102  33.364  31.144  1.00  0.00     0.010 A 
ATOM     40  C   UNL A   1      36.488  33.954  29.243  1.00  0.00     0.010 A 
ATOM     41  C   UNL A   1      36.352  33.353  30.502  1.00  0.00    -0.014 A 
BRANCH  41  42
ATOM     42  C   UNL A   1      37.535  32.725  31.137  1.00  0.00     0.031 A 
ATOM     43  C   UNL A   1      38.172  31.519  30.505  1.00  0.00     0.074 A 
ATOM     44  C   UNL A   1      37.989  33.206  32.310  1.00  0.00     0.049 A 
ATOM     45  N   UNL A   1      39.172  30.793  30.935  1.00  0.00    -0.248 NA
ATOM     46  C   UNL A   1      37.589  31.044  29.238  1.00  0.00     0.031 C 
ATOM     47  C   UNL A   1      37.412  34.336  33.044  1.00  0.00     0.029 A 
ATOM     48  N   UNL A   1      39.036  32.801  33.098  1.00  0.00    -0.354 N 
ATOM     49  C   UNL A   1      39.327  29.775  30.003  1.00  0.00     0.074 A 
ATOM     50  C   UNL A   1      38.283  29.938  29.015  1.00  0.00     0.031 C 
ATOM     51  C   UNL A   1      38.127  34.547  34.160  1.00  0.00     0.029 A 
ATOM     52  C   UNL A   1      39.184  33.545  34.243  1.00  0.00     0.049 A 
ATOM     53  H   UNL A   1      39.625  32.048  32.866  1.00  0.00     0.167 HD
ATOM     54  C   UNL A   1      40.270  28.807  29.962  1.00  0.00     0.037 A 
ATOM     55  C   UNL A   1      40.069  33.424  35.251  1.00  0.00     0.037 A 
ATOM     56  C   UNL A   1      41.320  28.670  30.935  1.00  0.00     0.049 A 
ATOM     57  C   UNL A   1      41.105  32.337  35.179  1.00  0.00     0.074 A 
ATOM     58  C   UNL A   1      42.369  27.768  30.949  1.00  0.00     0.029 A 
ATOM     59  N   UNL A   1      41.452  29.456  32.070  1.00  0.00    -0.354 N 
ATOM     60  N   UNL A   1      41.293  31.433  34.247  1.00  0.00    -0.248 NA
ATOM     61  C   UNL A   1      42.059  32.256  36.295  1.00  0.00     0.031 C 
ATOM     62  C   UNL A   1      43.103  27.972  32.121  1.00  0.00     0.029 A 
ATOM     63  C   UNL A   1      42.548  29.040  32.807  1.00  0.00     0.049 A 
ATOM     64  H   UNL A   1      40.855  30.199  32.315  1.00  0.00     0.167 HD
ATOM     65  C   UNL A   1      42.398  30.696  34.649  1.00  0.00     0.074 A 
ATOM     66  C   UNL A   1      42.852  31.272  35.898  1.00  0.00     0.031 C 
ATOM     67  C   UNL A   1      42.986  29.635  34.044  1.00  0.00     0.037 A 
BRANCH  54  68
ATOM     68  C   UNL A   1      40.217  27.823  28.829  1.00  0.00     0.057 A 
ATOM     69  C   UNL A   1      40.904  28.038  27.628  1.00  0.00     0.134 A 
ATOM     70  C   UNL A   1      39.514  26.619  28.963  1.00  0.00     0.134 A 
ATOM     71  F   UNL A   1      41.585  29.177  27.429  1.00  0.00    -0.206 F 
ATOM     72  C   UNL A   1      40.880  27.101  26.593  1.00  0.00     0.040 A 
ATOM     73  C   UNL A   1      39.505  25.661  27.947  1.00  0.00     0.040 A 
ATOM     74  F   UNL A   1      38.836  26.345  30.088  1.00  0.00    -0.206 F 
ATOM     75  C   UNL A   1      40.187  25.903  26.756  1.00  0.00     0.006 A 
ENDBRANCH  54  68
BRANCH  55  76
ATOM     76  C   UNL A   1      40.021  34.355  36.408  1.00  0.00     0.057 A 
ATOM     77  C   UNL A   1      39.299  34.039  37.565  1.00  0.00     0.134 A 
ATOM     78  C   UNL A   1      40.674  35.594  36.378  1.00  0.00     0.134 A 
ATOM     79  F   UNL A   1      38.639  32.874  37.652  1.00  0.00    -0.206 F 
ATOM     80  C   UNL A   1      39.199  34.932  38.634  1.00  0.00     0.040 A 
ATOM     81  C   UNL A   1      40.609  36.484  37.451  1.00  0.00     0.040 A 
ATOM     82  F   UNL A   1      41.394  35.954  35.304  1.00  0.00    -0.206 F 
ATOM     83  C   UNL A   1      39.860  36.157  38.580  1.00  0.00     0.006 A 
ENDBRANCH  55  76
BRANCH  67  84
ATOM     84  C   UNL A   1      44.201  29.054  34.706  1.00  0.00     0.057 A 
ATOM     85  C   UNL A   1      44.107  28.044  35.671  1.00  0.00     0.134 A 
ATOM     86  C   UNL A   1      45.484  29.483  34.341  1.00  0.00     0.134 A 
ATOM     87  F   UNL A   1      42.908  27.598  36.075  1.00  0.00    -0.206 F 
ATOM     88  C   UNL A   1      45.245  27.502  36.271  1.00  0.00     0.040 A 
ATOM     89  C   UNL A   1      46.629  28.926  34.909  1.00  0.00     0.040 A 
ATOM     90  F   UNL A   1      45.644  30.439  33.412  1.00  0.00    -0.206 F 
ATOM     91  C   UNL A   1      46.510  27.938  35.883  1.00  0.00     0.006 A 
ENDBRANCH  67  84
ENDBRANCH  41  42
ENDBRANCH  33  36
ENDBRANCH  31  32
ENDBRANCH  30  31
ENDBRANCH   1  30
TORSDOF 14
ENDMDL
MODEL 2
REMARK VINA RESULT:     -13.2      4.984     10.333
REMARK SMILES Cc1nc(NC(=O)[C@H]2[C@@H]3CC[C@@H](C3)[C@@H]2C(=O)NCCCCNC(=O)c2ccc(-c3c4nc(c(-c5c(F)cccc5F)c5ccc([nH]5)c(-c5c(F)cccc5F)c5nc(c(-c6c(F)cccc6F)c6ccc3[nH]6)C=C5)C=C4)cc2)sc1-c1ccccc1
REMARK SMILES IDX 19 1 18 2 17 3 15 4 16 5 14 7 8 8 9 9 10 10 13 11 12 12
REMARK SMILES IDX 11 13 6 14 5 15 7 17 4 18 1 19 2 20 3 21 80 22 79 23 81 24
REMARK SMILES IDX 82 25 86 26 83 27 85 28 84 29 20 30 21 31 22 32 23 33 24 35
REMARK SMILES IDX 25 36 26 37 78 38 27 39 77 40 28 41 29 42 30 43 71 44 31 45
REMARK SMILES IDX 76 46 70 47 72 48 32 49 75 50 69 51 68 52 33 54 59 55 42 56
REMARK SMILES IDX 58 57 43 58 46 59 57 60 73 61 44 62 45 63 56 65 74 66 47 67
REMARK SMILES IDX 34 68 35 69 40 70 36 71 37 72 39 73 41 74 38 75 60 76 61 77
REMARK SMILES IDX 66 78 62 79 63 80 65 81 67 82 64 83 48 84 49 85 54 86 50 87
REMARK SMILES IDX 51 88 53 89 55 90 52 91
REMARK H PARENT 17 6 5 16 22 34 72 53 46 64
REMARK Flexibility Score: inf
ROOT
ATOM      1  C   UNL A   1      36.887  20.575  25.005  1.00  0.00     0.023 C 
ENDROOT
BRANCH   1   2
ATOM      2  C   UNL A   1      37.188  21.954  24.430  1.00  0.00     0.116 C 
BRANCH   2   3
ATOM      3  N   UNL A   1      36.347  23.010  24.954  1.00  0.00    -0.356 N 
ATOM      4  C   UNL A   1      35.063  23.385  24.692  1.00  0.00     0.224 C 
ATOM      5  O   UNL A   1      34.601  24.233  25.462  1.00  0.00    -0.275 OA
ATOM      6  H   UNL A   1      36.791  23.566  25.633  1.00  0.00     0.163 HD
BRANCH   4   7
ATOM      7  C   UNL A   1      34.254  22.817  23.508  1.00  0.00     0.094 C 
ATOM      8  C   UNL A   1      33.122  23.817  23.072  1.00  0.00     0.094 C 
ATOM      9  C   UNL A   1      31.845  22.948  23.352  1.00  0.00     0.002 C 
ATOM     10  C   UNL A   1      31.668  22.677  24.860  1.00  0.00     0.005 C 
ATOM     11  C   UNL A   1      32.302  21.587  22.839  1.00  0.00     0.009 C 
ATOM     12  C   UNL A   1      33.468  21.518  23.818  1.00  0.00     0.002 C 
ATOM     13  C   UNL A   1      32.745  21.633  25.163  1.00  0.00     0.005 C 
BRANCH   8  14
ATOM     14  C   UNL A   1      33.016  24.314  21.603  1.00  0.00     0.230 C 
ATOM     15  N   UNL A   1      32.578  25.524  21.185  1.00  0.00    -0.302 N 
ATOM     16  H   UNL A   1      32.721  25.726  20.232  1.00  0.00     0.172 HD
ATOM     17  O   UNL A   1      33.360  23.556  20.681  1.00  0.00    -0.274 OA
BRANCH  15  18
ATOM     18  C   UNL A   1      31.970  26.493  21.909  1.00  0.00     0.190 A 
ATOM     19  C   UNL A   1      29.058  28.148  23.072  1.00  0.00     0.068 C 
ATOM     20  C   UNL A   1      30.460  27.732  22.873  1.00  0.00     0.058 A 
ATOM     21  N   UNL A   1      30.737  26.893  21.820  1.00  0.00    -0.225 NA
ATOM     22  C   UNL A   1      31.515  27.961  23.741  1.00  0.00     0.059 A 
ATOM     23  S   UNL A   1      32.927  27.216  23.132  1.00  0.00    -0.096 S 
BRANCH  22  24
ATOM     24  C   UNL A   1      31.428  28.657  25.016  1.00  0.00    -0.006 A 
ATOM     25  C   UNL A   1      31.626  27.948  26.206  1.00  0.00     0.009 A 
ATOM     26  C   UNL A   1      31.481  30.059  25.032  1.00  0.00     0.009 A 
ATOM     27  C   UNL A   1      31.935  28.629  27.384  1.00  0.00     0.001 A 
ATOM     28  C   UNL A   1      31.789  30.738  26.212  1.00  0.00     0.001 A 
ATOM     29  C   UNL A   1      32.034  30.021  27.382  1.00  0.00     0.000 A 
ENDBRANCH  22  24
ENDBRANCH  15  18
ENDBRANCH   8  14
ENDBRANCH   4   7
ENDBRANCH   2   3
ENDBRANCH   1   2
BRANCH   1  30
ATOM     30  C   UNL A   1      38.062  19.593  24.979  1.00  0.00     0.023 C 
BRANCH  30  31
ATOM     31  C   UNL A   1      39.289  20.044  25.750  1.00  0.00     0.116 C 
BRANCH  31  32
ATOM     32  N   UNL A   1      40.271  18.983  25.884  1.00  0.00    -0.352 N 
ATOM     33  C   UNL A   1      41.626  19.088  26.070  1.00  0.00     0.251 C 
ATOM     34  H   UNL A   1      39.917  18.065  25.834  1.00  0.00     0.163 HD
ATOM     35  O   UNL A   1      42.350  18.114  25.927  1.00  0.00    -0.269 OA
BRANCH  33  36
ATOM     36  C   UNL A   1      42.197  20.401  26.431  1.00  0.00     0.039 A 
ATOM     37  C   UNL A   1      42.757  21.195  25.429  1.00  0.00     0.014 A 
ATOM     38  C   UNL A   1      42.155  20.850  27.754  1.00  0.00     0.014 A 
ATOM     39  C   UNL A   1      43.232  22.466  25.751  1.00  0.00     0.010 A 
ATOM     40  C   UNL A   1      42.539  22.149  28.053  1.00  0.00     0.010 A 
ATOM     41  C   UNL A   1      43.095  22.964  27.058  1.00  0.00    -0.014 A 
BRANCH  41  42
ATOM     42  C   UNL A   1      43.538  24.335  27.407  1.00  0.00     0.031 A 
ATOM     43  C   UNL A   1      42.524  25.367  27.815  1.00  0.00     0.074 A 
ATOM     44  C   UNL A   1      44.840  24.659  27.293  1.00  0.00     0.049 A 
ATOM     45  N   UNL A   1      42.703  26.632  28.099  1.00  0.00    -0.248 NA
ATOM     46  C   UNL A   1      41.119  24.932  27.883  1.00  0.00     0.031 C 
ATOM     47  C   UNL A   1      45.903  23.753  26.849  1.00  0.00     0.029 A 
ATOM     48  N   UNL A   1      45.492  25.841  27.532  1.00  0.00    -0.354 N 
ATOM     49  C   UNL A   1      41.438  27.141  28.364  1.00  0.00     0.074 A 
ATOM     50  C   UNL A   1      40.493  26.068  28.151  1.00  0.00     0.031 C 
ATOM     51  C   UNL A   1      47.076  24.406  26.872  1.00  0.00     0.029 A 
ATOM     52  C   UNL A   1      46.844  25.784  27.290  1.00  0.00     0.049 A 
ATOM     53  H   UNL A   1      45.035  26.654  27.847  1.00  0.00     0.167 HD
ATOM     54  C   UNL A   1      41.099  28.385  28.774  1.00  0.00     0.037 A 
ATOM     55  C   UNL A   1      47.785  26.741  27.386  1.00  0.00     0.037 A 
ATOM     56  C   UNL A   1      42.051  29.437  29.010  1.00  0.00     0.049 A 
ATOM     57  C   UNL A   1      47.379  28.115  27.842  1.00  0.00     0.074 A 
ATOM     58  C   UNL A   1      41.821  30.713  29.494  1.00  0.00     0.029 A 
ATOM     59  N   UNL A   1      43.414  29.336  28.776  1.00  0.00    -0.354 N 
ATOM     60  N   UNL A   1      46.190  28.559  28.172  1.00  0.00    -0.248 NA
ATOM     61  C   UNL A   1      48.446  29.121  27.947  1.00  0.00     0.031 C 
ATOM     62  C   UNL A   1      43.037  31.402  29.499  1.00  0.00     0.029 A 
ATOM     63  C   UNL A   1      44.034  30.537  29.076  1.00  0.00     0.049 A 
ATOM     64  H   UNL A   1      43.872  28.530  28.444  1.00  0.00     0.167 HD
ATOM     65  C   UNL A   1      46.369  29.883  28.548  1.00  0.00     0.074 A 
ATOM     66  C   UNL A   1      47.785  30.163  28.426  1.00  0.00     0.031 C 
ATOM     67  C   UNL A   1      45.447  30.790  28.955  1.00  0.00     0.037 A 
BRANCH  54  68
ATOM     68  C   UNL A   1      39.644  28.677  28.999  1.00  0.00     0.057 A 
ATOM     69  C   UNL A   1      39.034  28.489  30.246  1.00  0.00     0.134 A 
ATOM     70  C   UNL A   1      38.855  29.207  27.969  1.00  0.00     0.134 A 
ATOM     71  F   UNL A   1      39.729  27.972  31.271  1.00  0.00    -0.206 F 
ATOM     72  C   UNL A   1      37.689  28.798  30.457  1.00  0.00     0.040 A 
ATOM     73  C   UNL A   1      37.517  29.547  28.175  1.00  0.00     0.040 A 
ATOM     74  F   UNL A   1      39.375  29.416  26.751  1.00  0.00    -0.206 F 
ATOM     75  C   UNL A   1      36.930  29.339  29.421  1.00  0.00     0.006 A 
ENDBRANCH  54  68
BRANCH  55  76
ATOM     76  C   UNL A   1      49.201  26.437  27.052  1.00  0.00     0.057 A 
ATOM     77  C   UNL A   1      49.701  26.640  25.760  1.00  0.00     0.134 A 
ATOM     78  C   UNL A   1      50.082  25.914  28.006  1.00  0.00     0.134 A 
ATOM     79  F   UNL A   1      48.905  27.126  24.796  1.00  0.00    -0.206 F 
ATOM     80  C   UNL A   1      51.014  26.303  25.421  1.00  0.00     0.040 A 
ATOM     81  C   UNL A   1      51.405  25.601  27.691  1.00  0.00     0.040 A 
ATOM     82  F   UNL A   1      49.670  25.706  29.267  1.00  0.00    -0.206 F 
ATOM     83  C   UNL A   1      51.870  25.785  26.390  1.00  0.00     0.006 A 
ENDBRANCH  55  76
BRANCH  67  84
ATOM     84  C   UNL A   1      45.946  32.154  29.330  1.00  0.00     0.057 A 
ATOM     85  C   UNL A   1      45.991  33.206  28.407  1.00  0.00     0.134 A 
ATOM     86  C   UNL A   1      46.349  32.428  30.644  1.00  0.00     0.134 A 
ATOM     87  F   UNL A   1      45.631  33.007  27.130  1.00  0.00    -0.206 F 
ATOM     88  C   UNL A   1      46.445  34.476  28.771  1.00  0.00     0.040 A 
ATOM     89  C   UNL A   1      46.773  33.700  31.027  1.00  0.00     0.040 A 
ATOM     90  F   UNL A   1      46.318  31.467  31.581  1.00  0.00    -0.206 F 
ATOM     91  C   UNL A   1      46.830  34.726  30.087  1.00  0.00     0.006 A 
ENDBRANCH  67  84
ENDBRANCH  41  42
ENDBRANCH  33  36
ENDBRANCH  31  32
ENDBRANCH  30  31
ENDBRANCH   1  30
TORSDOF 14
ENDMDL
MODEL 3
REMARK VINA RESULT:     -13.1      0.446      6.011
REMARK SMILES Cc1nc(NC(=O)[C@H]2[C@@H]3CC[C@@H](C3)[C@@H]2C(=O)NCCCCNC(=O)c2ccc(-c3c4nc(c(-c5c(F)cccc5F)c5ccc([nH]5)c(-c5c(F)cccc5F)c5nc(c(-c6c(F)cccc6F)c6ccc3[nH]6)C=C5)C=C4)cc2)sc1-c1ccccc1
REMARK SMILES IDX 19 1 18 2 17 3 15 4 16 5 14 7 8 8 9 9 10 10 13 11 12 12
REMARK SMILES IDX 11 13 6 14 5 15 7 17 4 18 1 19 2 20 3 21 80 22 79 23 81 24
REMARK SMILES IDX 82 25 86 26 83 27 85 28 84 29 20 30 21 31 22 32 23 33 24 35
REMARK SMILES IDX 25 36 26 37 78 38 27 39 77 40 28 41 29 42 30 43 71 44 31 45
REMARK SMILES IDX 76 46 70 47 72 48 32 49 75 50 69 51 68 52 33 54 59 55 42 56
REMARK SMILES IDX 58 57 43 58 46 59 57 60 73 61 44 62 45 63 56 65 74 66 47 67
REMARK SMILES IDX 34 68 35 69 40 70 36 71 37 72 39 73 41 74 38 75 60 76 61 77
REMARK SMILES IDX 66 78 62 79 63 80 65 81 67 82 64 83 48 84 49 85 54 86 50 87
REMARK SMILES IDX 51 88 53 89 55 90 52 91
REMARK H PARENT 17 6 5 16 22 34 72 53 46 64
REMARK Flexibility Score: inf
ROOT
ATOM      1  C   UNL A   1      31.502  30.740  26.096  1.00  0.00     0.023 C 
ENDROOT
BRANCH   1   2
ATOM      2  C   UNL A   1      32.139  29.839  27.148  1.00  0.00     0.116 C 
BRANCH   2   3
ATOM      3  N   UNL A   1      32.930  28.757  26.599  1.00  0.00    -0.356 N 
ATOM      4  C   UNL A   1      32.606  27.647  25.878  1.00  0.00     0.224 C 
ATOM      5  O   UNL A   1      33.568  27.024  25.420  1.00  0.00    -0.275 OA
ATOM      6  H   UNL A   1      33.893  28.841  26.784  1.00  0.00     0.163 HD
BRANCH   4   7
ATOM      7  C   UNL A   1      31.149  27.185  25.671  1.00  0.00     0.094 C 
ATOM      8  C   UNL A   1      31.081  25.631  25.437  1.00  0.00     0.094 C 
ATOM      9  C   UNL A   1      30.483  25.583  23.987  1.00  0.00     0.002 C 
ATOM     10  C   UNL A   1      31.466  26.165  22.952  1.00  0.00     0.005 C 
ATOM     11  C   UNL A   1      29.429  26.682  24.071  1.00  0.00     0.009 C 
ATOM     12  C   UNL A   1      30.456  27.756  24.407  1.00  0.00     0.002 C 
ATOM     13  C   UNL A   1      31.391  27.673  23.197  1.00  0.00     0.005 C 
BRANCH   8  14
ATOM     14  C   UNL A   1      30.183  24.727  26.327  1.00  0.00     0.230 C 
ATOM     15  N   UNL A   1      30.391  23.425  26.631  1.00  0.00    -0.302 N 
ATOM     16  H   UNL A   1      29.807  23.050  27.329  1.00  0.00     0.172 HD
ATOM     17  O   UNL A   1      29.156  25.207  26.835  1.00  0.00    -0.274 OA
BRANCH  15  18
ATOM     18  C   UNL A   1      31.299  22.573  26.100  1.00  0.00     0.190 A 
ATOM     19  C   UNL A   1      32.205  20.003  23.833  1.00  0.00     0.068 C 
ATOM     20  C   UNL A   1      32.260  21.069  24.852  1.00  0.00     0.058 A 
ATOM     21  N   UNL A   1      31.070  21.527  25.365  1.00  0.00    -0.225 NA
ATOM     22  C   UNL A   1      33.383  21.786  25.230  1.00  0.00     0.059 A 
ATOM     23  S   UNL A   1      32.942  22.975  26.375  1.00  0.00    -0.096 S 
BRANCH  22  24
ATOM     24  C   UNL A   1      34.721  21.616  24.684  1.00  0.00    -0.006 A 
ATOM     25  C   UNL A   1      35.266  22.613  23.868  1.00  0.00     0.009 A 
ATOM     26  C   UNL A   1      35.564  20.640  25.238  1.00  0.00     0.009 A 
ATOM     27  C   UNL A   1      36.645  22.669  23.659  1.00  0.00     0.001 A 
ATOM     28  C   UNL A   1      36.942  20.699  25.027  1.00  0.00     0.001 A 
ATOM     29  C   UNL A   1      37.483  21.724  24.253  1.00  0.00     0.000 A 
ENDBRANCH  22  24
ENDBRANCH  15  18
ENDBRANCH   8  14
ENDBRANCH   4   7
ENDBRANCH   2   3
ENDBRANCH   1   2
BRANCH   1  30
ATOM     30  C   UNL A   1      31.393  32.216  26.489  1.00  0.00     0.023 C 
BRANCH  30  31
ATOM     31  C   UNL A   1      32.594  32.769  27.235  1.00  0.00     0.116 C 
BRANCH  31  32
ATOM     32  N   UNL A   1      32.408  34.158  27.614  1.00  0.00    -0.352 N 
ATOM     33  C   UNL A   1      33.024  34.861  28.618  1.00  0.00     0.251 C 
ATOM     34  H   UNL A   1      31.753  34.663  27.079  1.00  0.00     0.163 HD
ATOM     35  O   UNL A   1      32.593  35.952  28.967  1.00  0.00    -0.269 OA
BRANCH  33  36
ATOM     36  C   UNL A   1      34.205  34.273  29.281  1.00  0.00     0.039 A 
ATOM     37  C   UNL A   1      34.018  33.460  30.400  1.00  0.00     0.014 A 
ATOM     38  C   UNL A   1      35.487  34.512  28.780  1.00  0.00     0.014 A 
ATOM     39  C   UNL A   1      35.123  32.843  30.986  1.00  0.00     0.010 A 
ATOM     40  C   UNL A   1      36.571  33.822  29.306  1.00  0.00     0.010 A 
ATOM     41  C   UNL A   1      36.402  32.993  30.422  1.00  0.00    -0.014 A 
BRANCH  41  42
ATOM     42  C   UNL A   1      37.579  32.297  30.994  1.00  0.00     0.031 A 
ATOM     43  C   UNL A   1      38.211  32.813  32.257  1.00  0.00     0.074 A 
ATOM     44  C   UNL A   1      38.108  31.245  30.340  1.00  0.00     0.049 A 
ATOM     45  N   UNL A   1      39.278  32.382  32.881  1.00  0.00    -0.248 NA
ATOM     46  C   UNL A   1      37.583  33.986  32.887  1.00  0.00     0.031 C 
ATOM     47  C   UNL A   1      37.611  30.696  29.076  1.00  0.00     0.029 A 
ATOM     48  N   UNL A   1      39.187  30.455  30.643  1.00  0.00    -0.354 N 
ATOM     49  C   UNL A   1      39.453  33.236  33.962  1.00  0.00     0.074 A 
ATOM     50  C   UNL A   1      38.421  34.246  33.879  1.00  0.00     0.031 C 
ATOM     51  C   UNL A   1      38.369  29.644  28.726  1.00  0.00     0.029 A 
ATOM     52  C   UNL A   1      39.426  29.470  29.715  1.00  0.00     0.049 A 
ATOM     53  H   UNL A   1      39.737  30.580  31.449  1.00  0.00     0.167 HD
ATOM     54  C   UNL A   1      40.377  33.169  34.948  1.00  0.00     0.037 A 
ATOM     55  C   UNL A   1      40.398  28.540  29.665  1.00  0.00     0.037 A 
ATOM     56  C   UNL A   1      41.382  32.144  35.035  1.00  0.00     0.049 A 
ATOM     57  C   UNL A   1      41.412  28.490  30.775  1.00  0.00     0.074 A 
ATOM     58  C   UNL A   1      42.321  31.942  36.030  1.00  0.00     0.029 A 
ATOM     59  N   UNL A   1      41.581  31.150  34.088  1.00  0.00    -0.354 N 
ATOM     60  N   UNL A   1      41.514  29.253  31.836  1.00  0.00    -0.248 NA
ATOM     61  C   UNL A   1      42.442  27.447  30.684  1.00  0.00     0.031 C 
ATOM     62  C   UNL A   1      43.124  30.861  35.658  1.00  0.00     0.029 A 
ATOM     63  C   UNL A   1      42.647  30.351  34.461  1.00  0.00     0.049 A 
ATOM     64  H   UNL A   1      41.043  31.032  33.272  1.00  0.00     0.167 HD
ATOM     65  C   UNL A   1      42.599  28.766  32.552  1.00  0.00     0.074 A 
ATOM     66  C   UNL A   1      43.108  27.629  31.814  1.00  0.00     0.031 C 
ATOM     67  C   UNL A   1      43.131  29.218  33.714  1.00  0.00     0.037 A 
BRANCH  54  68
ATOM     68  C   UNL A   1      40.343  34.226  36.014  1.00  0.00     0.057 A 
ATOM     69  C   UNL A   1      41.054  35.426  35.891  1.00  0.00     0.134 A 
ATOM     70  C   UNL A   1      39.544  34.063  37.153  1.00  0.00     0.134 A 
ATOM     71  F   UNL A   1      41.848  35.640  34.831  1.00  0.00    -0.206 F 
ATOM     72  C   UNL A   1      40.987  36.419  36.870  1.00  0.00     0.040 A 
ATOM     73  C   UNL A   1      39.447  35.060  38.126  1.00  0.00     0.040 A 
ATOM     74  F   UNL A   1      38.834  32.940  37.334  1.00  0.00    -0.206 F 
ATOM     75  C   UNL A   1      40.173  36.241  37.987  1.00  0.00     0.006 A 
ENDBRANCH  54  68
BRANCH  55  76
ATOM     76  C   UNL A   1      40.458  27.578  28.534  1.00  0.00     0.057 A 
ATOM     77  C   UNL A   1      39.712  26.394  28.548  1.00  0.00     0.134 A 
ATOM     78  C   UNL A   1      41.283  27.804  27.425  1.00  0.00     0.134 A 
ATOM     79  F   UNL A   1      38.913  26.112  29.588  1.00  0.00    -0.206 F 
ATOM     80  C   UNL A   1      39.805  25.456  27.518  1.00  0.00     0.040 A 
ATOM     81  C   UNL A   1      41.365  26.890  26.374  1.00  0.00     0.040 A 
ATOM     82  F   UNL A   1      42.017  28.925  27.343  1.00  0.00    -0.206 F 
ATOM     83  C   UNL A   1      40.632  25.705  26.425  1.00  0.00     0.006 A 
ENDBRANCH  55  76
BRANCH  67  84
ATOM     84  C   UNL A   1      44.300  28.462  34.273  1.00  0.00     0.057 A 
ATOM     85  C   UNL A   1      45.622  28.809  33.967  1.00  0.00     0.134 A 
ATOM     86  C   UNL A   1      44.100  27.397  35.161  1.00  0.00     0.134 A 
ATOM     87  F   UNL A   1      45.883  29.810  33.113  1.00  0.00    -0.206 F 
ATOM     88  C   UNL A   1      46.702  28.106  34.504  1.00  0.00     0.040 A 
ATOM     89  C   UNL A   1      45.171  26.708  35.729  1.00  0.00     0.040 A 
ATOM     90  F   UNL A   1      42.858  27.021  35.506  1.00  0.00    -0.206 F 
ATOM     91  C   UNL A   1      46.477  27.057  35.394  1.00  0.00     0.006 A 
ENDBRANCH  67  84
ENDBRANCH  41  42
ENDBRANCH  33  36
ENDBRANCH  31  32
ENDBRANCH  30  31
ENDBRANCH   1  30
TORSDOF 14
ENDMDL
