MODEL 1
REMARK VINA RESULT:     -11.0      0.000      0.000
REMARK SMILES COc1ccc(CCNC(=O)c2cccnc2C(=O)NCCCCNC(=O)c2ccc(-c3c4nc(c(-c5c(F)cccc5F)c5ccc([nH]5)c(-c5c(F)cccc5F)c5nc(c(-c6c(F)cccc6F)c6ccc3[nH]6)C=C5)C=C4)cc2)cc1OC
REMARK SMILES IDX 21 1 20 2 18 3 19 4 17 6 12 7 13 8 14 9 16 10 15 11 10 12
REMARK SMILES IDX 9 13 11 15 8 16 7 17 6 18 3 19 4 20 83 21 5 22 82 23 2 24
REMARK SMILES IDX 1 25 84 26 85 27 22 28 23 29 24 30 25 31 26 32 27 34 28 35
REMARK SMILES IDX 29 36 81 37 30 38 80 39 31 40 32 41 33 42 74 43 34 44 79 45
REMARK SMILES IDX 73 46 75 47 35 48 78 49 72 50 71 51 36 53 62 54 45 55 61 56
REMARK SMILES IDX 46 57 49 58 60 59 76 60 47 61 48 62 59 64 77 65 50 66 37 67
REMARK SMILES IDX 38 68 43 69 39 70 40 71 42 72 44 73 41 74 63 75 64 76 69 77
REMARK SMILES IDX 65 78 66 79 68 80 70 81 67 82 51 83 52 84 57 85 53 86 54 87
REMARK SMILES IDX 56 88 58 89 55 90
REMARK H PARENT 20 5 9 14 25 33 75 52 49 63
REMARK Flexibility Score: inf
ROOT
ATOM      1  C   UNL A   1      35.920  23.251  25.669  1.00  0.00     0.116 C 
ENDROOT
BRANCH   1   2
ATOM      2  N   UNL A   1      35.345  22.337  26.612  1.00  0.00    -0.351 N 
ATOM      3  C   UNL A   1      34.019  22.030  26.844  1.00  0.00     0.270 C 
ATOM      4  O   UNL A   1      33.825  21.133  27.673  1.00  0.00    -0.267 OA
ATOM      5  H   UNL A   1      35.992  21.857  27.177  1.00  0.00     0.163 HD
BRANCH   3   6
ATOM      6  C   UNL A   1      32.818  22.747  26.252  1.00  0.00     0.140 A 
ATOM      7  C   UNL A   1      32.344  22.730  24.939  1.00  0.00     0.071 A 
ATOM      8  C   UNL A   1      31.105  23.339  24.663  1.00  0.00     0.018 A 
ATOM      9  C   UNL A   1      30.399  23.991  25.667  1.00  0.00     0.021 A 
ATOM     10  N   UNL A   1      32.128  23.423  27.231  1.00  0.00    -0.250 NA
ATOM     11  C   UNL A   1      30.953  24.011  26.929  1.00  0.00     0.112 A 
BRANCH   7  12
ATOM     12  C   UNL A   1      32.946  21.983  23.827  1.00  0.00     0.253 C 
ATOM     13  N   UNL A   1      33.257  22.620  22.637  1.00  0.00    -0.352 N 
ATOM     14  H   UNL A   1      33.638  22.032  21.946  1.00  0.00     0.163 HD
ATOM     15  O   UNL A   1      33.162  20.784  23.963  1.00  0.00    -0.269 OA
BRANCH  13  16
ATOM     16  C   UNL A   1      33.116  24.022  22.236  1.00  0.00     0.121 C 
BRANCH  16  17
ATOM     17  C   UNL A   1      34.045  25.015  22.957  1.00  0.00     0.057 C 
BRANCH  17  18
ATOM     18  C   UNL A   1      33.408  25.962  23.950  1.00  0.00    -0.042 A 
ATOM     19  C   UNL A   1      32.033  27.541  25.847  1.00  0.00     0.160 A 
ATOM     20  C   UNL A   1      33.247  26.924  26.173  1.00  0.00     0.051 A 
ATOM     21  C   UNL A   1      31.521  27.421  24.552  1.00  0.00     0.160 A 
ATOM     22  C   UNL A   1      33.927  26.144  25.232  1.00  0.00     0.008 A 
ATOM     23  C   UNL A   1      32.212  26.624  23.623  1.00  0.00     0.054 A 
BRANCH  19  24
ATOM     24  O   UNL A   1      31.417  28.311  26.796  1.00  0.00    -0.493 OA
ATOM     25  C   UNL A   1      32.259  29.373  27.247  1.00  0.00     0.278 C 
ENDBRANCH  19  24
BRANCH  21  26
ATOM     26  O   UNL A   1      30.382  27.974  24.029  1.00  0.00    -0.493 OA
ATOM     27  C   UNL A   1      30.447  29.287  23.495  1.00  0.00     0.278 C 
ENDBRANCH  21  26
ENDBRANCH  17  18
ENDBRANCH  16  17
ENDBRANCH  13  16
ENDBRANCH   7  12
ENDBRANCH   3   6
ENDBRANCH   1   2
BRANCH   1  28
ATOM     28  C   UNL A   1      36.556  22.640  24.433  1.00  0.00     0.023 C 
BRANCH  28  29
ATOM     29  C   UNL A   1      37.313  21.330  24.605  1.00  0.00     0.023 C 
BRANCH  29  30
ATOM     30  C   UNL A   1      38.422  21.275  25.652  1.00  0.00     0.116 C 
BRANCH  30  31
ATOM     31  N   UNL A   1      39.306  20.117  25.569  1.00  0.00    -0.352 N 
ATOM     32  C   UNL A   1      40.627  19.959  25.936  1.00  0.00     0.251 C 
ATOM     33  H   UNL A   1      38.889  19.313  25.186  1.00  0.00     0.163 HD
ATOM     34  O   UNL A   1      41.205  18.905  25.718  1.00  0.00    -0.269 OA
BRANCH  32  35
ATOM     35  C   UNL A   1      41.360  21.086  26.552  1.00  0.00     0.039 A 
ATOM     36  C   UNL A   1      41.993  22.022  25.727  1.00  0.00     0.014 A 
ATOM     37  C   UNL A   1      41.377  21.250  27.936  1.00  0.00     0.014 A 
ATOM     38  C   UNL A   1      42.516  23.190  26.287  1.00  0.00     0.010 A 
ATOM     39  C   UNL A   1      41.796  22.458  28.477  1.00  0.00     0.010 A 
ATOM     40  C   UNL A   1      42.355  23.450  27.657  1.00  0.00    -0.014 A 
BRANCH  40  41
ATOM     41  C   UNL A   1      42.729  24.757  28.259  1.00  0.00     0.031 A 
ATOM     42  C   UNL A   1      41.683  25.819  28.468  1.00  0.00     0.074 A 
ATOM     43  C   UNL A   1      44.024  25.031  28.515  1.00  0.00     0.049 A 
ATOM     44  N   UNL A   1      41.830  27.060  28.853  1.00  0.00    -0.248 NA
ATOM     45  C   UNL A   1      40.292  25.445  28.162  1.00  0.00     0.031 C 
ATOM     46  C   UNL A   1      45.147  24.116  28.293  1.00  0.00     0.029 A 
ATOM     47  N   UNL A   1      44.619  26.167  29.004  1.00  0.00    -0.354 N 
ATOM     48  C   UNL A   1      40.560  27.621  28.809  1.00  0.00     0.074 A 
ATOM     49  C   UNL A   1      39.665  26.602  28.304  1.00  0.00     0.031 C 
ATOM     50  C   UNL A   1      46.287  24.715  28.672  1.00  0.00     0.029 A 
ATOM     51  C   UNL A   1      45.985  26.069  29.123  1.00  0.00     0.049 A 
ATOM     52  H   UNL A   1      44.115  26.977  29.245  1.00  0.00     0.167 HD
ATOM     53  C   UNL A   1      40.167  28.862  29.181  1.00  0.00     0.037 A 
ATOM     54  C   UNL A   1      46.893  26.970  29.543  1.00  0.00     0.037 A 
ATOM     55  C   UNL A   1      41.050  29.860  29.722  1.00  0.00     0.049 A 
ATOM     56  C   UNL A   1      46.430  28.335  29.972  1.00  0.00     0.074 A 
ATOM     57  C   UNL A   1      40.736  31.122  30.196  1.00  0.00     0.029 A 
ATOM     58  N   UNL A   1      42.419  29.706  29.866  1.00  0.00    -0.354 N 
ATOM     59  N   UNL A   1      45.215  28.827  29.989  1.00  0.00    -0.248 NA
ATOM     60  C   UNL A   1      47.463  29.268  30.443  1.00  0.00     0.031 C 
ATOM     61  C   UNL A   1      41.923  31.745  30.597  1.00  0.00     0.029 A 
ATOM     62  C   UNL A   1      42.969  30.855  30.410  1.00  0.00     0.049 A 
ATOM     63  H   UNL A   1      42.927  28.900  29.619  1.00  0.00     0.167 HD
ATOM     64  C   UNL A   1      45.333  30.114  30.498  1.00  0.00     0.074 A 
ATOM     65  C   UNL A   1      46.737  30.322  30.788  1.00  0.00     0.031 C 
ATOM     66  C   UNL A   1      44.367  31.041  30.705  1.00  0.00     0.037 A 
BRANCH  53  67
ATOM     67  C   UNL A   1      38.713  29.199  29.028  1.00  0.00     0.057 A 
ATOM     68  C   UNL A   1      37.829  29.160  30.115  1.00  0.00     0.134 A 
ATOM     69  C   UNL A   1      38.192  29.584  27.786  1.00  0.00     0.134 A 
ATOM     70  F   UNL A   1      38.261  28.787  31.329  1.00  0.00    -0.206 F 
ATOM     71  C   UNL A   1      36.474  29.464  29.967  1.00  0.00     0.040 A 
ATOM     72  C   UNL A   1      36.846  29.917  27.632  1.00  0.00     0.040 A 
ATOM     73  F   UNL A   1      38.983  29.647  26.705  1.00  0.00    -0.206 F 
ATOM     74  C   UNL A   1      35.981  29.850  28.723  1.00  0.00     0.006 A 
ENDBRANCH  53  67
BRANCH  54  75
ATOM     75  C   UNL A   1      48.330  26.605  29.614  1.00  0.00     0.057 A 
ATOM     76  C   UNL A   1      49.194  26.885  28.548  1.00  0.00     0.134 A 
ATOM     77  C   UNL A   1      48.873  25.963  30.733  1.00  0.00     0.134 A 
ATOM     78  F   UNL A   1      48.729  27.481  27.441  1.00  0.00    -0.206 F 
ATOM     79  C   UNL A   1      50.541  26.523  28.583  1.00  0.00     0.040 A 
ATOM     80  C   UNL A   1      50.225  25.617  30.791  1.00  0.00     0.040 A 
ATOM     81  F   UNL A   1      48.101  25.676  31.790  1.00  0.00    -0.206 F 
ATOM     82  C   UNL A   1      51.061  25.889  29.711  1.00  0.00     0.006 A 
ENDBRANCH  54  75
BRANCH  66  83
ATOM     83  C   UNL A   1      44.786  32.347  31.308  1.00  0.00     0.057 A 
ATOM     84  C   UNL A   1      44.835  32.540  32.694  1.00  0.00     0.134 A 
ATOM     85  C   UNL A   1      45.185  33.412  30.490  1.00  0.00     0.134 A 
ATOM     86  F   UNL A   1      44.452  31.563  33.530  1.00  0.00    -0.206 F 
ATOM     87  C   UNL A   1      45.249  33.754  33.245  1.00  0.00     0.040 A 
ATOM     88  C   UNL A   1      45.623  34.621  31.029  1.00  0.00     0.040 A 
ATOM     89  F   UNL A   1      45.168  33.289  29.154  1.00  0.00    -0.206 F 
ATOM     90  C   UNL A   1      45.651  34.796  32.412  1.00  0.00     0.006 A 
ENDBRANCH  66  83
ENDBRANCH  40  41
ENDBRANCH  32  35
ENDBRANCH  30  31
ENDBRANCH  29  30
ENDBRANCH  28  29
ENDBRANCH   1  28
TORSDOF 17
ENDMDL
MODEL 2
REMARK VINA RESULT:     -10.9      4.093      9.057
REMARK SMILES COc1ccc(CCNC(=O)c2cccnc2C(=O)NCCCCNC(=O)c2ccc(-c3c4nc(c(-c5c(F)cccc5F)c5ccc([nH]5)c(-c5c(F)cccc5F)c5nc(c(-c6c(F)cccc6F)c6ccc3[nH]6)C=C5)C=C4)cc2)cc1OC
REMARK SMILES IDX 21 1 20 2 18 3 19 4 17 6 12 7 13 8 14 9 16 10 15 11 10 12
REMARK SMILES IDX 9 13 11 15 8 16 7 17 6 18 3 19 4 20 83 21 5 22 82 23 2 24
REMARK SMILES IDX 1 25 84 26 85 27 22 28 23 29 24 30 25 31 26 32 27 34 28 35
REMARK SMILES IDX 29 36 81 37 30 38 80 39 31 40 32 41 33 42 74 43 34 44 79 45
REMARK SMILES IDX 73 46 75 47 35 48 78 49 72 50 71 51 36 53 62 54 45 55 61 56
REMARK SMILES IDX 46 57 49 58 60 59 76 60 47 61 48 62 59 64 77 65 50 66 37 67
REMARK SMILES IDX 38 68 43 69 39 70 40 71 42 72 44 73 41 74 63 75 64 76 69 77
REMARK SMILES IDX 65 78 66 79 68 80 70 81 67 82 51 83 52 84 57 85 53 86 54 87
REMARK SMILES IDX 56 88 58 89 55 90
REMARK H PARENT 20 5 9 14 25 33 75 52 49 63
REMARK Flexibility Score: inf
ROOT
ATOM      1  C   UNL A   1      31.550  29.124  25.891  1.00  0.00     0.116 C 
ENDROOT
BRANCH   1   2
ATOM      2  N   UNL A   1      31.136  29.596  24.602  1.00  0.00    -0.351 N 
ATOM      3  C   UNL A   1      31.029  28.911  23.408  1.00  0.00     0.270 C 
ATOM      4  O   UNL A   1      30.561  29.565  22.467  1.00  0.00    -0.267 OA
ATOM      5  H   UNL A   1      30.892  30.548  24.563  1.00  0.00     0.163 HD
BRANCH   3   6
ATOM      6  C   UNL A   1      31.512  27.495  23.142  1.00  0.00     0.140 A 
ATOM      7  C   UNL A   1      30.886  26.284  23.440  1.00  0.00     0.071 A 
ATOM      8  C   UNL A   1      31.450  25.094  22.938  1.00  0.00     0.018 A 
ATOM      9  C   UNL A   1      32.633  25.125  22.211  1.00  0.00     0.021 A 
ATOM     10  N   UNL A   1      32.699  27.512  22.449  1.00  0.00    -0.250 NA
ATOM     11  C   UNL A   1      33.221  26.353  21.999  1.00  0.00     0.112 A 
BRANCH   7  12
ATOM     12  C   UNL A   1      29.583  26.139  24.102  1.00  0.00     0.253 C 
ATOM     13  N   UNL A   1      29.496  25.607  25.377  1.00  0.00    -0.352 N 
ATOM     14  H   UNL A   1      28.579  25.532  25.727  1.00  0.00     0.163 HD
ATOM     15  O   UNL A   1      28.570  26.488  23.505  1.00  0.00    -0.269 OA
BRANCH  13  16
ATOM     16  C   UNL A   1      30.539  25.139  26.294  1.00  0.00     0.121 C 
BRANCH  16  17
ATOM     17  C   UNL A   1      30.782  23.620  26.301  1.00  0.00     0.057 C 
BRANCH  17  18
ATOM     18  C   UNL A   1      32.184  23.142  25.989  1.00  0.00    -0.042 A 
ATOM     19  C   UNL A   1      34.765  22.346  25.161  1.00  0.00     0.160 A 
ATOM     20  C   UNL A   1      34.591  23.462  25.989  1.00  0.00     0.051 A 
ATOM     21  C   UNL A   1      33.656  21.583  24.783  1.00  0.00     0.160 A 
ATOM     22  C   UNL A   1      33.312  23.853  26.400  1.00  0.00     0.008 A 
ATOM     23  C   UNL A   1      32.378  21.999  25.196  1.00  0.00     0.054 A 
BRANCH  19  24
ATOM     24  O   UNL A   1      36.038  21.991  24.804  1.00  0.00    -0.493 OA
ATOM     25  C   UNL A   1      36.425  22.580  23.561  1.00  0.00     0.278 C 
ENDBRANCH  19  24
BRANCH  21  26
ATOM     26  O   UNL A   1      33.620  20.447  24.019  1.00  0.00    -0.493 OA
ATOM     27  C   UNL A   1      33.931  19.206  24.631  1.00  0.00     0.278 C 
ENDBRANCH  21  26
ENDBRANCH  17  18
ENDBRANCH  16  17
ENDBRANCH  13  16
ENDBRANCH   7  12
ENDBRANCH   3   6
ENDBRANCH   1   2
BRANCH   1  28
ATOM     28  C   UNL A   1      32.113  30.163  26.844  1.00  0.00     0.023 C 
BRANCH  28  29
ATOM     29  C   UNL A   1      31.440  31.530  26.875  1.00  0.00     0.023 C 
BRANCH  29  30
ATOM     30  C   UNL A   1      32.271  32.747  26.476  1.00  0.00     0.116 C 
BRANCH  30  31
ATOM     31  N   UNL A   1      32.150  33.903  27.357  1.00  0.00    -0.352 N 
ATOM     32  C   UNL A   1      32.954  34.345  28.387  1.00  0.00     0.251 C 
ATOM     33  H   UNL A   1      31.358  34.464  27.187  1.00  0.00     0.163 HD
ATOM     34  O   UNL A   1      32.630  35.320  29.048  1.00  0.00    -0.269 OA
BRANCH  32  35
ATOM     35  C   UNL A   1      34.191  33.607  28.723  1.00  0.00     0.039 A 
ATOM     36  C   UNL A   1      35.425  34.257  28.619  1.00  0.00     0.014 A 
ATOM     37  C   UNL A   1      34.129  32.295  29.190  1.00  0.00     0.014 A 
ATOM     38  C   UNL A   1      36.574  33.638  29.118  1.00  0.00     0.010 A 
ATOM     39  C   UNL A   1      35.249  31.728  29.786  1.00  0.00     0.010 A 
ATOM     40  C   UNL A   1      36.480  32.399  29.773  1.00  0.00    -0.014 A 
BRANCH  40  41
ATOM     41  C   UNL A   1      37.639  31.794  30.479  1.00  0.00     0.031 A 
ATOM     42  C   UNL A   1      38.475  30.744  29.799  1.00  0.00     0.074 A 
ATOM     43  C   UNL A   1      37.874  32.107  31.770  1.00  0.00     0.049 A 
ATOM     44  N   UNL A   1      39.438  30.007  30.288  1.00  0.00    -0.248 NA
ATOM     45  C   UNL A   1      38.154  30.456  28.391  1.00  0.00     0.031 C 
ATOM     46  C   UNL A   1      37.098  33.057  32.571  1.00  0.00     0.029 A 
ATOM     47  N   UNL A   1      38.827  31.644  32.644  1.00  0.00    -0.354 N 
ATOM     48  C   UNL A   1      39.818  29.152  29.261  1.00  0.00     0.074 A 
ATOM     49  C   UNL A   1      38.943  29.422  28.141  1.00  0.00     0.031 C 
ATOM     50  C   UNL A   1      37.623  33.128  33.804  1.00  0.00     0.029 A 
ATOM     51  C   UNL A   1      38.745  32.201  33.898  1.00  0.00     0.049 A 
ATOM     52  H   UNL A   1      39.506  30.976  32.395  1.00  0.00     0.167 HD
ATOM     53  C   UNL A   1      40.823  28.245  29.241  1.00  0.00     0.037 A 
ATOM     54  C   UNL A   1      39.485  31.984  35.001  1.00  0.00     0.037 A 
ATOM     55  C   UNL A   1      41.719  28.007  30.340  1.00  0.00     0.049 A 
ATOM     56  C   UNL A   1      40.610  30.986  34.947  1.00  0.00     0.074 A 
ATOM     57  C   UNL A   1      42.813  27.161  30.392  1.00  0.00     0.029 A 
ATOM     58  N   UNL A   1      41.627  28.622  31.578  1.00  0.00    -0.354 N 
ATOM     59  N   UNL A   1      41.000  30.236  33.946  1.00  0.00    -0.248 NA
ATOM     60  C   UNL A   1      41.398  30.810  36.175  1.00  0.00     0.031 C 
ATOM     61  C   UNL A   1      43.364  27.240  31.676  1.00  0.00     0.029 A 
ATOM     62  C   UNL A   1      42.638  28.165  32.408  1.00  0.00     0.049 A 
ATOM     63  H   UNL A   1      40.946  29.286  31.831  1.00  0.00     0.167 HD
ATOM     64  C   UNL A   1      42.094  29.519  34.412  1.00  0.00     0.074 A 
ATOM     65  C   UNL A   1      42.313  29.934  35.782  1.00  0.00     0.031 C 
ATOM     66  C   UNL A   1      42.850  28.599  33.765  1.00  0.00     0.037 A 
BRANCH  53  67
ATOM     67  C   UNL A   1      41.010  27.454  27.979  1.00  0.00     0.057 A 
ATOM     68  C   UNL A   1      41.824  27.915  26.935  1.00  0.00     0.134 A 
ATOM     69  C   UNL A   1      40.389  26.211  27.812  1.00  0.00     0.134 A 
ATOM     70  F   UNL A   1      42.437  29.105  27.025  1.00  0.00    -0.206 F 
ATOM     71  C   UNL A   1      41.987  27.182  25.758  1.00  0.00     0.040 A 
ATOM     72  C   UNL A   1      40.567  25.456  26.652  1.00  0.00     0.040 A 
ATOM     73  F   UNL A   1      39.600  25.707  28.774  1.00  0.00    -0.206 F 
ATOM     74  C   UNL A   1      41.363  25.945  25.617  1.00  0.00     0.006 A 
ENDBRANCH  53  67
BRANCH  54  75
ATOM     75  C   UNL A   1      39.215  32.748  36.244  1.00  0.00     0.057 A 
ATOM     76  C   UNL A   1      38.366  32.233  37.232  1.00  0.00     0.134 A 
ATOM     77  C   UNL A   1      39.782  34.006  36.474  1.00  0.00     0.134 A 
ATOM     78  F   UNL A   1      37.777  31.041  37.061  1.00  0.00    -0.206 F 
ATOM     79  C   UNL A   1      38.076  32.950  38.394  1.00  0.00     0.040 A 
ATOM     80  C   UNL A   1      39.520  34.724  37.643  1.00  0.00     0.040 A 
ATOM     81  F   UNL A   1      40.610  34.551  35.572  1.00  0.00    -0.206 F 
ATOM     82  C   UNL A   1      38.657  34.199  38.603  1.00  0.00     0.006 A 
ENDBRANCH  54  75
BRANCH  66  83
ATOM     83  C   UNL A   1      44.005  28.008  34.516  1.00  0.00     0.057 A 
ATOM     84  C   UNL A   1      43.885  26.815  35.238  1.00  0.00     0.134 A 
ATOM     85  C   UNL A   1      45.263  28.622  34.482  1.00  0.00     0.134 A 
ATOM     86  F   UNL A   1      42.702  26.187  35.320  1.00  0.00    -0.206 F 
ATOM     87  C   UNL A   1      44.972  26.261  35.915  1.00  0.00     0.040 A 
ATOM     88  C   UNL A   1      46.364  28.066  35.134  1.00  0.00     0.040 A 
ATOM     89  F   UNL A   1      45.447  29.764  33.802  1.00  0.00    -0.206 F 
ATOM     90  C   UNL A   1      46.218  26.884  35.858  1.00  0.00     0.006 A 
ENDBRANCH  66  83
ENDBRANCH  40  41
ENDBRANCH  32  35
ENDBRANCH  30  31
ENDBRANCH  29  30
ENDBRANCH  28  29
ENDBRANCH   1  28
TORSDOF 17
ENDMDL
MODEL 3
REMARK VINA RESULT:     -10.8      4.287      8.908
REMARK SMILES COc1ccc(CCNC(=O)c2cccnc2C(=O)NCCCCNC(=O)c2ccc(-c3c4nc(c(-c5c(F)cccc5F)c5ccc([nH]5)c(-c5c(F)cccc5F)c5nc(c(-c6c(F)cccc6F)c6ccc3[nH]6)C=C5)C=C4)cc2)cc1OC
REMARK SMILES IDX 21 1 20 2 18 3 19 4 17 6 12 7 13 8 14 9 16 10 15 11 10 12
REMARK SMILES IDX 9 13 11 15 8 16 7 17 6 18 3 19 4 20 83 21 5 22 82 23 2 24
REMARK SMILES IDX 1 25 84 26 85 27 22 28 23 29 24 30 25 31 26 32 27 34 28 35
REMARK SMILES IDX 29 36 81 37 30 38 80 39 31 40 32 41 33 42 74 43 34 44 79 45
REMARK SMILES IDX 73 46 75 47 35 48 78 49 72 50 71 51 36 53 62 54 45 55 61 56
REMARK SMILES IDX 46 57 49 58 60 59 76 60 47 61 48 62 59 64 77 65 50 66 37 67
REMARK SMILES IDX 38 68 43 69 39 70 40 71 42 72 44 73 41 74 63 75 64 76 69 77
REMARK SMILES IDX 65 78 66 79 68 80 70 81 67 82 51 83 52 84 57 85 53 86 54 87
REMARK SMILES IDX 56 88 58 89 55 90
REMARK H PARENT 20 5 9 14 25 33 75 52 49 63
REMARK Flexibility Score: inf
ROOT
ATOM      1  C   UNL A   1      32.850  30.075  25.605  1.00  0.00     0.116 C 
ENDROOT
BRANCH   1   2
ATOM      2  N   UNL A   1      33.522  28.823  25.802  1.00  0.00    -0.351 N 
ATOM      3  C   UNL A   1      33.095  27.542  25.517  1.00  0.00     0.270 C 
ATOM      4  O   UNL A   1      33.930  26.652  25.722  1.00  0.00    -0.267 OA
ATOM      5  H   UNL A   1      34.420  28.888  26.199  1.00  0.00     0.163 HD
BRANCH   3   6
ATOM      6  C   UNL A   1      31.697  27.141  25.078  1.00  0.00     0.140 A 
ATOM      7  C   UNL A   1      31.035  27.431  23.885  1.00  0.00     0.071 A 
ATOM      8  C   UNL A   1      29.801  26.802  23.630  1.00  0.00     0.018 A 
ATOM      9  C   UNL A   1      29.231  25.956  24.573  1.00  0.00     0.021 A 
ATOM     10  N   UNL A   1      31.110  26.328  26.019  1.00  0.00    -0.250 NA
ATOM     11  C   UNL A   1      29.919  25.755  25.750  1.00  0.00     0.112 A 
BRANCH   7  12
ATOM     12  C   UNL A   1      31.587  28.219  22.775  1.00  0.00     0.253 C 
ATOM     13  N   UNL A   1      32.635  27.728  22.015  1.00  0.00    -0.352 N 
ATOM     14  H   UNL A   1      32.948  28.338  21.308  1.00  0.00     0.163 HD
ATOM     15  O   UNL A   1      31.112  29.324  22.536  1.00  0.00    -0.269 OA
BRANCH  13  16
ATOM     16  C   UNL A   1      33.356  26.454  22.085  1.00  0.00     0.121 C 
BRANCH  16  17
ATOM     17  C   UNL A   1      32.511  25.199  21.804  1.00  0.00     0.057 C 
BRANCH  17  18
ATOM     18  C   UNL A   1      32.706  24.014  22.724  1.00  0.00    -0.042 A 
ATOM     19  C   UNL A   1      33.166  21.973  24.622  1.00  0.00     0.160 A 
ATOM     20  C   UNL A   1      31.868  22.428  24.360  1.00  0.00     0.051 A 
ATOM     21  C   UNL A   1      34.243  22.493  23.899  1.00  0.00     0.160 A 
ATOM     22  C   UNL A   1      31.642  23.437  23.418  1.00  0.00     0.008 A 
ATOM     23  C   UNL A   1      33.998  23.515  22.965  1.00  0.00     0.054 A 
BRANCH  19  24
ATOM     24  O   UNL A   1      33.332  20.968  25.538  1.00  0.00    -0.493 OA
ATOM     25  C   UNL A   1      32.964  19.696  25.003  1.00  0.00     0.278 C 
ENDBRANCH  19  24
BRANCH  21  26
ATOM     26  O   UNL A   1      35.568  22.157  23.978  1.00  0.00    -0.493 OA
ATOM     27  C   UNL A   1      36.536  23.194  23.940  1.00  0.00     0.278 C 
ENDBRANCH  21  26
ENDBRANCH  17  18
ENDBRANCH  16  17
ENDBRANCH  13  16
ENDBRANCH   7  12
ENDBRANCH   3   6
ENDBRANCH   1   2
BRANCH   1  28
ATOM     28  C   UNL A   1      31.803  30.452  26.636  1.00  0.00     0.023 C 
BRANCH  28  29
ATOM     29  C   UNL A   1      31.549  31.935  26.874  1.00  0.00     0.023 C 
BRANCH  29  30
ATOM     30  C   UNL A   1      32.722  32.798  27.329  1.00  0.00     0.116 C 
BRANCH  30  31
ATOM     31  N   UNL A   1      32.390  34.178  27.669  1.00  0.00    -0.352 N 
ATOM     32  C   UNL A   1      32.961  35.050  28.574  1.00  0.00     0.251 C 
ATOM     33  H   UNL A   1      31.628  34.549  27.169  1.00  0.00     0.163 HD
ATOM     34  O   UNL A   1      32.480  36.158  28.749  1.00  0.00    -0.269 OA
BRANCH  32  35
ATOM     35  C   UNL A   1      34.134  34.622  29.368  1.00  0.00     0.039 A 
ATOM     36  C   UNL A   1      33.946  34.189  30.684  1.00  0.00     0.014 A 
ATOM     37  C   UNL A   1      35.406  34.599  28.799  1.00  0.00     0.014 A 
ATOM     38  C   UNL A   1      35.010  33.600  31.373  1.00  0.00     0.010 A 
ATOM     39  C   UNL A   1      36.430  33.915  29.441  1.00  0.00     0.010 A 
ATOM     40  C   UNL A   1      36.239  33.392  30.729  1.00  0.00    -0.014 A 
BRANCH  40  41
ATOM     41  C   UNL A   1      37.333  32.607  31.358  1.00  0.00     0.031 A 
ATOM     42  C   UNL A   1      37.890  33.022  32.693  1.00  0.00     0.074 A 
ATOM     43  C   UNL A   1      37.902  31.589  30.681  1.00  0.00     0.049 A 
ATOM     44  N   UNL A   1      38.924  32.551  33.341  1.00  0.00    -0.248 NA
ATOM     45  C   UNL A   1      37.218  34.145  33.368  1.00  0.00     0.031 C 
ATOM     46  C   UNL A   1      37.505  31.127  29.348  1.00  0.00     0.029 A 
ATOM     47  N   UNL A   1      38.949  30.766  31.015  1.00  0.00    -0.354 N 
ATOM     48  C   UNL A   1      39.043  33.335  34.482  1.00  0.00     0.074 A 
ATOM     49  C   UNL A   1      38.012  34.348  34.408  1.00  0.00     0.031 C 
ATOM     50  C   UNL A   1      38.277  30.087  28.993  1.00  0.00     0.029 A 
ATOM     51  C   UNL A   1      39.250  29.835  30.050  1.00  0.00     0.049 A 
ATOM     52  H   UNL A   1      39.439  30.837  31.865  1.00  0.00     0.167 HD
ATOM     53  C   UNL A   1      39.912  33.208  35.512  1.00  0.00     0.037 A 
ATOM     54  C   UNL A   1      40.206  28.887  30.017  1.00  0.00     0.037 A 
ATOM     55  C   UNL A   1      40.908  32.175  35.605  1.00  0.00     0.049 A 
ATOM     56  C   UNL A   1      41.146  28.751  31.183  1.00  0.00     0.074 A 
ATOM     57  C   UNL A   1      41.788  31.918  36.642  1.00  0.00     0.029 A 
ATOM     58  N   UNL A   1      41.153  31.226  34.626  1.00  0.00    -0.354 N 
ATOM     59  N   UNL A   1      41.201  29.457  32.286  1.00  0.00    -0.248 NA
ATOM     60  C   UNL A   1      42.154  27.685  31.101  1.00  0.00     0.031 C 
ATOM     61  C   UNL A   1      42.589  30.831  36.274  1.00  0.00     0.029 A 
ATOM     62  C   UNL A   1      42.179  30.387  35.027  1.00  0.00     0.049 A 
ATOM     63  H   UNL A   1      40.669  31.157  33.771  1.00  0.00     0.167 HD
ATOM     64  C   UNL A   1      42.227  28.905  33.041  1.00  0.00     0.074 A 
ATOM     65  C   UNL A   1      42.760  27.797  32.275  1.00  0.00     0.031 C 
ATOM     66  C   UNL A   1      42.688  29.281  34.258  1.00  0.00     0.037 A 
BRANCH  53  67
ATOM     67  C   UNL A   1      39.807  34.205  36.628  1.00  0.00     0.057 A 
ATOM     68  C   UNL A   1      40.464  35.443  36.575  1.00  0.00     0.134 A 
ATOM     69  C   UNL A   1      39.027  33.937  37.760  1.00  0.00     0.134 A 
ATOM     70  F   UNL A   1      41.238  35.757  35.525  1.00  0.00    -0.206 F 
ATOM     71  C   UNL A   1      40.373  36.364  37.620  1.00  0.00     0.040 A 
ATOM     72  C   UNL A   1      38.906  34.862  38.798  1.00  0.00     0.040 A 
ATOM     73  F   UNL A   1      38.368  32.774  37.874  1.00  0.00    -0.206 F 
ATOM     74  C   UNL A   1      39.587  36.076  38.733  1.00  0.00     0.006 A 
ENDBRANCH  53  67
BRANCH  54  75
ATOM     75  C   UNL A   1      40.306  27.967  28.857  1.00  0.00     0.057 A 
ATOM     76  C   UNL A   1      41.068  28.311  27.732  1.00  0.00     0.134 A 
ATOM     77  C   UNL A   1      39.643  26.735  28.834  1.00  0.00     0.134 A 
ATOM     78  F   UNL A   1      41.711  29.486  27.687  1.00  0.00    -0.206 F 
ATOM     79  C   UNL A   1      41.150  27.472  26.620  1.00  0.00     0.040 A 
ATOM     80  C   UNL A   1      39.736  25.876  27.737  1.00  0.00     0.040 A 
ATOM     81  F   UNL A   1      38.906  26.344  29.882  1.00  0.00    -0.206 F 
ATOM     82  C   UNL A   1      40.484  26.248  26.622  1.00  0.00     0.006 A 
ENDBRANCH  54  75
BRANCH  66  83
ATOM     83  C   UNL A   1      43.797  28.466  34.854  1.00  0.00     0.057 A 
ATOM     84  C   UNL A   1      45.143  28.809  34.678  1.00  0.00     0.134 A 
ATOM     85  C   UNL A   1      43.511  27.348  35.647  1.00  0.00     0.134 A 
ATOM     86  F   UNL A   1      45.482  29.861  33.917  1.00  0.00    -0.206 F 
ATOM     87  C   UNL A   1      46.167  28.057  35.256  1.00  0.00     0.040 A 
ATOM     88  C   UNL A   1      44.524  26.603  36.249  1.00  0.00     0.040 A 
ATOM     89  F   UNL A   1      42.241  26.971  35.860  1.00  0.00    -0.206 F 
ATOM     90  C   UNL A   1      45.857  26.954  36.050  1.00  0.00     0.006 A 
ENDBRANCH  66  83
ENDBRANCH  40  41
ENDBRANCH  32  35
ENDBRANCH  30  31
ENDBRANCH  29  30
ENDBRANCH  28  29
ENDBRANCH   1  28
TORSDOF 17
ENDMDL
