MODEL 1
REMARK VINA RESULT:     -11.8      0.000      0.000
REMARK SMILES CCC[N@@H+]1CC2(CCN(c3nccnc3C)CC2)C[C@H]1C(=O)NCCCCNC(=O)c1ccc(-c2c3nc(c(-c4c(F)cccc4F)c4ccc([nH]4)c(-c4c(F)cccc4F)c4nc(c(-c5c(F)cccc5F)c5ccc2[nH]5)C=C4)C=C3)cc1
REMARK SMILES IDX 25 1 24 2 23 3 21 4 22 5 20 7 4 8 5 9 6 11 19 12 7 13 18 14
REMARK SMILES IDX 8 15 17 16 9 17 3 18 2 19 1 20 10 21 11 22 15 23 12 24 14 25
REMARK SMILES IDX 16 26 13 27 26 28 27 29 28 30 29 31 30 33 31 34 32 35 84 36
REMARK SMILES IDX 33 37 83 38 34 39 35 40 36 41 77 42 37 43 82 44 76 45 78 46
REMARK SMILES IDX 38 47 81 48 75 49 74 50 39 52 65 53 48 54 64 55 49 56 52 57
REMARK SMILES IDX 63 58 79 59 50 60 51 61 62 63 80 64 53 65 40 66 41 67 46 68
REMARK SMILES IDX 42 69 43 70 45 71 47 72 44 73 66 74 67 75 72 76 68 77 69 78
REMARK SMILES IDX 71 79 73 80 70 81 54 82 55 83 60 84 56 85 57 86 59 87 61 88
REMARK SMILES IDX 58 89
REMARK H PARENT 23 6 4 10 28 32 78 51 52 62
REMARK Flexibility Score: inf
ROOT
ATOM      1  C   UNL A   1      36.761  22.364  25.624  1.00  0.00     0.023 C 
ENDROOT
BRANCH   1   2
ATOM      2  C   UNL A   1      35.551  21.544  26.042  1.00  0.00     0.116 C 
BRANCH   2   3
ATOM      3  N   UNL A   1      34.502  22.265  26.701  1.00  0.00    -0.351 N 
ATOM      4  C   UNL A   1      33.578  23.121  26.184  1.00  0.00     0.278 C 
ATOM      5  O   UNL A   1      32.671  23.451  26.964  1.00  0.00    -0.268 OA
ATOM      6  H   UNL A   1      34.443  22.121  27.674  1.00  0.00     0.163 HD
BRANCH   4   7
ATOM      7  C   UNL A   1      33.569  23.688  24.732  1.00  0.00     0.274 C 
ATOM      8  N   UNL A   1      32.439  23.207  23.925  1.00  0.00    -0.324 N 
ATOM      9  C   UNL A   1      31.573  24.346  23.574  1.00  0.00     0.270 C 
ATOM     10  H   UNL A   1      31.887  22.557  24.483  1.00  0.00     0.348 HD
ATOM     11  C   UNL A   1      32.306  25.665  23.920  1.00  0.00     0.029 C 
ATOM     12  C   UNL A   1      33.660  25.194  24.496  1.00  0.00     0.088 C 
ATOM     13  C   UNL A   1      31.664  26.603  24.984  1.00  0.00     0.034 C 
ATOM     14  C   UNL A   1      32.413  26.513  22.614  1.00  0.00     0.034 C 
ATOM     15  C   UNL A   1      30.327  27.186  24.556  1.00  0.00     0.119 C 
ATOM     16  C   UNL A   1      31.055  27.140  22.210  1.00  0.00     0.119 C 
ATOM     17  N   UNL A   1      30.587  27.930  23.337  1.00  0.00    -0.355 N 
BRANCH   8  18
ATOM     18  C   UNL A   1      32.862  22.389  22.769  1.00  0.00     0.262 C 
BRANCH  18  19
ATOM     19  C   UNL A   1      32.046  21.142  22.351  1.00  0.00     0.058 C 
ATOM     20  C   UNL A   1      32.248  19.886  23.194  1.00  0.00     0.010 C 
ENDBRANCH  18  19
ENDBRANCH   8  18
BRANCH  17  21
ATOM     21  C   UNL A   1      29.788  29.035  23.103  1.00  0.00     0.150 A 
ATOM     22  N   UNL A   1      28.902  28.982  22.081  1.00  0.00    -0.236 NA
ATOM     23  C   UNL A   1      29.894  30.200  23.898  1.00  0.00     0.080 A 
ATOM     24  C   UNL A   1      28.134  30.080  21.892  1.00  0.00     0.133 A 
ATOM     25  N   UNL A   1      29.120  31.303  23.688  1.00  0.00    -0.256 NA
ATOM     26  C   UNL A   1      30.969  30.368  24.931  1.00  0.00     0.071 C 
ATOM     27  C   UNL A   1      28.238  31.212  22.676  1.00  0.00     0.131 A 
ENDBRANCH  17  21
ENDBRANCH   4   7
ENDBRANCH   2   3
ENDBRANCH   1   2
BRANCH   1  28
ATOM     28  C   UNL A   1      37.942  21.551  25.107  1.00  0.00     0.023 C 
BRANCH  28  29
ATOM     29  C   UNL A   1      39.057  21.266  26.111  1.00  0.00     0.116 C 
BRANCH  29  30
ATOM     30  N   UNL A   1      39.786  20.024  25.885  1.00  0.00    -0.352 N 
ATOM     31  C   UNL A   1      41.131  19.782  26.098  1.00  0.00     0.251 C 
ATOM     32  H   UNL A   1      39.258  19.268  25.540  1.00  0.00     0.163 HD
ATOM     33  O   UNL A   1      41.630  18.703  25.850  1.00  0.00    -0.269 OA
BRANCH  31  34
ATOM     34  C   UNL A   1      41.961  20.905  26.584  1.00  0.00     0.039 A 
ATOM     35  C   UNL A   1      42.441  21.831  25.656  1.00  0.00     0.014 A 
ATOM     36  C   UNL A   1      42.116  21.115  27.956  1.00  0.00     0.014 A 
ATOM     37  C   UNL A   1      42.978  23.037  26.110  1.00  0.00     0.010 A 
ATOM     38  C   UNL A   1      42.594  22.342  28.404  1.00  0.00     0.010 A 
ATOM     39  C   UNL A   1      42.997  23.325  27.484  1.00  0.00    -0.014 A 
BRANCH  39  40
ATOM     40  C   UNL A   1      43.371  24.669  27.990  1.00  0.00     0.031 A 
ATOM     41  C   UNL A   1      42.308  25.690  28.270  1.00  0.00     0.074 A 
ATOM     42  C   UNL A   1      44.673  25.002  28.090  1.00  0.00     0.049 A 
ATOM     43  N   UNL A   1      42.439  26.954  28.581  1.00  0.00    -0.248 NA
ATOM     44  C   UNL A   1      40.914  25.236  28.155  1.00  0.00     0.031 C 
ATOM     45  C   UNL A   1      45.802  24.115  27.797  1.00  0.00     0.029 A 
ATOM     46  N   UNL A   1      45.268  26.189  28.443  1.00  0.00    -0.354 N 
ATOM     47  C   UNL A   1      41.147  27.451  28.679  1.00  0.00     0.074 A 
ATOM     48  C   UNL A   1      40.248  26.363  28.355  1.00  0.00     0.031 C 
ATOM     49  C   UNL A   1      46.950  24.784  27.995  1.00  0.00     0.029 A 
ATOM     50  C   UNL A   1      46.641  26.155  28.387  1.00  0.00     0.049 A 
ATOM     51  H   UNL A   1      44.759  26.988  28.710  1.00  0.00     0.167 HD
ATOM     52  C   UNL A   1      40.747  28.697  29.026  1.00  0.00     0.037 A 
ATOM     53  C   UNL A   1      47.548  27.125  28.609  1.00  0.00     0.037 A 
ATOM     54  C   UNL A   1      41.640  29.766  29.380  1.00  0.00     0.049 A 
ATOM     55  C   UNL A   1      47.077  28.503  28.978  1.00  0.00     0.074 A 
ATOM     56  C   UNL A   1      41.328  31.036  29.832  1.00  0.00     0.029 A 
ATOM     57  N   UNL A   1      43.023  29.691  29.317  1.00  0.00    -0.354 N 
ATOM     58  N   UNL A   1      45.852  28.942  29.134  1.00  0.00    -0.248 NA
ATOM     59  C   UNL A   1      48.114  29.524  29.191  1.00  0.00     0.031 C 
ATOM     60  C   UNL A   1      42.523  31.743  30.009  1.00  0.00     0.029 A 
ATOM     61  C   UNL A   1      43.578  30.903  29.696  1.00  0.00     0.049 A 
ATOM     62  H   UNL A   1      43.535  28.895  29.044  1.00  0.00     0.167 HD
ATOM     63  C   UNL A   1      45.969  30.282  29.476  1.00  0.00     0.074 A 
ATOM     64  C   UNL A   1      47.385  30.582  29.520  1.00  0.00     0.031 C 
ATOM     65  C   UNL A   1      44.990  31.185  29.727  1.00  0.00     0.037 A 
BRANCH  52  66
ATOM     66  C   UNL A   1      39.272  28.963  29.045  1.00  0.00     0.057 A 
ATOM     67  C   UNL A   1      38.513  28.814  30.211  1.00  0.00     0.134 A 
ATOM     68  C   UNL A   1      38.610  29.399  27.891  1.00  0.00     0.134 A 
ATOM     69  F   UNL A   1      39.087  28.385  31.347  1.00  0.00    -0.206 F 
ATOM     70  C   UNL A   1      37.140  29.064  30.225  1.00  0.00     0.040 A 
ATOM     71  C   UNL A   1      37.242  29.675  27.898  1.00  0.00     0.040 A 
ATOM     72  F   UNL A   1      39.281  29.566  26.741  1.00  0.00    -0.206 F 
ATOM     73  C   UNL A   1      36.503  29.502  29.066  1.00  0.00     0.006 A 
ENDBRANCH  52  66
BRANCH  53  74
ATOM     74  C   UNL A   1      48.997  26.830  28.488  1.00  0.00     0.057 A 
ATOM     75  C   UNL A   1      49.747  26.451  29.607  1.00  0.00     0.134 A 
ATOM     76  C   UNL A   1      49.666  26.928  27.262  1.00  0.00     0.134 A 
ATOM     77  F   UNL A   1      49.165  26.361  30.810  1.00  0.00    -0.206 F 
ATOM     78  C   UNL A   1      51.115  26.190  29.514  1.00  0.00     0.040 A 
ATOM     79  C   UNL A   1      51.030  26.652  27.151  1.00  0.00     0.040 A 
ATOM     80  F   UNL A   1      49.001  27.285  26.154  1.00  0.00    -0.206 F 
ATOM     81  C   UNL A   1      51.759  26.287  28.282  1.00  0.00     0.006 A 
ENDBRANCH  53  74
BRANCH  65  82
ATOM     82  C   UNL A   1      45.417  32.578  30.075  1.00  0.00     0.057 A 
ATOM     83  C   UNL A   1      45.704  32.946  31.394  1.00  0.00     0.134 A 
ATOM     84  C   UNL A   1      45.590  33.544  29.076  1.00  0.00     0.134 A 
ATOM     85  F   UNL A   1      45.541  32.068  32.395  1.00  0.00    -0.206 F 
ATOM     86  C   UNL A   1      46.139  34.233  31.711  1.00  0.00     0.040 A 
ATOM     87  C   UNL A   1      46.044  34.829  29.379  1.00  0.00     0.040 A 
ATOM     88  F   UNL A   1      45.336  33.252  27.792  1.00  0.00    -0.206 F 
ATOM     89  C   UNL A   1      46.318  35.177  30.700  1.00  0.00     0.006 A 
ENDBRANCH  65  82
ENDBRANCH  39  40
ENDBRANCH  31  34
ENDBRANCH  29  30
ENDBRANCH  28  29
ENDBRANCH   1  28
TORSDOF 14
ENDMDL
MODEL 2
REMARK VINA RESULT:     -11.8      1.010      6.110
REMARK SMILES CCC[N@@H+]1CC2(CCN(c3nccnc3C)CC2)C[C@H]1C(=O)NCCCCNC(=O)c1ccc(-c2c3nc(c(-c4c(F)cccc4F)c4ccc([nH]4)c(-c4c(F)cccc4F)c4nc(c(-c5c(F)cccc5F)c5ccc2[nH]5)C=C4)C=C3)cc1
REMARK SMILES IDX 25 1 24 2 23 3 21 4 22 5 20 7 4 8 5 9 6 11 19 12 7 13 18 14
REMARK SMILES IDX 8 15 17 16 9 17 3 18 2 19 1 20 10 21 11 22 15 23 12 24 14 25
REMARK SMILES IDX 16 26 13 27 26 28 27 29 28 30 29 31 30 33 31 34 32 35 84 36
REMARK SMILES IDX 33 37 83 38 34 39 35 40 36 41 77 42 37 43 82 44 76 45 78 46
REMARK SMILES IDX 38 47 81 48 75 49 74 50 39 52 65 53 48 54 64 55 49 56 52 57
REMARK SMILES IDX 63 58 79 59 50 60 51 61 62 63 80 64 53 65 40 66 41 67 46 68
REMARK SMILES IDX 42 69 43 70 45 71 47 72 44 73 66 74 67 75 72 76 68 77 69 78
REMARK SMILES IDX 71 79 73 80 70 81 54 82 55 83 60 84 56 85 57 86 59 87 61 88
REMARK SMILES IDX 58 89
REMARK H PARENT 23 6 4 10 28 32 78 51 52 62
REMARK Flexibility Score: inf
ROOT
ATOM      1  C   UNL A   1      36.560  22.143  25.378  1.00  0.00     0.023 C 
ENDROOT
BRANCH   1   2
ATOM      2  C   UNL A   1      35.383  21.427  26.022  1.00  0.00     0.116 C 
BRANCH   2   3
ATOM      3  N   UNL A   1      34.444  22.262  26.711  1.00  0.00    -0.351 N 
ATOM      4  C   UNL A   1      33.585  23.197  26.217  1.00  0.00     0.278 C 
ATOM      5  O   UNL A   1      32.753  23.629  27.030  1.00  0.00    -0.268 OA
ATOM      6  H   UNL A   1      34.417  22.143  27.688  1.00  0.00     0.163 HD
BRANCH   4   7
ATOM      7  C   UNL A   1      33.562  23.735  24.754  1.00  0.00     0.274 C 
ATOM      8  N   UNL A   1      32.418  23.249  23.971  1.00  0.00    -0.324 N 
ATOM      9  C   UNL A   1      31.559  24.389  23.609  1.00  0.00     0.270 C 
ATOM     10  H   UNL A   1      31.866  22.615  24.550  1.00  0.00     0.348 HD
ATOM     11  C   UNL A   1      32.309  25.707  23.919  1.00  0.00     0.029 C 
ATOM     12  C   UNL A   1      33.666  25.234  24.487  1.00  0.00     0.088 C 
ATOM     13  C   UNL A   1      31.690  26.673  24.972  1.00  0.00     0.034 C 
ATOM     14  C   UNL A   1      32.407  26.529  22.595  1.00  0.00     0.034 C 
ATOM     15  C   UNL A   1      30.353  27.261  24.550  1.00  0.00     0.119 C 
ATOM     16  C   UNL A   1      31.050  27.160  22.196  1.00  0.00     0.119 C 
ATOM     17  N   UNL A   1      30.605  27.977  23.313  1.00  0.00    -0.355 N 
BRANCH   8  18
ATOM     18  C   UNL A   1      32.818  22.404  22.826  1.00  0.00     0.262 C 
BRANCH  18  19
ATOM     19  C   UNL A   1      31.987  21.154  22.447  1.00  0.00     0.058 C 
ATOM     20  C   UNL A   1      32.357  19.853  23.156  1.00  0.00     0.010 C 
ENDBRANCH  18  19
ENDBRANCH   8  18
BRANCH  17  21
ATOM     21  C   UNL A   1      29.814  29.086  23.067  1.00  0.00     0.150 A 
ATOM     22  N   UNL A   1      28.952  29.041  22.024  1.00  0.00    -0.236 NA
ATOM     23  C   UNL A   1      29.903  30.246  23.872  1.00  0.00     0.080 A 
ATOM     24  C   UNL A   1      28.191  30.142  21.824  1.00  0.00     0.133 A 
ATOM     25  N   UNL A   1      29.137  31.351  23.651  1.00  0.00    -0.256 NA
ATOM     26  C   UNL A   1      30.954  30.405  24.931  1.00  0.00     0.071 C 
ATOM     27  C   UNL A   1      28.279  31.268  22.617  1.00  0.00     0.131 A 
ENDBRANCH  17  21
ENDBRANCH   4   7
ENDBRANCH   2   3
ENDBRANCH   1   2
BRANCH   1  28
ATOM     28  C   UNL A   1      37.695  21.233  24.920  1.00  0.00     0.023 C 
BRANCH  28  29
ATOM     29  C   UNL A   1      38.929  21.188  25.819  1.00  0.00     0.116 C 
BRANCH  29  30
ATOM     30  N   UNL A   1      39.738  19.983  25.692  1.00  0.00    -0.352 N 
ATOM     31  C   UNL A   1      41.064  19.813  26.051  1.00  0.00     0.251 C 
ATOM     32  H   UNL A   1      39.289  19.197  25.305  1.00  0.00     0.163 HD
ATOM     33  O   UNL A   1      41.640  18.759  25.875  1.00  0.00    -0.269 OA
BRANCH  31  34
ATOM     34  C   UNL A   1      41.780  20.983  26.604  1.00  0.00     0.039 A 
ATOM     35  C   UNL A   1      42.377  21.881  25.717  1.00  0.00     0.014 A 
ATOM     36  C   UNL A   1      41.712  21.259  27.971  1.00  0.00     0.014 A 
ATOM     37  C   UNL A   1      42.806  23.122  26.189  1.00  0.00     0.010 A 
ATOM     38  C   UNL A   1      42.084  22.520  28.427  1.00  0.00     0.010 A 
ATOM     39  C   UNL A   1      42.602  23.473  27.534  1.00  0.00    -0.014 A 
BRANCH  39  40
ATOM     40  C   UNL A   1      42.859  24.849  28.024  1.00  0.00     0.031 A 
ATOM     41  C   UNL A   1      44.230  25.237  28.494  1.00  0.00     0.074 A 
ATOM     42  C   UNL A   1      41.832  25.713  28.149  1.00  0.00     0.049 A 
ATOM     43  N   UNL A   1      44.621  26.337  29.082  1.00  0.00    -0.248 NA
ATOM     44  C   UNL A   1      45.296  24.241  28.302  1.00  0.00     0.031 C 
ATOM     45  C   UNL A   1      40.441  25.439  27.776  1.00  0.00     0.029 A 
ATOM     46  N   UNL A   1      41.794  26.991  28.649  1.00  0.00    -0.354 N 
ATOM     47  C   UNL A   1      45.970  26.160  29.350  1.00  0.00     0.074 A 
ATOM     48  C   UNL A   1      46.322  24.831  28.897  1.00  0.00     0.031 C 
ATOM     49  C   UNL A   1      39.692  26.520  28.048  1.00  0.00     0.029 A 
ATOM     50  C   UNL A   1      40.535  27.545  28.651  1.00  0.00     0.049 A 
ATOM     51  H   UNL A   1      42.592  27.466  28.975  1.00  0.00     0.167 HD
ATOM     52  C   UNL A   1      46.842  27.034  29.907  1.00  0.00     0.037 A 
ATOM     53  C   UNL A   1      40.108  28.738  29.104  1.00  0.00     0.037 A 
ATOM     54  C   UNL A   1      46.498  28.366  30.325  1.00  0.00     0.049 A 
ATOM     55  C   UNL A   1      41.092  29.684  29.732  1.00  0.00     0.074 A 
ATOM     56  C   UNL A   1      47.330  29.357  30.817  1.00  0.00     0.029 A 
ATOM     57  N   UNL A   1      45.216  28.892  30.305  1.00  0.00    -0.354 N 
ATOM     58  N   UNL A   1      42.381  29.530  29.917  1.00  0.00    -0.248 NA
ATOM     59  C   UNL A   1      40.562  30.965  30.223  1.00  0.00     0.031 C 
ATOM     60  C   UNL A   1      46.545  30.472  31.128  1.00  0.00     0.029 A 
ATOM     61  C   UNL A   1      45.229  30.185  30.802  1.00  0.00     0.049 A 
ATOM     62  H   UNL A   1      44.415  28.418  29.985  1.00  0.00     0.167 HD
ATOM     63  C   UNL A   1      42.818  30.695  30.532  1.00  0.00     0.074 A 
ATOM     64  C   UNL A   1      41.661  31.554  30.675  1.00  0.00     0.031 C 
ATOM     65  C   UNL A   1      44.067  31.022  30.944  1.00  0.00     0.037 A 
BRANCH  52  66
ATOM     66  C   UNL A   1      48.256  26.573  30.086  1.00  0.00     0.057 A 
ATOM     67  C   UNL A   1      48.669  25.900  31.243  1.00  0.00     0.134 A 
ATOM     68  C   UNL A   1      49.209  26.779  29.081  1.00  0.00     0.134 A 
ATOM     69  F   UNL A   1      47.807  25.684  32.248  1.00  0.00    -0.206 F 
ATOM     70  C   UNL A   1      49.987  25.470  31.405  1.00  0.00     0.040 A 
ATOM     71  C   UNL A   1      50.524  26.334  29.222  1.00  0.00     0.040 A 
ATOM     72  F   UNL A   1      48.876  27.414  27.947  1.00  0.00    -0.206 F 
ATOM     73  C   UNL A   1      50.917  25.683  30.389  1.00  0.00     0.006 A 
ENDBRANCH  52  66
BRANCH  53  74
ATOM     74  C   UNL A   1      38.676  29.111  28.983  1.00  0.00     0.057 A 
ATOM     75  C   UNL A   1      37.808  28.987  30.073  1.00  0.00     0.134 A 
ATOM     76  C   UNL A   1      38.143  29.588  27.780  1.00  0.00     0.134 A 
ATOM     77  F   UNL A   1      38.259  28.515  31.244  1.00  0.00    -0.206 F 
ATOM     78  C   UNL A   1      36.455  29.313  29.969  1.00  0.00     0.040 A 
ATOM     79  C   UNL A   1      36.795  29.936  27.667  1.00  0.00     0.040 A 
ATOM     80  F   UNL A   1      38.925  29.731  26.701  1.00  0.00    -0.206 F 
ATOM     81  C   UNL A   1      35.946  29.793  28.764  1.00  0.00     0.006 A 
ENDBRANCH  53  74
BRANCH  65  82
ATOM     82  C   UNL A   1      44.245  32.364  31.586  1.00  0.00     0.057 A 
ATOM     83  C   UNL A   1      44.502  33.510  30.824  1.00  0.00     0.134 A 
ATOM     84  C   UNL A   1      44.110  32.520  32.971  1.00  0.00     0.134 A 
ATOM     85  F   UNL A   1      44.658  33.421  29.494  1.00  0.00    -0.206 F 
ATOM     86  C   UNL A   1      44.629  34.765  31.419  1.00  0.00     0.040 A 
ATOM     87  C   UNL A   1      44.215  33.774  33.575  1.00  0.00     0.040 A 
ATOM     88  F   UNL A   1      43.858  31.462  33.755  1.00  0.00    -0.206 F 
ATOM     89  C   UNL A   1      44.477  34.900  32.798  1.00  0.00     0.006 A 
ENDBRANCH  65  82
ENDBRANCH  39  40
ENDBRANCH  31  34
ENDBRANCH  29  30
ENDBRANCH  28  29
ENDBRANCH   1  28
TORSDOF 14
ENDMDL
MODEL 3
REMARK VINA RESULT:     -11.7      4.762      6.489
REMARK SMILES CCC[N@@H+]1CC2(CCN(c3nccnc3C)CC2)C[C@H]1C(=O)NCCCCNC(=O)c1ccc(-c2c3nc(c(-c4c(F)cccc4F)c4ccc([nH]4)c(-c4c(F)cccc4F)c4nc(c(-c5c(F)cccc5F)c5ccc2[nH]5)C=C4)C=C3)cc1
REMARK SMILES IDX 25 1 24 2 23 3 21 4 22 5 20 7 4 8 5 9 6 11 19 12 7 13 18 14
REMARK SMILES IDX 8 15 17 16 9 17 3 18 2 19 1 20 10 21 11 22 15 23 12 24 14 25
REMARK SMILES IDX 16 26 13 27 26 28 27 29 28 30 29 31 30 33 31 34 32 35 84 36
REMARK SMILES IDX 33 37 83 38 34 39 35 40 36 41 77 42 37 43 82 44 76 45 78 46
REMARK SMILES IDX 38 47 81 48 75 49 74 50 39 52 65 53 48 54 64 55 49 56 52 57
REMARK SMILES IDX 63 58 79 59 50 60 51 61 62 63 80 64 53 65 40 66 41 67 46 68
REMARK SMILES IDX 42 69 43 70 45 71 47 72 44 73 66 74 67 75 72 76 68 77 69 78
REMARK SMILES IDX 71 79 73 80 70 81 54 82 55 83 60 84 56 85 57 86 59 87 61 88
REMARK SMILES IDX 58 89
REMARK H PARENT 23 6 4 10 28 32 78 51 52 62
REMARK Flexibility Score: inf
ROOT
ATOM      1  C   UNL A   1      38.565  22.944  26.216  1.00  0.00     0.023 C 
ENDROOT
BRANCH   1   2
ATOM      2  C   UNL A   1      37.636  22.040  25.422  1.00  0.00     0.116 C 
BRANCH   2   3
ATOM      3  N   UNL A   1      36.383  21.727  26.044  1.00  0.00    -0.351 N 
ATOM      4  C   UNL A   1      35.116  22.034  25.649  1.00  0.00     0.278 C 
ATOM      5  O   UNL A   1      34.215  21.467  26.285  1.00  0.00    -0.268 OA
ATOM      6  H   UNL A   1      36.449  21.215  26.882  1.00  0.00     0.163 HD
BRANCH   4   7
ATOM      7  C   UNL A   1      34.729  23.003  24.490  1.00  0.00     0.274 C 
ATOM      8  N   UNL A   1      33.288  23.022  24.203  1.00  0.00    -0.324 N 
ATOM      9  C   UNL A   1      32.753  24.363  24.499  1.00  0.00     0.270 C 
ATOM     10  H   UNL A   1      32.819  22.358  24.819  1.00  0.00     0.348 HD
ATOM     11  C   UNL A   1      33.932  25.342  24.718  1.00  0.00     0.029 C 
ATOM     12  C   UNL A   1      35.185  24.460  24.523  1.00  0.00     0.088 C 
ATOM     13  C   UNL A   1      34.071  26.024  26.111  1.00  0.00     0.034 C 
ATOM     14  C   UNL A   1      33.789  26.506  23.687  1.00  0.00     0.034 C 
ATOM     15  C   UNL A   1      32.923  26.963  26.447  1.00  0.00     0.119 C 
ATOM     16  C   UNL A   1      32.647  27.482  24.062  1.00  0.00     0.119 C 
ATOM     17  N   UNL A   1      32.914  27.972  25.404  1.00  0.00    -0.355 N 
BRANCH   8  18
ATOM     18  C   UNL A   1      32.962  22.525  22.851  1.00  0.00     0.262 C 
BRANCH  18  19
ATOM     19  C   UNL A   1      32.272  21.151  22.667  1.00  0.00     0.058 C 
ATOM     20  C   UNL A   1      32.343  20.192  23.853  1.00  0.00     0.010 C 
ENDBRANCH  18  19
ENDBRANCH   8  18
BRANCH  17  21
ATOM     21  C   UNL A   1      32.472  29.233  25.764  1.00  0.00     0.150 A 
ATOM     22  N   UNL A   1      31.368  29.725  25.155  1.00  0.00    -0.236 NA
ATOM     23  C   UNL A   1      33.154  30.001  26.737  1.00  0.00     0.080 A 
ATOM     24  C   UNL A   1      30.964  30.956  25.543  1.00  0.00     0.133 A 
ATOM     25  N   UNL A   1      32.740  31.245  27.110  1.00  0.00    -0.256 NA
ATOM     26  C   UNL A   1      34.469  29.570  27.317  1.00  0.00     0.071 C 
ATOM     27  C   UNL A   1      31.631  31.698  26.497  1.00  0.00     0.131 A 
ENDBRANCH  17  21
ENDBRANCH   4   7
ENDBRANCH   2   3
ENDBRANCH   1   2
BRANCH   1  28
ATOM     28  C   UNL A   1      39.831  22.270  26.735  1.00  0.00     0.023 C 
BRANCH  28  29
ATOM     29  C   UNL A   1      41.064  23.161  26.867  1.00  0.00     0.116 C 
BRANCH  29  30
ATOM     30  N   UNL A   1      41.204  24.174  25.828  1.00  0.00    -0.352 N 
ATOM     31  C   UNL A   1      41.310  25.544  25.993  1.00  0.00     0.251 C 
ATOM     32  H   UNL A   1      41.227  23.845  24.901  1.00  0.00     0.163 HD
ATOM     33  O   UNL A   1      41.401  26.293  25.042  1.00  0.00    -0.269 OA
BRANCH  31  34
ATOM     34  C   UNL A   1      41.244  26.076  27.371  1.00  0.00     0.039 A 
ATOM     35  C   UNL A   1      42.323  26.821  27.852  1.00  0.00     0.014 A 
ATOM     36  C   UNL A   1      40.061  25.968  28.105  1.00  0.00     0.014 A 
ATOM     37  C   UNL A   1      42.171  27.562  29.025  1.00  0.00     0.010 A 
ATOM     38  C   UNL A   1      39.892  26.755  29.239  1.00  0.00     0.010 A 
ATOM     39  C   UNL A   1      40.933  27.584  29.688  1.00  0.00    -0.014 A 
BRANCH  39  40
ATOM     40  C   UNL A   1      40.675  28.511  30.817  1.00  0.00     0.031 A 
ATOM     41  C   UNL A   1      39.624  29.575  30.692  1.00  0.00     0.074 A 
ATOM     42  C   UNL A   1      41.462  28.463  31.910  1.00  0.00     0.049 A 
ATOM     43  N   UNL A   1      39.347  30.561  31.505  1.00  0.00    -0.248 NA
ATOM     44  C   UNL A   1      38.798  29.541  29.475  1.00  0.00     0.031 C 
ATOM     45  C   UNL A   1      42.552  27.509  32.131  1.00  0.00     0.029 A 
ATOM     46  N   UNL A   1      41.483  29.253  33.033  1.00  0.00    -0.354 N 
ATOM     47  C   UNL A   1      38.329  31.277  30.891  1.00  0.00     0.074 A 
ATOM     48  C   UNL A   1      38.066  30.637  29.620  1.00  0.00     0.031 C 
ATOM     49  C   UNL A   1      43.124  27.762  33.320  1.00  0.00     0.029 A 
ATOM     50  C   UNL A   1      42.473  28.918  33.925  1.00  0.00     0.049 A 
ATOM     51  H   UNL A   1      40.849  29.991  33.184  1.00  0.00     0.167 HD
ATOM     52  C   UNL A   1      37.661  32.360  31.355  1.00  0.00     0.037 A 
ATOM     53  C   UNL A   1      42.828  29.490  35.092  1.00  0.00     0.037 A 
ATOM     54  C   UNL A   1      37.901  32.974  32.632  1.00  0.00     0.049 A 
ATOM     55  C   UNL A   1      42.081  30.699  35.577  1.00  0.00     0.074 A 
ATOM     56  C   UNL A   1      37.216  34.018  33.228  1.00  0.00     0.029 A 
ATOM     57  N   UNL A   1      38.907  32.601  33.509  1.00  0.00    -0.354 N 
ATOM     58  N   UNL A   1      41.074  31.326  35.017  1.00  0.00    -0.248 NA
ATOM     59  C   UNL A   1      42.525  31.289  36.849  1.00  0.00     0.031 C 
ATOM     60  C   UNL A   1      37.831  34.302  34.453  1.00  0.00     0.029 A 
ATOM     61  C   UNL A   1      38.880  33.414  34.631  1.00  0.00     0.049 A 
ATOM     62  H   UNL A   1      39.547  31.868  33.358  1.00  0.00     0.167 HD
ATOM     63  C   UNL A   1      40.756  32.372  35.872  1.00  0.00     0.074 A 
ATOM     64  C   UNL A   1      41.666  32.288  36.996  1.00  0.00     0.031 C 
ATOM     65  C   UNL A   1      39.798  33.320  35.736  1.00  0.00     0.037 A 
BRANCH  52  66
ATOM     66  C   UNL A   1      36.601  32.942  30.470  1.00  0.00     0.057 A 
ATOM     67  C   UNL A   1      36.919  33.773  29.390  1.00  0.00     0.134 A 
ATOM     68  C   UNL A   1      35.249  32.648  30.686  1.00  0.00     0.134 A 
ATOM     69  F   UNL A   1      38.196  34.105  29.139  1.00  0.00    -0.206 F 
ATOM     70  C   UNL A   1      35.929  34.312  28.568  1.00  0.00     0.040 A 
ATOM     71  C   UNL A   1      34.251  33.162  29.857  1.00  0.00     0.040 A 
ATOM     72  F   UNL A   1      34.878  31.855  31.703  1.00  0.00    -0.206 F 
ATOM     73  C   UNL A   1      34.590  34.002  28.798  1.00  0.00     0.006 A 
ENDBRANCH  52  66
BRANCH  53  74
ATOM     74  C   UNL A   1      43.947  28.925  35.887  1.00  0.00     0.057 A 
ATOM     75  C   UNL A   1      43.727  27.885  36.797  1.00  0.00     0.134 A 
ATOM     76  C   UNL A   1      45.253  29.414  35.764  1.00  0.00     0.134 A 
ATOM     77  F   UNL A   1      42.494  27.392  36.971  1.00  0.00    -0.206 F 
ATOM     78  C   UNL A   1      44.765  27.358  37.567  1.00  0.00     0.040 A 
ATOM     79  C   UNL A   1      46.304  28.883  36.514  1.00  0.00     0.040 A 
ATOM     80  F   UNL A   1      45.527  30.408  34.907  1.00  0.00    -0.206 F 
ATOM     81  C   UNL A   1      46.059  27.855  37.423  1.00  0.00     0.006 A 
ENDBRANCH  53  74
BRANCH  65  82
ATOM     82  C   UNL A   1      39.683  34.338  36.829  1.00  0.00     0.057 A 
ATOM     83  C   UNL A   1      40.268  35.604  36.713  1.00  0.00     0.134 A 
ATOM     84  C   UNL A   1      38.940  34.068  37.985  1.00  0.00     0.134 A 
ATOM     85  F   UNL A   1      41.006  35.916  35.637  1.00  0.00    -0.206 F 
ATOM     86  C   UNL A   1      40.127  36.565  37.715  1.00  0.00     0.040 A 
ATOM     87  C   UNL A   1      38.775  35.028  38.984  1.00  0.00     0.040 A 
ATOM     88  F   UNL A   1      38.350  32.875  38.153  1.00  0.00    -0.206 F 
ATOM     89  C   UNL A   1      39.372  36.280  38.852  1.00  0.00     0.006 A 
ENDBRANCH  65  82
ENDBRANCH  39  40
ENDBRANCH  31  34
ENDBRANCH  29  30
ENDBRANCH  28  29
ENDBRANCH   1  28
TORSDOF 14
ENDMDL
