MODEL 1
REMARK VINA RESULT:     -10.5      0.000      0.000
REMARK SMILES CC[C@H]([NH2+][C@@H](C)c1c(C)noc1C)C(=O)NCCCCNC(=O)c1ccc(-c2c3nc(c(-c4c(F)cccc4F)c4ccc([nH]4)c(-c4c(F)cccc4F)c4nc(c(-c5c(F)cccc5F)c5ccc2[nH]5)C=C4)C=C3)cc1
REMARK SMILES IDX 18 1 17 2 16 3 14 4 15 5 3 7 2 8 1 9 4 10 5 13 6 14 7 15
REMARK SMILES IDX 8 16 12 17 9 18 10 19 11 20 13 21 19 22 20 23 21 24 22 25
REMARK SMILES IDX 23 27 24 28 25 29 77 30 26 31 76 32 27 33 28 34 29 35 70 36
REMARK SMILES IDX 30 37 75 38 69 39 71 40 31 41 74 42 68 43 67 44 32 46 58 47
REMARK SMILES IDX 41 48 57 49 42 50 45 51 56 52 72 53 43 54 44 55 55 57 73 58
REMARK SMILES IDX 46 59 33 60 34 61 39 62 35 63 36 64 38 65 40 66 37 67 59 68
REMARK SMILES IDX 60 69 65 70 61 71 62 72 64 73 66 74 63 75 47 76 48 77 53 78
REMARK SMILES IDX 49 79 50 80 52 81 54 82 51 83
REMARK H PARENT 16 6 4 11 4 12 21 26 71 45 45 56
REMARK Flexibility Score: inf
ROOT
ATOM      1  C   UNL A   1      39.010  22.646  26.332  1.00  0.00     0.023 C 
ENDROOT
BRANCH   1   2
ATOM      2  C   UNL A   1      37.834  23.514  25.896  1.00  0.00     0.116 C 
BRANCH   2   3
ATOM      3  N   UNL A   1      37.575  23.435  24.474  1.00  0.00    -0.351 N 
ATOM      4  C   UNL A   1      36.461  22.996  23.823  1.00  0.00     0.278 C 
ATOM      5  O   UNL A   1      36.466  23.037  22.590  1.00  0.00    -0.268 OA
ATOM      6  H   UNL A   1      38.309  23.740  23.894  1.00  0.00     0.163 HD
BRANCH   4   7
ATOM      7  C   UNL A   1      35.235  22.469  24.592  1.00  0.00     0.272 C 
BRANCH   7   8
ATOM      8  C   UNL A   1      35.379  20.949  24.880  1.00  0.00     0.072 C 
ATOM      9  C   UNL A   1      34.096  20.122  24.871  1.00  0.00     0.011 C 
ENDBRANCH   7   8
BRANCH   7  10
ATOM     10  N   UNL A   1      33.947  22.846  23.987  1.00  0.00    -0.330 N 
ATOM     11  H   UNL A   1      33.246  22.203  24.358  1.00  0.00     0.347 HD
ATOM     12  H   UNL A   1      34.135  22.804  22.985  1.00  0.00     0.347 HD
BRANCH  10  13
ATOM     13  C   UNL A   1      33.421  24.197  24.175  1.00  0.00     0.216 C 
ATOM     14  C   UNL A   1      32.737  24.548  22.841  1.00  0.00     0.081 C 
BRANCH  13  15
ATOM     15  C   UNL A   1      32.493  24.422  25.336  1.00  0.00     0.074 A 
ATOM     16  C   UNL A   1      31.467  23.646  25.966  1.00  0.00     0.090 A 
ATOM     17  C   UNL A   1      32.488  25.588  26.096  1.00  0.00     0.143 A 
ATOM     18  C   UNL A   1      30.958  22.280  25.703  1.00  0.00     0.071 C 
ATOM     19  N   UNL A   1      30.903  24.309  26.985  1.00  0.00    -0.085 NA
ATOM     20  O   UNL A   1      31.543  25.516  27.060  1.00  0.00    -0.361 OA
ATOM     21  C   UNL A   1      33.258  26.849  26.062  1.00  0.00     0.091 C 
ENDBRANCH  13  15
ENDBRANCH  10  13
ENDBRANCH   7  10
ENDBRANCH   4   7
ENDBRANCH   2   3
ENDBRANCH   1   2
BRANCH   1  22
ATOM     22  C   UNL A   1      39.143  21.319  25.590  1.00  0.00     0.023 C 
BRANCH  22  23
ATOM     23  C   UNL A   1      39.442  20.116  26.474  1.00  0.00     0.116 C 
BRANCH  23  24
ATOM     24  N   UNL A   1      40.568  19.329  25.997  1.00  0.00    -0.352 N 
ATOM     25  C   UNL A   1      41.896  19.676  25.923  1.00  0.00     0.251 C 
ATOM     26  H   UNL A   1      40.349  18.421  25.685  1.00  0.00     0.163 HD
ATOM     27  O   UNL A   1      42.704  18.935  25.382  1.00  0.00    -0.269 OA
BRANCH  25  28
ATOM     28  C   UNL A   1      42.328  20.976  26.474  1.00  0.00     0.039 A 
ATOM     29  C   UNL A   1      42.709  21.987  25.590  1.00  0.00     0.014 A 
ATOM     30  C   UNL A   1      42.305  21.207  27.852  1.00  0.00     0.014 A 
ATOM     31  C   UNL A   1      42.999  23.257  26.086  1.00  0.00     0.010 A 
ATOM     32  C   UNL A   1      42.516  22.492  28.335  1.00  0.00     0.010 A 
ATOM     33  C   UNL A   1      42.865  23.530  27.457  1.00  0.00    -0.014 A 
BRANCH  33  34
ATOM     34  C   UNL A   1      43.086  24.894  27.996  1.00  0.00     0.031 A 
ATOM     35  C   UNL A   1      44.466  25.320  28.412  1.00  0.00     0.074 A 
ATOM     36  C   UNL A   1      42.038  25.721  28.172  1.00  0.00     0.049 A 
ATOM     37  N   UNL A   1      44.851  26.437  28.974  1.00  0.00    -0.248 NA
ATOM     38  C   UNL A   1      45.551  24.351  28.195  1.00  0.00     0.031 C 
ATOM     39  C   UNL A   1      40.645  25.404  27.851  1.00  0.00     0.029 A 
ATOM     40  N   UNL A   1      41.981  26.996  28.674  1.00  0.00    -0.354 N 
ATOM     41  C   UNL A   1      46.216  26.299  29.188  1.00  0.00     0.074 A 
ATOM     42  C   UNL A   1      46.582  24.970  28.750  1.00  0.00     0.031 C 
ATOM     43  C   UNL A   1      39.875  26.467  28.138  1.00  0.00     0.029 A 
ATOM     44  C   UNL A   1      40.712  27.522  28.698  1.00  0.00     0.049 A 
ATOM     45  H   UNL A   1      42.773  27.487  28.988  1.00  0.00     0.167 HD
ATOM     46  C   UNL A   1      47.092  27.207  29.680  1.00  0.00     0.037 A 
ATOM     47  C   UNL A   1      40.274  28.721  29.128  1.00  0.00     0.037 A 
ATOM     48  C   UNL A   1      46.729  28.537  30.091  1.00  0.00     0.049 A 
ATOM     49  C   UNL A   1      41.265  29.709  29.679  1.00  0.00     0.074 A 
ATOM     50  C   UNL A   1      47.549  29.550  30.556  1.00  0.00     0.029 A 
ATOM     51  N   UNL A   1      45.435  29.039  30.087  1.00  0.00    -0.354 N 
ATOM     52  N   UNL A   1      42.562  29.587  29.820  1.00  0.00    -0.248 NA
ATOM     53  C   UNL A   1      40.731  31.003  30.127  1.00  0.00     0.031 C 
ATOM     54  C   UNL A   1      46.746  30.652  30.868  1.00  0.00     0.029 A 
ATOM     55  C   UNL A   1      45.433  30.341  30.557  1.00  0.00     0.049 A 
ATOM     56  H   UNL A   1      44.638  28.541  29.794  1.00  0.00     0.167 HD
ATOM     57  C   UNL A   1      43.003  30.795  30.344  1.00  0.00     0.074 A 
ATOM     58  C   UNL A   1      41.836  31.640  30.485  1.00  0.00     0.031 C 
ATOM     59  C   UNL A   1      44.261  31.171  30.679  1.00  0.00     0.037 A 
BRANCH  46  60
ATOM     60  C   UNL A   1      48.529  26.790  29.789  1.00  0.00     0.057 A 
ATOM     61  C   UNL A   1      49.015  26.114  30.916  1.00  0.00     0.134 A 
ATOM     62  C   UNL A   1      49.431  27.043  28.749  1.00  0.00     0.134 A 
ATOM     63  F   UNL A   1      48.208  25.854  31.955  1.00  0.00    -0.206 F 
ATOM     64  C   UNL A   1      50.354  25.728  31.016  1.00  0.00     0.040 A 
ATOM     65  C   UNL A   1      50.765  26.638  28.826  1.00  0.00     0.040 A 
ATOM     66  F   UNL A   1      49.031  27.683  27.640  1.00  0.00    -0.206 F 
ATOM     67  C   UNL A   1      51.231  25.985  29.965  1.00  0.00     0.006 A 
ENDBRANCH  46  60
BRANCH  47  68
ATOM     68  C   UNL A   1      38.834  29.068  29.028  1.00  0.00     0.057 A 
ATOM     69  C   UNL A   1      38.281  29.494  27.815  1.00  0.00     0.134 A 
ATOM     70  C   UNL A   1      37.982  28.990  30.135  1.00  0.00     0.134 A 
ATOM     71  F   UNL A   1      39.051  29.605  26.723  1.00  0.00    -0.206 F 
ATOM     72  C   UNL A   1      36.934  29.848  27.710  1.00  0.00     0.040 A 
ATOM     73  C   UNL A   1      36.628  29.319  30.039  1.00  0.00     0.040 A 
ATOM     74  F   UNL A   1      38.450  28.582  31.323  1.00  0.00    -0.206 F 
ATOM     75  C   UNL A   1      36.104  29.757  28.826  1.00  0.00     0.006 A 
ENDBRANCH  47  68
BRANCH  59  76
ATOM     76  C   UNL A   1      44.447  32.568  31.193  1.00  0.00     0.057 A 
ATOM     77  C   UNL A   1      44.399  32.866  32.560  1.00  0.00     0.134 A 
ATOM     78  C   UNL A   1      44.716  33.621  30.308  1.00  0.00     0.134 A 
ATOM     79  F   UNL A   1      44.133  31.904  33.457  1.00  0.00    -0.206 F 
ATOM     80  C   UNL A   1      44.594  34.166  33.028  1.00  0.00     0.040 A 
ATOM     81  C   UNL A   1      44.938  34.920  30.767  1.00  0.00     0.040 A 
ATOM     82  F   UNL A   1      44.783  33.401  28.987  1.00  0.00    -0.206 F 
ATOM     83  C   UNL A   1      44.872  35.196  32.131  1.00  0.00     0.006 A 
ENDBRANCH  59  76
ENDBRANCH  33  34
ENDBRANCH  25  28
ENDBRANCH  23  24
ENDBRANCH  22  23
ENDBRANCH   1  22
TORSDOF 15
ENDMDL
MODEL 2
REMARK VINA RESULT:     -10.5      1.250      6.685
REMARK SMILES CC[C@H]([NH2+][C@@H](C)c1c(C)noc1C)C(=O)NCCCCNC(=O)c1ccc(-c2c3nc(c(-c4c(F)cccc4F)c4ccc([nH]4)c(-c4c(F)cccc4F)c4nc(c(-c5c(F)cccc5F)c5ccc2[nH]5)C=C4)C=C3)cc1
REMARK SMILES IDX 18 1 17 2 16 3 14 4 15 5 3 7 2 8 1 9 4 10 5 13 6 14 7 15
REMARK SMILES IDX 8 16 12 17 9 18 10 19 11 20 13 21 19 22 20 23 21 24 22 25
REMARK SMILES IDX 23 27 24 28 25 29 77 30 26 31 76 32 27 33 28 34 29 35 70 36
REMARK SMILES IDX 30 37 75 38 69 39 71 40 31 41 74 42 68 43 67 44 32 46 58 47
REMARK SMILES IDX 41 48 57 49 42 50 45 51 56 52 72 53 43 54 44 55 55 57 73 58
REMARK SMILES IDX 46 59 33 60 34 61 39 62 35 63 36 64 38 65 40 66 37 67 59 68
REMARK SMILES IDX 60 69 65 70 61 71 62 72 64 73 66 74 63 75 47 76 48 77 53 78
REMARK SMILES IDX 49 79 50 80 52 81 54 82 51 83
REMARK H PARENT 16 6 4 11 4 12 21 26 71 45 45 56
REMARK Flexibility Score: inf
ROOT
ATOM      1  C   UNL A   1      36.498  19.767  24.985  1.00  0.00     0.023 C 
ENDROOT
BRANCH   1   2
ATOM      2  C   UNL A   1      35.151  20.484  25.012  1.00  0.00     0.116 C 
BRANCH   2   3
ATOM      3  N   UNL A   1      34.868  21.098  26.292  1.00  0.00    -0.351 N 
ATOM      4  C   UNL A   1      34.674  22.413  26.594  1.00  0.00     0.278 C 
ATOM      5  O   UNL A   1      34.428  22.699  27.769  1.00  0.00    -0.268 OA
ATOM      6  H   UNL A   1      34.809  20.477  27.053  1.00  0.00     0.163 HD
BRANCH   4   7
ATOM      7  C   UNL A   1      34.754  23.507  25.514  1.00  0.00     0.272 C 
BRANCH   7   8
ATOM      8  C   UNL A   1      36.230  23.770  25.108  1.00  0.00     0.072 C 
ATOM      9  C   UNL A   1      37.225  24.005  26.241  1.00  0.00     0.011 C 
ENDBRANCH   7   8
BRANCH   7  10
ATOM     10  N   UNL A   1      33.996  24.725  25.845  1.00  0.00    -0.330 N 
ATOM     11  H   UNL A   1      34.666  25.495  25.861  1.00  0.00     0.347 HD
ATOM     12  H   UNL A   1      33.538  24.487  26.724  1.00  0.00     0.347 HD
BRANCH  10  13
ATOM     13  C   UNL A   1      32.888  25.149  24.991  1.00  0.00     0.216 C 
ATOM     14  C   UNL A   1      32.066  26.122  25.856  1.00  0.00     0.081 C 
BRANCH  13  15
ATOM     15  C   UNL A   1      33.234  25.763  23.663  1.00  0.00     0.074 A 
ATOM     16  C   UNL A   1      33.572  27.084  23.226  1.00  0.00     0.090 A 
ATOM     17  C   UNL A   1      33.295  25.038  22.477  1.00  0.00     0.143 A 
ATOM     18  C   UNL A   1      33.735  28.359  23.965  1.00  0.00     0.071 C 
ATOM     19  N   UNL A   1      33.789  27.127  21.904  1.00  0.00    -0.085 NA
ATOM     20  O   UNL A   1      33.615  25.849  21.445  1.00  0.00    -0.361 OA
ATOM     21  C   UNL A   1      33.076  23.621  22.118  1.00  0.00     0.091 C 
ENDBRANCH  13  15
ENDBRANCH  10  13
ENDBRANCH   7  10
ENDBRANCH   4   7
ENDBRANCH   2   3
ENDBRANCH   1   2
BRANCH   1  22
ATOM     22  C   UNL A   1      37.691  20.650  24.630  1.00  0.00     0.023 C 
BRANCH  22  23
ATOM     23  C   UNL A   1      38.745  20.774  25.722  1.00  0.00     0.116 C 
BRANCH  23  24
ATOM     24  N   UNL A   1      39.713  19.689  25.702  1.00  0.00    -0.352 N 
ATOM     25  C   UNL A   1      41.043  19.710  26.047  1.00  0.00     0.251 C 
ATOM     26  H   UNL A   1      39.368  18.818  25.399  1.00  0.00     0.163 HD
ATOM     27  O   UNL A   1      41.752  18.732  25.858  1.00  0.00    -0.269 OA
BRANCH  25  28
ATOM     28  C   UNL A   1      41.615  20.946  26.617  1.00  0.00     0.039 A 
ATOM     29  C   UNL A   1      42.144  21.904  25.749  1.00  0.00     0.014 A 
ATOM     30  C   UNL A   1      41.578  21.177  27.994  1.00  0.00     0.014 A 
ATOM     31  C   UNL A   1      42.574  23.128  26.261  1.00  0.00     0.010 A 
ATOM     32  C   UNL A   1      41.931  22.426  28.490  1.00  0.00     0.010 A 
ATOM     33  C   UNL A   1      42.432  23.413  27.628  1.00  0.00    -0.014 A 
BRANCH  33  34
ATOM     34  C   UNL A   1      42.803  24.739  28.180  1.00  0.00     0.031 A 
ATOM     35  C   UNL A   1      41.747  25.791  28.377  1.00  0.00     0.074 A 
ATOM     36  C   UNL A   1      44.095  25.018  28.439  1.00  0.00     0.049 A 
ATOM     37  N   UNL A   1      41.880  27.031  28.773  1.00  0.00    -0.248 NA
ATOM     38  C   UNL A   1      40.363  25.406  28.058  1.00  0.00     0.031 C 
ATOM     39  C   UNL A   1      45.216  24.096  28.244  1.00  0.00     0.029 A 
ATOM     40  N   UNL A   1      44.685  26.161  28.915  1.00  0.00    -0.354 N 
ATOM     41  C   UNL A   1      40.603  27.575  28.738  1.00  0.00     0.074 A 
ATOM     42  C   UNL A   1      39.719  26.551  28.228  1.00  0.00     0.031 C 
ATOM     43  C   UNL A   1      46.354  24.702  28.623  1.00  0.00     0.029 A 
ATOM     44  C   UNL A   1      46.048  26.063  29.050  1.00  0.00     0.049 A 
ATOM     45  H   UNL A   1      44.178  26.975  29.138  1.00  0.00     0.167 HD
ATOM     46  C   UNL A   1      40.198  28.809  29.123  1.00  0.00     0.037 A 
ATOM     47  C   UNL A   1      46.949  26.971  29.468  1.00  0.00     0.037 A 
ATOM     48  C   UNL A   1      41.076  29.817  29.653  1.00  0.00     0.049 A 
ATOM     49  C   UNL A   1      46.476  28.338  29.880  1.00  0.00     0.074 A 
ATOM     50  C   UNL A   1      40.757  31.080  30.119  1.00  0.00     0.029 A 
ATOM     51  N   UNL A   1      42.450  29.675  29.789  1.00  0.00    -0.354 N 
ATOM     52  N   UNL A   1      45.257  28.820  29.899  1.00  0.00    -0.248 NA
ATOM     53  C   UNL A   1      47.504  29.286  30.333  1.00  0.00     0.031 C 
ATOM     54  C   UNL A   1      41.943  31.717  30.501  1.00  0.00     0.029 A 
ATOM     55  C   UNL A   1      42.994  30.834  30.315  1.00  0.00     0.049 A 
ATOM     56  H   UNL A   1      42.961  28.869  29.545  1.00  0.00     0.167 HD
ATOM     57  C   UNL A   1      45.367  30.113  30.392  1.00  0.00     0.074 A 
ATOM     58  C   UNL A   1      46.770  30.336  30.671  1.00  0.00     0.031 C 
ATOM     59  C   UNL A   1      44.393  31.033  30.596  1.00  0.00     0.037 A 
BRANCH  46  60
ATOM     60  C   UNL A   1      38.738  29.128  28.989  1.00  0.00     0.057 A 
ATOM     61  C   UNL A   1      37.860  29.025  30.076  1.00  0.00     0.134 A 
ATOM     62  C   UNL A   1      38.208  29.568  27.770  1.00  0.00     0.134 A 
ATOM     63  F   UNL A   1      38.300  28.594  31.268  1.00  0.00    -0.206 F 
ATOM     64  C   UNL A   1      36.501  29.321  29.949  1.00  0.00     0.040 A 
ATOM     65  C   UNL A   1      36.857  29.893  27.638  1.00  0.00     0.040 A 
ATOM     66  F   UNL A   1      38.994  29.693  26.691  1.00  0.00    -0.206 F 
ATOM     67  C   UNL A   1      35.998  29.764  28.728  1.00  0.00     0.006 A 
ENDBRANCH  46  60
BRANCH  47  68
ATOM     68  C   UNL A   1      48.388  26.612  29.547  1.00  0.00     0.057 A 
ATOM     69  C   UNL A   1      49.258  26.900  28.488  1.00  0.00     0.134 A 
ATOM     70  C   UNL A   1      48.925  25.972  30.668  1.00  0.00     0.134 A 
ATOM     71  F   UNL A   1      48.798  27.497  27.379  1.00  0.00    -0.206 F 
ATOM     72  C   UNL A   1      50.608  26.547  28.535  1.00  0.00     0.040 A 
ATOM     73  C   UNL A   1      50.278  25.633  30.738  1.00  0.00     0.040 A 
ATOM     74  F   UNL A   1      48.145  25.676  31.718  1.00  0.00    -0.206 F 
ATOM     75  C   UNL A   1      51.121  25.914  29.666  1.00  0.00     0.006 A 
ENDBRANCH  47  68
BRANCH  59  76
ATOM     76  C   UNL A   1      44.806  32.352  31.182  1.00  0.00     0.057 A 
ATOM     77  C   UNL A   1      45.155  33.443  30.377  1.00  0.00     0.134 A 
ATOM     78  C   UNL A   1      44.814  32.540  32.571  1.00  0.00     0.134 A 
ATOM     79  F   UNL A   1      45.179  33.323  29.041  1.00  0.00    -0.206 F 
ATOM     80  C   UNL A   1      45.517  34.670  30.934  1.00  0.00     0.040 A 
ATOM     81  C   UNL A   1      45.150  33.770  33.137  1.00  0.00     0.040 A 
ATOM     82  F   UNL A   1      44.482  31.537  33.397  1.00  0.00    -0.206 F 
ATOM     83  C   UNL A   1      45.508  34.838  32.317  1.00  0.00     0.006 A 
ENDBRANCH  59  76
ENDBRANCH  33  34
ENDBRANCH  25  28
ENDBRANCH  23  24
ENDBRANCH  22  23
ENDBRANCH   1  22
TORSDOF 15
ENDMDL
MODEL 3
REMARK VINA RESULT:     -10.4      1.722      2.490
REMARK SMILES CC[C@H]([NH2+][C@@H](C)c1c(C)noc1C)C(=O)NCCCCNC(=O)c1ccc(-c2c3nc(c(-c4c(F)cccc4F)c4ccc([nH]4)c(-c4c(F)cccc4F)c4nc(c(-c5c(F)cccc5F)c5ccc2[nH]5)C=C4)C=C3)cc1
REMARK SMILES IDX 18 1 17 2 16 3 14 4 15 5 3 7 2 8 1 9 4 10 5 13 6 14 7 15
REMARK SMILES IDX 8 16 12 17 9 18 10 19 11 20 13 21 19 22 20 23 21 24 22 25
REMARK SMILES IDX 23 27 24 28 25 29 77 30 26 31 76 32 27 33 28 34 29 35 70 36
REMARK SMILES IDX 30 37 75 38 69 39 71 40 31 41 74 42 68 43 67 44 32 46 58 47
REMARK SMILES IDX 41 48 57 49 42 50 45 51 56 52 72 53 43 54 44 55 55 57 73 58
REMARK SMILES IDX 46 59 33 60 34 61 39 62 35 63 36 64 38 65 40 66 37 67 59 68
REMARK SMILES IDX 60 69 65 70 61 71 62 72 64 73 66 74 63 75 47 76 48 77 53 78
REMARK SMILES IDX 49 79 50 80 52 81 54 82 51 83
REMARK H PARENT 16 6 4 11 4 12 21 26 71 45 45 56
REMARK Flexibility Score: inf
ROOT
ATOM      1  C   UNL A   1      37.103  21.020  24.608  1.00  0.00     0.023 C 
ENDROOT
BRANCH   1   2
ATOM      2  C   UNL A   1      35.799  20.982  25.398  1.00  0.00     0.116 C 
BRANCH   2   3
ATOM      3  N   UNL A   1      34.933  19.893  25.000  1.00  0.00    -0.351 N 
ATOM      4  C   UNL A   1      33.628  19.926  24.609  1.00  0.00     0.278 C 
ATOM      5  O   UNL A   1      33.097  18.856  24.298  1.00  0.00    -0.268 OA
ATOM      6  H   UNL A   1      35.346  18.999  25.015  1.00  0.00     0.163 HD
BRANCH   4   7
ATOM      7  C   UNL A   1      32.838  21.246  24.553  1.00  0.00     0.272 C 
BRANCH   7   8
ATOM      8  C   UNL A   1      32.822  21.814  23.108  1.00  0.00     0.072 C 
ATOM      9  C   UNL A   1      33.787  22.958  22.805  1.00  0.00     0.011 C 
ENDBRANCH   7   8
BRANCH   7  10
ATOM     10  N   UNL A   1      33.242  22.224  25.578  1.00  0.00    -0.330 N 
ATOM     11  H   UNL A   1      33.372  23.117  25.099  1.00  0.00     0.347 HD
ATOM     12  H   UNL A   1      34.066  21.797  26.000  1.00  0.00     0.347 HD
BRANCH  10  13
ATOM     13  C   UNL A   1      32.371  22.481  26.723  1.00  0.00     0.216 C 
ATOM     14  C   UNL A   1      33.317  22.550  27.936  1.00  0.00     0.081 C 
BRANCH  13  15
ATOM     15  C   UNL A   1      31.484  23.693  26.658  1.00  0.00     0.074 A 
ATOM     16  C   UNL A   1      31.697  25.080  26.369  1.00  0.00     0.090 A 
ATOM     17  C   UNL A   1      30.113  23.651  26.896  1.00  0.00     0.143 A 
ATOM     18  C   UNL A   1      32.914  25.834  25.989  1.00  0.00     0.071 C 
ATOM     19  N   UNL A   1      30.559  25.782  26.453  1.00  0.00    -0.085 NA
ATOM     20  O   UNL A   1      29.578  24.887  26.782  1.00  0.00    -0.361 OA
ATOM     21  C   UNL A   1      29.157  22.582  27.252  1.00  0.00     0.091 C 
ENDBRANCH  13  15
ENDBRANCH  10  13
ENDBRANCH   7  10
ENDBRANCH   4   7
ENDBRANCH   2   3
ENDBRANCH   1   2
BRANCH   1  22
ATOM     22  C   UNL A   1      38.049  19.850  24.867  1.00  0.00     0.023 C 
BRANCH  22  23
ATOM     23  C   UNL A   1      39.165  20.136  25.862  1.00  0.00     0.116 C 
BRANCH  23  24
ATOM     24  N   UNL A   1      40.180  19.094  25.891  1.00  0.00    -0.352 N 
ATOM     25  C   UNL A   1      41.535  19.212  26.087  1.00  0.00     0.251 C 
ATOM     26  H   UNL A   1      39.850  18.177  25.750  1.00  0.00     0.163 HD
ATOM     27  O   UNL A   1      42.269  18.243  25.962  1.00  0.00    -0.269 OA
BRANCH  25  28
ATOM     28  C   UNL A   1      42.097  20.537  26.417  1.00  0.00     0.039 A 
ATOM     29  C   UNL A   1      42.407  21.413  25.374  1.00  0.00     0.014 A 
ATOM     30  C   UNL A   1      42.267  20.927  27.747  1.00  0.00     0.014 A 
ATOM     31  C   UNL A   1      42.821  22.712  25.672  1.00  0.00     0.010 A 
ATOM     32  C   UNL A   1      42.601  22.243  28.040  1.00  0.00     0.010 A 
ATOM     33  C   UNL A   1      42.881  23.148  27.005  1.00  0.00    -0.014 A 
BRANCH  33  34
ATOM     34  C   UNL A   1      43.237  24.548  27.341  1.00  0.00     0.031 A 
ATOM     35  C   UNL A   1      44.675  24.985  27.308  1.00  0.00     0.074 A 
ATOM     36  C   UNL A   1      42.277  25.404  27.739  1.00  0.00     0.049 A 
ATOM     37  N   UNL A   1      45.196  26.138  27.639  1.00  0.00    -0.248 NA
ATOM     38  C   UNL A   1      45.660  23.983  26.871  1.00  0.00     0.031 C 
ATOM     39  C   UNL A   1      40.852  25.085  27.857  1.00  0.00     0.029 A 
ATOM     40  N   UNL A   1      42.355  26.718  28.126  1.00  0.00    -0.354 N 
ATOM     41  C   UNL A   1      46.566  25.995  27.465  1.00  0.00     0.074 A 
ATOM     42  C   UNL A   1      46.802  24.629  27.055  1.00  0.00     0.031 C 
ATOM     43  C   UNL A   1      40.188  26.181  28.262  1.00  0.00     0.029 A 
ATOM     44  C   UNL A   1      41.143  27.265  28.468  1.00  0.00     0.049 A 
ATOM     45  H   UNL A   1      43.201  27.220  28.158  1.00  0.00     0.167 HD
ATOM     46  C   UNL A   1      47.539  26.927  27.607  1.00  0.00     0.037 A 
ATOM     47  C   UNL A   1      40.837  28.502  28.902  1.00  0.00     0.037 A 
ATOM     48  C   UNL A   1      47.298  28.292  27.991  1.00  0.00     0.049 A 
ATOM     49  C   UNL A   1      41.936  29.517  29.062  1.00  0.00     0.074 A 
ATOM     50  C   UNL A   1      48.209  29.326  28.115  1.00  0.00     0.029 A 
ATOM     51  N   UNL A   1      46.054  28.813  28.315  1.00  0.00    -0.354 N 
ATOM     52  N   UNL A   1      43.221  29.385  28.836  1.00  0.00    -0.248 NA
ATOM     53  C   UNL A   1      41.543  30.852  29.533  1.00  0.00     0.031 C 
ATOM     54  C   UNL A   1      47.521  30.464  28.549  1.00  0.00     0.029 A 
ATOM     55  C   UNL A   1      46.176  30.150  28.654  1.00  0.00     0.049 A 
ATOM     56  H   UNL A   1      45.210  28.306  28.305  1.00  0.00     0.167 HD
ATOM     57  C   UNL A   1      43.784  30.625  29.108  1.00  0.00     0.074 A 
ATOM     58  C   UNL A   1      42.699  31.498  29.504  1.00  0.00     0.031 C 
ATOM     59  C   UNL A   1      45.082  31.006  29.036  1.00  0.00     0.037 A 
BRANCH  46  60
ATOM     60  C   UNL A   1      48.951  26.496  27.336  1.00  0.00     0.057 A 
ATOM     61  C   UNL A   1      49.490  26.513  26.043  1.00  0.00     0.134 A 
ATOM     62  C   UNL A   1      49.789  26.085  28.380  1.00  0.00     0.134 A 
ATOM     63  F   UNL A   1      48.736  26.881  24.996  1.00  0.00    -0.206 F 
ATOM     64  C   UNL A   1      50.803  26.111  25.793  1.00  0.00     0.040 A 
ATOM     65  C   UNL A   1      51.112  25.707  28.146  1.00  0.00     0.040 A 
ATOM     66  F   UNL A   1      49.338  26.049  29.642  1.00  0.00    -0.206 F 
ATOM     67  C   UNL A   1      51.621  25.713  26.849  1.00  0.00     0.006 A 
ENDBRANCH  46  60
BRANCH  47  68
ATOM     68  C   UNL A   1      39.426  28.864  29.190  1.00  0.00     0.057 A 
ATOM     69  C   UNL A   1      38.601  29.389  28.188  1.00  0.00     0.134 A 
ATOM     70  C   UNL A   1      38.872  28.702  30.464  1.00  0.00     0.134 A 
ATOM     71  F   UNL A   1      39.081  29.583  26.951  1.00  0.00    -0.206 F 
ATOM     72  C   UNL A   1      37.280  29.758  28.448  1.00  0.00     0.040 A 
ATOM     73  C   UNL A   1      37.545  29.046  30.732  1.00  0.00     0.040 A 
ATOM     74  F   UNL A   1      39.608  28.198  31.464  1.00  0.00    -0.206 F 
ATOM     75  C   UNL A   1      36.748  29.582  29.724  1.00  0.00     0.006 A 
ENDBRANCH  47  68
BRANCH  59  76
ATOM     76  C   UNL A   1      45.396  32.438  29.355  1.00  0.00     0.057 A 
ATOM     77  C   UNL A   1      45.766  32.845  30.643  1.00  0.00     0.134 A 
ATOM     78  C   UNL A   1      45.366  33.414  28.350  1.00  0.00     0.134 A 
ATOM     79  F   UNL A   1      45.800  31.961  31.652  1.00  0.00    -0.206 F 
ATOM     80  C   UNL A   1      46.076  34.176  30.924  1.00  0.00     0.040 A 
ATOM     81  C   UNL A   1      45.699  34.743  28.614  1.00  0.00     0.040 A 
ATOM     82  F   UNL A   1      45.028  33.088  27.093  1.00  0.00    -0.206 F 
ATOM     83  C   UNL A   1      46.050  35.128  29.906  1.00  0.00     0.006 A 
ENDBRANCH  59  76
ENDBRANCH  33  34
ENDBRANCH  25  28
ENDBRANCH  23  24
ENDBRANCH  22  23
ENDBRANCH   1  22
TORSDOF 15
ENDMDL
