MODEL 1
REMARK VINA RESULT:     -12.5      0.000      0.000
REMARK SMILES CN(CC(=O)NCCCCNC(=O)c1ccc(-c2c3nc(c(-c4c(F)cccc4F)c4ccc([nH]4)c(-c4c(F)cccc4F)c4nc(c(-c5c(F)cccc5F)c5ccc2[nH]5)C=C4)C=C3)cc1)c1ncc(-c2nnnn2-c2ccccc2)c(-c2ccc(Cl)cc2)n1
REMARK SMILES IDX 7 1 6 2 4 3 5 4 3 6 2 7 1 8 68 9 69 10 91 11 70 12 83 13
REMARK SMILES IDX 71 14 84 15 85 16 90 17 86 18 89 19 87 20 88 21 72 22 73 23
REMARK SMILES IDX 76 24 74 25 75 26 77 27 78 28 82 29 79 30 81 31 80 32 8 33
REMARK SMILES IDX 9 34 10 35 11 36 12 37 13 39 14 40 15 41 67 42 16 43 66 44
REMARK SMILES IDX 17 45 18 46 19 47 60 48 20 49 65 50 59 51 61 52 21 53 64 54
REMARK SMILES IDX 58 55 57 56 22 58 48 59 31 60 47 61 32 62 35 63 46 64 62 65
REMARK SMILES IDX 33 66 34 67 45 69 63 70 36 71 23 72 24 73 29 74 25 75 26 76
REMARK SMILES IDX 28 77 30 78 27 79 49 80 50 81 55 82 51 83 52 84 54 85 56 86
REMARK SMILES IDX 53 87 37 88 38 89 43 90 39 91 40 92 42 93 44 94 41 95
REMARK H PARENT 6 5 11 38 61 57 35 68
REMARK Flexibility Score: inf
ROOT
ATOM      1  C   UNL A   1      31.890  29.608  25.012  1.00  0.00     0.116 C 
ENDROOT
BRANCH   1   2
ATOM      2  N   UNL A   1      30.925  29.465  23.945  1.00  0.00    -0.355 N 
ATOM      3  C   UNL A   1      31.072  28.812  22.751  1.00  0.00     0.239 C 
ATOM      4  O   UNL A   1      30.096  28.768  21.995  1.00  0.00    -0.273 OA
ATOM      5  H   UNL A   1      30.050  29.889  24.098  1.00  0.00     0.163 HD
BRANCH   3   6
ATOM      6  C   UNL A   1      32.370  28.053  22.439  1.00  0.00     0.219 C 
BRANCH   6   7
ATOM      7  N   UNL A   1      32.213  26.616  22.211  1.00  0.00    -0.335 N 
ATOM      8  C   UNL A   1      32.202  26.081  20.869  1.00  0.00     0.147 C 
BRANCH   7   9
ATOM      9  C   UNL A   1      32.536  25.762  23.242  1.00  0.00     0.226 A 
ATOM     10  N   UNL A   1      33.000  26.300  24.372  1.00  0.00    -0.221 NA
ATOM     11  N   UNL A   1      32.326  24.443  23.108  1.00  0.00    -0.212 NA
ATOM     12  C   UNL A   1      33.197  25.484  25.419  1.00  0.00     0.129 A 
ATOM     13  C   UNL A   1      32.591  23.623  24.161  1.00  0.00     0.087 A 
ATOM     14  C   UNL A   1      32.976  24.123  25.392  1.00  0.00     0.066 A 
BRANCH  13  15
ATOM     15  C   UNL A   1      32.460  22.186  23.853  1.00  0.00     0.001 A 
ATOM     16  C   UNL A   1      32.264  21.772  22.522  1.00  0.00     0.012 A 
ATOM     17  C   UNL A   1      32.528  21.191  24.844  1.00  0.00     0.012 A 
ATOM     18  C   UNL A   1      32.163  20.417  22.190  1.00  0.00     0.021 A 
ATOM     19  C   UNL A   1      32.426  19.836  24.516  1.00  0.00     0.021 A 
ATOM     20  C   UNL A   1      32.247  19.453  23.190  1.00  0.00     0.041 A 
ATOM     21  Cl  UNL A   1      32.126  17.786  22.790  1.00  0.00    -0.084 Cl
ENDBRANCH  13  15
BRANCH  14  22
ATOM     22  C   UNL A   1      33.183  23.344  26.596  1.00  0.00     0.190 A 
ATOM     23  N   UNL A   1      32.285  23.109  27.532  1.00  0.00    -0.108 NA
ATOM     24  N   UNL A   1      34.284  22.531  26.846  1.00  0.00    -0.193 N 
ATOM     25  N   UNL A   1      32.774  22.079  28.288  1.00  0.00    -0.023 NA
ATOM     26  N   UNL A   1      33.949  21.671  27.835  1.00  0.00    -0.040 NA
BRANCH  24  27
ATOM     27  C   UNL A   1      35.574  22.514  26.256  1.00  0.00     0.069 A 
ATOM     28  C   UNL A   1      36.039  21.334  25.661  1.00  0.00     0.028 A 
ATOM     29  C   UNL A   1      36.407  23.642  26.298  1.00  0.00     0.028 A 
ATOM     30  C   UNL A   1      37.316  21.294  25.095  1.00  0.00     0.002 A 
ATOM     31  C   UNL A   1      37.698  23.578  25.771  1.00  0.00     0.002 A 
ATOM     32  C   UNL A   1      38.149  22.409  25.162  1.00  0.00     0.000 A 
ENDBRANCH  24  27
ENDBRANCH  14  22
ENDBRANCH   7   9
ENDBRANCH   6   7
ENDBRANCH   3   6
ENDBRANCH   1   2
BRANCH   1  33
ATOM     33  C   UNL A   1      31.455  28.888  26.287  1.00  0.00     0.023 C 
BRANCH  33  34
ATOM     34  C   UNL A   1      32.602  28.506  27.227  1.00  0.00     0.023 C 
BRANCH  34  35
ATOM     35  C   UNL A   1      33.869  29.342  27.079  1.00  0.00     0.116 C 
BRANCH  35  36
ATOM     36  N   UNL A   1      33.834  30.570  27.860  1.00  0.00    -0.352 N 
ATOM     37  C   UNL A   1      34.787  31.092  28.698  1.00  0.00     0.251 C 
ATOM     38  H   UNL A   1      33.010  31.102  27.773  1.00  0.00     0.163 HD
ATOM     39  O   UNL A   1      34.531  32.080  29.383  1.00  0.00    -0.269 OA
BRANCH  37  40
ATOM     40  C   UNL A   1      36.111  30.443  28.806  1.00  0.00     0.039 A 
ATOM     41  C   UNL A   1      36.997  30.537  27.729  1.00  0.00     0.014 A 
ATOM     42  C   UNL A   1      36.488  29.758  29.965  1.00  0.00     0.014 A 
ATOM     43  C   UNL A   1      38.283  30.007  27.842  1.00  0.00     0.010 A 
ATOM     44  C   UNL A   1      37.794  29.296  30.104  1.00  0.00     0.010 A 
ATOM     45  C   UNL A   1      38.708  29.419  29.045  1.00  0.00    -0.014 A 
BRANCH  45  46
ATOM     46  C   UNL A   1      40.107  28.948  29.217  1.00  0.00     0.031 A 
ATOM     47  C   UNL A   1      41.161  29.873  29.764  1.00  0.00     0.074 A 
ATOM     48  C   UNL A   1      40.444  27.706  28.815  1.00  0.00     0.049 A 
ATOM     49  N   UNL A   1      42.441  29.658  29.927  1.00  0.00    -0.248 NA
ATOM     50  C   UNL A   1      40.724  31.223  30.155  1.00  0.00     0.031 C 
ATOM     51  C   UNL A   1      39.528  26.733  28.213  1.00  0.00     0.029 A 
ATOM     52  N   UNL A   1      41.650  27.052  28.836  1.00  0.00    -0.354 N 
ATOM     53  C   UNL A   1      42.965  30.847  30.420  1.00  0.00     0.074 A 
ATOM     54  C   UNL A   1      41.873  31.794  30.489  1.00  0.00     0.031 C 
ATOM     55  C   UNL A   1      40.202  25.606  27.937  1.00  0.00     0.029 A 
ATOM     56  C   UNL A   1      41.603  25.786  28.303  1.00  0.00     0.049 A 
ATOM     57  H   UNL A   1      42.473  27.453  29.200  1.00  0.00     0.167 HD
ATOM     58  C   UNL A   1      44.238  31.119  30.796  1.00  0.00     0.037 A 
ATOM     59  C   UNL A   1      42.580  24.878  28.114  1.00  0.00     0.037 A 
ATOM     60  C   UNL A   1      45.315  30.165  30.758  1.00  0.00     0.049 A 
ATOM     61  C   UNL A   1      43.982  25.206  28.552  1.00  0.00     0.074 A 
ATOM     62  C   UNL A   1      46.616  30.322  31.202  1.00  0.00     0.029 A 
ATOM     63  N   UNL A   1      45.219  28.883  30.242  1.00  0.00    -0.354 N 
ATOM     64  N   UNL A   1      44.440  26.302  29.107  1.00  0.00    -0.248 NA
ATOM     65  C   UNL A   1      45.002  24.167  28.347  1.00  0.00     0.031 C 
ATOM     66  C   UNL A   1      47.325  29.155  30.901  1.00  0.00     0.029 A 
ATOM     67  C   UNL A   1      46.448  28.249  30.327  1.00  0.00     0.049 A 
ATOM     68  H   UNL A   1      44.401  28.482  29.870  1.00  0.00     0.167 HD
ATOM     69  C   UNL A   1      45.790  26.074  29.342  1.00  0.00     0.074 A 
ATOM     70  C   UNL A   1      46.073  24.729  28.890  1.00  0.00     0.031 C 
ATOM     71  C   UNL A   1      46.714  26.905  29.882  1.00  0.00     0.037 A 
BRANCH  58  72
ATOM     72  C   UNL A   1      44.546  32.503  31.287  1.00  0.00     0.057 A 
ATOM     73  C   UNL A   1      44.498  32.835  32.647  1.00  0.00     0.134 A 
ATOM     74  C   UNL A   1      44.976  33.494  30.395  1.00  0.00     0.134 A 
ATOM     75  F   UNL A   1      44.086  31.935  33.553  1.00  0.00    -0.206 F 
ATOM     76  C   UNL A   1      44.854  34.107  33.100  1.00  0.00     0.040 A 
ATOM     77  C   UNL A   1      45.360  34.760  30.839  1.00  0.00     0.040 A 
ATOM     78  F   UNL A   1      45.052  33.240  29.080  1.00  0.00    -0.206 F 
ATOM     79  C   UNL A   1      45.298  35.070  32.196  1.00  0.00     0.006 A 
ENDBRANCH  58  72
BRANCH  59  80
ATOM     80  C   UNL A   1      42.278  23.570  27.476  1.00  0.00     0.057 A 
ATOM     81  C   UNL A   1      41.956  22.443  28.242  1.00  0.00     0.134 A 
ATOM     82  C   UNL A   1      42.345  23.404  26.087  1.00  0.00     0.134 A 
ATOM     83  F   UNL A   1      41.893  22.532  29.579  1.00  0.00    -0.206 F 
ATOM     84  C   UNL A   1      41.747  21.194  27.656  1.00  0.00     0.040 A 
ATOM     85  C   UNL A   1      42.109  22.168  25.485  1.00  0.00     0.040 A 
ATOM     86  F   UNL A   1      42.639  24.445  25.294  1.00  0.00    -0.206 F 
ATOM     87  C   UNL A   1      41.822  21.054  26.271  1.00  0.00     0.006 A 
ENDBRANCH  59  80
BRANCH  71  88
ATOM     88  C   UNL A   1      48.107  26.371  30.051  1.00  0.00     0.057 A 
ATOM     89  C   UNL A   1      49.081  26.508  29.054  1.00  0.00     0.134 A 
ATOM     90  C   UNL A   1      48.488  25.743  31.244  1.00  0.00     0.134 A 
ATOM     91  F   UNL A   1      48.779  27.089  27.883  1.00  0.00    -0.206 F 
ATOM     92  C   UNL A   1      50.376  26.016  29.228  1.00  0.00     0.040 A 
ATOM     93  C   UNL A   1      49.787  25.274  31.441  1.00  0.00     0.040 A 
ATOM     94  F   UNL A   1      47.607  25.587  32.245  1.00  0.00    -0.206 F 
ATOM     95  C   UNL A   1      50.734  25.403  30.426  1.00  0.00     0.006 A 
ENDBRANCH  71  88
ENDBRANCH  45  46
ENDBRANCH  37  40
ENDBRANCH  35  36
ENDBRANCH  34  35
ENDBRANCH  33  34
ENDBRANCH   1  33
TORSDOF 16
ENDMDL
MODEL 2
REMARK VINA RESULT:     -12.3      3.519      7.121
REMARK SMILES CN(CC(=O)NCCCCNC(=O)c1ccc(-c2c3nc(c(-c4c(F)cccc4F)c4ccc([nH]4)c(-c4c(F)cccc4F)c4nc(c(-c5c(F)cccc5F)c5ccc2[nH]5)C=C4)C=C3)cc1)c1ncc(-c2nnnn2-c2ccccc2)c(-c2ccc(Cl)cc2)n1
REMARK SMILES IDX 7 1 6 2 4 3 5 4 3 6 2 7 1 8 68 9 69 10 91 11 70 12 83 13
REMARK SMILES IDX 71 14 84 15 85 16 90 17 86 18 89 19 87 20 88 21 72 22 73 23
REMARK SMILES IDX 76 24 74 25 75 26 77 27 78 28 82 29 79 30 81 31 80 32 8 33
REMARK SMILES IDX 9 34 10 35 11 36 12 37 13 39 14 40 15 41 67 42 16 43 66 44
REMARK SMILES IDX 17 45 18 46 19 47 60 48 20 49 65 50 59 51 61 52 21 53 64 54
REMARK SMILES IDX 58 55 57 56 22 58 48 59 31 60 47 61 32 62 35 63 46 64 62 65
REMARK SMILES IDX 33 66 34 67 45 69 63 70 36 71 23 72 24 73 29 74 25 75 26 76
REMARK SMILES IDX 28 77 30 78 27 79 49 80 50 81 55 82 51 83 52 84 54 85 56 86
REMARK SMILES IDX 53 87 37 88 38 89 43 90 39 91 40 92 42 93 44 94 41 95
REMARK H PARENT 6 5 11 38 61 57 35 68
REMARK Flexibility Score: inf
ROOT
ATOM      1  C   UNL A   1      32.077  29.821  24.982  1.00  0.00     0.116 C 
ENDROOT
BRANCH   1   2
ATOM      2  N   UNL A   1      30.998  29.689  24.029  1.00  0.00    -0.355 N 
ATOM      3  C   UNL A   1      30.982  28.977  22.860  1.00  0.00     0.239 C 
ATOM      4  O   UNL A   1      29.930  28.959  22.211  1.00  0.00    -0.273 OA
ATOM      5  H   UNL A   1      30.169  30.172  24.249  1.00  0.00     0.163 HD
BRANCH   3   6
ATOM      6  C   UNL A   1      32.196  28.129  22.454  1.00  0.00     0.219 C 
BRANCH   6   7
ATOM      7  N   UNL A   1      31.928  26.700  22.279  1.00  0.00    -0.335 N 
ATOM      8  C   UNL A   1      31.778  26.137  20.957  1.00  0.00     0.147 C 
BRANCH   7   9
ATOM      9  C   UNL A   1      32.273  25.851  23.306  1.00  0.00     0.226 A 
ATOM     10  N   UNL A   1      32.725  26.395  24.438  1.00  0.00    -0.221 NA
ATOM     11  N   UNL A   1      32.097  24.527  23.167  1.00  0.00    -0.212 NA
ATOM     12  C   UNL A   1      32.944  25.580  25.481  1.00  0.00     0.129 A 
ATOM     13  C   UNL A   1      32.385  23.710  24.215  1.00  0.00     0.087 A 
ATOM     14  C   UNL A   1      32.757  24.214  25.448  1.00  0.00     0.066 A 
BRANCH  13  15
ATOM     15  C   UNL A   1      32.290  22.271  23.902  1.00  0.00     0.001 A 
ATOM     16  C   UNL A   1      32.216  21.852  22.560  1.00  0.00     0.012 A 
ATOM     17  C   UNL A   1      32.276  21.279  24.897  1.00  0.00     0.012 A 
ATOM     18  C   UNL A   1      32.153  20.496  22.224  1.00  0.00     0.021 A 
ATOM     19  C   UNL A   1      32.211  19.922  24.566  1.00  0.00     0.021 A 
ATOM     20  C   UNL A   1      32.154  19.535  23.231  1.00  0.00     0.041 A 
ATOM     21  Cl  UNL A   1      32.079  17.866  22.826  1.00  0.00    -0.084 Cl
ENDBRANCH  13  15
BRANCH  14  22
ATOM     22  C   UNL A   1      32.985  23.435  26.649  1.00  0.00     0.190 A 
ATOM     23  N   UNL A   1      32.121  23.247  27.627  1.00  0.00    -0.108 NA
ATOM     24  N   UNL A   1      34.060  22.576  26.856  1.00  0.00    -0.193 N 
ATOM     25  N   UNL A   1      32.599  22.201  28.370  1.00  0.00    -0.023 NA
ATOM     26  N   UNL A   1      33.734  21.739  27.867  1.00  0.00    -0.040 NA
BRANCH  24  27
ATOM     27  C   UNL A   1      35.319  22.498  26.208  1.00  0.00     0.069 A 
ATOM     28  C   UNL A   1      35.753  21.267  25.699  1.00  0.00     0.028 A 
ATOM     29  C   UNL A   1      36.155  23.620  26.109  1.00  0.00     0.028 A 
ATOM     30  C   UNL A   1      37.000  21.168  25.078  1.00  0.00     0.002 A 
ATOM     31  C   UNL A   1      37.419  23.502  25.528  1.00  0.00     0.002 A 
ATOM     32  C   UNL A   1      37.837  22.280  25.005  1.00  0.00     0.000 A 
ENDBRANCH  24  27
ENDBRANCH  14  22
ENDBRANCH   7   9
ENDBRANCH   6   7
ENDBRANCH   3   6
ENDBRANCH   1   2
BRANCH   1  33
ATOM     33  C   UNL A   1      31.588  30.302  26.347  1.00  0.00     0.023 C 
BRANCH  33  34
ATOM     34  C   UNL A   1      31.486  31.823  26.488  1.00  0.00     0.023 C 
BRANCH  34  35
ATOM     35  C   UNL A   1      32.640  32.486  27.234  1.00  0.00     0.116 C 
BRANCH  35  36
ATOM     36  N   UNL A   1      32.374  33.875  27.574  1.00  0.00    -0.352 N 
ATOM     37  C   UNL A   1      32.991  34.673  28.506  1.00  0.00     0.251 C 
ATOM     38  H   UNL A   1      31.651  34.305  27.063  1.00  0.00     0.163 HD
ATOM     39  O   UNL A   1      32.544  35.790  28.753  1.00  0.00    -0.269 OA
BRANCH  37  40
ATOM     40  C   UNL A   1      34.171  34.172  29.242  1.00  0.00     0.039 A 
ATOM     41  C   UNL A   1      33.970  33.400  30.390  1.00  0.00     0.014 A 
ATOM     42  C   UNL A   1      35.468  34.445  28.799  1.00  0.00     0.014 A 
ATOM     43  C   UNL A   1      35.066  32.844  31.050  1.00  0.00     0.010 A 
ATOM     44  C   UNL A   1      36.556  33.829  29.415  1.00  0.00     0.010 A 
ATOM     45  C   UNL A   1      36.366  33.018  30.545  1.00  0.00    -0.014 A 
BRANCH  45  46
ATOM     46  C   UNL A   1      37.530  32.343  31.175  1.00  0.00     0.031 A 
ATOM     47  C   UNL A   1      38.205  31.187  30.488  1.00  0.00     0.074 A 
ATOM     48  C   UNL A   1      37.939  32.729  32.401  1.00  0.00     0.049 A 
ATOM     49  N   UNL A   1      39.193  30.439  30.911  1.00  0.00    -0.248 NA
ATOM     50  C   UNL A   1      37.687  30.804  29.165  1.00  0.00     0.031 C 
ATOM     51  C   UNL A   1      37.331  33.798  33.199  1.00  0.00     0.029 A 
ATOM     52  N   UNL A   1      38.951  32.258  33.199  1.00  0.00    -0.354 N 
ATOM     53  C   UNL A   1      39.400  29.489  29.918  1.00  0.00     0.074 A 
ATOM     54  C   UNL A   1      38.409  29.727  28.891  1.00  0.00     0.031 C 
ATOM     55  C   UNL A   1      37.990  33.909  34.363  1.00  0.00     0.029 A 
ATOM     56  C   UNL A   1      39.040  32.896  34.414  1.00  0.00     0.049 A 
ATOM     57  H   UNL A   1      39.557  31.531  32.927  1.00  0.00     0.167 HD
ATOM     58  C   UNL A   1      40.342  28.518  29.861  1.00  0.00     0.037 A 
ATOM     59  C   UNL A   1      39.864  32.681  35.458  1.00  0.00     0.037 A 
ATOM     60  C   UNL A   1      41.349  28.305  30.868  1.00  0.00     0.049 A 
ATOM     61  C   UNL A   1      40.908  31.601  35.359  1.00  0.00     0.074 A 
ATOM     62  C   UNL A   1      42.400  27.404  30.855  1.00  0.00     0.029 A 
ATOM     63  N   UNL A   1      41.426  28.993  32.068  1.00  0.00    -0.354 N 
ATOM     64  N   UNL A   1      41.152  30.775  34.371  1.00  0.00    -0.248 NA
ATOM     65  C   UNL A   1      41.797  31.429  36.518  1.00  0.00     0.031 C 
ATOM     66  C   UNL A   1      43.079  27.507  32.072  1.00  0.00     0.029 A 
ATOM     67  C   UNL A   1      42.489  28.515  32.817  1.00  0.00     0.049 A 
ATOM     68  H   UNL A   1      40.817  29.715  32.346  1.00  0.00     0.167 HD
ATOM     69  C   UNL A   1      42.238  30.008  34.776  1.00  0.00     0.074 A 
ATOM     70  C   UNL A   1      42.618  30.481  36.090  1.00  0.00     0.031 C 
ATOM     71  C   UNL A   1      42.862  29.001  34.120  1.00  0.00     0.037 A 
BRANCH  58  72
ATOM     72  C   UNL A   1      40.341  27.604  28.670  1.00  0.00     0.057 A 
ATOM     73  C   UNL A   1      41.093  27.882  27.521  1.00  0.00     0.134 A 
ATOM     74  C   UNL A   1      39.642  26.391  28.706  1.00  0.00     0.134 A 
ATOM     75  F   UNL A   1      41.778  29.032  27.418  1.00  0.00    -0.206 F 
ATOM     76  C   UNL A   1      41.139  26.992  26.447  1.00  0.00     0.040 A 
ATOM     77  C   UNL A   1      39.702  25.481  27.650  1.00  0.00     0.040 A 
ATOM     78  F   UNL A   1      38.909  26.059  29.780  1.00  0.00    -0.206 F 
ATOM     79  C   UNL A   1      40.451  25.782  26.514  1.00  0.00     0.006 A 
ENDBRANCH  58  72
BRANCH  59  80
ATOM     80  C   UNL A   1      39.741  33.497  36.694  1.00  0.00     0.057 A 
ATOM     81  C   UNL A   1      38.866  33.130  37.724  1.00  0.00     0.134 A 
ATOM     82  C   UNL A   1      40.463  34.686  36.857  1.00  0.00     0.134 A 
ATOM     83  F   UNL A   1      38.133  32.012  37.620  1.00  0.00    -0.206 F 
ATOM     84  C   UNL A   1      38.687  33.932  38.853  1.00  0.00     0.040 A 
ATOM     85  C   UNL A   1      40.317  35.481  37.995  1.00  0.00     0.040 A 
ATOM     86  F   UNL A   1      41.326  35.090  35.913  1.00  0.00    -0.206 F 
ATOM     87  C   UNL A   1      39.416  35.112  38.991  1.00  0.00     0.006 A 
ENDBRANCH  59  80
BRANCH  71  88
ATOM     88  C   UNL A   1      44.046  28.368  34.794  1.00  0.00     0.057 A 
ATOM     89  C   UNL A   1      43.920  27.235  35.607  1.00  0.00     0.134 A 
ATOM     90  C   UNL A   1      45.335  28.881  34.595  1.00  0.00     0.134 A 
ATOM     91  F   UNL A   1      42.713  26.701  35.848  1.00  0.00    -0.206 F 
ATOM     92  C   UNL A   1      45.029  26.651  36.220  1.00  0.00     0.040 A 
ATOM     93  C   UNL A   1      46.455  28.287  35.178  1.00  0.00     0.040 A 
ATOM     94  F   UNL A   1      45.529  29.959  33.820  1.00  0.00    -0.206 F 
ATOM     95  C   UNL A   1      46.302  27.172  36.000  1.00  0.00     0.006 A 
ENDBRANCH  71  88
ENDBRANCH  45  46
ENDBRANCH  37  40
ENDBRANCH  35  36
ENDBRANCH  34  35
ENDBRANCH  33  34
ENDBRANCH   1  33
TORSDOF 16
ENDMDL
MODEL 3
REMARK VINA RESULT:     -12.1      3.534      5.145
REMARK SMILES CN(CC(=O)NCCCCNC(=O)c1ccc(-c2c3nc(c(-c4c(F)cccc4F)c4ccc([nH]4)c(-c4c(F)cccc4F)c4nc(c(-c5c(F)cccc5F)c5ccc2[nH]5)C=C4)C=C3)cc1)c1ncc(-c2nnnn2-c2ccccc2)c(-c2ccc(Cl)cc2)n1
REMARK SMILES IDX 7 1 6 2 4 3 5 4 3 6 2 7 1 8 68 9 69 10 91 11 70 12 83 13
REMARK SMILES IDX 71 14 84 15 85 16 90 17 86 18 89 19 87 20 88 21 72 22 73 23
REMARK SMILES IDX 76 24 74 25 75 26 77 27 78 28 82 29 79 30 81 31 80 32 8 33
REMARK SMILES IDX 9 34 10 35 11 36 12 37 13 39 14 40 15 41 67 42 16 43 66 44
REMARK SMILES IDX 17 45 18 46 19 47 60 48 20 49 65 50 59 51 61 52 21 53 64 54
REMARK SMILES IDX 58 55 57 56 22 58 48 59 31 60 47 61 32 62 35 63 46 64 62 65
REMARK SMILES IDX 33 66 34 67 45 69 63 70 36 71 23 72 24 73 29 74 25 75 26 76
REMARK SMILES IDX 28 77 30 78 27 79 49 80 50 81 55 82 51 83 52 84 54 85 56 86
REMARK SMILES IDX 53 87 37 88 38 89 43 90 39 91 40 92 42 93 44 94 41 95
REMARK H PARENT 6 5 11 38 61 57 35 68
REMARK Flexibility Score: inf
ROOT
ATOM      1  C   UNL A   1      31.763  29.719  26.869  1.00  0.00     0.116 C 
ENDROOT
BRANCH   1   2
ATOM      2  N   UNL A   1      33.074  29.203  26.540  1.00  0.00    -0.355 N 
ATOM      3  C   UNL A   1      33.533  28.769  25.326  1.00  0.00     0.239 C 
ATOM      4  O   UNL A   1      34.713  28.409  25.252  1.00  0.00    -0.273 OA
ATOM      5  H   UNL A   1      33.717  29.160  27.283  1.00  0.00     0.163 HD
BRANCH   3   6
ATOM      6  C   UNL A   1      32.637  28.858  24.082  1.00  0.00     0.219 C 
BRANCH   6   7
ATOM      7  N   UNL A   1      33.035  28.002  22.963  1.00  0.00    -0.335 N 
ATOM      8  C   UNL A   1      33.975  28.475  21.975  1.00  0.00     0.147 C 
BRANCH   7   9
ATOM      9  C   UNL A   1      32.882  26.641  23.109  1.00  0.00     0.226 A 
ATOM     10  N   UNL A   1      31.674  26.123  22.877  1.00  0.00    -0.221 NA
ATOM     11  N   UNL A   1      33.943  25.879  23.420  1.00  0.00    -0.212 NA
ATOM     12  C   UNL A   1      31.553  24.787  22.897  1.00  0.00     0.129 A 
ATOM     13  C   UNL A   1      33.786  24.531  23.497  1.00  0.00     0.087 A 
ATOM     14  C   UNL A   1      32.590  23.919  23.169  1.00  0.00     0.066 A 
BRANCH  13  15
ATOM     15  C   UNL A   1      34.979  23.812  23.983  1.00  0.00     0.001 A 
ATOM     16  C   UNL A   1      35.504  24.110  25.255  1.00  0.00     0.012 A 
ATOM     17  C   UNL A   1      35.625  22.820  23.226  1.00  0.00     0.012 A 
ATOM     18  C   UNL A   1      36.617  23.429  25.760  1.00  0.00     0.021 A 
ATOM     19  C   UNL A   1      36.739  22.138  23.726  1.00  0.00     0.021 A 
ATOM     20  C   UNL A   1      37.229  22.443  24.992  1.00  0.00     0.041 A 
ATOM     21  Cl  UNL A   1      38.596  21.600  25.606  1.00  0.00    -0.084 Cl
ENDBRANCH  13  15
BRANCH  14  22
ATOM     22  C   UNL A   1      32.353  22.490  23.122  1.00  0.00     0.190 A 
ATOM     23  N   UNL A   1      32.083  21.783  22.042  1.00  0.00    -0.108 NA
ATOM     24  N   UNL A   1      32.597  21.602  24.165  1.00  0.00    -0.193 N 
ATOM     25  N   UNL A   1      32.272  20.471  22.381  1.00  0.00    -0.023 NA
ATOM     26  N   UNL A   1      32.657  20.356  23.643  1.00  0.00    -0.040 NA
BRANCH  24  27
ATOM     27  C   UNL A   1      32.761  21.831  25.555  1.00  0.00     0.069 A 
ATOM     28  C   UNL A   1      31.924  22.750  26.201  1.00  0.00     0.028 A 
ATOM     29  C   UNL A   1      33.774  21.188  26.282  1.00  0.00     0.028 A 
ATOM     30  C   UNL A   1      32.087  23.004  27.565  1.00  0.00     0.002 A 
ATOM     31  C   UNL A   1      33.959  21.483  27.634  1.00  0.00     0.002 A 
ATOM     32  C   UNL A   1      33.111  22.382  28.277  1.00  0.00     0.000 A 
ENDBRANCH  24  27
ENDBRANCH  14  22
ENDBRANCH   7   9
ENDBRANCH   6   7
ENDBRANCH   3   6
ENDBRANCH   1   2
BRANCH   1  33
ATOM     33  C   UNL A   1      31.414  30.969  26.063  1.00  0.00     0.023 C 
BRANCH  33  34
ATOM     34  C   UNL A   1      31.243  32.239  26.900  1.00  0.00     0.023 C 
BRANCH  34  35
ATOM     35  C   UNL A   1      32.538  32.961  27.259  1.00  0.00     0.116 C 
BRANCH  35  36
ATOM     36  N   UNL A   1      32.325  34.340  27.671  1.00  0.00    -0.352 N 
ATOM     37  C   UNL A   1      33.012  35.085  28.598  1.00  0.00     0.251 C 
ATOM     38  H   UNL A   1      31.585  34.807  27.220  1.00  0.00     0.163 HD
ATOM     39  O   UNL A   1      32.607  36.200  28.915  1.00  0.00    -0.269 OA
BRANCH  37  40
ATOM     40  C   UNL A   1      34.220  34.527  29.243  1.00  0.00     0.039 A 
ATOM     41  C   UNL A   1      34.090  33.897  30.484  1.00  0.00     0.014 A 
ATOM     42  C   UNL A   1      35.472  34.609  28.627  1.00  0.00     0.014 A 
ATOM     43  C   UNL A   1      35.199  33.288  31.070  1.00  0.00     0.010 A 
ATOM     44  C   UNL A   1      36.561  33.937  29.177  1.00  0.00     0.010 A 
ATOM     45  C   UNL A   1      36.435  33.265  30.403  1.00  0.00    -0.014 A 
BRANCH  45  46
ATOM     46  C   UNL A   1      37.597  32.528  30.965  1.00  0.00     0.031 A 
ATOM     47  C   UNL A   1      38.283  33.021  32.211  1.00  0.00     0.074 A 
ATOM     48  C   UNL A   1      38.078  31.450  30.313  1.00  0.00     0.049 A 
ATOM     49  N   UNL A   1      39.344  32.544  32.811  1.00  0.00    -0.248 NA
ATOM     50  C   UNL A   1      37.719  34.219  32.852  1.00  0.00     0.031 C 
ATOM     51  C   UNL A   1      37.539  30.906  29.063  1.00  0.00     0.029 A 
ATOM     52  N   UNL A   1      39.137  30.626  30.600  1.00  0.00    -0.354 N 
ATOM     53  C   UNL A   1      39.585  33.392  33.884  1.00  0.00     0.074 A 
ATOM     54  C   UNL A   1      38.587  34.438  33.830  1.00  0.00     0.031 C 
ATOM     55  C   UNL A   1      38.261  29.834  28.701  1.00  0.00     0.029 A 
ATOM     56  C   UNL A   1      39.337  29.636  29.668  1.00  0.00     0.049 A 
ATOM     57  H   UNL A   1      39.701  30.734  31.401  1.00  0.00     0.167 HD
ATOM     58  C   UNL A   1      40.542  33.298  34.838  1.00  0.00     0.037 A 
ATOM     59  C   UNL A   1      40.289  28.685  29.589  1.00  0.00     0.037 A 
ATOM     60  C   UNL A   1      41.513  32.238  34.909  1.00  0.00     0.049 A 
ATOM     61  C   UNL A   1      41.332  28.600  30.670  1.00  0.00     0.074 A 
ATOM     62  C   UNL A   1      42.465  32.010  35.888  1.00  0.00     0.029 A 
ATOM     63  N   UNL A   1      41.663  31.236  33.964  1.00  0.00    -0.354 N 
ATOM     64  N   UNL A   1      41.486  29.354  31.732  1.00  0.00    -0.248 NA
ATOM     65  C   UNL A   1      42.329  27.527  30.548  1.00  0.00     0.031 C 
ATOM     66  C   UNL A   1      43.229  30.903  35.506  1.00  0.00     0.029 A 
ATOM     67  C   UNL A   1      42.713  30.406  34.321  1.00  0.00     0.049 A 
ATOM     68  H   UNL A   1      41.106  31.130  33.159  1.00  0.00     0.167 HD
ATOM     69  C   UNL A   1      42.576  28.829  32.416  1.00  0.00     0.074 A 
ATOM     70  C   UNL A   1      43.031  27.681  31.662  1.00  0.00     0.031 C 
ATOM     71  C   UNL A   1      43.150  29.260  33.565  1.00  0.00     0.037 A 
BRANCH  58  72
ATOM     72  C   UNL A   1      40.594  34.366  35.892  1.00  0.00     0.057 A 
ATOM     73  C   UNL A   1      41.396  35.506  35.753  1.00  0.00     0.134 A 
ATOM     74  C   UNL A   1      39.770  34.290  37.022  1.00  0.00     0.134 A 
ATOM     75  F   UNL A   1      42.217  35.637  34.700  1.00  0.00    -0.206 F 
ATOM     76  C   UNL A   1      41.384  36.526  36.707  1.00  0.00     0.040 A 
ATOM     77  C   UNL A   1      39.729  35.315  37.968  1.00  0.00     0.040 A 
ATOM     78  F   UNL A   1      38.971  33.228  37.211  1.00  0.00    -0.206 F 
ATOM     79  C   UNL A   1      40.541  36.437  37.812  1.00  0.00     0.006 A 
ENDBRANCH  58  72
BRANCH  59  80
ATOM     80  C   UNL A   1      40.311  27.736  28.446  1.00  0.00     0.057 A 
ATOM     81  C   UNL A   1      39.667  26.495  28.518  1.00  0.00     0.134 A 
ATOM     82  C   UNL A   1      41.012  28.029  27.270  1.00  0.00     0.134 A 
ATOM     83  F   UNL A   1      38.994  26.147  29.625  1.00  0.00    -0.206 F 
ATOM     84  C   UNL A   1      39.748  25.566  27.479  1.00  0.00     0.040 A 
ATOM     85  C   UNL A   1      41.076  27.122  26.210  1.00  0.00     0.040 A 
ATOM     86  F   UNL A   1      41.642  29.205  27.131  1.00  0.00    -0.206 F 
ATOM     87  C   UNL A   1      40.454  25.881  26.319  1.00  0.00     0.006 A 
ENDBRANCH  59  80
BRANCH  71  88
ATOM     88  C   UNL A   1      44.307  28.466  34.099  1.00  0.00     0.057 A 
ATOM     89  C   UNL A   1      45.635  28.796  33.800  1.00  0.00     0.134 A 
ATOM     90  C   UNL A   1      44.088  27.377  34.953  1.00  0.00     0.134 A 
ATOM     91  F   UNL A   1      45.913  29.819  32.979  1.00  0.00    -0.206 F 
ATOM     92  C   UNL A   1      46.702  28.055  34.311  1.00  0.00     0.040 A 
ATOM     93  C   UNL A   1      45.148  26.647  35.494  1.00  0.00     0.040 A 
ATOM     94  F   UNL A   1      42.841  27.012  35.288  1.00  0.00    -0.206 F 
ATOM     95  C   UNL A   1      46.460  26.982  35.166  1.00  0.00     0.006 A 
ENDBRANCH  71  88
ENDBRANCH  45  46
ENDBRANCH  37  40
ENDBRANCH  35  36
ENDBRANCH  34  35
ENDBRANCH  33  34
ENDBRANCH   1  33
TORSDOF 16
ENDMDL
