MODEL 1
REMARK VINA RESULT:     -11.6      0.000      0.000
REMARK SMILES CN(Cc1ncc(C(=O)NCCCCNC(=O)c2ccc(-c3c4nc(c(-c5c(F)cccc5F)c5ccc([nH]5)c(-c5c(F)cccc5F)c5nc(c(-c6c(F)cccc6F)c6ccc3[nH]6)C=C5)C=C4)cc2)cn1)S(=O)(=O)c1ccc(Cl)cc1
REMARK SMILES IDX 11 1 10 2 8 3 9 4 7 6 4 7 5 8 73 9 6 10 72 11 3 12 2 13 1 14
REMARK SMILES IDX 74 15 75 16 76 17 77 18 78 19 83 20 79 21 82 22 80 23 81 24
REMARK SMILES IDX 12 25 13 26 14 27 15 28 16 29 17 31 18 32 19 33 71 34 20 35
REMARK SMILES IDX 70 36 21 37 22 38 23 39 64 40 24 41 69 42 63 43 65 44 25 45
REMARK SMILES IDX 68 46 62 47 61 48 26 50 52 51 35 52 51 53 36 54 39 55 50 56
REMARK SMILES IDX 66 57 37 58 38 59 49 61 67 62 40 63 27 64 28 65 33 66 29 67
REMARK SMILES IDX 30 68 32 69 34 70 31 71 53 72 54 73 59 74 55 75 56 76 58 77
REMARK SMILES IDX 60 78 57 79 41 80 42 81 47 82 43 83 44 84 46 85 48 86 45 87
REMARK H PARENT 10 5 15 30 65 49 39 60
REMARK Flexibility Score: inf
ROOT
ATOM      1  C   UNL A   1      31.083  29.932  25.004  1.00  0.00     0.116 C 
ENDROOT
BRANCH   1   2
ATOM      2  N   UNL A   1      30.689  30.102  23.615  1.00  0.00    -0.352 N 
ATOM      3  C   UNL A   1      30.301  29.176  22.676  1.00  0.00     0.254 C 
ATOM      4  O   UNL A   1      29.844  29.572  21.606  1.00  0.00    -0.269 OA
ATOM      5  H   UNL A   1      30.700  31.033  23.295  1.00  0.00     0.163 HD
BRANCH   3   6
ATOM      6  C   UNL A   1      30.382  27.725  22.911  1.00  0.00     0.076 A 
ATOM      7  C   UNL A   1      30.610  25.027  23.274  1.00  0.00     0.143 A 
ATOM      8  N   UNL A   1      29.643  25.678  23.935  1.00  0.00    -0.239 NA
ATOM      9  N   UNL A   1      31.536  25.642  22.510  1.00  0.00    -0.239 NA
ATOM     10  C   UNL A   1      29.539  27.004  23.718  1.00  0.00     0.128 A 
ATOM     11  C   UNL A   1      31.413  26.988  22.371  1.00  0.00     0.128 A 
BRANCH   7  12
ATOM     12  C   UNL A   1      30.668  23.520  23.427  1.00  0.00     0.179 C 
BRANCH  12  13
ATOM     13  N   UNL A   1      31.993  22.874  23.692  1.00  0.00    -0.193 NA
ATOM     14  C   UNL A   1      32.395  21.951  22.606  1.00  0.00     0.125 C 
BRANCH  13  15
ATOM     15  S   UNL A   1      32.328  22.242  25.239  1.00  0.00     0.243 S 
ATOM     16  O   UNL A   1      31.752  23.100  26.246  1.00  0.00    -0.207 OA
ATOM     17  O   UNL A   1      31.951  20.839  25.203  1.00  0.00    -0.207 OA
BRANCH  15  18
ATOM     18  C   UNL A   1      34.099  22.278  25.384  1.00  0.00     0.082 A 
ATOM     19  C   UNL A   1      34.810  21.074  25.347  1.00  0.00     0.023 A 
ATOM     20  C   UNL A   1      34.759  23.491  25.608  1.00  0.00     0.023 A 
ATOM     21  C   UNL A   1      36.195  21.086  25.525  1.00  0.00     0.022 A 
ATOM     22  C   UNL A   1      36.144  23.497  25.791  1.00  0.00     0.022 A 
ATOM     23  C   UNL A   1      36.855  22.296  25.751  1.00  0.00     0.041 A 
ATOM     24  Cl  UNL A   1      38.559  22.305  25.995  1.00  0.00    -0.084 Cl
ENDBRANCH  15  18
ENDBRANCH  13  15
ENDBRANCH  12  13
ENDBRANCH   7  12
ENDBRANCH   3   6
ENDBRANCH   1   2
BRANCH   1  25
ATOM     25  C   UNL A   1      32.588  29.682  25.143  1.00  0.00     0.023 C 
BRANCH  25  26
ATOM     26  C   UNL A   1      32.975  28.404  25.882  1.00  0.00     0.023 C 
BRANCH  26  27
ATOM     27  C   UNL A   1      33.686  28.614  27.209  1.00  0.00     0.116 C 
BRANCH  27  28
ATOM     28  N   UNL A   1      33.634  29.986  27.692  1.00  0.00    -0.352 N 
ATOM     29  C   UNL A   1      34.642  30.712  28.282  1.00  0.00     0.251 C 
ATOM     30  H   UNL A   1      32.773  30.450  27.583  1.00  0.00     0.163 HD
ATOM     31  O   UNL A   1      34.431  31.838  28.718  1.00  0.00    -0.269 OA
BRANCH  29  32
ATOM     32  C   UNL A   1      35.974  30.095  28.433  1.00  0.00     0.039 A 
ATOM     33  C   UNL A   1      36.881  30.181  27.375  1.00  0.00     0.014 A 
ATOM     34  C   UNL A   1      36.344  29.486  29.636  1.00  0.00     0.014 A 
ATOM     35  C   UNL A   1      38.188  29.724  27.548  1.00  0.00     0.010 A 
ATOM     36  C   UNL A   1      37.664  29.094  29.831  1.00  0.00     0.010 A 
ATOM     37  C   UNL A   1      38.598  29.214  28.790  1.00  0.00    -0.014 A 
BRANCH  37  38
ATOM     38  C   UNL A   1      40.001  28.800  29.028  1.00  0.00     0.031 A 
ATOM     39  C   UNL A   1      40.971  29.762  29.649  1.00  0.00     0.074 A 
ATOM     40  C   UNL A   1      40.418  27.589  28.612  1.00  0.00     0.049 A 
ATOM     41  N   UNL A   1      42.256  29.623  29.855  1.00  0.00    -0.248 NA
ATOM     42  C   UNL A   1      40.432  31.067  30.067  1.00  0.00     0.031 C 
ATOM     43  C   UNL A   1      39.583  26.586  27.948  1.00  0.00     0.029 A 
ATOM     44  N   UNL A   1      41.656  27.001  28.676  1.00  0.00    -0.354 N 
ATOM     45  C   UNL A   1      42.681  30.824  30.406  1.00  0.00     0.074 A 
ATOM     46  C   UNL A   1      41.528  31.698  30.460  1.00  0.00     0.031 C 
ATOM     47  C   UNL A   1      40.328  25.501  27.683  1.00  0.00     0.029 A 
ATOM     48  C   UNL A   1      41.696  25.742  28.129  1.00  0.00     0.049 A 
ATOM     49  H   UNL A   1      42.441  27.440  29.076  1.00  0.00     0.167 HD
ATOM     50  C   UNL A   1      43.915  31.163  30.847  1.00  0.00     0.037 A 
ATOM     51  C   UNL A   1      42.724  24.883  27.997  1.00  0.00     0.037 A 
ATOM     52  C   UNL A   1      45.052  30.280  30.826  1.00  0.00     0.049 A 
ATOM     53  C   UNL A   1      44.080  25.273  28.514  1.00  0.00     0.074 A 
ATOM     54  C   UNL A   1      46.329  30.507  31.308  1.00  0.00     0.029 A 
ATOM     55  N   UNL A   1      45.044  28.999  30.296  1.00  0.00    -0.354 N 
ATOM     56  N   UNL A   1      44.454  26.390  29.088  1.00  0.00    -0.248 NA
ATOM     57  C   UNL A   1      45.155  24.282  28.367  1.00  0.00     0.031 C 
ATOM     58  C   UNL A   1      47.103  29.372  31.044  1.00  0.00     0.029 A 
ATOM     59  C   UNL A   1      46.298  28.427  30.428  1.00  0.00     0.049 A 
ATOM     60  H   UNL A   1      44.263  28.562  29.886  1.00  0.00     0.167 HD
ATOM     61  C   UNL A   1      45.798  26.228  29.396  1.00  0.00     0.074 A 
ATOM     62  C   UNL A   1      46.172  24.900  28.953  1.00  0.00     0.031 C 
ATOM     63  C   UNL A   1      46.648  27.100  29.991  1.00  0.00     0.037 A 
BRANCH  50  64
ATOM     64  C   UNL A   1      44.094  32.544  31.399  1.00  0.00     0.057 A 
ATOM     65  C   UNL A   1      44.466  33.621  30.583  1.00  0.00     0.134 A 
ATOM     66  C   UNL A   1      43.869  32.808  32.756  1.00  0.00     0.134 A 
ATOM     67  F   UNL A   1      44.709  33.431  29.278  1.00  0.00    -0.206 F 
ATOM     68  C   UNL A   1      44.633  34.906  31.102  1.00  0.00     0.040 A 
ATOM     69  C   UNL A   1      44.009  34.093  33.281  1.00  0.00     0.040 A 
ATOM     70  F   UNL A   1      43.508  31.822  33.590  1.00  0.00    -0.206 F 
ATOM     71  C   UNL A   1      44.398  35.145  32.454  1.00  0.00     0.006 A 
ENDBRANCH  50  64
BRANCH  51  72
ATOM     72  C   UNL A   1      42.505  23.553  27.377  1.00  0.00     0.057 A 
ATOM     73  C   UNL A   1      42.111  22.456  28.151  1.00  0.00     0.134 A 
ATOM     74  C   UNL A   1      42.691  23.345  26.006  1.00  0.00     0.134 A 
ATOM     75  F   UNL A   1      41.936  22.591  29.473  1.00  0.00    -0.206 F 
ATOM     76  C   UNL A   1      41.925  21.193  27.586  1.00  0.00     0.040 A 
ATOM     77  C   UNL A   1      42.488  22.092  25.424  1.00  0.00     0.040 A 
ATOM     78  F   UNL A   1      43.062  24.360  25.210  1.00  0.00    -0.206 F 
ATOM     79  C   UNL A   1      42.110  21.010  26.218  1.00  0.00     0.006 A 
ENDBRANCH  51  72
BRANCH  63  80
ATOM     80  C   UNL A   1      48.053  26.634  30.225  1.00  0.00     0.057 A 
ATOM     81  C   UNL A   1      48.416  25.948  31.389  1.00  0.00     0.134 A 
ATOM     82  C   UNL A   1      49.041  26.843  29.256  1.00  0.00     0.134 A 
ATOM     83  F   UNL A   1      47.516  25.730  32.360  1.00  0.00    -0.206 F 
ATOM     84  C   UNL A   1      49.722  25.497  31.588  1.00  0.00     0.040 A 
ATOM     85  C   UNL A   1      50.345  26.379  29.435  1.00  0.00     0.040 A 
ATOM     86  F   UNL A   1      48.753  27.489  28.116  1.00  0.00    -0.206 F 
ATOM     87  C   UNL A   1      50.689  25.706  30.607  1.00  0.00     0.006 A 
ENDBRANCH  63  80
ENDBRANCH  37  38
ENDBRANCH  29  32
ENDBRANCH  27  28
ENDBRANCH  26  27
ENDBRANCH  25  26
ENDBRANCH   1  25
TORSDOF 15
ENDMDL
MODEL 2
REMARK VINA RESULT:     -11.5      4.489      7.675
REMARK SMILES CN(Cc1ncc(C(=O)NCCCCNC(=O)c2ccc(-c3c4nc(c(-c5c(F)cccc5F)c5ccc([nH]5)c(-c5c(F)cccc5F)c5nc(c(-c6c(F)cccc6F)c6ccc3[nH]6)C=C5)C=C4)cc2)cn1)S(=O)(=O)c1ccc(Cl)cc1
REMARK SMILES IDX 11 1 10 2 8 3 9 4 7 6 4 7 5 8 73 9 6 10 72 11 3 12 2 13 1 14
REMARK SMILES IDX 74 15 75 16 76 17 77 18 78 19 83 20 79 21 82 22 80 23 81 24
REMARK SMILES IDX 12 25 13 26 14 27 15 28 16 29 17 31 18 32 19 33 71 34 20 35
REMARK SMILES IDX 70 36 21 37 22 38 23 39 64 40 24 41 69 42 63 43 65 44 25 45
REMARK SMILES IDX 68 46 62 47 61 48 26 50 52 51 35 52 51 53 36 54 39 55 50 56
REMARK SMILES IDX 66 57 37 58 38 59 49 61 67 62 40 63 27 64 28 65 33 66 29 67
REMARK SMILES IDX 30 68 32 69 34 70 31 71 53 72 54 73 59 74 55 75 56 76 58 77
REMARK SMILES IDX 60 78 57 79 41 80 42 81 47 82 43 83 44 84 46 85 48 86 45 87
REMARK H PARENT 10 5 15 30 65 49 39 60
REMARK Flexibility Score: inf
ROOT
ATOM      1  C   UNL A   1      33.552  35.814  29.348  1.00  0.00     0.116 C 
ENDROOT
BRANCH   1   2
ATOM      2  N   UNL A   1      32.516  36.163  30.306  1.00  0.00    -0.352 N 
ATOM      3  C   UNL A   1      32.500  36.074  31.678  1.00  0.00     0.254 C 
ATOM      4  O   UNL A   1      31.572  36.593  32.294  1.00  0.00    -0.269 OA
ATOM      5  H   UNL A   1      31.691  36.525  29.907  1.00  0.00     0.163 HD
BRANCH   3   6
ATOM      6  C   UNL A   1      33.566  35.408  32.442  1.00  0.00     0.076 A 
ATOM      7  C   UNL A   1      35.485  34.082  33.865  1.00  0.00     0.143 A 
ATOM      8  N   UNL A   1      35.682  35.377  33.584  1.00  0.00    -0.239 NA
ATOM      9  N   UNL A   1      34.435  33.370  33.405  1.00  0.00    -0.239 NA
ATOM     10  C   UNL A   1      34.708  36.011  32.903  1.00  0.00     0.128 A 
ATOM     11  C   UNL A   1      33.512  34.051  32.677  1.00  0.00     0.128 A 
BRANCH   7  12
ATOM     12  C   UNL A   1      36.523  33.386  34.723  1.00  0.00     0.179 C 
BRANCH  12  13
ATOM     13  N   UNL A   1      37.806  32.946  34.088  1.00  0.00    -0.193 NA
ATOM     14  C   UNL A   1      38.116  31.526  34.374  1.00  0.00     0.125 C 
BRANCH  13  15
ATOM     15  S   UNL A   1      39.183  33.945  34.187  1.00  0.00     0.243 S 
ATOM     16  O   UNL A   1      38.829  35.192  34.823  1.00  0.00    -0.207 OA
ATOM     17  O   UNL A   1      40.242  33.133  34.760  1.00  0.00    -0.207 OA
BRANCH  15  18
ATOM     18  C   UNL A   1      39.652  34.261  32.502  1.00  0.00     0.082 A 
ATOM     19  C   UNL A   1      40.981  34.591  32.216  1.00  0.00     0.023 A 
ATOM     20  C   UNL A   1      38.684  34.252  31.492  1.00  0.00     0.023 A 
ATOM     21  C   UNL A   1      41.346  34.904  30.905  1.00  0.00     0.022 A 
ATOM     22  C   UNL A   1      39.054  34.572  30.183  1.00  0.00     0.022 A 
ATOM     23  C   UNL A   1      40.381  34.898  29.896  1.00  0.00     0.041 A 
ATOM     24  Cl  UNL A   1      40.829  35.309  28.286  1.00  0.00    -0.084 Cl
ENDBRANCH  15  18
ENDBRANCH  13  15
ENDBRANCH  12  13
ENDBRANCH   7  12
ENDBRANCH   3   6
ENDBRANCH   1   2
BRANCH   1  25
ATOM     25  C   UNL A   1      33.330  34.422  28.750  1.00  0.00     0.023 C 
BRANCH  25  26
ATOM     26  C   UNL A   1      34.598  33.653  28.389  1.00  0.00     0.023 C 
BRANCH  26  27
ATOM     27  C   UNL A   1      34.793  32.341  29.134  1.00  0.00     0.116 C 
BRANCH  27  28
ATOM     28  N   UNL A   1      34.176  31.197  28.480  1.00  0.00    -0.352 N 
ATOM     29  C   UNL A   1      34.777  30.026  28.084  1.00  0.00     0.251 C 
ATOM     30  H   UNL A   1      33.211  31.272  28.298  1.00  0.00     0.163 HD
ATOM     31  O   UNL A   1      34.148  29.175  27.465  1.00  0.00    -0.269 OA
BRANCH  29  32
ATOM     32  C   UNL A   1      36.212  29.827  28.368  1.00  0.00     0.039 A 
ATOM     33  C   UNL A   1      36.588  29.315  29.611  1.00  0.00     0.014 A 
ATOM     34  C   UNL A   1      37.175  30.089  27.389  1.00  0.00     0.014 A 
ATOM     35  C   UNL A   1      37.925  28.993  29.848  1.00  0.00     0.010 A 
ATOM     36  C   UNL A   1      38.494  29.705  27.601  1.00  0.00     0.010 A 
ATOM     37  C   UNL A   1      38.879  29.149  28.830  1.00  0.00    -0.014 A 
BRANCH  37  38
ATOM     38  C   UNL A   1      40.290  28.737  29.027  1.00  0.00     0.031 A 
ATOM     39  C   UNL A   1      41.278  29.701  29.615  1.00  0.00     0.074 A 
ATOM     40  C   UNL A   1      40.693  27.523  28.603  1.00  0.00     0.049 A 
ATOM     41  N   UNL A   1      42.568  29.562  29.782  1.00  0.00    -0.248 NA
ATOM     42  C   UNL A   1      40.751  31.007  30.044  1.00  0.00     0.031 C 
ATOM     43  C   UNL A   1      39.838  26.518  27.969  1.00  0.00     0.029 A 
ATOM     44  N   UNL A   1      41.932  26.936  28.632  1.00  0.00    -0.354 N 
ATOM     45  C   UNL A   1      43.010  30.765  30.316  1.00  0.00     0.074 A 
ATOM     46  C   UNL A   1      41.859  31.639  30.401  1.00  0.00     0.031 C 
ATOM     47  C   UNL A   1      40.575  25.431  27.685  1.00  0.00     0.029 A 
ATOM     48  C   UNL A   1      41.956  25.674  28.089  1.00  0.00     0.049 A 
ATOM     49  H   UNL A   1      42.729  27.376  29.006  1.00  0.00     0.167 HD
ATOM     50  C   UNL A   1      44.257  31.105  30.718  1.00  0.00     0.037 A 
ATOM     51  C   UNL A   1      42.979  24.815  27.929  1.00  0.00     0.037 A 
ATOM     52  C   UNL A   1      45.392  30.223  30.666  1.00  0.00     0.049 A 
ATOM     53  C   UNL A   1      44.351  25.207  28.404  1.00  0.00     0.074 A 
ATOM     54  C   UNL A   1      46.683  30.451  31.109  1.00  0.00     0.029 A 
ATOM     55  N   UNL A   1      45.368  28.939  30.141  1.00  0.00    -0.354 N 
ATOM     56  N   UNL A   1      44.742  26.326  28.962  1.00  0.00    -0.248 NA
ATOM     57  C   UNL A   1      45.421  24.215  28.229  1.00  0.00     0.031 C 
ATOM     58  C   UNL A   1      47.449  29.314  30.826  1.00  0.00     0.029 A 
ATOM     59  C   UNL A   1      46.625  28.368  30.238  1.00  0.00     0.049 A 
ATOM     60  H   UNL A   1      44.575  28.501  29.757  1.00  0.00     0.167 HD
ATOM     61  C   UNL A   1      46.094  26.165  29.230  1.00  0.00     0.074 A 
ATOM     62  C   UNL A   1      46.455  24.835  28.781  1.00  0.00     0.031 C 
ATOM     63  C   UNL A   1      46.962  27.039  29.796  1.00  0.00     0.037 A 
BRANCH  50  64
ATOM     64  C   UNL A   1      44.452  32.489  31.259  1.00  0.00     0.057 A 
ATOM     65  C   UNL A   1      44.334  32.767  32.627  1.00  0.00     0.134 A 
ATOM     66  C   UNL A   1      44.784  33.551  30.408  1.00  0.00     0.134 A 
ATOM     67  F   UNL A   1      44.005  31.797  33.492  1.00  0.00    -0.206 F 
ATOM     68  C   UNL A   1      44.515  34.058  33.127  1.00  0.00     0.040 A 
ATOM     69  C   UNL A   1      44.991  34.840  30.900  1.00  0.00     0.040 A 
ATOM     70  F   UNL A   1      44.914  33.351  29.089  1.00  0.00    -0.206 F 
ATOM     71  C   UNL A   1      44.851  35.098  32.262  1.00  0.00     0.006 A 
ENDBRANCH  50  64
BRANCH  51  72
ATOM     72  C   UNL A   1      42.742  23.483  27.322  1.00  0.00     0.057 A 
ATOM     73  C   UNL A   1      42.977  23.262  25.959  1.00  0.00     0.134 A 
ATOM     74  C   UNL A   1      42.272  22.405  28.080  1.00  0.00     0.134 A 
ATOM     75  F   UNL A   1      43.411  24.263  25.180  1.00  0.00    -0.206 F 
ATOM     76  C   UNL A   1      42.736  22.021  25.368  1.00  0.00     0.040 A 
ATOM     77  C   UNL A   1      42.047  21.152  27.506  1.00  0.00     0.040 A 
ATOM     78  F   UNL A   1      42.035  22.551  29.392  1.00  0.00    -0.206 F 
ATOM     79  C   UNL A   1      42.273  20.961  26.144  1.00  0.00     0.006 A 
ENDBRANCH  51  72
BRANCH  63  80
ATOM     80  C   UNL A   1      48.373  26.574  29.989  1.00  0.00     0.057 A 
ATOM     81  C   UNL A   1      48.778  25.916  31.156  1.00  0.00     0.134 A 
ATOM     82  C   UNL A   1      49.326  26.754  28.979  1.00  0.00     0.134 A 
ATOM     83  F   UNL A   1      47.914  25.726  32.165  1.00  0.00    -0.206 F 
ATOM     84  C   UNL A   1      50.089  25.465  31.318  1.00  0.00     0.040 A 
ATOM     85  C   UNL A   1      50.634  26.289  29.121  1.00  0.00     0.040 A 
ATOM     86  F   UNL A   1      48.997  27.372  27.835  1.00  0.00    -0.206 F 
ATOM     87  C   UNL A   1      51.019  25.645  30.296  1.00  0.00     0.006 A 
ENDBRANCH  63  80
ENDBRANCH  37  38
ENDBRANCH  29  32
ENDBRANCH  27  28
ENDBRANCH  26  27
ENDBRANCH  25  26
ENDBRANCH   1  25
TORSDOF 15
ENDMDL
MODEL 3
REMARK VINA RESULT:     -11.4      3.515      4.952
REMARK SMILES CN(Cc1ncc(C(=O)NCCCCNC(=O)c2ccc(-c3c4nc(c(-c5c(F)cccc5F)c5ccc([nH]5)c(-c5c(F)cccc5F)c5nc(c(-c6c(F)cccc6F)c6ccc3[nH]6)C=C5)C=C4)cc2)cn1)S(=O)(=O)c1ccc(Cl)cc1
REMARK SMILES IDX 11 1 10 2 8 3 9 4 7 6 4 7 5 8 73 9 6 10 72 11 3 12 2 13 1 14
REMARK SMILES IDX 74 15 75 16 76 17 77 18 78 19 83 20 79 21 82 22 80 23 81 24
REMARK SMILES IDX 12 25 13 26 14 27 15 28 16 29 17 31 18 32 19 33 71 34 20 35
REMARK SMILES IDX 70 36 21 37 22 38 23 39 64 40 24 41 69 42 63 43 65 44 25 45
REMARK SMILES IDX 68 46 62 47 61 48 26 50 52 51 35 52 51 53 36 54 39 55 50 56
REMARK SMILES IDX 66 57 37 58 38 59 49 61 67 62 40 63 27 64 28 65 33 66 29 67
REMARK SMILES IDX 30 68 32 69 34 70 31 71 53 72 54 73 59 74 55 75 56 76 58 77
REMARK SMILES IDX 60 78 57 79 41 80 42 81 47 82 43 83 44 84 46 85 48 86 45 87
REMARK H PARENT 10 5 15 30 65 49 39 60
REMARK Flexibility Score: inf
ROOT
ATOM      1  C   UNL A   1      31.153  30.065  24.826  1.00  0.00     0.116 C 
ENDROOT
BRANCH   1   2
ATOM      2  N   UNL A   1      30.615  30.127  23.477  1.00  0.00    -0.352 N 
ATOM      3  C   UNL A   1      30.148  29.129  22.654  1.00  0.00     0.254 C 
ATOM      4  O   UNL A   1      29.577  29.440  21.611  1.00  0.00    -0.269 OA
ATOM      5  H   UNL A   1      30.578  31.032  23.089  1.00  0.00     0.163 HD
BRANCH   3   6
ATOM      6  C   UNL A   1      30.276  27.701  22.986  1.00  0.00     0.076 A 
ATOM      7  C   UNL A   1      30.603  25.047  23.544  1.00  0.00     0.143 A 
ATOM      8  N   UNL A   1      29.498  25.659  23.991  1.00  0.00    -0.239 NA
ATOM      9  N   UNL A   1      31.608  25.688  22.914  1.00  0.00    -0.239 NA
ATOM     10  C   UNL A   1      29.351  26.962  23.679  1.00  0.00     0.128 A 
ATOM     11  C   UNL A   1      31.428  27.014  22.675  1.00  0.00     0.128 A 
BRANCH   7  12
ATOM     12  C   UNL A   1      30.727  23.557  23.795  1.00  0.00     0.179 C 
BRANCH  12  13
ATOM     13  N   UNL A   1      31.590  23.086  24.925  1.00  0.00    -0.193 NA
ATOM     14  C   UNL A   1      31.712  21.611  24.960  1.00  0.00     0.125 C 
BRANCH  13  15
ATOM     15  S   UNL A   1      31.387  23.759  26.478  1.00  0.00     0.243 S 
ATOM     16  O   UNL A   1      29.982  23.977  26.729  1.00  0.00    -0.207 OA
ATOM     17  O   UNL A   1      32.151  22.927  27.392  1.00  0.00    -0.207 OA
BRANCH  15  18
ATOM     18  C   UNL A   1      32.220  25.327  26.418  1.00  0.00     0.082 A 
ATOM     19  C   UNL A   1      33.538  25.381  25.950  1.00  0.00     0.023 A 
ATOM     20  C   UNL A   1      31.588  26.476  26.905  1.00  0.00     0.023 A 
ATOM     21  C   UNL A   1      34.223  26.597  25.961  1.00  0.00     0.022 A 
ATOM     22  C   UNL A   1      32.281  27.689  26.918  1.00  0.00     0.022 A 
ATOM     23  C   UNL A   1      33.594  27.744  26.448  1.00  0.00     0.041 A 
ATOM     24  Cl  UNL A   1      34.451  29.237  26.483  1.00  0.00    -0.084 Cl
ENDBRANCH  15  18
ENDBRANCH  13  15
ENDBRANCH  12  13
ENDBRANCH   7  12
ENDBRANCH   3   6
ENDBRANCH   1   2
BRANCH   1  25
ATOM     25  C   UNL A   1      30.921  31.370  25.593  1.00  0.00     0.023 C 
BRANCH  25  26
ATOM     26  C   UNL A   1      31.628  31.473  26.941  1.00  0.00     0.023 C 
BRANCH  26  27
ATOM     27  C   UNL A   1      32.816  32.421  26.978  1.00  0.00     0.116 C 
BRANCH  27  28
ATOM     28  N   UNL A   1      32.479  33.769  27.410  1.00  0.00    -0.352 N 
ATOM     29  C   UNL A   1      33.075  34.513  28.400  1.00  0.00     0.251 C 
ATOM     30  H   UNL A   1      31.732  34.201  26.935  1.00  0.00     0.163 HD
ATOM     31  O   UNL A   1      32.631  35.611  28.714  1.00  0.00    -0.269 OA
BRANCH  29  32
ATOM     32  C   UNL A   1      34.232  33.946  29.121  1.00  0.00     0.039 A 
ATOM     33  C   UNL A   1      34.001  33.047  30.164  1.00  0.00     0.014 A 
ATOM     34  C   UNL A   1      35.538  34.257  28.730  1.00  0.00     0.014 A 
ATOM     35  C   UNL A   1      35.079  32.399  30.766  1.00  0.00     0.010 A 
ATOM     36  C   UNL A   1      36.606  33.561  29.283  1.00  0.00     0.010 A 
ATOM     37  C   UNL A   1      36.386  32.622  30.302  1.00  0.00    -0.014 A 
BRANCH  37  38
ATOM     38  C   UNL A   1      37.540  31.884  30.867  1.00  0.00     0.031 A 
ATOM     39  C   UNL A   1      38.070  32.245  32.224  1.00  0.00     0.074 A 
ATOM     40  C   UNL A   1      38.157  30.944  30.125  1.00  0.00     0.049 A 
ATOM     41  N   UNL A   1      39.121  31.783  32.851  1.00  0.00    -0.248 NA
ATOM     42  C   UNL A   1      37.340  33.289  32.962  1.00  0.00     0.031 C 
ATOM     43  C   UNL A   1      37.767  30.540  28.773  1.00  0.00     0.029 A 
ATOM     44  N   UNL A   1      39.252  30.166  30.403  1.00  0.00    -0.354 N 
ATOM     45  C   UNL A   1      39.190  32.489  34.044  1.00  0.00     0.074 A 
ATOM     46  C   UNL A   1      38.102  33.444  34.034  1.00  0.00     0.031 C 
ATOM     47  C   UNL A   1      38.600  29.576  28.346  1.00  0.00     0.029 A 
ATOM     48  C   UNL A   1      39.598  29.317  29.379  1.00  0.00     0.049 A 
ATOM     49  H   UNL A   1      39.744  30.212  31.254  1.00  0.00     0.167 HD
ATOM     50  C   UNL A   1      40.066  32.342  35.065  1.00  0.00     0.037 A 
ATOM     51  C   UNL A   1      40.609  28.434  29.285  1.00  0.00     0.037 A 
ATOM     52  C   UNL A   1      41.124  31.367  35.089  1.00  0.00     0.049 A 
ATOM     53  C   UNL A   1      41.556  28.274  30.441  1.00  0.00     0.074 A 
ATOM     54  C   UNL A   1      42.024  31.096  36.104  1.00  0.00     0.029 A 
ATOM     55  N   UNL A   1      41.420  30.501  34.048  1.00  0.00    -0.354 N 
ATOM     56  N   UNL A   1      41.573  28.907  31.588  1.00  0.00    -0.248 NA
ATOM     57  C   UNL A   1      42.623  27.275  30.290  1.00  0.00     0.031 C 
ATOM     58  C   UNL A   1      42.884  30.083  35.666  1.00  0.00     0.029 A 
ATOM     59  C   UNL A   1      42.497  29.702  34.391  1.00  0.00     0.049 A 
ATOM     60  H   UNL A   1      40.936  30.461  33.191  1.00  0.00     0.167 HD
ATOM     61  C   UNL A   1      42.630  28.366  32.306  1.00  0.00     0.074 A 
ATOM     62  C   UNL A   1      43.227  27.345  31.468  1.00  0.00     0.031 C 
ATOM     63  C   UNL A   1      43.070  28.685  33.548  1.00  0.00     0.037 A 
BRANCH  50  64
ATOM     64  C   UNL A   1      39.906  33.252  36.245  1.00  0.00     0.057 A 
ATOM     65  C   UNL A   1      39.061  32.930  37.314  1.00  0.00     0.134 A 
ATOM     66  C   UNL A   1      40.622  34.454  36.325  1.00  0.00     0.134 A 
ATOM     67  F   UNL A   1      38.338  31.801  37.292  1.00  0.00    -0.206 F 
ATOM     68  C   UNL A   1      38.915  33.781  38.411  1.00  0.00     0.040 A 
ATOM     69  C   UNL A   1      40.502  35.301  37.427  1.00  0.00     0.040 A 
ATOM     70  F   UNL A   1      41.450  34.820  35.335  1.00  0.00    -0.206 F 
ATOM     71  C   UNL A   1      39.641  34.968  38.471  1.00  0.00     0.006 A 
ENDBRANCH  50  64
BRANCH  51  72
ATOM     72  C   UNL A   1      40.762  27.608  28.063  1.00  0.00     0.057 A 
ATOM     73  C   UNL A   1      40.178  26.339  27.975  1.00  0.00     0.134 A 
ATOM     74  C   UNL A   1      41.497  28.060  26.961  1.00  0.00     0.134 A 
ATOM     75  F   UNL A   1      39.478  25.847  29.007  1.00  0.00    -0.206 F 
ATOM     76  C   UNL A   1      40.333  25.540  26.842  1.00  0.00     0.040 A 
ATOM     77  C   UNL A   1      41.642  27.279  25.812  1.00  0.00     0.040 A 
ATOM     78  F   UNL A   1      42.075  29.270  26.981  1.00  0.00    -0.206 F 
ATOM     79  C   UNL A   1      41.065  26.012  25.754  1.00  0.00     0.006 A 
ENDBRANCH  51  72
BRANCH  63  80
ATOM     80  C   UNL A   1      44.230  27.902  34.085  1.00  0.00     0.057 A 
ATOM     81  C   UNL A   1      45.547  28.357  33.957  1.00  0.00     0.134 A 
ATOM     82  C   UNL A   1      44.019  26.700  34.771  1.00  0.00     0.134 A 
ATOM     83  F   UNL A   1      45.813  29.495  33.299  1.00  0.00    -0.206 F 
ATOM     84  C   UNL A   1      46.619  27.632  34.481  1.00  0.00     0.040 A 
ATOM     85  C   UNL A   1      45.081  25.978  35.317  1.00  0.00     0.040 A 
ATOM     86  F   UNL A   1      42.779  26.215  34.931  1.00  0.00    -0.206 F 
ATOM     87  C   UNL A   1      46.387  26.443  35.169  1.00  0.00     0.006 A 
ENDBRANCH  63  80
ENDBRANCH  37  38
ENDBRANCH  29  32
ENDBRANCH  27  28
ENDBRANCH  26  27
ENDBRANCH  25  26
ENDBRANCH   1  25
TORSDOF 15
ENDMDL
