MODEL 1
REMARK VINA RESULT:     -12.7      0.000      0.000
REMARK SMILES O=C(CCC(=O)N1N=C(c2ccc(F)cc2)C[C@@H]1c1ccc2nccnc2c1)NCCCCNC(=O)c1ccc(-c2c3nc(c(-c4c(F)cccc4F)c4ccc([nH]4)c(-c4c(F)cccc4F)c4nc(c(-c5c(F)cccc5F)c5ccc2[nH]5)C=C4)C=C3)cc1
REMARK SMILES IDX 30 1 29 2 1 3 2 4 3 6 4 7 5 8 6 9 7 10 8 11 18 12 9 13 17 14
REMARK SMILES IDX 19 15 20 16 28 17 21 18 27 19 22 20 26 21 23 22 25 23 24 24
REMARK SMILES IDX 10 25 11 26 16 27 12 28 15 29 13 30 14 31 31 32 32 33 33 34
REMARK SMILES IDX 34 35 35 36 36 38 37 39 38 40 90 41 39 42 89 43 40 44 41 45
REMARK SMILES IDX 42 46 83 47 43 48 88 49 82 50 84 51 44 52 87 53 81 54 80 55
REMARK SMILES IDX 45 57 71 58 54 59 70 60 55 61 58 62 69 63 85 64 56 65 57 66
REMARK SMILES IDX 68 68 86 69 59 70 46 71 47 72 52 73 48 74 49 75 51 76 53 77
REMARK SMILES IDX 50 78 72 79 73 80 78 81 74 82 75 83 77 84 79 85 76 86 60 87
REMARK SMILES IDX 61 88 66 89 62 90 63 91 65 92 67 93 64 94
REMARK H PARENT 29 5 34 37 84 56 58 67
REMARK Flexibility Score: inf
ROOT
ATOM      1  C   UNL A   1      34.577  32.481  29.213  1.00  0.00     0.116 C 
ENDROOT
BRANCH   1   2
ATOM      2  N   UNL A   1      34.243  31.336  28.345  1.00  0.00    -0.356 N 
ATOM      3  O   UNL A   1      36.405  30.929  27.674  1.00  0.00    -0.275 OA
ATOM      4  C   UNL A   1      35.249  30.564  27.724  1.00  0.00     0.220 C 
ATOM      5  H   UNL A   1      33.297  31.105  28.196  1.00  0.00     0.163 HD
BRANCH   4   6
ATOM      6  C   UNL A   1      34.820  29.132  27.266  1.00  0.00     0.110 C 
BRANCH   6   7
ATOM      7  C   UNL A   1      33.272  28.947  27.200  1.00  0.00     0.112 C 
BRANCH   7   8
ATOM      8  C   UNL A   1      32.497  27.594  27.019  1.00  0.00     0.243 C 
ATOM      9  O   UNL A   1      31.571  27.336  27.796  1.00  0.00    -0.273 OA
BRANCH   8  10
ATOM     10  N   UNL A   1      32.708  26.831  25.875  1.00  0.00    -0.225 N 
ATOM     11  N   UNL A   1      33.957  26.174  25.726  1.00  0.00    -0.174 NA
ATOM     12  C   UNL A   1      31.661  26.114  25.204  1.00  0.00     0.147 C 
ATOM     13  C   UNL A   1      33.701  25.008  25.203  1.00  0.00     0.071 C 
ATOM     14  C   UNL A   1      32.244  24.733  25.057  1.00  0.00     0.091 C 
BRANCH  12  15
ATOM     15  C   UNL A   1      30.722  26.857  24.261  1.00  0.00    -0.021 A 
ATOM     16  C   UNL A   1      29.364  26.515  24.316  1.00  0.00     0.008 A 
ATOM     17  C   UNL A   1      31.009  28.001  23.512  1.00  0.00     0.036 A 
ATOM     18  C   UNL A   1      28.341  27.227  23.706  1.00  0.00     0.031 A 
ATOM     19  C   UNL A   1      29.992  28.750  22.867  1.00  0.00     0.089 A 
ATOM     20  C   UNL A   1      28.636  28.342  22.981  1.00  0.00     0.089 A 
ATOM     21  N   UNL A   1      30.273  29.863  22.161  1.00  0.00    -0.253 NA
ATOM     22  N   UNL A   1      27.602  28.993  22.426  1.00  0.00    -0.253 NA
ATOM     23  C   UNL A   1      29.223  30.521  21.604  1.00  0.00     0.132 A 
ATOM     24  C   UNL A   1      27.916  30.097  21.732  1.00  0.00     0.132 A 
ENDBRANCH  12  15
BRANCH  13  25
ATOM     25  C   UNL A   1      34.645  23.884  24.952  1.00  0.00    -0.002 A 
ATOM     26  C   UNL A   1      34.936  22.973  25.983  1.00  0.00     0.013 A 
ATOM     27  C   UNL A   1      35.364  23.792  23.761  1.00  0.00     0.013 A 
ATOM     28  C   UNL A   1      35.871  21.951  25.821  1.00  0.00     0.040 A 
ATOM     29  C   UNL A   1      36.334  22.787  23.607  1.00  0.00     0.040 A 
ATOM     30  C   UNL A   1      36.566  21.868  24.629  1.00  0.00     0.123 A 
ATOM     31  F   UNL A   1      37.484  20.906  24.469  1.00  0.00    -0.207 F 
ENDBRANCH  13  25
ENDBRANCH   8  10
ENDBRANCH   7   8
ENDBRANCH   6   7
ENDBRANCH   4   6
ENDBRANCH   1   2
BRANCH   1  32
ATOM     32  C   UNL A   1      34.382  34.004  28.817  1.00  0.00     0.023 C 
BRANCH  32  33
ATOM     33  C   UNL A   1      33.242  35.082  28.968  1.00  0.00     0.023 C 
BRANCH  33  34
ATOM     34  C   UNL A   1      33.233  36.435  29.747  1.00  0.00     0.116 C 
BRANCH  34  35
ATOM     35  N   UNL A   1      32.438  36.430  30.963  1.00  0.00    -0.352 N 
ATOM     36  C   UNL A   1      32.552  35.689  32.123  1.00  0.00     0.251 C 
ATOM     37  H   UNL A   1      31.685  37.065  30.958  1.00  0.00     0.163 HD
ATOM     38  O   UNL A   1      31.578  35.672  32.878  1.00  0.00    -0.269 OA
BRANCH  36  39
ATOM     39  C   UNL A   1      33.773  34.944  32.555  1.00  0.00     0.039 A 
ATOM     40  C   UNL A   1      35.024  35.544  32.314  1.00  0.00     0.014 A 
ATOM     41  C   UNL A   1      33.753  33.613  32.979  1.00  0.00     0.014 A 
ATOM     42  C   UNL A   1      36.222  34.837  32.516  1.00  0.00     0.010 A 
ATOM     43  C   UNL A   1      34.951  32.897  33.162  1.00  0.00     0.010 A 
ATOM     44  C   UNL A   1      36.197  33.502  32.941  1.00  0.00    -0.014 A 
BRANCH  44  45
ATOM     45  C   UNL A   1      37.455  32.783  33.290  1.00  0.00     0.031 A 
ATOM     46  C   UNL A   1      38.041  31.710  32.414  1.00  0.00     0.074 A 
ATOM     47  C   UNL A   1      38.045  33.077  34.465  1.00  0.00     0.049 A 
ATOM     48  N   UNL A   1      39.131  31.004  32.593  1.00  0.00    -0.248 NA
ATOM     49  C   UNL A   1      37.305  31.376  31.188  1.00  0.00     0.031 C 
ATOM     50  C   UNL A   1      37.547  34.068  35.420  1.00  0.00     0.029 A 
ATOM     51  N   UNL A   1      39.170  32.571  35.064  1.00  0.00    -0.354 N 
ATOM     52  C   UNL A   1      39.222  30.150  31.500  1.00  0.00     0.074 A 
ATOM     53  C   UNL A   1      38.052  30.400  30.682  1.00  0.00     0.031 C 
ATOM     54  C   UNL A   1      38.361  34.099  36.484  1.00  0.00     0.029 A 
ATOM     55  C   UNL A   1      39.428  33.121  36.297  1.00  0.00     0.049 A 
ATOM     56  H   UNL A   1      39.737  31.880  34.652  1.00  0.00     0.167 HD
ATOM     57  C   UNL A   1      40.196  29.253  31.203  1.00  0.00     0.037 A 
ATOM     58  C   UNL A   1      40.413  32.871  37.181  1.00  0.00     0.037 A 
ATOM     59  C   UNL A   1      41.349  28.998  32.034  1.00  0.00     0.049 A 
ATOM     60  C   UNL A   1      41.473  31.864  36.838  1.00  0.00     0.074 A 
ATOM     61  C   UNL A   1      42.415  28.145  31.793  1.00  0.00     0.029 A 
ATOM     62  N   UNL A   1      41.579  29.579  33.272  1.00  0.00    -0.354 N 
ATOM     63  N   UNL A   1      41.589  31.127  35.761  1.00  0.00    -0.248 NA
ATOM     64  C   UNL A   1      42.543  31.662  37.824  1.00  0.00     0.031 C 
ATOM     65  C   UNL A   1      43.264  28.176  32.904  1.00  0.00     0.029 A 
ATOM     66  C   UNL A   1      42.756  29.087  33.816  1.00  0.00     0.049 A 
ATOM     67  H   UNL A   1      40.993  30.243  33.700  1.00  0.00     0.167 HD
ATOM     68  C   UNL A   1      42.753  30.389  35.927  1.00  0.00     0.074 A 
ATOM     69  C   UNL A   1      43.315  30.778  37.205  1.00  0.00     0.031 C 
ATOM     70  C   UNL A   1      43.305  29.476  35.092  1.00  0.00     0.037 A 
BRANCH  57  71
ATOM     71  C   UNL A   1      40.078  28.480  29.918  1.00  0.00     0.057 A 
ATOM     72  C   UNL A   1      39.370  27.271  29.860  1.00  0.00     0.134 A 
ATOM     73  C   UNL A   1      40.746  28.887  28.755  1.00  0.00     0.134 A 
ATOM     74  F   UNL A   1      38.723  26.809  30.940  1.00  0.00    -0.206 F 
ATOM     75  C   UNL A   1      39.334  26.497  28.698  1.00  0.00     0.040 A 
ATOM     76  C   UNL A   1      40.699  28.133  27.579  1.00  0.00     0.040 A 
ATOM     77  F   UNL A   1      41.448  30.030  28.740  1.00  0.00    -0.206 F 
ATOM     78  C   UNL A   1      39.997  26.929  27.552  1.00  0.00     0.006 A 
ENDBRANCH  57  71
BRANCH  58  79
ATOM     79  C   UNL A   1      40.457  33.636  38.450  1.00  0.00     0.057 A 
ATOM     80  C   UNL A   1      39.645  33.297  39.539  1.00  0.00     0.134 A 
ATOM     81  C   UNL A   1      41.267  34.770  38.577  1.00  0.00     0.134 A 
ATOM     82  F   UNL A   1      38.837  32.229  39.476  1.00  0.00    -0.206 F 
ATOM     83  C   UNL A   1      39.620  34.071  40.701  1.00  0.00     0.040 A 
ATOM     84  C   UNL A   1      41.268  35.541  39.741  1.00  0.00     0.040 A 
ATOM     85  F   UNL A   1      42.074  35.138  37.572  1.00  0.00    -0.206 F 
ATOM     86  C   UNL A   1      40.435  35.197  40.804  1.00  0.00     0.006 A 
ENDBRANCH  58  79
BRANCH  70  87
ATOM     87  C   UNL A   1      44.591  28.834  35.522  1.00  0.00     0.057 A 
ATOM     88  C   UNL A   1      44.582  27.684  36.324  1.00  0.00     0.134 A 
ATOM     89  C   UNL A   1      45.835  29.390  35.203  1.00  0.00     0.134 A 
ATOM     90  F   UNL A   1      43.423  27.104  36.670  1.00  0.00    -0.206 F 
ATOM     91  C   UNL A   1      45.764  27.121  36.805  1.00  0.00     0.040 A 
ATOM     92  C   UNL A   1      47.026  28.822  35.659  1.00  0.00     0.040 A 
ATOM     93  F   UNL A   1      45.913  30.483  34.428  1.00  0.00    -0.206 F 
ATOM     94  C   UNL A   1      46.991  27.690  36.471  1.00  0.00     0.006 A 
ENDBRANCH  70  87
ENDBRANCH  44  45
ENDBRANCH  36  39
ENDBRANCH  34  35
ENDBRANCH  33  34
ENDBRANCH  32  33
ENDBRANCH   1  32
TORSDOF 16
ENDMDL
MODEL 2
REMARK VINA RESULT:     -12.6      0.991      5.885
REMARK SMILES O=C(CCC(=O)N1N=C(c2ccc(F)cc2)C[C@@H]1c1ccc2nccnc2c1)NCCCCNC(=O)c1ccc(-c2c3nc(c(-c4c(F)cccc4F)c4ccc([nH]4)c(-c4c(F)cccc4F)c4nc(c(-c5c(F)cccc5F)c5ccc2[nH]5)C=C4)C=C3)cc1
REMARK SMILES IDX 30 1 29 2 1 3 2 4 3 6 4 7 5 8 6 9 7 10 8 11 18 12 9 13 17 14
REMARK SMILES IDX 19 15 20 16 28 17 21 18 27 19 22 20 26 21 23 22 25 23 24 24
REMARK SMILES IDX 10 25 11 26 16 27 12 28 15 29 13 30 14 31 31 32 32 33 33 34
REMARK SMILES IDX 34 35 35 36 36 38 37 39 38 40 90 41 39 42 89 43 40 44 41 45
REMARK SMILES IDX 42 46 83 47 43 48 88 49 82 50 84 51 44 52 87 53 81 54 80 55
REMARK SMILES IDX 45 57 71 58 54 59 70 60 55 61 58 62 69 63 85 64 56 65 57 66
REMARK SMILES IDX 68 68 86 69 59 70 46 71 47 72 52 73 48 74 49 75 51 76 53 77
REMARK SMILES IDX 50 78 72 79 73 80 78 81 74 82 75 83 77 84 79 85 76 86 60 87
REMARK SMILES IDX 61 88 66 89 62 90 63 91 65 92 67 93 64 94
REMARK H PARENT 29 5 34 37 84 56 58 67
REMARK Flexibility Score: inf
ROOT
ATOM      1  C   UNL A   1      35.122  32.386  28.537  1.00  0.00     0.116 C 
ENDROOT
BRANCH   1   2
ATOM      2  N   UNL A   1      34.467  31.634  27.449  1.00  0.00    -0.356 N 
ATOM      3  O   UNL A   1      35.410  29.604  27.983  1.00  0.00    -0.275 OA
ATOM      4  C   UNL A   1      34.589  30.231  27.345  1.00  0.00     0.220 C 
ATOM      5  H   UNL A   1      33.934  32.122  26.780  1.00  0.00     0.163 HD
BRANCH   4   6
ATOM      6  C   UNL A   1      33.488  29.514  26.498  1.00  0.00     0.110 C 
BRANCH   6   7
ATOM      7  C   UNL A   1      33.589  27.957  26.555  1.00  0.00     0.112 C 
BRANCH   7   8
ATOM      8  C   UNL A   1      32.395  26.946  26.673  1.00  0.00     0.243 C 
ATOM      9  O   UNL A   1      31.557  27.122  27.566  1.00  0.00    -0.273 OA
BRANCH   8  10
ATOM     10  N   UNL A   1      32.175  26.023  25.656  1.00  0.00    -0.225 N 
ATOM     11  N   UNL A   1      33.088  24.945  25.517  1.00  0.00    -0.174 NA
ATOM     12  C   UNL A   1      30.865  25.655  25.198  1.00  0.00     0.147 C 
ATOM     13  C   UNL A   1      32.377  23.896  25.214  1.00  0.00     0.071 C 
ATOM     14  C   UNL A   1      30.910  24.150  25.232  1.00  0.00     0.091 C 
BRANCH  12  15
ATOM     15  C   UNL A   1      30.124  26.564  24.224  1.00  0.00    -0.021 A 
ATOM     16  C   UNL A   1      28.724  26.489  24.223  1.00  0.00     0.008 A 
ATOM     17  C   UNL A   1      30.654  27.632  23.495  1.00  0.00     0.036 A 
ATOM     18  C   UNL A   1      27.881  27.384  23.579  1.00  0.00     0.031 A 
ATOM     19  C   UNL A   1      29.826  28.562  22.817  1.00  0.00     0.089 A 
ATOM     20  C   UNL A   1      28.413  28.421  22.875  1.00  0.00     0.089 A 
ATOM     21  N   UNL A   1      30.343  29.601  22.132  1.00  0.00    -0.253 NA
ATOM     22  N   UNL A   1      27.546  29.259  22.285  1.00  0.00    -0.253 NA
ATOM     23  C   UNL A   1      29.461  30.448  21.539  1.00  0.00     0.132 A 
ATOM     24  C   UNL A   1      28.093  30.282  21.612  1.00  0.00     0.132 A 
ENDBRANCH  12  15
BRANCH  13  25
ATOM     25  C   UNL A   1      32.833  22.484  25.075  1.00  0.00    -0.002 A 
ATOM     26  C   UNL A   1      34.191  22.209  24.842  1.00  0.00     0.013 A 
ATOM     27  C   UNL A   1      31.922  21.430  25.025  1.00  0.00     0.013 A 
ATOM     28  C   UNL A   1      34.654  20.910  24.629  1.00  0.00     0.040 A 
ATOM     29  C   UNL A   1      32.378  20.125  24.773  1.00  0.00     0.040 A 
ATOM     30  C   UNL A   1      33.738  19.875  24.595  1.00  0.00     0.123 A 
ATOM     31  F   UNL A   1      34.166  18.627  24.367  1.00  0.00    -0.207 F 
ENDBRANCH  13  25
ENDBRANCH   8  10
ENDBRANCH   7   8
ENDBRANCH   6   7
ENDBRANCH   4   6
ENDBRANCH   1   2
BRANCH   1  32
ATOM     32  C   UNL A   1      34.426  33.518  29.401  1.00  0.00     0.023 C 
BRANCH  32  33
ATOM     33  C   UNL A   1      33.247  34.544  29.193  1.00  0.00     0.023 C 
BRANCH  33  34
ATOM     34  C   UNL A   1      33.156  36.059  29.559  1.00  0.00     0.116 C 
BRANCH  34  35
ATOM     35  N   UNL A   1      32.470  36.341  30.809  1.00  0.00    -0.352 N 
ATOM     36  C   UNL A   1      32.631  35.815  32.076  1.00  0.00     0.251 C 
ATOM     37  H   UNL A   1      31.766  37.027  30.740  1.00  0.00     0.163 HD
ATOM     38  O   UNL A   1      31.727  36.017  32.889  1.00  0.00    -0.269 OA
BRANCH  36  39
ATOM     39  C   UNL A   1      33.831  35.060  32.550  1.00  0.00     0.039 A 
ATOM     40  C   UNL A   1      35.097  35.625  32.309  1.00  0.00     0.014 A 
ATOM     41  C   UNL A   1      33.776  33.744  33.017  1.00  0.00     0.014 A 
ATOM     42  C   UNL A   1      36.277  34.900  32.551  1.00  0.00     0.010 A 
ATOM     43  C   UNL A   1      34.956  33.009  33.242  1.00  0.00     0.010 A 
ATOM     44  C   UNL A   1      36.217  33.580  33.020  1.00  0.00    -0.014 A 
BRANCH  44  45
ATOM     45  C   UNL A   1      37.454  32.847  33.411  1.00  0.00     0.031 A 
ATOM     46  C   UNL A   1      38.215  33.162  34.669  1.00  0.00     0.074 A 
ATOM     47  C   UNL A   1      37.925  31.909  32.566  1.00  0.00     0.049 A 
ATOM     48  N   UNL A   1      39.305  32.602  35.135  1.00  0.00    -0.248 NA
ATOM     49  C   UNL A   1      37.697  34.253  35.505  1.00  0.00     0.031 C 
ATOM     50  C   UNL A   1      37.299  31.545  31.295  1.00  0.00     0.029 A 
ATOM     51  N   UNL A   1      39.036  31.107  32.634  1.00  0.00    -0.354 N 
ATOM     52  C   UNL A   1      39.600  33.260  36.323  1.00  0.00     0.074 A 
ATOM     53  C   UNL A   1      38.593  34.290  36.485  1.00  0.00     0.031 C 
ATOM     54  C   UNL A   1      38.032  30.592  30.702  1.00  0.00     0.029 A 
ATOM     55  C   UNL A   1      39.188  30.288  31.540  1.00  0.00     0.049 A 
ATOM     56  H   UNL A   1      39.664  31.116  33.392  1.00  0.00     0.167 HD
ATOM     57  C   UNL A   1      40.606  33.018  37.200  1.00  0.00     0.037 A 
ATOM     58  C   UNL A   1      40.147  29.391  31.241  1.00  0.00     0.037 A 
ATOM     59  C   UNL A   1      41.616  32.001  37.020  1.00  0.00     0.049 A 
ATOM     60  C   UNL A   1      41.260  29.150  32.219  1.00  0.00     0.074 A 
ATOM     61  C   UNL A   1      42.646  31.647  37.876  1.00  0.00     0.029 A 
ATOM     62  N   UNL A   1      41.733  31.188  35.903  1.00  0.00    -0.354 N 
ATOM     63  N   UNL A   1      41.475  29.722  33.378  1.00  0.00    -0.248 NA
ATOM     64  C   UNL A   1      42.256  28.132  31.856  1.00  0.00     0.031 C 
ATOM     65  C   UNL A   1      43.412  30.654  37.258  1.00  0.00     0.029 A 
ATOM     66  C   UNL A   1      42.830  30.351  36.038  1.00  0.00     0.049 A 
ATOM     67  H   UNL A   1      41.126  31.203  35.129  1.00  0.00     0.167 HD
ATOM     68  C   UNL A   1      42.615  29.122  33.894  1.00  0.00     0.074 A 
ATOM     69  C   UNL A   1      43.040  28.130  32.926  1.00  0.00     0.031 C 
ATOM     70  C   UNL A   1      43.248  29.370  35.066  1.00  0.00     0.037 A 
BRANCH  57  71
ATOM     71  C   UNL A   1      40.673  33.853  38.450  1.00  0.00     0.057 A 
ATOM     72  C   UNL A   1      39.885  33.550  39.569  1.00  0.00     0.134 A 
ATOM     73  C   UNL A   1      41.454  35.016  38.512  1.00  0.00     0.134 A 
ATOM     74  F   UNL A   1      39.099  32.463  39.573  1.00  0.00    -0.206 F 
ATOM     75  C   UNL A   1      39.868  34.372  40.698  1.00  0.00     0.040 A 
ATOM     76  C   UNL A   1      41.462  35.834  39.644  1.00  0.00     0.040 A 
ATOM     77  F   UNL A   1      42.228  35.370  37.474  1.00  0.00    -0.206 F 
ATOM     78  C   UNL A   1      40.661  35.516  40.740  1.00  0.00     0.006 A 
ENDBRANCH  57  71
BRANCH  58  79
ATOM     79  C   UNL A   1      40.050  28.625  29.975  1.00  0.00     0.057 A 
ATOM     80  C   UNL A   1      39.332  27.426  29.897  1.00  0.00     0.134 A 
ATOM     81  C   UNL A   1      40.734  29.044  28.829  1.00  0.00     0.134 A 
ATOM     82  F   UNL A   1      38.665  26.964  30.965  1.00  0.00    -0.206 F 
ATOM     83  C   UNL A   1      39.315  26.659  28.731  1.00  0.00     0.040 A 
ATOM     84  C   UNL A   1      40.709  28.298  27.649  1.00  0.00     0.040 A 
ATOM     85  F   UNL A   1      41.430  30.190  28.839  1.00  0.00    -0.206 F 
ATOM     86  C   UNL A   1      40.005  27.096  27.601  1.00  0.00     0.006 A 
ENDBRANCH  58  79
BRANCH  70  87
ATOM     87  C   UNL A   1      44.467  28.552  35.382  1.00  0.00     0.057 A 
ATOM     88  C   UNL A   1      44.357  27.358  36.109  1.00  0.00     0.134 A 
ATOM     89  C   UNL A   1      45.752  28.980  35.030  1.00  0.00     0.134 A 
ATOM     90  F   UNL A   1      43.154  26.897  36.482  1.00  0.00    -0.206 F 
ATOM     91  C   UNL A   1      45.484  26.629  36.487  1.00  0.00     0.040 A 
ATOM     92  C   UNL A   1      46.886  28.245  35.382  1.00  0.00     0.040 A 
ATOM     93  F   UNL A   1      45.924  30.107  34.323  1.00  0.00    -0.206 F 
ATOM     94  C   UNL A   1      46.753  27.071  36.121  1.00  0.00     0.006 A 
ENDBRANCH  70  87
ENDBRANCH  44  45
ENDBRANCH  36  39
ENDBRANCH  34  35
ENDBRANCH  33  34
ENDBRANCH  32  33
ENDBRANCH   1  32
TORSDOF 16
ENDMDL
MODEL 3
REMARK VINA RESULT:     -12.4      3.006      6.511
REMARK SMILES O=C(CCC(=O)N1N=C(c2ccc(F)cc2)C[C@@H]1c1ccc2nccnc2c1)NCCCCNC(=O)c1ccc(-c2c3nc(c(-c4c(F)cccc4F)c4ccc([nH]4)c(-c4c(F)cccc4F)c4nc(c(-c5c(F)cccc5F)c5ccc2[nH]5)C=C4)C=C3)cc1
REMARK SMILES IDX 30 1 29 2 1 3 2 4 3 6 4 7 5 8 6 9 7 10 8 11 18 12 9 13 17 14
REMARK SMILES IDX 19 15 20 16 28 17 21 18 27 19 22 20 26 21 23 22 25 23 24 24
REMARK SMILES IDX 10 25 11 26 16 27 12 28 15 29 13 30 14 31 31 32 32 33 33 34
REMARK SMILES IDX 34 35 35 36 36 38 37 39 38 40 90 41 39 42 89 43 40 44 41 45
REMARK SMILES IDX 42 46 83 47 43 48 88 49 82 50 84 51 44 52 87 53 81 54 80 55
REMARK SMILES IDX 45 57 71 58 54 59 70 60 55 61 58 62 69 63 85 64 56 65 57 66
REMARK SMILES IDX 68 68 86 69 59 70 46 71 47 72 52 73 48 74 49 75 51 76 53 77
REMARK SMILES IDX 50 78 72 79 73 80 78 81 74 82 75 83 77 84 79 85 76 86 60 87
REMARK SMILES IDX 61 88 66 89 62 90 63 91 65 92 67 93 64 94
REMARK H PARENT 29 5 34 37 84 56 58 67
REMARK Flexibility Score: inf
ROOT
ATOM      1  C   UNL A   1      30.757  25.134  25.946  1.00  0.00     0.116 C 
ENDROOT
BRANCH   1   2
ATOM      2  N   UNL A   1      31.575  24.391  26.924  1.00  0.00    -0.356 N 
ATOM      3  O   UNL A   1      31.164  22.313  26.023  1.00  0.00    -0.275 OA
ATOM      4  C   UNL A   1      31.803  23.004  26.791  1.00  0.00     0.220 C 
ATOM      5  H   UNL A   1      31.970  24.873  27.686  1.00  0.00     0.163 HD
BRANCH   4   6
ATOM      6  C   UNL A   1      33.046  22.443  27.556  1.00  0.00     0.110 C 
BRANCH   6   7
ATOM      7  C   UNL A   1      33.620  21.138  26.920  1.00  0.00     0.112 C 
BRANCH   7   8
ATOM      8  C   UNL A   1      34.467  21.033  25.603  1.00  0.00     0.243 C 
ATOM      9  O   UNL A   1      34.548  19.936  25.039  1.00  0.00    -0.273 OA
BRANCH   8  10
ATOM     10  N   UNL A   1      34.914  22.194  24.981  1.00  0.00    -0.225 N 
ATOM     11  N   UNL A   1      34.093  22.780  23.982  1.00  0.00    -0.174 NA
ATOM     12  C   UNL A   1      35.711  23.186  25.645  1.00  0.00     0.147 C 
ATOM     13  C   UNL A   1      34.178  24.071  24.145  1.00  0.00     0.071 C 
ATOM     14  C   UNL A   1      34.975  24.465  25.340  1.00  0.00     0.091 C 
BRANCH  12  15
ATOM     15  C   UNL A   1      37.211  22.965  25.806  1.00  0.00    -0.021 A 
ATOM     16  C   UNL A   1      37.946  24.001  26.398  1.00  0.00     0.008 A 
ATOM     17  C   UNL A   1      37.909  21.765  25.650  1.00  0.00     0.036 A 
ATOM     18  C   UNL A   1      39.262  23.896  26.828  1.00  0.00     0.031 A 
ATOM     19  C   UNL A   1      39.256  21.621  26.067  1.00  0.00     0.089 A 
ATOM     20  C   UNL A   1      39.928  22.719  26.670  1.00  0.00     0.089 A 
ATOM     21  N   UNL A   1      39.919  20.456  25.931  1.00  0.00    -0.253 NA
ATOM     22  N   UNL A   1      41.194  22.676  27.117  1.00  0.00    -0.253 NA
ATOM     23  C   UNL A   1      41.198  20.416  26.387  1.00  0.00     0.132 A 
ATOM     24  C   UNL A   1      41.824  21.502  26.967  1.00  0.00     0.132 A 
ENDBRANCH  12  15
BRANCH  13  25
ATOM     25  C   UNL A   1      33.420  25.140  23.436  1.00  0.00    -0.002 A 
ATOM     26  C   UNL A   1      33.817  26.481  23.569  1.00  0.00     0.013 A 
ATOM     27  C   UNL A   1      32.235  24.860  22.757  1.00  0.00     0.013 A 
ATOM     28  C   UNL A   1      33.095  27.524  22.989  1.00  0.00     0.040 A 
ATOM     29  C   UNL A   1      31.485  25.911  22.202  1.00  0.00     0.040 A 
ATOM     30  C   UNL A   1      31.929  27.228  22.308  1.00  0.00     0.123 A 
ATOM     31  F   UNL A   1      31.213  28.222  21.767  1.00  0.00    -0.207 F 
ENDBRANCH  13  25
ENDBRANCH   8  10
ENDBRANCH   7   8
ENDBRANCH   6   7
ENDBRANCH   4   6
ENDBRANCH   1   2
BRANCH   1  32
ATOM     32  C   UNL A   1      30.700  26.713  25.828  1.00  0.00     0.023 C 
BRANCH  32  33
ATOM     33  C   UNL A   1      31.492  27.929  26.445  1.00  0.00     0.023 C 
BRANCH  33  34
ATOM     34  C   UNL A   1      32.450  28.956  25.763  1.00  0.00     0.116 C 
BRANCH  34  35
ATOM     35  N   UNL A   1      32.147  30.349  26.044  1.00  0.00    -0.352 N 
ATOM     36  C   UNL A   1      32.730  31.251  26.914  1.00  0.00     0.251 C 
ATOM     37  H   UNL A   1      31.394  30.713  25.525  1.00  0.00     0.163 HD
ATOM     38  O   UNL A   1      32.096  32.276  27.169  1.00  0.00    -0.269 OA
BRANCH  36  39
ATOM     39  C   UNL A   1      34.082  31.101  27.533  1.00  0.00     0.039 A 
ATOM     40  C   UNL A   1      34.451  29.825  27.996  1.00  0.00     0.014 A 
ATOM     41  C   UNL A   1      34.899  32.184  27.868  1.00  0.00     0.014 A 
ATOM     42  C   UNL A   1      35.619  29.634  28.755  1.00  0.00     0.010 A 
ATOM     43  C   UNL A   1      36.058  31.999  28.645  1.00  0.00     0.010 A 
ATOM     44  C   UNL A   1      36.435  30.723  29.090  1.00  0.00    -0.014 A 
BRANCH  44  45
ATOM     45  C   UNL A   1      37.743  30.522  29.773  1.00  0.00     0.031 A 
ATOM     46  C   UNL A   1      38.875  29.758  29.143  1.00  0.00     0.074 A 
ATOM     47  C   UNL A   1      37.881  31.000  31.026  1.00  0.00     0.049 A 
ATOM     48  N   UNL A   1      40.069  29.509  29.622  1.00  0.00    -0.248 NA
ATOM     49  C   UNL A   1      38.633  29.190  27.810  1.00  0.00     0.031 C 
ATOM     50  C   UNL A   1      36.840  31.719  31.760  1.00  0.00     0.029 A 
ATOM     51  N   UNL A   1      38.932  30.943  31.905  1.00  0.00    -0.354 N 
ATOM     52  C   UNL A   1      40.728  28.765  28.649  1.00  0.00     0.074 A 
ATOM     53  C   UNL A   1      39.784  28.572  27.568  1.00  0.00     0.031 C 
ATOM     54  C   UNL A   1      37.302  32.038  32.978  1.00  0.00     0.029 A 
ATOM     55  C   UNL A   1      38.665  31.532  33.118  1.00  0.00     0.049 A 
ATOM     56  H   UNL A   1      39.795  30.520  31.690  1.00  0.00     0.167 HD
ATOM     57  C   UNL A   1      42.004  28.302  28.655  1.00  0.00     0.037 A 
ATOM     58  C   UNL A   1      39.427  31.656  34.221  1.00  0.00     0.037 A 
ATOM     59  C   UNL A   1      42.932  28.485  29.746  1.00  0.00     0.049 A 
ATOM     60  C   UNL A   1      40.830  31.123  34.211  1.00  0.00     0.074 A 
ATOM     61  C   UNL A   1      44.259  28.096  29.824  1.00  0.00     0.029 A 
ATOM     62  N   UNL A   1      42.625  29.093  30.954  1.00  0.00    -0.354 N 
ATOM     63  N   UNL A   1      41.465  30.498  33.250  1.00  0.00    -0.248 NA
ATOM     64  C   UNL A   1      41.627  31.322  35.429  1.00  0.00     0.031 C 
ATOM     65  C   UNL A   1      44.742  28.427  31.095  1.00  0.00     0.029 A 
ATOM     66  C   UNL A   1      43.731  29.069  31.791  1.00  0.00     0.049 A 
ATOM     67  H   UNL A   1      41.753  29.484  31.184  1.00  0.00     0.167 HD
ATOM     68  C   UNL A   1      42.741  30.247  33.736  1.00  0.00     0.074 A 
ATOM     69  C   UNL A   1      42.794  30.800  35.075  1.00  0.00     0.031 C 
ATOM     70  C   UNL A   1      43.773  29.618  33.124  1.00  0.00     0.037 A 
BRANCH  57  71
ATOM     71  C   UNL A   1      42.492  27.559  27.442  1.00  0.00     0.057 A 
ATOM     72  C   UNL A   1      42.895  28.241  26.285  1.00  0.00     0.134 A 
ATOM     73  C   UNL A   1      42.477  26.158  27.387  1.00  0.00     0.134 A 
ATOM     74  F   UNL A   1      42.916  29.581  26.258  1.00  0.00    -0.206 F 
ATOM     75  C   UNL A   1      43.260  27.559  25.121  1.00  0.00     0.040 A 
ATOM     76  C   UNL A   1      42.860  25.464  26.236  1.00  0.00     0.040 A 
ATOM     77  F   UNL A   1      42.096  25.441  28.455  1.00  0.00    -0.206 F 
ATOM     78  C   UNL A   1      43.246  26.167  25.096  1.00  0.00     0.006 A 
ENDBRANCH  57  71
BRANCH  58  79
ATOM     79  C   UNL A   1      38.878  32.365  35.403  1.00  0.00     0.057 A 
ATOM     80  C   UNL A   1      39.076  33.738  35.592  1.00  0.00     0.134 A 
ATOM     81  C   UNL A   1      38.198  31.667  36.406  1.00  0.00     0.134 A 
ATOM     82  F   UNL A   1      39.733  34.461  34.672  1.00  0.00    -0.206 F 
ATOM     83  C   UNL A   1      38.638  34.387  36.747  1.00  0.00     0.040 A 
ATOM     84  C   UNL A   1      37.734  32.307  37.557  1.00  0.00     0.040 A 
ATOM     85  F   UNL A   1      37.967  30.352  36.276  1.00  0.00    -0.206 F 
ATOM     86  C   UNL A   1      37.963  33.671  37.733  1.00  0.00     0.006 A 
ENDBRANCH  58  79
BRANCH  70  87
ATOM     87  C   UNL A   1      45.060  29.497  33.887  1.00  0.00     0.057 A 
ATOM     88  C   UNL A   1      45.289  28.402  34.732  1.00  0.00     0.134 A 
ATOM     89  C   UNL A   1      46.040  30.495  33.841  1.00  0.00     0.134 A 
ATOM     90  F   UNL A   1      44.387  27.414  34.827  1.00  0.00    -0.206 F 
ATOM     91  C   UNL A   1      46.440  28.314  35.516  1.00  0.00     0.040 A 
ATOM     92  C   UNL A   1      47.207  30.406  34.602  1.00  0.00     0.040 A 
ATOM     93  F   UNL A   1      45.887  31.562  33.043  1.00  0.00    -0.206 F 
ATOM     94  C   UNL A   1      47.404  29.317  35.450  1.00  0.00     0.006 A 
ENDBRANCH  70  87
ENDBRANCH  44  45
ENDBRANCH  36  39
ENDBRANCH  34  35
ENDBRANCH  33  34
ENDBRANCH  32  33
ENDBRANCH   1  32
TORSDOF 16
ENDMDL
