MODEL 1
REMARK VINA RESULT:     -13.2      0.000      0.000
REMARK SMILES COc1ccc(N2C(=O)/C(=C/c3c(C(=O)NCCCCNC(=O)c4ccc(-c5c6nc(c(-c7c(F)cccc7F)c7ccc([nH]7)c(-c7c(F)cccc7F)c7nc(c(-c8c(F)cccc8F)c8ccc5[nH]8)C=C7)C=C6)cc4)[nH]c4cc(OC)ccc34)SC2=S)cc1
REMARK SMILES IDX 18 1 17 2 16 3 14 4 15 5 13 7 12 8 86 9 78 10 79 11 85 12
REMARK SMILES IDX 80 14 84 15 81 16 11 17 7 18 8 19 88 20 9 21 10 22 87 23
REMARK SMILES IDX 89 24 6 25 3 26 4 27 91 28 5 29 90 30 2 31 1 32 82 33 83 34
REMARK SMILES IDX 19 35 20 36 21 37 22 38 23 40 24 41 25 42 77 43 26 44 76 45
REMARK SMILES IDX 27 46 28 47 29 48 70 49 30 50 75 51 69 52 71 53 31 54 74 55
REMARK SMILES IDX 68 56 67 57 32 59 58 60 41 61 57 62 42 63 45 64 56 65 72 66
REMARK SMILES IDX 43 67 44 68 55 70 73 71 46 72 33 73 34 74 39 75 35 76 36 77
REMARK SMILES IDX 38 78 40 79 37 80 59 81 60 82 65 83 61 84 62 85 64 86 66 87
REMARK SMILES IDX 63 88 47 89 48 90 53 91 49 92 50 93 52 94 54 95 51 96
REMARK H PARENT 16 6 78 13 21 39 71 58 45 69
REMARK Flexibility Score: inf
ROOT
ATOM      1  C   UNL A   1      37.717  23.422  25.751  1.00  0.00     0.023 C 
ENDROOT
BRANCH   1   2
ATOM      2  C   UNL A   1      36.182  23.554  25.685  1.00  0.00     0.116 C 
BRANCH   2   3
ATOM      3  N   UNL A   1      35.437  23.246  26.908  1.00  0.00    -0.351 N 
ATOM      4  C   UNL A   1      34.397  22.347  27.102  1.00  0.00     0.268 C 
ATOM      5  O   UNL A   1      33.786  22.399  28.168  1.00  0.00    -0.268 OA
ATOM      6  H   UNL A   1      35.714  23.749  27.707  1.00  0.00     0.163 HD
BRANCH   4   7
ATOM      7  C   UNL A   1      34.028  21.407  26.066  1.00  0.00     0.112 A 
ATOM      8  C   UNL A   1      32.837  21.144  25.384  1.00  0.00     0.014 A 
ATOM      9  C   UNL A   1      32.971  19.760  24.969  1.00  0.00     0.008 A 
ATOM     10  N   UNL A   1      34.963  20.655  25.396  1.00  0.00    -0.350 N 
ATOM     11  C   UNL A   1      34.349  19.508  24.966  1.00  0.00     0.050 A 
ATOM     12  C   UNL A   1      32.148  18.655  24.617  1.00  0.00     0.015 A 
ATOM     13  H   UNL A   1      35.906  20.897  25.251  1.00  0.00     0.167 HD
ATOM     14  C   UNL A   1      34.936  18.287  24.626  1.00  0.00     0.073 A 
ATOM     15  C   UNL A   1      32.732  17.372  24.369  1.00  0.00     0.047 A 
ATOM     16  C   UNL A   1      34.114  17.195  24.371  1.00  0.00     0.120 A 
BRANCH   8  17
ATOM     17  C   UNL A   1      31.757  22.113  25.472  1.00  0.00     0.032 C 
ATOM     18  N   UNL A   1      31.927  25.257  23.746  1.00  0.00    -0.261 N 
ATOM     19  C   UNL A   1      31.309  24.491  24.757  1.00  0.00     0.270 C 
ATOM     20  C   UNL A   1      32.262  24.571  22.595  1.00  0.00     0.152 C 
ATOM     21  O   UNL A   1      30.701  24.892  25.740  1.00  0.00    -0.268 OA
ATOM     22  C   UNL A   1      31.522  23.021  24.484  1.00  0.00     0.081 C 
ATOM     23  S   UNL A   1      31.912  22.856  22.804  1.00  0.00    -0.054 SA
ATOM     24  S   UNL A   1      32.901  25.172  21.174  1.00  0.00    -0.051 S 
BRANCH  18  25
ATOM     25  C   UNL A   1      31.994  26.683  23.835  1.00  0.00     0.051 A 
ATOM     26  C   UNL A   1      31.729  29.335  24.733  1.00  0.00     0.119 A 
ATOM     27  C   UNL A   1      32.953  28.687  24.861  1.00  0.00     0.048 A 
ATOM     28  C   UNL A   1      30.877  28.803  23.749  1.00  0.00     0.048 A 
ATOM     29  C   UNL A   1      33.097  27.374  24.351  1.00  0.00     0.030 A 
ATOM     30  C   UNL A   1      30.939  27.454  23.392  1.00  0.00     0.030 A 
BRANCH  26  31
ATOM     31  O   UNL A   1      31.402  30.320  25.767  1.00  0.00    -0.497 OA
ATOM     32  C   UNL A   1      31.404  32.154  26.578  1.00  0.00     0.278 C 
ENDBRANCH  26  31
ENDBRANCH  18  25
ENDBRANCH   8  17
BRANCH  16  33
ATOM     33  O   UNL A   1      34.826  16.041  24.203  1.00  0.00    -0.497 OA
ATOM     34  C   UNL A   1      35.558  15.504  25.291  1.00  0.00     0.278 C 
ENDBRANCH  16  33
ENDBRANCH   4   7
ENDBRANCH   2   3
ENDBRANCH   1   2
BRANCH   1  35
ATOM     35  C   UNL A   1      38.524  24.502  26.506  1.00  0.00     0.023 C 
BRANCH  35  36
ATOM     36  C   UNL A   1      39.484  24.077  27.639  1.00  0.00     0.116 C 
BRANCH  36  37
ATOM     37  N   UNL A   1      40.234  22.847  27.411  1.00  0.00    -0.352 N 
ATOM     38  C   UNL A   1      41.600  22.651  27.484  1.00  0.00     0.251 C 
ATOM     39  H   UNL A   1      39.698  22.057  27.175  1.00  0.00     0.163 HD
ATOM     40  O   UNL A   1      42.052  21.532  27.714  1.00  0.00    -0.269 OA
BRANCH  38  41
ATOM     41  C   UNL A   1      42.571  23.705  27.128  1.00  0.00     0.039 A 
ATOM     42  C   UNL A   1      43.324  24.549  28.521  1.00  0.00     0.014 A 
ATOM     43  C   UNL A   1      42.774  24.368  25.469  1.00  0.00     0.014 A 
ATOM     44  C   UNL A   1      44.344  25.996  28.269  1.00  0.00     0.010 A 
ATOM     45  C   UNL A   1      43.820  25.855  25.205  1.00  0.00     0.010 A 
ATOM     46  C   UNL A   1      44.672  26.641  26.606  1.00  0.00    -0.014 A 
BRANCH  46  47
ATOM     47  C   UNL A   1      45.710  27.733  26.478  1.00  0.00     0.031 A 
ATOM     48  C   UNL A   1      45.369  29.196  26.623  1.00  0.00     0.074 A 
ATOM     49  C   UNL A   1      46.999  27.417  26.191  1.00  0.00     0.049 A 
ATOM     50  N   UNL A   1      46.146  30.249  26.507  1.00  0.00    -0.248 NA
ATOM     51  C   UNL A   1      43.966  29.537  26.877  1.00  0.00     0.031 C 
ATOM     52  C   UNL A   1      47.508  26.080  25.872  1.00  0.00     0.029 A 
ATOM     53  N   UNL A   1      48.139  28.196  26.130  1.00  0.00    -0.354 N 
ATOM     54  C   UNL A   1      45.314  31.358  26.622  1.00  0.00     0.074 A 
ATOM     55  C   UNL A   1      43.965  30.851  26.720  1.00  0.00     0.031 C 
ATOM     56  C   UNL A   1      48.844  26.104  25.784  1.00  0.00     0.029 A 
ATOM     57  C   UNL A   1      49.300  27.478  25.919  1.00  0.00     0.049 A 
ATOM     58  H   UNL A   1      48.125  29.175  26.228  1.00  0.00     0.167 HD
ATOM     59  C   UNL A   1      45.630  32.675  26.701  1.00  0.00     0.037 A 
ATOM     60  C   UNL A   1      50.589  27.865  25.827  1.00  0.00     0.037 A 
ATOM     61  C   UNL A   1      46.971  33.193  26.675  1.00  0.00     0.049 A 
ATOM     62  C   UNL A   1      50.925  29.326  25.944  1.00  0.00     0.074 A 
ATOM     63  C   UNL A   1      47.395  34.504  26.817  1.00  0.00     0.029 A 
ATOM     64  N   UNL A   1      48.111  32.422  26.500  1.00  0.00    -0.354 N 
ATOM     65  N   UNL A   1      50.125  30.343  26.148  1.00  0.00    -0.248 NA
ATOM     66  C   UNL A   1      52.343  29.696  25.816  1.00  0.00     0.031 C 
ATOM     67  C   UNL A   1      48.787  34.531  26.686  1.00  0.00     0.029 A 
ATOM     68  C   UNL A   1      49.235  33.232  26.514  1.00  0.00     0.049 A 
ATOM     69  H   UNL A   1      48.120  31.444  26.384  1.00  0.00     0.167 HD
ATOM     70  C   UNL A   1      50.940  31.464  26.201  1.00  0.00     0.074 A 
ATOM     71  C   UNL A   1      52.302  31.003  26.030  1.00  0.00     0.031 C 
ATOM     72  C   UNL A   1      50.589  32.762  26.369  1.00  0.00     0.037 A 
BRANCH  59  73
ATOM     73  C   UNL A   1      44.488  33.644  26.854  1.00  0.00     0.057 A 
ATOM     74  C   UNL A   1      43.897  34.271  25.746  1.00  0.00     0.134 A 
ATOM     75  C   UNL A   1      43.981  33.969  28.119  1.00  0.00     0.134 A 
ATOM     76  F   UNL A   1      44.336  34.011  24.505  1.00  0.00    -0.206 F 
ATOM     77  C   UNL A   1      42.893  35.230  25.895  1.00  0.00     0.040 A 
ATOM     78  C   UNL A   1      42.952  34.899  28.277  1.00  0.00     0.040 A 
ATOM     79  F   UNL A   1      44.482  33.395  29.223  1.00  0.00    -0.206 F 
ATOM     80  C   UNL A   1      42.416  35.545  27.164  1.00  0.00     0.006 A 
ENDBRANCH  59  73
BRANCH  60  81
ATOM     81  C   UNL A   1      51.676  26.863  25.626  1.00  0.00     0.057 A 
ATOM     82  C   UNL A   1      52.146  26.554  24.342  1.00  0.00     0.134 A 
ATOM     83  C   UNL A   1      52.249  26.163  26.697  1.00  0.00     0.134 A 
ATOM     84  F   UNL A   1      51.628  27.168  23.269  1.00  0.00    -0.206 F 
ATOM     85  C   UNL A   1      53.117  25.571  24.128  1.00  0.00     0.040 A 
ATOM     86  C   UNL A   1      53.243  25.202  26.501  1.00  0.00     0.040 A 
ATOM     87  F   UNL A   1      51.854  26.410  27.955  1.00  0.00    -0.206 F 
ATOM     88  C   UNL A   1      53.672  24.895  25.211  1.00  0.00     0.006 A 
ENDBRANCH  60  81
BRANCH  72  89
ATOM     89  C   UNL A   1      51.693  33.777  26.428  1.00  0.00     0.057 A 
ATOM     90  C   UNL A   1      52.315  34.127  27.633  1.00  0.00     0.134 A 
ATOM     91  C   UNL A   1      52.177  34.366  25.254  1.00  0.00     0.134 A 
ATOM     92  F   UNL A   1      51.888  33.609  28.795  1.00  0.00    -0.206 F 
ATOM     93  C   UNL A   1      53.368  35.041  27.670  1.00  0.00     0.040 A 
ATOM     94  C   UNL A   1      53.250  35.259  25.275  1.00  0.00     0.040 A 
ATOM     95  F   UNL A   1      51.631  34.069  24.065  1.00  0.00    -0.206 F 
ATOM     96  C   UNL A   1      53.845  35.602  26.486  1.00  0.00     0.006 A 
ENDBRANCH  72  89
ENDBRANCH  46  47
ENDBRANCH  38  41
ENDBRANCH  36  37
ENDBRANCH  35  36
ENDBRANCH   1  35
TORSDOF 15
ENDMDL
MODEL 2
REMARK VINA RESULT:     -13.0      3.642      9.342
REMARK SMILES COc1ccc(N2C(=O)/C(=C/c3c(C(=O)NCCCCNC(=O)c4ccc(-c5c6nc(c(-c7c(F)cccc7F)c7ccc([nH]7)c(-c7c(F)cccc7F)c7nc(c(-c8c(F)cccc8F)c8ccc5[nH]8)C=C7)C=C6)cc4)[nH]c4cc(OC)ccc34)SC2=S)cc1
REMARK SMILES IDX 18 1 17 2 16 3 14 4 15 5 13 7 12 8 86 9 78 10 79 11 85 12
REMARK SMILES IDX 80 14 84 15 81 16 11 17 7 18 8 19 88 20 9 21 10 22 87 23
REMARK SMILES IDX 89 24 6 25 3 26 4 27 91 28 5 29 90 30 2 31 1 32 82 33 83 34
REMARK SMILES IDX 19 35 20 36 21 37 22 38 23 40 24 41 25 42 77 43 26 44 76 45
REMARK SMILES IDX 27 46 28 47 29 48 70 49 30 50 75 51 69 52 71 53 31 54 74 55
REMARK SMILES IDX 68 56 67 57 32 59 58 60 41 61 57 62 42 63 45 64 56 65 72 66
REMARK SMILES IDX 43 67 44 68 55 70 73 71 46 72 33 73 34 74 39 75 35 76 36 77
REMARK SMILES IDX 38 78 40 79 37 80 59 81 60 82 65 83 61 84 62 85 64 86 66 87
REMARK SMILES IDX 63 88 47 89 48 90 53 91 49 92 50 93 52 94 54 95 51 96
REMARK H PARENT 16 6 78 13 21 39 71 58 45 69
REMARK Flexibility Score: inf
ROOT
ATOM      1  C   UNL A   1      33.441  28.262  27.216  1.00  0.00     0.023 C 
ENDROOT
BRANCH   1   2
ATOM      2  C   UNL A   1      33.539  27.422  25.926  1.00  0.00     0.116 C 
BRANCH   2   3
ATOM      3  N   UNL A   1      34.164  28.060  24.766  1.00  0.00    -0.351 N 
ATOM      4  C   UNL A   1      33.572  28.574  23.619  1.00  0.00     0.268 C 
ATOM      5  O   UNL A   1      34.307  28.882  22.683  1.00  0.00    -0.268 OA
ATOM      6  H   UNL A   1      35.144  28.137  24.804  1.00  0.00     0.163 HD
BRANCH   4   7
ATOM      7  C   UNL A   1      32.134  28.706  23.525  1.00  0.00     0.112 A 
ATOM      8  C   UNL A   1      31.141  27.977  22.864  1.00  0.00     0.014 A 
ATOM      9  C   UNL A   1      30.072  28.939  22.669  1.00  0.00     0.008 A 
ATOM     10  N   UNL A   1      31.428  29.582  24.314  1.00  0.00    -0.350 N 
ATOM     11  C   UNL A   1      30.286  29.927  23.639  1.00  0.00     0.050 A 
ATOM     12  C   UNL A   1      28.962  29.159  21.809  1.00  0.00     0.015 A 
ATOM     13  H   UNL A   1      31.694  29.902  25.205  1.00  0.00     0.167 HD
ATOM     14  C   UNL A   1      29.486  31.058  23.816  1.00  0.00     0.073 A 
ATOM     15  C   UNL A   1      28.198  30.364  21.912  1.00  0.00     0.047 A 
ATOM     16  C   UNL A   1      28.459  31.301  22.910  1.00  0.00     0.120 A 
BRANCH   8  17
ATOM     17  C   UNL A   1      31.475  26.661  22.345  1.00  0.00     0.032 C 
ATOM     18  N   UNL A   1      32.106  23.894  24.545  1.00  0.00    -0.261 N 
ATOM     19  C   UNL A   1      32.229  24.427  23.244  1.00  0.00     0.270 C 
ATOM     20  C   UNL A   1      30.931  24.192  25.206  1.00  0.00     0.152 C 
ATOM     21  O   UNL A   1      33.030  24.113  22.375  1.00  0.00    -0.268 OA
ATOM     22  C   UNL A   1      31.209  25.522  23.045  1.00  0.00     0.081 C 
ATOM     23  S   UNL A   1      29.964  25.294  24.228  1.00  0.00    -0.054 SA
ATOM     24  S   UNL A   1      30.408  23.650  26.697  1.00  0.00    -0.051 S 
BRANCH  18  25
ATOM     25  C   UNL A   1      33.043  22.934  25.043  1.00  0.00     0.051 A 
ATOM     26  C   UNL A   1      35.297  21.277  25.329  1.00  0.00     0.119 A 
ATOM     27  C   UNL A   1      35.202  22.442  26.084  1.00  0.00     0.048 A 
ATOM     28  C   UNL A   1      34.071  20.777  24.856  1.00  0.00     0.048 A 
ATOM     29  C   UNL A   1      34.036  23.240  25.980  1.00  0.00     0.030 A 
ATOM     30  C   UNL A   1      32.991  21.627  24.606  1.00  0.00     0.030 A 
BRANCH  26  31
ATOM     31  O   UNL A   1      36.647  20.858  24.944  1.00  0.00    -0.497 OA
ATOM     32  C   UNL A   1      38.190  19.579  24.879  1.00  0.00     0.278 C 
ENDBRANCH  26  31
ENDBRANCH  18  25
ENDBRANCH   8  17
BRANCH  16  33
ATOM     33  O   UNL A   1      27.863  32.513  23.118  1.00  0.00    -0.497 OA
ATOM     34  C   UNL A   1      28.653  33.690  23.131  1.00  0.00     0.278 C 
ENDBRANCH  16  33
ENDBRANCH   4   7
ENDBRANCH   2   3
ENDBRANCH   1   2
BRANCH   1  35
ATOM     35  C   UNL A   1      34.536  29.312  27.505  1.00  0.00     0.023 C 
BRANCH  35  36
ATOM     36  C   UNL A   1      34.153  30.807  27.580  1.00  0.00     0.116 C 
BRANCH  36  37
ATOM     37  N   UNL A   1      34.024  31.364  28.921  1.00  0.00    -0.352 N 
ATOM     38  C   UNL A   1      35.025  31.795  29.770  1.00  0.00     0.251 C 
ATOM     39  H   UNL A   1      33.105  31.443  29.265  1.00  0.00     0.163 HD
ATOM     40  O   UNL A   1      34.781  32.629  30.640  1.00  0.00    -0.269 OA
BRANCH  38  41
ATOM     41  C   UNL A   1      36.364  31.172  29.796  1.00  0.00     0.039 A 
ATOM     42  C   UNL A   1      37.371  31.470  28.341  1.00  0.00     0.014 A 
ATOM     43  C   UNL A   1      36.873  29.933  30.994  1.00  0.00     0.014 A 
ATOM     44  C   UNL A   1      38.919  30.607  28.111  1.00  0.00     0.010 A 
ATOM     45  C   UNL A   1      38.464  29.042  30.762  1.00  0.00     0.010 A 
ATOM     46  C   UNL A   1      39.535  29.428  29.344  1.00  0.00    -0.014 A 
BRANCH  46  47
ATOM     47  C   UNL A   1      40.945  28.911  29.166  1.00  0.00     0.031 A 
ATOM     48  C   UNL A   1      41.240  27.506  28.697  1.00  0.00     0.074 A 
ATOM     49  C   UNL A   1      42.004  29.706  29.462  1.00  0.00     0.049 A 
ATOM     50  N   UNL A   1      42.397  26.909  28.528  1.00  0.00    -0.248 NA
ATOM     51  C   UNL A   1      40.093  26.632  28.433  1.00  0.00     0.031 C 
ATOM     52  C   UNL A   1      41.938  31.041  30.062  1.00  0.00     0.029 A 
ATOM     53  N   UNL A   1      43.363  29.521  29.288  1.00  0.00    -0.354 N 
ATOM     54  C   UNL A   1      42.106  25.591  28.193  1.00  0.00     0.074 A 
ATOM     55  C   UNL A   1      40.671  25.452  28.277  1.00  0.00     0.031 C 
ATOM     56  C   UNL A   1      43.157  31.598  30.083  1.00  0.00     0.029 A 
ATOM     57  C   UNL A   1      44.127  30.625  29.609  1.00  0.00     0.049 A 
ATOM     58  H   UNL A   1      43.751  28.676  28.963  1.00  0.00     0.167 HD
ATOM     59  C   UNL A   1      42.936  24.594  27.793  1.00  0.00     0.037 A 
ATOM     60  C   UNL A   1      45.457  30.843  29.551  1.00  0.00     0.037 A 
ATOM     61  C   UNL A   1      44.359  24.734  27.638  1.00  0.00     0.049 A 
ATOM     62  C   UNL A   1      46.360  29.737  29.079  1.00  0.00     0.074 A 
ATOM     63  C   UNL A   1      45.273  23.803  27.173  1.00  0.00     0.029 A 
ATOM     64  N   UNL A   1      45.076  25.882  27.937  1.00  0.00    -0.354 N 
ATOM     65  N   UNL A   1      46.046  28.530  28.678  1.00  0.00    -0.248 NA
ATOM     66  C   UNL A   1      47.803  30.020  29.054  1.00  0.00     0.031 C 
ATOM     67  C   UNL A   1      46.548  24.373  27.232  1.00  0.00     0.029 A 
ATOM     68  C   UNL A   1      46.423  25.677  27.684  1.00  0.00     0.049 A 
ATOM     69  H   UNL A   1      44.686  26.719  28.280  1.00  0.00     0.167 HD
ATOM     70  C   UNL A   1      47.243  27.922  28.327  1.00  0.00     0.074 A 
ATOM     71  C   UNL A   1      48.290  28.899  28.541  1.00  0.00     0.031 C 
ATOM     72  C   UNL A   1      47.456  26.663  27.875  1.00  0.00     0.037 A 
BRANCH  59  73
ATOM     73  C   UNL A   1      42.303  23.267  27.468  1.00  0.00     0.057 A 
ATOM     74  C   UNL A   1      41.983  22.336  28.468  1.00  0.00     0.134 A 
ATOM     75  C   UNL A   1      42.024  22.905  26.144  1.00  0.00     0.134 A 
ATOM     76  F   UNL A   1      42.228  22.613  29.757  1.00  0.00    -0.206 F 
ATOM     77  C   UNL A   1      41.472  21.074  28.158  1.00  0.00     0.040 A 
ATOM     78  C   UNL A   1      41.479  21.660  25.825  1.00  0.00     0.040 A 
ATOM     79  F   UNL A   1      42.284  23.752  25.136  1.00  0.00    -0.206 F 
ATOM     80  C   UNL A   1      41.217  20.734  26.833  1.00  0.00     0.006 A 
ENDBRANCH  59  73
BRANCH  60  81
ATOM     81  C   UNL A   1      46.033  32.166  29.932  1.00  0.00     0.057 A 
ATOM     82  C   UNL A   1      46.398  32.439  31.258  1.00  0.00     0.134 A 
ATOM     83  C   UNL A   1      46.202  33.199  29.001  1.00  0.00     0.134 A 
ATOM     84  F   UNL A   1      46.243  31.504  32.207  1.00  0.00    -0.206 F 
ATOM     85  C   UNL A   1      46.878  33.693  31.648  1.00  0.00     0.040 A 
ATOM     86  C   UNL A   1      46.711  34.446  29.371  1.00  0.00     0.040 A 
ATOM     87  F   UNL A   1      45.881  33.009  27.713  1.00  0.00    -0.206 F 
ATOM     88  C   UNL A   1      47.039  34.700  30.701  1.00  0.00     0.006 A 
ENDBRANCH  60  81
BRANCH  72  89
ATOM     89  C   UNL A   1      48.864  26.279  27.530  1.00  0.00     0.057 A 
ATOM     90  C   UNL A   1      49.721  25.685  28.465  1.00  0.00     0.134 A 
ATOM     91  C   UNL A   1      49.347  26.454  26.227  1.00  0.00     0.134 A 
ATOM     92  F   UNL A   1      49.325  25.503  29.733  1.00  0.00    -0.206 F 
ATOM     93  C   UNL A   1      51.016  25.295  28.120  1.00  0.00     0.040 A 
ATOM     94  C   UNL A   1      50.630  26.041  25.863  1.00  0.00     0.040 A 
ATOM     95  F   UNL A   1      48.575  27.010  25.282  1.00  0.00    -0.206 F 
ATOM     96  C   UNL A   1      51.469  25.463  26.813  1.00  0.00     0.006 A 
ENDBRANCH  72  89
ENDBRANCH  46  47
ENDBRANCH  38  41
ENDBRANCH  36  37
ENDBRANCH  35  36
ENDBRANCH   1  35
TORSDOF 15
ENDMDL
MODEL 3
REMARK VINA RESULT:     -12.8      0.811      5.875
REMARK SMILES COc1ccc(N2C(=O)/C(=C/c3c(C(=O)NCCCCNC(=O)c4ccc(-c5c6nc(c(-c7c(F)cccc7F)c7ccc([nH]7)c(-c7c(F)cccc7F)c7nc(c(-c8c(F)cccc8F)c8ccc5[nH]8)C=C7)C=C6)cc4)[nH]c4cc(OC)ccc34)SC2=S)cc1
REMARK SMILES IDX 18 1 17 2 16 3 14 4 15 5 13 7 12 8 86 9 78 10 79 11 85 12
REMARK SMILES IDX 80 14 84 15 81 16 11 17 7 18 8 19 88 20 9 21 10 22 87 23
REMARK SMILES IDX 89 24 6 25 3 26 4 27 91 28 5 29 90 30 2 31 1 32 82 33 83 34
REMARK SMILES IDX 19 35 20 36 21 37 22 38 23 40 24 41 25 42 77 43 26 44 76 45
REMARK SMILES IDX 27 46 28 47 29 48 70 49 30 50 75 51 69 52 71 53 31 54 74 55
REMARK SMILES IDX 68 56 67 57 32 59 58 60 41 61 57 62 42 63 45 64 56 65 72 66
REMARK SMILES IDX 43 67 44 68 55 70 73 71 46 72 33 73 34 74 39 75 35 76 36 77
REMARK SMILES IDX 38 78 40 79 37 80 59 81 60 82 65 83 61 84 62 85 64 86 66 87
REMARK SMILES IDX 63 88 47 89 48 90 53 91 49 92 50 93 52 94 54 95 51 96
REMARK H PARENT 16 6 78 13 21 39 71 58 45 69
REMARK Flexibility Score: inf
ROOT
ATOM      1  C   UNL A   1      37.302  23.554  25.621  1.00  0.00     0.023 C 
ENDROOT
BRANCH   1   2
ATOM      2  C   UNL A   1      35.786  23.817  25.732  1.00  0.00     0.116 C 
BRANCH   2   3
ATOM      3  N   UNL A   1      35.125  23.374  26.961  1.00  0.00    -0.351 N 
ATOM      4  C   UNL A   1      34.194  22.359  27.144  1.00  0.00     0.268 C 
ATOM      5  O   UNL A   1      33.621  22.295  28.230  1.00  0.00    -0.268 OA
ATOM      6  H   UNL A   1      35.377  23.865  27.776  1.00  0.00     0.163 HD
BRANCH   4   7
ATOM      7  C   UNL A   1      33.888  21.436  26.073  1.00  0.00     0.112 A 
ATOM      8  C   UNL A   1      32.736  21.173  25.327  1.00  0.00     0.014 A 
ATOM      9  C   UNL A   1      32.905  19.798  24.894  1.00  0.00     0.008 A 
ATOM     10  N   UNL A   1      34.864  20.705  25.438  1.00  0.00    -0.350 N 
ATOM     11  C   UNL A   1      34.285  19.561  24.956  1.00  0.00     0.050 A 
ATOM     12  C   UNL A   1      32.113  18.692  24.482  1.00  0.00     0.015 A 
ATOM     13  H   UNL A   1      35.810  20.960  25.345  1.00  0.00     0.167 HD
ATOM     14  C   UNL A   1      34.902  18.352  24.624  1.00  0.00     0.073 A 
ATOM     15  C   UNL A   1      32.723  17.420  24.240  1.00  0.00     0.047 A 
ATOM     16  C   UNL A   1      34.105  17.257  24.309  1.00  0.00     0.120 A 
BRANCH   8  17
ATOM     17  C   UNL A   1      31.642  22.129  25.378  1.00  0.00     0.032 C 
ATOM     18  N   UNL A   1      31.835  25.276  23.660  1.00  0.00    -0.261 N 
ATOM     19  C   UNL A   1      31.191  24.503  24.649  1.00  0.00     0.270 C 
ATOM     20  C   UNL A   1      32.218  24.596  22.521  1.00  0.00     0.152 C 
ATOM     21  O   UNL A   1      30.545  24.896  25.610  1.00  0.00    -0.268 OA
ATOM     22  C   UNL A   1      31.431  23.036  24.383  1.00  0.00     0.081 C 
ATOM     23  S   UNL A   1      31.880  22.877  22.717  1.00  0.00    -0.054 SA
ATOM     24  S   UNL A   1      32.899  25.205  21.123  1.00  0.00    -0.051 S 
BRANCH  18  25
ATOM     25  C   UNL A   1      31.882  26.704  23.752  1.00  0.00     0.051 A 
ATOM     26  C   UNL A   1      31.575  29.350  24.652  1.00  0.00     0.119 A 
ATOM     27  C   UNL A   1      32.807  28.718  24.789  1.00  0.00     0.048 A 
ATOM     28  C   UNL A   1      30.738  28.808  23.660  1.00  0.00     0.048 A 
ATOM     29  C   UNL A   1      32.972  27.408  24.278  1.00  0.00     0.030 A 
ATOM     30  C   UNL A   1      30.821  27.461  23.302  1.00  0.00     0.030 A 
BRANCH  26  31
ATOM     31  O   UNL A   1      31.226  30.329  25.685  1.00  0.00    -0.497 OA
ATOM     32  C   UNL A   1      31.531  31.977  26.786  1.00  0.00     0.278 C 
ENDBRANCH  26  31
ENDBRANCH  18  25
ENDBRANCH   8  17
BRANCH  16  33
ATOM     33  O   UNL A   1      34.837  16.113  24.155  1.00  0.00    -0.497 OA
ATOM     34  C   UNL A   1      35.545  15.581  25.262  1.00  0.00     0.278 C 
ENDBRANCH  16  33
ENDBRANCH   4   7
ENDBRANCH   2   3
ENDBRANCH   1   2
BRANCH   1  35
ATOM     35  C   UNL A   1      38.219  23.988  26.786  1.00  0.00     0.023 C 
BRANCH  35  36
ATOM     36  C   UNL A   1      39.683  24.384  26.492  1.00  0.00     0.116 C 
BRANCH  36  37
ATOM     37  N   UNL A   1      40.580  23.289  26.141  1.00  0.00    -0.352 N 
ATOM     38  C   UNL A   1      41.906  23.121  26.493  1.00  0.00     0.251 C 
ATOM     39  H   UNL A   1      40.191  22.579  25.582  1.00  0.00     0.163 HD
ATOM     40  O   UNL A   1      42.398  21.996  26.526  1.00  0.00    -0.269 OA
BRANCH  38  41
ATOM     41  C   UNL A   1      42.827  24.261  26.675  1.00  0.00     0.039 A 
ATOM     42  C   UNL A   1      43.595  24.868  25.170  1.00  0.00     0.014 A 
ATOM     43  C   UNL A   1      43.432  24.820  28.272  1.00  0.00     0.014 A 
ATOM     44  C   UNL A   1      44.900  26.086  25.241  1.00  0.00     0.010 A 
ATOM     45  C   UNL A   1      44.775  26.072  28.350  1.00  0.00     0.010 A 
ATOM     46  C   UNL A   1      45.473  26.766  26.822  1.00  0.00    -0.014 A 
BRANCH  46  47
ATOM     47  C   UNL A   1      46.427  27.939  26.767  1.00  0.00     0.031 A 
ATOM     48  C   UNL A   1      47.924  27.762  26.682  1.00  0.00     0.074 A 
ATOM     49  C   UNL A   1      45.950  29.208  26.829  1.00  0.00     0.049 A 
ATOM     50  N   UNL A   1      48.871  28.672  26.661  1.00  0.00    -0.248 NA
ATOM     51  C   UNL A   1      48.439  26.389  26.673  1.00  0.00     0.031 C 
ATOM     52  C   UNL A   1      44.555  29.595  27.056  1.00  0.00     0.029 A 
ATOM     53  N   UNL A   1      46.583  30.429  26.691  1.00  0.00    -0.354 N 
ATOM     54  C   UNL A   1      50.076  27.976  26.690  1.00  0.00     0.074 A 
ATOM     55  C   UNL A   1      49.740  26.578  26.826  1.00  0.00     0.031 C 
ATOM     56  C   UNL A   1      44.414  30.919  26.913  1.00  0.00     0.029 A 
ATOM     57  C   UNL A   1      45.725  31.511  26.699  1.00  0.00     0.049 A 
ATOM     58  H   UNL A   1      47.558  30.520  26.596  1.00  0.00     0.167 HD
ATOM     59  C   UNL A   1      51.346  28.434  26.556  1.00  0.00     0.037 A 
ATOM     60  C   UNL A   1      45.949  32.835  26.568  1.00  0.00     0.037 A 
ATOM     61  C   UNL A   1      51.695  29.814  26.351  1.00  0.00     0.049 A 
ATOM     62  C   UNL A   1      47.360  33.324  26.393  1.00  0.00     0.074 A 
ATOM     63  C   UNL A   1      52.947  30.366  26.135  1.00  0.00     0.029 A 
ATOM     64  N   UNL A   1      50.787  30.862  26.327  1.00  0.00    -0.354 N 
ATOM     65  N   UNL A   1      48.471  32.633  26.329  1.00  0.00    -0.248 NA
ATOM     66  C   UNL A   1      47.552  34.778  26.274  1.00  0.00     0.031 C 
ATOM     67  C   UNL A   1      52.802  31.752  26.025  1.00  0.00     0.029 A 
ATOM     68  C   UNL A   1      51.454  32.059  26.118  1.00  0.00     0.049 A 
ATOM     69  H   UNL A   1      49.814  30.770  26.441  1.00  0.00     0.167 HD
ATOM     70  C   UNL A   1      49.485  33.560  26.135  1.00  0.00     0.074 A 
ATOM     71  C   UNL A   1      48.858  34.863  26.069  1.00  0.00     0.031 C 
ATOM     72  C   UNL A   1      50.820  33.349  26.029  1.00  0.00     0.037 A 
BRANCH  59  73
ATOM     73  C   UNL A   1      52.450  27.412  26.601  1.00  0.00     0.057 A 
ATOM     74  C   UNL A   1      52.871  26.727  25.451  1.00  0.00     0.134 A 
ATOM     75  C   UNL A   1      53.091  27.094  27.806  1.00  0.00     0.134 A 
ATOM     76  F   UNL A   1      52.298  26.976  24.264  1.00  0.00    -0.206 F 
ATOM     77  C   UNL A   1      53.838  25.721  25.509  1.00  0.00     0.040 A 
ATOM     78  C   UNL A   1      54.086  26.117  27.869  1.00  0.00     0.040 A 
ATOM     79  F   UNL A   1      52.756  27.722  28.943  1.00  0.00    -0.206 F 
ATOM     80  C   UNL A   1      54.450  25.415  26.721  1.00  0.00     0.006 A 
ENDBRANCH  59  73
BRANCH  60  81
ATOM     81  C   UNL A   1      44.818  33.808  26.579  1.00  0.00     0.057 A 
ATOM     82  C   UNL A   1      44.458  34.485  27.753  1.00  0.00     0.134 A 
ATOM     83  C   UNL A   1      44.045  34.063  25.438  1.00  0.00     0.134 A 
ATOM     84  F   UNL A   1      45.139  34.272  28.889  1.00  0.00    -0.206 F 
ATOM     85  C   UNL A   1      43.361  35.350  27.800  1.00  0.00     0.040 A 
ATOM     86  C   UNL A   1      42.967  34.950  25.462  1.00  0.00     0.040 A 
ATOM     87  F   UNL A   1      44.334  33.457  24.276  1.00  0.00    -0.206 F 
ATOM     88  C   UNL A   1      42.614  35.587  26.650  1.00  0.00     0.006 A 
ENDBRANCH  60  81
BRANCH  72  89
ATOM     89  C   UNL A   1      51.692  34.544  25.779  1.00  0.00     0.057 A 
ATOM     90  C   UNL A   1      52.137  35.368  26.819  1.00  0.00     0.134 A 
ATOM     91  C   UNL A   1      52.138  34.836  24.483  1.00  0.00     0.134 A 
ATOM     92  F   UNL A   1      51.734  35.152  28.080  1.00  0.00    -0.206 F 
ATOM     93  C   UNL A   1      52.982  36.452  26.578  1.00  0.00     0.040 A 
ATOM     94  C   UNL A   1      53.007  35.900  24.234  1.00  0.00     0.040 A 
ATOM     95  F   UNL A   1      51.755  34.081  23.443  1.00  0.00    -0.206 F 
ATOM     96  C   UNL A   1      53.428  36.713  25.283  1.00  0.00     0.006 A 
ENDBRANCH  72  89
ENDBRANCH  46  47
ENDBRANCH  38  41
ENDBRANCH  36  37
ENDBRANCH  35  36
ENDBRANCH   1  35
TORSDOF 15
ENDMDL
