MODEL 1
REMARK VINA RESULT:     -10.1      0.000      0.000
REMARK SMILES CCc1cc2c(-c3ccccc3)cc(=O)oc2cc1OCC(=O)NCCCCNC(=O)c1ccc(-c2c3nc(c(-c4c(F)cccc4F)c4ccc([nH]4)c(-c4c(F)cccc4F)c4nc(c(-c5c(F)cccc5F)c5ccc2[nH]5)C=C4)C=C3)cc1
REMARK SMILES IDX 26 1 25 2 24 3 22 4 23 5 21 7 20 8 19 9 3 10 4 11 5 12 18 13
REMARK SMILES IDX 6 14 17 15 13 16 16 17 14 18 15 19 2 20 1 21 7 22 8 23 12 24
REMARK SMILES IDX 9 25 11 26 10 27 27 28 28 29 29 30 30 31 31 33 32 34 33 35
REMARK SMILES IDX 85 36 34 37 84 38 35 39 36 40 37 41 78 42 38 43 83 44 77 45
REMARK SMILES IDX 79 46 39 47 82 48 76 49 75 50 40 52 66 53 49 54 65 55 50 56
REMARK SMILES IDX 53 57 64 58 80 59 51 60 52 61 63 63 81 64 54 65 41 66 42 67
REMARK SMILES IDX 47 68 43 69 44 70 46 71 48 72 45 73 67 74 68 75 73 76 69 77
REMARK SMILES IDX 70 78 72 79 74 80 71 81 55 82 56 83 61 84 57 85 58 86 60 87
REMARK SMILES IDX 62 88 59 89
REMARK H PARENT 24 6 29 32 79 51 53 62
REMARK Flexibility Score: inf
ROOT
ATOM      1  C   UNL A   1      45.799  18.724  25.376  1.00  0.00     0.023 C 
ENDROOT
BRANCH   1   2
ATOM      2  C   UNL A   1      46.404  20.050  24.916  1.00  0.00     0.116 C 
BRANCH   2   3
ATOM      3  N   UNL A   1      45.523  20.776  24.023  1.00  0.00    -0.353 N 
ATOM      4  C   UNL A   1      45.261  22.116  23.988  1.00  0.00     0.257 C 
ATOM      5  O   UNL A   1      44.487  22.544  23.129  1.00  0.00    -0.271 OA
ATOM      6  H   UNL A   1      45.053  20.231  23.352  1.00  0.00     0.163 HD
BRANCH   4   7
ATOM      7  C   UNL A   1      45.968  23.058  24.968  1.00  0.00     0.329 C 
BRANCH   7   8
ATOM      8  O   UNL A   1      46.536  24.234  24.417  1.00  0.00    -0.483 OA
BRANCH   8   9
ATOM      9  C   UNL A   1      46.116  25.448  24.886  1.00  0.00     0.127 A 
ATOM     10  C   UNL A   1      47.138  26.335  25.277  1.00  0.00    -0.005 A 
ATOM     11  C   UNL A   1      46.798  27.592  25.814  1.00  0.00     0.020 A 
ATOM     12  C   UNL A   1      45.463  27.993  25.940  1.00  0.00     0.026 A 
ATOM     13  C   UNL A   1      44.783  25.844  25.001  1.00  0.00     0.094 A 
ATOM     14  C   UNL A   1      45.069  29.297  26.501  1.00  0.00    -0.000 A 
ATOM     15  C   UNL A   1      44.479  27.103  25.523  1.00  0.00     0.142 A 
ATOM     16  C   UNL A   1      43.756  29.574  26.567  1.00  0.00     0.103 A 
ATOM     17  O   UNL A   1      43.113  27.428  25.614  1.00  0.00    -0.423 OA
ATOM     18  C   UNL A   1      42.704  28.644  26.128  1.00  0.00     0.336 A 
ATOM     19  O   UNL A   1      41.521  28.953  26.223  1.00  0.00    -0.246 OA
BRANCH  10  20
ATOM     20  C   UNL A   1      48.602  25.971  25.141  1.00  0.00     0.036 C 
ATOM     21  C   UNL A   1      49.270  26.658  23.958  1.00  0.00     0.009 C 
ENDBRANCH  10  20
BRANCH  14  22
ATOM     22  C   UNL A   1      45.991  30.345  26.991  1.00  0.00    -0.017 A 
ATOM     23  C   UNL A   1      45.611  31.693  26.959  1.00  0.00     0.009 A 
ATOM     24  C   UNL A   1      47.268  30.007  27.462  1.00  0.00     0.009 A 
ATOM     25  C   UNL A   1      46.499  32.688  27.373  1.00  0.00     0.001 A 
ATOM     26  C   UNL A   1      48.150  31.003  27.886  1.00  0.00     0.001 A 
ATOM     27  C   UNL A   1      47.767  32.343  27.835  1.00  0.00     0.000 A 
ENDBRANCH  14  22
ENDBRANCH   8   9
ENDBRANCH   7   8
ENDBRANCH   4   7
ENDBRANCH   2   3
ENDBRANCH   1   2
BRANCH   1  28
ATOM     28  C   UNL A   1      44.310  18.544  25.079  1.00  0.00     0.023 C 
BRANCH  28  29
ATOM     29  C   UNL A   1      43.399  18.471  26.298  1.00  0.00     0.116 C 
BRANCH  29  30
ATOM     30  N   UNL A   1      41.984  18.532  25.965  1.00  0.00    -0.352 N 
ATOM     31  C   UNL A   1      41.105  19.577  26.128  1.00  0.00     0.251 C 
ATOM     32  H   UNL A   1      41.603  17.714  25.569  1.00  0.00     0.163 HD
ATOM     33  O   UNL A   1      39.911  19.427  25.891  1.00  0.00    -0.269 OA
BRANCH  31  34
ATOM     34  C   UNL A   1      41.601  20.876  26.632  1.00  0.00     0.039 A 
ATOM     35  C   UNL A   1      42.046  21.833  25.714  1.00  0.00     0.014 A 
ATOM     36  C   UNL A   1      41.594  21.162  28.000  1.00  0.00     0.014 A 
ATOM     37  C   UNL A   1      42.407  23.106  26.162  1.00  0.00     0.010 A 
ATOM     38  C   UNL A   1      41.891  22.449  28.436  1.00  0.00     0.010 A 
ATOM     39  C   UNL A   1      42.291  23.436  27.521  1.00  0.00    -0.014 A 
BRANCH  39  40
ATOM     40  C   UNL A   1      42.573  24.807  28.021  1.00  0.00     0.031 A 
ATOM     41  C   UNL A   1      43.958  25.165  28.479  1.00  0.00     0.074 A 
ATOM     42  C   UNL A   1      41.566  25.692  28.158  1.00  0.00     0.049 A 
ATOM     43  N   UNL A   1      44.375  26.244  29.092  1.00  0.00    -0.248 NA
ATOM     44  C   UNL A   1      45.009  24.163  28.241  1.00  0.00     0.031 C 
ATOM     45  C   UNL A   1      40.172  25.456  27.780  1.00  0.00     0.029 A 
ATOM     46  N   UNL A   1      41.560  26.962  28.678  1.00  0.00    -0.354 N 
ATOM     47  C   UNL A   1      45.725  26.039  29.336  1.00  0.00     0.074 A 
ATOM     48  C   UNL A   1      46.052  24.719  28.839  1.00  0.00     0.031 C 
ATOM     49  C   UNL A   1      39.447  26.548  28.075  1.00  0.00     0.029 A 
ATOM     50  C   UNL A   1      40.314  27.542  28.702  1.00  0.00     0.049 A 
ATOM     51  H   UNL A   1      42.370  27.417  29.002  1.00  0.00     0.167 HD
ATOM     52  C   UNL A   1      46.618  26.882  29.909  1.00  0.00     0.037 A 
ATOM     53  C   UNL A   1      39.912  28.729  29.192  1.00  0.00     0.037 A 
ATOM     54  C   UNL A   1      46.300  28.206  30.371  1.00  0.00     0.049 A 
ATOM     55  C   UNL A   1      40.919  29.644  29.832  1.00  0.00     0.074 A 
ATOM     56  C   UNL A   1      47.148  29.157  30.911  1.00  0.00     0.029 A 
ATOM     57  N   UNL A   1      45.032  28.766  30.348  1.00  0.00    -0.354 N 
ATOM     58  N   UNL A   1      42.203  29.459  30.012  1.00  0.00    -0.248 NA
ATOM     59  C   UNL A   1      40.421  30.931  30.340  1.00  0.00     0.031 C 
ATOM     60  C   UNL A   1      46.386  30.280  31.247  1.00  0.00     0.029 A 
ATOM     61  C   UNL A   1      45.071  30.044  30.880  1.00  0.00     0.049 A 
ATOM     62  H   UNL A   1      44.223  28.321  30.006  1.00  0.00     0.167 HD
ATOM     63  C   UNL A   1      42.673  30.615  30.620  1.00  0.00     0.074 A 
ATOM     64  C   UNL A   1      41.537  31.498  30.778  1.00  0.00     0.031 C 
ATOM     65  C   UNL A   1      43.935  30.919  31.010  1.00  0.00     0.037 A 
BRANCH  52  66
ATOM     66  C   UNL A   1      48.027  26.393  30.066  1.00  0.00     0.057 A 
ATOM     67  C   UNL A   1      49.017  26.676  29.115  1.00  0.00     0.134 A 
ATOM     68  C   UNL A   1      48.408  25.661  31.197  1.00  0.00     0.134 A 
ATOM     69  F   UNL A   1      48.715  27.363  28.003  1.00  0.00    -0.206 F 
ATOM     70  C   UNL A   1      50.329  26.225  29.271  1.00  0.00     0.040 A 
ATOM     71  C   UNL A   1      49.723  25.226  31.377  1.00  0.00     0.040 A 
ATOM     72  F   UNL A   1      47.511  25.362  32.148  1.00  0.00    -0.206 F 
ATOM     73  C   UNL A   1      50.685  25.503  30.408  1.00  0.00     0.006 A 
ENDBRANCH  52  66
BRANCH  53  74
ATOM     74  C   UNL A   1      38.486  29.130  29.087  1.00  0.00     0.057 A 
ATOM     75  C   UNL A   1      37.957  29.597  27.879  1.00  0.00     0.134 A 
ATOM     76  C   UNL A   1      37.621  29.062  30.186  1.00  0.00     0.134 A 
ATOM     77  F   UNL A   1      38.742  29.703  26.795  1.00  0.00    -0.206 F 
ATOM     78  C   UNL A   1      36.624  29.995  27.769  1.00  0.00     0.040 A 
ATOM     79  C   UNL A   1      36.281  29.435  30.085  1.00  0.00     0.040 A 
ATOM     80  F   UNL A   1      38.066  28.617  31.371  1.00  0.00    -0.206 F 
ATOM     81  C   UNL A   1      35.780  29.910  28.874  1.00  0.00     0.006 A 
ENDBRANCH  53  74
BRANCH  65  82
ATOM     82  C   UNL A   1      44.171  32.277  31.599  1.00  0.00     0.057 A 
ATOM     83  C   UNL A   1      44.293  33.418  30.799  1.00  0.00     0.134 A 
ATOM     84  C   UNL A   1      44.202  32.450  32.989  1.00  0.00     0.134 A 
ATOM     85  F   UNL A   1      44.283  33.316  29.461  1.00  0.00    -0.206 F 
ATOM     86  C   UNL A   1      44.448  34.687  31.361  1.00  0.00     0.040 A 
ATOM     87  C   UNL A   1      44.334  33.715  33.563  1.00  0.00     0.040 A 
ATOM     88  F   UNL A   1      44.082  31.397  33.810  1.00  0.00    -0.206 F 
ATOM     89  C   UNL A   1      44.459  34.838  32.747  1.00  0.00     0.006 A 
ENDBRANCH  65  82
ENDBRANCH  39  40
ENDBRANCH  31  34
ENDBRANCH  29  30
ENDBRANCH  28  29
ENDBRANCH   1  28
TORSDOF 15
ENDMDL
MODEL 2
REMARK VINA RESULT:      -9.7      4.778     10.751
REMARK SMILES CCc1cc2c(-c3ccccc3)cc(=O)oc2cc1OCC(=O)NCCCCNC(=O)c1ccc(-c2c3nc(c(-c4c(F)cccc4F)c4ccc([nH]4)c(-c4c(F)cccc4F)c4nc(c(-c5c(F)cccc5F)c5ccc2[nH]5)C=C4)C=C3)cc1
REMARK SMILES IDX 26 1 25 2 24 3 22 4 23 5 21 7 20 8 19 9 3 10 4 11 5 12 18 13
REMARK SMILES IDX 6 14 17 15 13 16 16 17 14 18 15 19 2 20 1 21 7 22 8 23 12 24
REMARK SMILES IDX 9 25 11 26 10 27 27 28 28 29 29 30 30 31 31 33 32 34 33 35
REMARK SMILES IDX 85 36 34 37 84 38 35 39 36 40 37 41 78 42 38 43 83 44 77 45
REMARK SMILES IDX 79 46 39 47 82 48 76 49 75 50 40 52 66 53 49 54 65 55 50 56
REMARK SMILES IDX 53 57 64 58 80 59 51 60 52 61 63 63 81 64 54 65 41 66 42 67
REMARK SMILES IDX 47 68 43 69 44 70 46 71 48 72 45 73 67 74 68 75 73 76 69 77
REMARK SMILES IDX 70 78 72 79 74 80 71 81 55 82 56 83 61 84 57 85 58 86 60 87
REMARK SMILES IDX 62 88 59 89
REMARK H PARENT 24 6 29 32 79 51 53 62
REMARK Flexibility Score: inf
ROOT
ATOM      1  C   UNL A   1      32.306  29.559  25.220  1.00  0.00     0.023 C 
ENDROOT
BRANCH   1   2
ATOM      2  C   UNL A   1      30.792  29.689  25.061  1.00  0.00     0.116 C 
BRANCH   2   3
ATOM      3  N   UNL A   1      30.423  30.324  23.811  1.00  0.00    -0.353 N 
ATOM      4  C   UNL A   1      29.927  29.747  22.677  1.00  0.00     0.257 C 
ATOM      5  O   UNL A   1      29.656  30.471  21.717  1.00  0.00    -0.271 OA
ATOM      6  H   UNL A   1      30.546  31.300  23.776  1.00  0.00     0.163 HD
BRANCH   4   7
ATOM      7  C   UNL A   1      29.666  28.238  22.639  1.00  0.00     0.329 C 
BRANCH   7   8
ATOM      8  O   UNL A   1      30.723  27.426  22.155  1.00  0.00    -0.483 OA
BRANCH   8   9
ATOM      9  C   UNL A   1      31.319  26.544  23.014  1.00  0.00     0.127 A 
ATOM     10  C   UNL A   1      32.685  26.293  22.776  1.00  0.00    -0.005 A 
ATOM     11  C   UNL A   1      33.370  25.366  23.584  1.00  0.00     0.020 A 
ATOM     12  C   UNL A   1      32.731  24.708  24.641  1.00  0.00     0.026 A 
ATOM     13  C   UNL A   1      30.677  25.899  24.072  1.00  0.00     0.094 A 
ATOM     14  C   UNL A   1      33.414  23.728  25.504  1.00  0.00    -0.000 A 
ATOM     15  C   UNL A   1      31.389  24.996  24.864  1.00  0.00     0.142 A 
ATOM     16  C   UNL A   1      32.699  23.165  26.492  1.00  0.00     0.103 A 
ATOM     17  O   UNL A   1      30.672  24.380  25.907  1.00  0.00    -0.423 OA
ATOM     18  C   UNL A   1      31.281  23.461  26.742  1.00  0.00     0.336 A 
ATOM     19  O   UNL A   1      30.680  22.906  27.655  1.00  0.00    -0.246 OA
BRANCH  10  20
ATOM     20  C   UNL A   1      33.439  26.992  21.664  1.00  0.00     0.036 C 
ATOM     21  C   UNL A   1      34.034  28.322  22.105  1.00  0.00     0.009 C 
ENDBRANCH  10  20
BRANCH  14  22
ATOM     22  C   UNL A   1      34.830  23.312  25.392  1.00  0.00    -0.017 A 
ATOM     23  C   UNL A   1      35.166  22.115  24.745  1.00  0.00     0.009 A 
ATOM     24  C   UNL A   1      35.850  24.090  25.958  1.00  0.00     0.009 A 
ATOM     25  C   UNL A   1      36.495  21.694  24.682  1.00  0.00     0.001 A 
ATOM     26  C   UNL A   1      37.180  23.673  25.885  1.00  0.00     0.001 A 
ATOM     27  C   UNL A   1      37.501  22.473  25.252  1.00  0.00     0.000 A 
ENDBRANCH  14  22
ENDBRANCH   8   9
ENDBRANCH   7   8
ENDBRANCH   4   7
ENDBRANCH   2   3
ENDBRANCH   1   2
BRANCH   1  28
ATOM     28  C   UNL A   1      32.783  28.312  25.967  1.00  0.00     0.023 C 
BRANCH  28  29
ATOM     29  C   UNL A   1      33.687  28.568  27.167  1.00  0.00     0.116 C 
BRANCH  29  30
ATOM     30  N   UNL A   1      33.665  29.949  27.622  1.00  0.00    -0.352 N 
ATOM     31  C   UNL A   1      34.664  30.672  28.230  1.00  0.00     0.251 C 
ATOM     32  H   UNL A   1      32.819  30.432  27.474  1.00  0.00     0.163 HD
ATOM     33  O   UNL A   1      34.444  31.804  28.649  1.00  0.00    -0.269 OA
BRANCH  31  34
ATOM     34  C   UNL A   1      35.998  30.062  28.414  1.00  0.00     0.039 A 
ATOM     35  C   UNL A   1      36.926  30.137  27.371  1.00  0.00     0.014 A 
ATOM     36  C   UNL A   1      36.344  29.451  29.622  1.00  0.00     0.014 A 
ATOM     37  C   UNL A   1      38.229  29.670  27.568  1.00  0.00     0.010 A 
ATOM     38  C   UNL A   1      37.658  29.048  29.839  1.00  0.00     0.010 A 
ATOM     39  C   UNL A   1      38.615  29.161  28.817  1.00  0.00    -0.014 A 
BRANCH  39  40
ATOM     40  C   UNL A   1      40.014  28.746  29.095  1.00  0.00     0.031 A 
ATOM     41  C   UNL A   1      40.976  29.725  29.706  1.00  0.00     0.074 A 
ATOM     42  C   UNL A   1      40.443  27.529  28.708  1.00  0.00     0.049 A 
ATOM     43  N   UNL A   1      42.269  29.616  29.881  1.00  0.00    -0.248 NA
ATOM     44  C   UNL A   1      40.414  31.008  30.153  1.00  0.00     0.031 C 
ATOM     45  C   UNL A   1      39.617  26.499  28.076  1.00  0.00     0.029 A 
ATOM     46  N   UNL A   1      41.693  26.963  28.767  1.00  0.00    -0.354 N 
ATOM     47  C   UNL A   1      42.677  30.823  30.431  1.00  0.00     0.074 A 
ATOM     48  C   UNL A   1      41.502  31.664  30.527  1.00  0.00     0.031 C 
ATOM     49  C   UNL A   1      40.380  25.426  27.811  1.00  0.00     0.029 A 
ATOM     50  C   UNL A   1      41.755  25.707  28.213  1.00  0.00     0.049 A 
ATOM     51  H   UNL A   1      42.471  27.413  29.167  1.00  0.00     0.167 HD
ATOM     52  C   UNL A   1      43.916  31.193  30.834  1.00  0.00     0.037 A 
ATOM     53  C   UNL A   1      42.805  24.884  28.030  1.00  0.00     0.037 A 
ATOM     54  C   UNL A   1      45.075  30.344  30.769  1.00  0.00     0.049 A 
ATOM     55  C   UNL A   1      44.172  25.319  28.477  1.00  0.00     0.074 A 
ATOM     56  C   UNL A   1      46.361  30.606  31.208  1.00  0.00     0.029 A 
ATOM     57  N   UNL A   1      45.088  29.066  30.230  1.00  0.00    -0.354 N 
ATOM     58  N   UNL A   1      44.535  26.444  29.042  1.00  0.00    -0.248 NA
ATOM     59  C   UNL A   1      45.277  24.373  28.260  1.00  0.00     0.031 C 
ATOM     60  C   UNL A   1      47.161  29.501  30.902  1.00  0.00     0.029 A 
ATOM     61  C   UNL A   1      46.365  28.534  30.310  1.00  0.00     0.049 A 
ATOM     62  H   UNL A   1      44.307  28.606  29.846  1.00  0.00     0.167 HD
ATOM     63  C   UNL A   1      45.899  26.329  29.278  1.00  0.00     0.074 A 
ATOM     64  C   UNL A   1      46.300  25.024  28.797  1.00  0.00     0.031 C 
ATOM     65  C   UNL A   1      46.742  27.225  29.847  1.00  0.00     0.037 A 
BRANCH  52  66
ATOM     66  C   UNL A   1      44.079  32.578  31.384  1.00  0.00     0.057 A 
ATOM     67  C   UNL A   1      43.967  32.847  32.755  1.00  0.00     0.134 A 
ATOM     68  C   UNL A   1      44.386  33.651  30.537  1.00  0.00     0.134 A 
ATOM     69  F   UNL A   1      43.664  31.865  33.617  1.00  0.00    -0.206 F 
ATOM     70  C   UNL A   1      44.128  34.138  33.261  1.00  0.00     0.040 A 
ATOM     71  C   UNL A   1      44.574  34.942  31.035  1.00  0.00     0.040 A 
ATOM     72  F   UNL A   1      44.513  33.462  29.216  1.00  0.00    -0.206 F 
ATOM     73  C   UNL A   1      44.439  35.188  32.400  1.00  0.00     0.006 A 
ENDBRANCH  52  66
BRANCH  53  74
ATOM     74  C   UNL A   1      42.603  23.553  27.402  1.00  0.00     0.057 A 
ATOM     75  C   UNL A   1      42.267  22.437  28.176  1.00  0.00     0.134 A 
ATOM     76  C   UNL A   1      42.743  23.364  26.022  1.00  0.00     0.134 A 
ATOM     77  F   UNL A   1      42.138  22.552  29.506  1.00  0.00    -0.206 F 
ATOM     78  C   UNL A   1      42.093  21.176  27.603  1.00  0.00     0.040 A 
ATOM     79  C   UNL A   1      42.550  22.114  25.433  1.00  0.00     0.040 A 
ATOM     80  F   UNL A   1      43.058  24.396  25.226  1.00  0.00    -0.206 F 
ATOM     81  C   UNL A   1      42.229  21.013  26.226  1.00  0.00     0.006 A 
ENDBRANCH  53  74
BRANCH  65  82
ATOM     82  C   UNL A   1      48.171  26.812  30.028  1.00  0.00     0.057 A 
ATOM     83  C   UNL A   1      49.167  27.168  29.112  1.00  0.00     0.134 A 
ATOM     84  C   UNL A   1      48.565  26.109  31.175  1.00  0.00     0.134 A 
ATOM     85  F   UNL A   1      48.851  27.830  27.988  1.00  0.00    -0.206 F 
ATOM     86  C   UNL A   1      50.505  26.833  29.324  1.00  0.00     0.040 A 
ATOM     87  C   UNL A   1      49.902  25.788  31.410  1.00  0.00     0.040 A 
ATOM     88  F   UNL A   1      47.661  25.745  32.096  1.00  0.00    -0.206 F 
ATOM     89  C   UNL A   1      50.877  26.149  30.481  1.00  0.00     0.006 A 
ENDBRANCH  65  82
ENDBRANCH  39  40
ENDBRANCH  31  34
ENDBRANCH  29  30
ENDBRANCH  28  29
ENDBRANCH   1  28
TORSDOF 15
ENDMDL
MODEL 3
REMARK VINA RESULT:      -9.6      4.266     10.789
REMARK SMILES CCc1cc2c(-c3ccccc3)cc(=O)oc2cc1OCC(=O)NCCCCNC(=O)c1ccc(-c2c3nc(c(-c4c(F)cccc4F)c4ccc([nH]4)c(-c4c(F)cccc4F)c4nc(c(-c5c(F)cccc5F)c5ccc2[nH]5)C=C4)C=C3)cc1
REMARK SMILES IDX 26 1 25 2 24 3 22 4 23 5 21 7 20 8 19 9 3 10 4 11 5 12 18 13
REMARK SMILES IDX 6 14 17 15 13 16 16 17 14 18 15 19 2 20 1 21 7 22 8 23 12 24
REMARK SMILES IDX 9 25 11 26 10 27 27 28 28 29 29 30 30 31 31 33 32 34 33 35
REMARK SMILES IDX 85 36 34 37 84 38 35 39 36 40 37 41 78 42 38 43 83 44 77 45
REMARK SMILES IDX 79 46 39 47 82 48 76 49 75 50 40 52 66 53 49 54 65 55 50 56
REMARK SMILES IDX 53 57 64 58 80 59 51 60 52 61 63 63 81 64 54 65 41 66 42 67
REMARK SMILES IDX 47 68 43 69 44 70 46 71 48 72 45 73 67 74 68 75 73 76 69 77
REMARK SMILES IDX 70 78 72 79 74 80 71 81 55 82 56 83 61 84 57 85 58 86 60 87
REMARK SMILES IDX 62 88 59 89
REMARK H PARENT 24 6 29 32 79 51 53 62
REMARK Flexibility Score: inf
ROOT
ATOM      1  C   UNL A   1      33.797  35.148  28.737  1.00  0.00     0.023 C 
ENDROOT
BRANCH   1   2
ATOM      2  C   UNL A   1      33.442  34.923  30.206  1.00  0.00     0.116 C 
BRANCH   2   3
ATOM      3  N   UNL A   1      33.136  36.162  30.894  1.00  0.00    -0.353 N 
ATOM      4  C   UNL A   1      33.528  36.564  32.140  1.00  0.00     0.257 C 
ATOM      5  O   UNL A   1      33.174  37.674  32.540  1.00  0.00    -0.271 OA
ATOM      6  H   UNL A   1      32.573  36.798  30.398  1.00  0.00     0.163 HD
BRANCH   4   7
ATOM      7  C   UNL A   1      34.436  35.661  32.982  1.00  0.00     0.329 C 
BRANCH   7   8
ATOM      8  O   UNL A   1      35.631  35.214  32.364  1.00  0.00    -0.483 OA
BRANCH   8   9
ATOM      9  C   UNL A   1      36.377  34.257  32.996  1.00  0.00     0.127 A 
ATOM     10  C   UNL A   1      37.176  33.456  32.156  1.00  0.00    -0.005 A 
ATOM     11  C   UNL A   1      37.944  32.417  32.714  1.00  0.00     0.020 A 
ATOM     12  C   UNL A   1      37.955  32.179  34.093  1.00  0.00     0.026 A 
ATOM     13  C   UNL A   1      36.389  34.031  34.373  1.00  0.00     0.094 A 
ATOM     14  C   UNL A   1      38.743  31.098  34.712  1.00  0.00    -0.000 A 
ATOM     15  C   UNL A   1      37.174  33.002  34.897  1.00  0.00     0.142 A 
ATOM     16  C   UNL A   1      38.679  30.970  36.048  1.00  0.00     0.103 A 
ATOM     17  O   UNL A   1      37.129  32.832  36.293  1.00  0.00    -0.423 OA
ATOM     18  C   UNL A   1      37.859  31.833  36.911  1.00  0.00     0.336 A 
ATOM     19  O   UNL A   1      37.837  31.659  38.125  1.00  0.00    -0.246 OA
BRANCH  10  20
ATOM     20  C   UNL A   1      37.227  33.680  30.659  1.00  0.00     0.036 C 
ATOM     21  C   UNL A   1      38.463  34.455  30.224  1.00  0.00     0.009 C 
ENDBRANCH  10  20
BRANCH  14  22
ATOM     22  C   UNL A   1      39.614  30.141  33.996  1.00  0.00    -0.017 A 
ATOM     23  C   UNL A   1      39.056  29.052  33.312  1.00  0.00     0.009 A 
ATOM     24  C   UNL A   1      41.008  30.289  34.020  1.00  0.00     0.009 A 
ATOM     25  C   UNL A   1      39.878  28.119  32.679  1.00  0.00     0.001 A 
ATOM     26  C   UNL A   1      41.828  29.360  33.377  1.00  0.00     0.001 A 
ATOM     27  C   UNL A   1      41.263  28.272  32.712  1.00  0.00     0.000 A 
ENDBRANCH  14  22
ENDBRANCH   8   9
ENDBRANCH   7   8
ENDBRANCH   4   7
ENDBRANCH   2   3
ENDBRANCH   1   2
BRANCH   1  28
ATOM     28  C   UNL A   1      34.230  33.900  27.966  1.00  0.00     0.023 C 
BRANCH  28  29
ATOM     29  C   UNL A   1      34.482  32.658  28.813  1.00  0.00     0.116 C 
BRANCH  29  30
ATOM     30  N   UNL A   1      33.885  31.452  28.261  1.00  0.00    -0.352 N 
ATOM     31  C   UNL A   1      34.486  30.250  27.967  1.00  0.00     0.251 C 
ATOM     32  H   UNL A   1      32.920  31.503  28.070  1.00  0.00     0.163 HD
ATOM     33  O   UNL A   1      33.854  29.362  27.402  1.00  0.00    -0.269 OA
BRANCH  31  34
ATOM     34  C   UNL A   1      35.912  30.046  28.299  1.00  0.00     0.039 A 
ATOM     35  C   UNL A   1      36.252  29.606  29.582  1.00  0.00     0.014 A 
ATOM     36  C   UNL A   1      36.906  30.255  27.340  1.00  0.00     0.014 A 
ATOM     37  C   UNL A   1      37.582  29.295  29.878  1.00  0.00     0.010 A 
ATOM     38  C   UNL A   1      38.218  29.883  27.615  1.00  0.00     0.010 A 
ATOM     39  C   UNL A   1      38.568  29.392  28.884  1.00  0.00    -0.014 A 
BRANCH  39  40
ATOM     40  C   UNL A   1      39.973  28.979  29.132  1.00  0.00     0.031 A 
ATOM     41  C   UNL A   1      40.950  29.964  29.707  1.00  0.00     0.074 A 
ATOM     42  C   UNL A   1      40.392  27.758  28.747  1.00  0.00     0.049 A 
ATOM     43  N   UNL A   1      42.247  29.857  29.851  1.00  0.00    -0.248 NA
ATOM     44  C   UNL A   1      40.399  31.253  30.153  1.00  0.00     0.031 C 
ATOM     45  C   UNL A   1      39.551  26.721  28.148  1.00  0.00     0.029 A 
ATOM     46  N   UNL A   1      41.643  27.192  28.781  1.00  0.00    -0.354 N 
ATOM     47  C   UNL A   1      42.668  31.070  30.377  1.00  0.00     0.074 A 
ATOM     48  C   UNL A   1      41.496  31.913  30.493  1.00  0.00     0.031 C 
ATOM     49  C   UNL A   1      40.307  25.644  27.876  1.00  0.00     0.029 A 
ATOM     50  C   UNL A   1      41.691  25.930  28.240  1.00  0.00     0.049 A 
ATOM     51  H   UNL A   1      42.430  27.647  29.157  1.00  0.00     0.167 HD
ATOM     52  C   UNL A   1      43.917  31.444  30.745  1.00  0.00     0.037 A 
ATOM     53  C   UNL A   1      42.736  25.104  28.041  1.00  0.00     0.037 A 
ATOM     54  C   UNL A   1      45.074  30.594  30.660  1.00  0.00     0.049 A 
ATOM     55  C   UNL A   1      44.114  25.544  28.449  1.00  0.00     0.074 A 
ATOM     56  C   UNL A   1      46.371  30.861  31.065  1.00  0.00     0.029 A 
ATOM     57  N   UNL A   1      45.074  29.311  30.136  1.00  0.00    -0.354 N 
ATOM     58  N   UNL A   1      44.491  26.676  28.992  1.00  0.00    -0.248 NA
ATOM     59  C   UNL A   1      45.213  24.595  28.215  1.00  0.00     0.031 C 
ATOM     60  C   UNL A   1      47.162  29.753  30.751  1.00  0.00     0.029 A 
ATOM     61  C   UNL A   1      46.352  28.779  30.190  1.00  0.00     0.049 A 
ATOM     62  H   UNL A   1      44.283  28.847  29.777  1.00  0.00     0.167 HD
ATOM     63  C   UNL A   1      45.861  26.563  29.195  1.00  0.00     0.074 A 
ATOM     64  C   UNL A   1      46.249  25.252  28.719  1.00  0.00     0.031 C 
ATOM     65  C   UNL A   1      46.718  27.465  29.732  1.00  0.00     0.037 A 
BRANCH  52  66
ATOM     66  C   UNL A   1      44.094  32.836  31.275  1.00  0.00     0.057 A 
ATOM     67  C   UNL A   1      44.274  33.933  30.423  1.00  0.00     0.134 A 
ATOM     68  C   UNL A   1      44.050  33.087  32.652  1.00  0.00     0.134 A 
ATOM     69  F   UNL A   1      44.338  33.758  29.094  1.00  0.00    -0.206 F 
ATOM     70  C   UNL A   1      44.432  35.227  30.922  1.00  0.00     0.040 A 
ATOM     71  C   UNL A   1      44.180  34.380  33.162  1.00  0.00     0.040 A 
ATOM     72  F   UNL A   1      43.873  32.083  33.523  1.00  0.00    -0.206 F 
ATOM     73  C   UNL A   1      44.377  35.453  32.296  1.00  0.00     0.006 A 
ENDBRANCH  52  66
BRANCH  53  74
ATOM     74  C   UNL A   1      42.519  23.767  27.433  1.00  0.00     0.057 A 
ATOM     75  C   UNL A   1      42.181  22.664  28.225  1.00  0.00     0.134 A 
ATOM     76  C   UNL A   1      42.646  23.557  26.055  1.00  0.00     0.134 A 
ATOM     77  F   UNL A   1      42.064  22.798  29.555  1.00  0.00    -0.206 F 
ATOM     78  C   UNL A   1      41.992  21.396  27.671  1.00  0.00     0.040 A 
ATOM     79  C   UNL A   1      42.438  22.301  25.485  1.00  0.00     0.040 A 
ATOM     80  F   UNL A   1      42.962  24.576  25.241  1.00  0.00    -0.206 F 
ATOM     81  C   UNL A   1      42.116  21.214  26.295  1.00  0.00     0.006 A 
ENDBRANCH  53  74
BRANCH  65  82
ATOM     82  C   UNL A   1      48.151  27.053  29.883  1.00  0.00     0.057 A 
ATOM     83  C   UNL A   1      48.584  26.259  30.951  1.00  0.00     0.134 A 
ATOM     84  C   UNL A   1      49.094  27.399  28.906  1.00  0.00     0.134 A 
ATOM     85  F   UNL A   1      47.732  25.905  31.925  1.00  0.00    -0.206 F 
ATOM     86  C   UNL A   1      49.908  25.828  31.047  1.00  0.00     0.040 A 
ATOM     87  C   UNL A   1      50.415  26.956  28.978  1.00  0.00     0.040 A 
ATOM     88  F   UNL A   1      48.740  28.151  27.854  1.00  0.00    -0.206 F 
ATOM     89  C   UNL A   1      50.826  26.169  30.053  1.00  0.00     0.006 A 
ENDBRANCH  65  82
ENDBRANCH  39  40
ENDBRANCH  31  34
ENDBRANCH  29  30
ENDBRANCH  28  29
ENDBRANCH   1  28
TORSDOF 15
ENDMDL
