MODEL 1
REMARK VINA RESULT:     -11.7      0.000      0.000
REMARK SMILES CC(=O)c1nnn(-c2ccc(C(=O)NCCCCNC(=O)c3ccc(-c4c5nc(c(-c6c(F)cccc6F)c6ccc([nH]6)c(-c6c(F)cccc6F)c6nc(c(-c7c(F)cccc7F)c7ccc4[nH]7)C=C6)C=C5)cc3)cc2)c1C
REMARK SMILES IDX 16 1 15 2 14 3 12 4 13 5 11 7 8 8 9 9 77 10 10 11 76 12 7 13
REMARK SMILES IDX 4 14 5 15 78 16 6 17 79 18 2 19 1 20 3 21 17 22 18 23 19 24
REMARK SMILES IDX 20 25 21 27 22 28 23 29 75 30 24 31 74 32 25 33 26 34 27 35
REMARK SMILES IDX 68 36 28 37 73 38 67 39 69 40 29 41 72 42 66 43 65 44 30 46
REMARK SMILES IDX 56 47 39 48 55 49 40 50 43 51 54 52 70 53 41 54 42 55 53 57
REMARK SMILES IDX 71 58 44 59 31 60 32 61 37 62 33 63 34 64 36 65 38 66 35 67
REMARK SMILES IDX 57 68 58 69 63 70 59 71 60 72 62 73 64 74 61 75 45 76 46 77
REMARK SMILES IDX 51 78 47 79 48 80 50 81 52 82 49 83
REMARK H PARENT 14 6 19 26 69 45 43 56
REMARK Flexibility Score: inf
ROOT
ATOM      1  C   UNL A   1      33.337  34.998  28.854  1.00  0.00     0.023 C 
ENDROOT
BRANCH   1   2
ATOM      2  C   UNL A   1      33.275  36.429  29.406  1.00  0.00     0.116 C 
BRANCH   2   3
ATOM      3  N   UNL A   1      32.371  36.522  30.540  1.00  0.00    -0.352 N 
ATOM      4  C   UNL A   1      32.432  36.061  31.834  1.00  0.00     0.251 C 
ATOM      5  O   UNL A   1      31.482  36.336  32.570  1.00  0.00    -0.269 OA
ATOM      6  H   UNL A   1      31.545  37.018  30.341  1.00  0.00     0.163 HD
BRANCH   4   7
ATOM      7  C   UNL A   1      33.596  35.319  32.407  1.00  0.00     0.039 A 
ATOM      8  C   UNL A   1      35.591  33.905  33.775  1.00  0.00     0.067 A 
ATOM      9  C   UNL A   1      34.373  33.279  33.517  1.00  0.00     0.029 A 
ATOM     10  C   UNL A   1      35.864  35.168  33.251  1.00  0.00     0.029 A 
ATOM     11  C   UNL A   1      33.370  34.004  32.862  1.00  0.00     0.016 A 
ATOM     12  C   UNL A   1      34.883  35.846  32.532  1.00  0.00     0.016 A 
BRANCH   8  13
ATOM     13  N   UNL A   1      36.538  33.297  34.615  1.00  0.00    -0.217 N 
ATOM     14  C   UNL A   1      38.121  32.058  35.443  1.00  0.00     0.151 A 
ATOM     15  N   UNL A   1      37.408  32.621  36.471  1.00  0.00    -0.126 NA
ATOM     16  C   UNL A   1      37.616  32.513  34.237  1.00  0.00     0.073 A 
ATOM     17  N   UNL A   1      36.516  33.455  35.951  1.00  0.00    -0.061 NA
ATOM     18  C   UNL A   1      38.074  32.360  32.834  1.00  0.00     0.069 C 
BRANCH  14  19
ATOM     19  C   UNL A   1      39.265  31.195  35.679  1.00  0.00     0.181 C 
ATOM     20  C   UNL A   1      40.630  31.764  35.384  1.00  0.00     0.095 C 
ATOM     21  O   UNL A   1      39.137  30.050  36.109  1.00  0.00    -0.293 OA
ENDBRANCH  14  19
ENDBRANCH   8  13
ENDBRANCH   4   7
ENDBRANCH   2   3
ENDBRANCH   1   2
BRANCH   1  22
ATOM     22  C   UNL A   1      34.724  34.337  28.890  1.00  0.00     0.023 C 
BRANCH  22  23
ATOM     23  C   UNL A   1      34.785  33.033  29.675  1.00  0.00     0.116 C 
BRANCH  23  24
ATOM     24  N   UNL A   1      34.169  31.899  28.972  1.00  0.00    -0.352 N 
ATOM     25  C   UNL A   1      34.784  30.931  28.183  1.00  0.00     0.251 C 
ATOM     26  H   UNL A   1      33.193  31.812  29.072  1.00  0.00     0.163 HD
ATOM     27  O   UNL A   1      34.165  30.274  27.369  1.00  0.00    -0.269 OA
BRANCH  25  28
ATOM     28  C   UNL A   1      36.219  30.685  28.409  1.00  0.00     0.039 A 
ATOM     29  C   UNL A   1      37.108  31.638  28.918  1.00  0.00     0.014 A 
ATOM     30  C   UNL A   1      36.633  29.391  28.141  1.00  0.00     0.014 A 
ATOM     31  C   UNL A   1      38.419  31.242  29.193  1.00  0.00     0.010 A 
ATOM     32  C   UNL A   1      37.788  28.948  28.697  1.00  0.00     0.010 A 
ATOM     33  C   UNL A   1      38.740  29.886  29.068  1.00  0.00    -0.014 A 
BRANCH  33  34
ATOM     34  C   UNL A   1      40.052  29.314  29.317  1.00  0.00     0.031 A 
ATOM     35  C   UNL A   1      40.414  29.202  30.753  1.00  0.00     0.074 A 
ATOM     36  C   UNL A   1      40.648  28.599  28.332  1.00  0.00     0.049 A 
ATOM     37  N   UNL A   1      41.388  29.775  31.380  1.00  0.00    -0.248 NA
ATOM     38  C   UNL A   1      39.485  28.477  31.640  1.00  0.00     0.031 C 
ATOM     39  C   UNL A   1      40.156  28.343  26.964  1.00  0.00     0.029 A 
ATOM     40  N   UNL A   1      41.762  27.824  28.382  1.00  0.00    -0.354 N 
ATOM     41  C   UNL A   1      41.323  29.295  32.687  1.00  0.00     0.074 A 
ATOM     42  C   UNL A   1      40.016  28.719  32.838  1.00  0.00     0.031 C 
ATOM     43  C   UNL A   1      40.838  27.317  26.411  1.00  0.00     0.029 A 
ATOM     44  C   UNL A   1      41.919  26.954  27.303  1.00  0.00     0.049 A 
ATOM     45  H   UNL A   1      42.408  27.872  29.123  1.00  0.00     0.167 HD
ATOM     46  C   UNL A   1      42.449  29.138  33.439  1.00  0.00     0.037 A 
ATOM     47  C   UNL A   1      42.864  25.987  27.186  1.00  0.00     0.037 A 
ATOM     48  C   UNL A   1      43.558  29.846  32.848  1.00  0.00     0.049 A 
ATOM     49  C   UNL A   1      43.925  26.307  28.175  1.00  0.00     0.074 A 
ATOM     50  C   UNL A   1      43.828  31.166  32.546  1.00  0.00     0.029 A 
ATOM     51  N   UNL A   1      44.449  29.104  32.110  1.00  0.00    -0.354 N 
ATOM     52  N   UNL A   1      44.680  27.370  28.103  1.00  0.00    -0.248 NA
ATOM     53  C   UNL A   1      43.805  25.714  29.497  1.00  0.00     0.031 C 
ATOM     54  C   UNL A   1      44.521  31.124  31.300  1.00  0.00     0.029 A 
ATOM     55  C   UNL A   1      44.704  29.786  30.948  1.00  0.00     0.049 A 
ATOM     56  H   UNL A   1      44.836  28.238  32.370  1.00  0.00     0.167 HD
ATOM     57  C   UNL A   1      44.789  27.821  29.411  1.00  0.00     0.074 A 
ATOM     58  C   UNL A   1      44.288  26.719  30.234  1.00  0.00     0.031 C 
ATOM     59  C   UNL A   1      44.987  29.145  29.684  1.00  0.00     0.037 A 
BRANCH  46  60
ATOM     60  C   UNL A   1      42.662  28.034  34.454  1.00  0.00     0.057 A 
ATOM     61  C   UNL A   1      42.804  26.711  33.992  1.00  0.00     0.134 A 
ATOM     62  C   UNL A   1      42.448  28.153  35.844  1.00  0.00     0.134 A 
ATOM     63  F   UNL A   1      43.017  26.456  32.691  1.00  0.00    -0.206 F 
ATOM     64  C   UNL A   1      42.648  25.599  34.828  1.00  0.00     0.040 A 
ATOM     65  C   UNL A   1      42.344  27.049  36.695  1.00  0.00     0.040 A 
ATOM     66  F   UNL A   1      42.227  29.324  36.448  1.00  0.00    -0.206 F 
ATOM     67  C   UNL A   1      42.405  25.765  36.184  1.00  0.00     0.006 A 
ENDBRANCH  46  60
BRANCH  47  68
ATOM     68  C   UNL A   1      42.759  24.659  26.537  1.00  0.00     0.057 A 
ATOM     69  C   UNL A   1      43.568  24.311  25.444  1.00  0.00     0.134 A 
ATOM     70  C   UNL A   1      42.067  23.600  27.150  1.00  0.00     0.134 A 
ATOM     71  F   UNL A   1      44.300  25.245  24.820  1.00  0.00    -0.206 F 
ATOM     72  C   UNL A   1      43.696  22.988  25.001  1.00  0.00     0.040 A 
ATOM     73  C   UNL A   1      42.184  22.274  26.717  1.00  0.00     0.040 A 
ATOM     74  F   UNL A   1      41.321  23.806  28.246  1.00  0.00    -0.206 F 
ATOM     75  C   UNL A   1      43.013  21.961  25.647  1.00  0.00     0.006 A 
ENDBRANCH  47  68
BRANCH  59  76
ATOM     76  C   UNL A   1      45.301  30.057  28.527  1.00  0.00     0.057 A 
ATOM     77  C   UNL A   1      44.338  30.807  27.831  1.00  0.00     0.134 A 
ATOM     78  C   UNL A   1      46.637  30.319  28.219  1.00  0.00     0.134 A 
ATOM     79  F   UNL A   1      43.038  30.698  28.119  1.00  0.00    -0.206 F 
ATOM     80  C   UNL A   1      44.686  31.748  26.858  1.00  0.00     0.040 A 
ATOM     81  C   UNL A   1      47.002  31.279  27.270  1.00  0.00     0.040 A 
ATOM     82  F   UNL A   1      47.617  29.686  28.882  1.00  0.00    -0.206 F 
ATOM     83  C   UNL A   1      46.025  31.993  26.581  1.00  0.00     0.006 A 
ENDBRANCH  59  76
ENDBRANCH  33  34
ENDBRANCH  25  28
ENDBRANCH  23  24
ENDBRANCH  22  23
ENDBRANCH   1  22
TORSDOF 13
ENDMDL
MODEL 2
REMARK VINA RESULT:     -11.6      4.786     10.067
REMARK SMILES CC(=O)c1nnn(-c2ccc(C(=O)NCCCCNC(=O)c3ccc(-c4c5nc(c(-c6c(F)cccc6F)c6ccc([nH]6)c(-c6c(F)cccc6F)c6nc(c(-c7c(F)cccc7F)c7ccc4[nH]7)C=C6)C=C5)cc3)cc2)c1C
REMARK SMILES IDX 16 1 15 2 14 3 12 4 13 5 11 7 8 8 9 9 77 10 10 11 76 12 7 13
REMARK SMILES IDX 4 14 5 15 78 16 6 17 79 18 2 19 1 20 3 21 17 22 18 23 19 24
REMARK SMILES IDX 20 25 21 27 22 28 23 29 75 30 24 31 74 32 25 33 26 34 27 35
REMARK SMILES IDX 68 36 28 37 73 38 67 39 69 40 29 41 72 42 66 43 65 44 30 46
REMARK SMILES IDX 56 47 39 48 55 49 40 50 43 51 54 52 70 53 41 54 42 55 53 57
REMARK SMILES IDX 71 58 44 59 31 60 32 61 37 62 33 63 34 64 36 65 38 66 35 67
REMARK SMILES IDX 57 68 58 69 63 70 59 71 60 72 62 73 64 74 61 75 45 76 46 77
REMARK SMILES IDX 51 78 47 79 48 80 50 81 52 82 49 83
REMARK H PARENT 14 6 19 26 69 45 43 56
REMARK Flexibility Score: inf
ROOT
ATOM      1  C   UNL A   1      36.438  20.186  25.032  1.00  0.00     0.023 C 
ENDROOT
BRANCH   1   2
ATOM      2  C   UNL A   1      36.519  21.570  25.692  1.00  0.00     0.116 C 
BRANCH   2   3
ATOM      3  N   UNL A   1      35.543  21.706  26.760  1.00  0.00    -0.352 N 
ATOM      4  C   UNL A   1      34.367  22.408  26.878  1.00  0.00     0.251 C 
ATOM      5  O   UNL A   1      33.750  22.289  27.938  1.00  0.00    -0.269 OA
ATOM      6  H   UNL A   1      35.772  21.190  27.566  1.00  0.00     0.163 HD
BRANCH   4   7
ATOM      7  C   UNL A   1      33.769  23.234  25.785  1.00  0.00     0.039 A 
ATOM      8  C   UNL A   1      32.626  25.039  23.973  1.00  0.00     0.067 A 
ATOM      9  C   UNL A   1      33.883  25.320  24.505  1.00  0.00     0.029 A 
ATOM     10  C   UNL A   1      32.000  23.821  24.234  1.00  0.00     0.029 A 
ATOM     11  C   UNL A   1      34.433  24.428  25.435  1.00  0.00     0.016 A 
ATOM     12  C   UNL A   1      32.598  22.908  25.099  1.00  0.00     0.016 A 
BRANCH   8  13
ATOM     13  N   UNL A   1      31.947  26.004  23.211  1.00  0.00    -0.217 N 
ATOM     14  C   UNL A   1      30.622  27.584  22.522  1.00  0.00     0.151 A 
ATOM     15  N   UNL A   1      31.145  26.932  21.434  1.00  0.00    -0.126 NA
ATOM     16  C   UNL A   1      31.157  27.041  23.679  1.00  0.00     0.073 A 
ATOM     17  N   UNL A   1      32.030  26.044  21.868  1.00  0.00    -0.061 NA
ATOM     18  C   UNL A   1      31.070  27.434  25.106  1.00  0.00     0.069 C 
BRANCH  14  19
ATOM     19  C   UNL A   1      29.716  28.711  22.385  1.00  0.00     0.181 C 
ATOM     20  C   UNL A   1      28.375  28.605  23.068  1.00  0.00     0.095 C 
ATOM     21  O   UNL A   1      30.023  29.717  21.748  1.00  0.00    -0.293 OA
ENDBRANCH  14  19
ENDBRANCH   8  13
ENDBRANCH   4   7
ENDBRANCH   2   3
ENDBRANCH   1   2
BRANCH   1  22
ATOM     22  C   UNL A   1      37.790  19.527  24.717  1.00  0.00     0.023 C 
BRANCH  22  23
ATOM     23  C   UNL A   1      38.956  20.041  25.550  1.00  0.00     0.116 C 
BRANCH  23  24
ATOM     24  N   UNL A   1      39.992  19.027  25.795  1.00  0.00    -0.352 N 
ATOM     25  C   UNL A   1      41.357  19.213  25.997  1.00  0.00     0.251 C 
ATOM     26  H   UNL A   1      39.680  18.093  25.820  1.00  0.00     0.163 HD
ATOM     27  O   UNL A   1      42.161  18.318  25.825  1.00  0.00    -0.269 OA
BRANCH  25  28
ATOM     28  C   UNL A   1      41.795  20.532  26.484  1.00  0.00     0.039 A 
ATOM     29  C   UNL A   1      42.575  21.425  25.740  1.00  0.00     0.014 A 
ATOM     30  C   UNL A   1      41.317  20.873  27.738  1.00  0.00     0.014 A 
ATOM     31  C   UNL A   1      42.825  22.691  26.274  1.00  0.00     0.010 A 
ATOM     32  C   UNL A   1      41.298  22.181  28.095  1.00  0.00     0.010 A 
ATOM     33  C   UNL A   1      42.178  23.047  27.462  1.00  0.00    -0.014 A 
BRANCH  33  34
ATOM     34  C   UNL A   1      42.330  24.321  28.144  1.00  0.00     0.031 A 
ATOM     35  C   UNL A   1      41.144  25.212  28.057  1.00  0.00     0.074 A 
ATOM     36  C   UNL A   1      43.299  24.446  29.083  1.00  0.00     0.049 A 
ATOM     37  N   UNL A   1      41.059  26.381  27.513  1.00  0.00    -0.248 NA
ATOM     38  C   UNL A   1      39.846  24.670  28.501  1.00  0.00     0.031 C 
ATOM     39  C   UNL A   1      44.299  23.444  29.501  1.00  0.00     0.029 A 
ATOM     40  N   UNL A   1      43.514  25.450  29.971  1.00  0.00    -0.354 N 
ATOM     41  C   UNL A   1      39.755  26.811  27.756  1.00  0.00     0.074 A 
ATOM     42  C   UNL A   1      39.011  25.641  28.130  1.00  0.00     0.031 C 
ATOM     43  C   UNL A   1      44.847  23.803  30.683  1.00  0.00     0.029 A 
ATOM     44  C   UNL A   1      44.372  25.128  31.023  1.00  0.00     0.049 A 
ATOM     45  H   UNL A   1      43.096  26.337  29.881  1.00  0.00     0.167 HD
ATOM     46  C   UNL A   1      39.467  28.132  27.923  1.00  0.00     0.037 A 
ATOM     47  C   UNL A   1      44.636  25.901  32.106  1.00  0.00     0.037 A 
ATOM     48  C   UNL A   1      40.561  28.953  27.469  1.00  0.00     0.049 A 
ATOM     49  C   UNL A   1      44.205  27.279  31.760  1.00  0.00     0.074 A 
ATOM     50  C   UNL A   1      41.203  29.149  26.263  1.00  0.00     0.029 A 
ATOM     51  N   UNL A   1      41.412  29.445  28.430  1.00  0.00    -0.354 N 
ATOM     52  N   UNL A   1      44.770  27.997  30.827  1.00  0.00    -0.248 NA
ATOM     53  C   UNL A   1      42.844  27.659  32.103  1.00  0.00     0.031 C 
ATOM     54  C   UNL A   1      42.582  29.294  26.599  1.00  0.00     0.029 A 
ATOM     55  C   UNL A   1      42.697  29.257  27.990  1.00  0.00     0.049 A 
ATOM     56  H   UNL A   1      41.147  29.860  29.281  1.00  0.00     0.167 HD
ATOM     57  C   UNL A   1      43.719  28.634  30.180  1.00  0.00     0.074 A 
ATOM     58  C   UNL A   1      42.563  28.442  31.057  1.00  0.00     0.031 C 
ATOM     59  C   UNL A   1      43.816  28.989  28.865  1.00  0.00     0.037 A 
BRANCH  46  60
ATOM     60  C   UNL A   1      38.404  28.671  28.859  1.00  0.00     0.057 A 
ATOM     61  C   UNL A   1      37.526  29.664  28.382  1.00  0.00     0.134 A 
ATOM     62  C   UNL A   1      38.381  28.487  30.258  1.00  0.00     0.134 A 
ATOM     63  F   UNL A   1      37.445  29.937  27.070  1.00  0.00    -0.206 F 
ATOM     64  C   UNL A   1      36.764  30.471  29.235  1.00  0.00     0.040 A 
ATOM     65  C   UNL A   1      37.583  29.252  31.114  1.00  0.00     0.040 A 
ATOM     66  F   UNL A   1      39.193  27.636  30.892  1.00  0.00    -0.206 F 
ATOM     67  C   UNL A   1      36.799  30.274  30.609  1.00  0.00     0.006 A 
ENDBRANCH  46  60
BRANCH  47  68
ATOM     68  C   UNL A   1      44.914  25.484  33.500  1.00  0.00     0.057 A 
ATOM     69  C   UNL A   1      43.882  25.101  34.371  1.00  0.00     0.134 A 
ATOM     70  C   UNL A   1      46.219  25.180  33.925  1.00  0.00     0.134 A 
ATOM     71  F   UNL A   1      42.600  25.311  34.035  1.00  0.00    -0.206 F 
ATOM     72  C   UNL A   1      44.132  24.437  35.580  1.00  0.00     0.040 A 
ATOM     73  C   UNL A   1      46.483  24.518  35.130  1.00  0.00     0.040 A 
ATOM     74  F   UNL A   1      47.277  25.436  33.141  1.00  0.00    -0.206 F 
ATOM     75  C   UNL A   1      45.436  24.131  35.957  1.00  0.00     0.006 A 
ENDBRANCH  47  68
BRANCH  59  76
ATOM     76  C   UNL A   1      45.166  28.868  28.206  1.00  0.00     0.057 A 
ATOM     77  C   UNL A   1      45.583  27.751  27.463  1.00  0.00     0.134 A 
ATOM     78  C   UNL A   1      46.003  29.986  28.175  1.00  0.00     0.134 A 
ATOM     79  F   UNL A   1      44.810  26.668  27.352  1.00  0.00    -0.206 F 
ATOM     80  C   UNL A   1      46.786  27.736  26.750  1.00  0.00     0.040 A 
ATOM     81  C   UNL A   1      47.193  29.997  27.442  1.00  0.00     0.040 A 
ATOM     82  F   UNL A   1      45.645  31.112  28.811  1.00  0.00    -0.206 F 
ATOM     83  C   UNL A   1      47.592  28.868  26.731  1.00  0.00     0.006 A 
ENDBRANCH  59  76
ENDBRANCH  33  34
ENDBRANCH  25  28
ENDBRANCH  23  24
ENDBRANCH  22  23
ENDBRANCH   1  22
TORSDOF 13
ENDMDL
MODEL 3
REMARK VINA RESULT:     -11.5      4.265     10.388
REMARK SMILES CC(=O)c1nnn(-c2ccc(C(=O)NCCCCNC(=O)c3ccc(-c4c5nc(c(-c6c(F)cccc6F)c6ccc([nH]6)c(-c6c(F)cccc6F)c6nc(c(-c7c(F)cccc7F)c7ccc4[nH]7)C=C6)C=C5)cc3)cc2)c1C
REMARK SMILES IDX 16 1 15 2 14 3 12 4 13 5 11 7 8 8 9 9 77 10 10 11 76 12 7 13
REMARK SMILES IDX 4 14 5 15 78 16 6 17 79 18 2 19 1 20 3 21 17 22 18 23 19 24
REMARK SMILES IDX 20 25 21 27 22 28 23 29 75 30 24 31 74 32 25 33 26 34 27 35
REMARK SMILES IDX 68 36 28 37 73 38 67 39 69 40 29 41 72 42 66 43 65 44 30 46
REMARK SMILES IDX 56 47 39 48 55 49 40 50 43 51 54 52 70 53 41 54 42 55 53 57
REMARK SMILES IDX 71 58 44 59 31 60 32 61 37 62 33 63 34 64 36 65 38 66 35 67
REMARK SMILES IDX 57 68 58 69 63 70 59 71 60 72 62 73 64 74 61 75 45 76 46 77
REMARK SMILES IDX 51 78 47 79 48 80 50 81 52 82 49 83
REMARK H PARENT 14 6 19 26 69 45 43 56
REMARK Flexibility Score: inf
ROOT
ATOM      1  C   UNL A   1      39.997  21.690  26.512  1.00  0.00     0.023 C 
ENDROOT
BRANCH   1   2
ATOM      2  C   UNL A   1      38.666  21.987  25.808  1.00  0.00     0.116 C 
BRANCH   2   3
ATOM      3  N   UNL A   1      38.049  20.772  25.303  1.00  0.00    -0.352 N 
ATOM      4  C   UNL A   1      36.742  20.381  25.131  1.00  0.00     0.251 C 
ATOM      5  O   UNL A   1      36.553  19.263  24.646  1.00  0.00    -0.269 OA
ATOM      6  H   UNL A   1      38.700  20.089  25.027  1.00  0.00     0.163 HD
BRANCH   4   7
ATOM      7  C   UNL A   1      35.560  21.247  25.428  1.00  0.00     0.039 A 
ATOM      8  C   UNL A   1      33.524  23.129  25.829  1.00  0.00     0.067 A 
ATOM      9  C   UNL A   1      33.865  22.768  24.527  1.00  0.00     0.029 A 
ATOM     10  C   UNL A   1      34.094  22.473  26.920  1.00  0.00     0.029 A 
ATOM     11  C   UNL A   1      34.906  21.851  24.335  1.00  0.00     0.016 A 
ATOM     12  C   UNL A   1      35.072  21.504  26.710  1.00  0.00     0.016 A 
BRANCH   8  13
ATOM     13  N   UNL A   1      32.643  24.198  26.062  1.00  0.00    -0.217 N 
ATOM     14  C   UNL A   1      31.766  26.143  26.477  1.00  0.00     0.151 A 
ATOM     15  N   UNL A   1      30.814  25.172  26.667  1.00  0.00    -0.126 NA
ATOM     16  C   UNL A   1      32.939  25.551  26.040  1.00  0.00     0.073 A 
ATOM     17  N   UNL A   1      31.334  24.006  26.308  1.00  0.00    -0.061 NA
ATOM     18  C   UNL A   1      34.222  26.108  25.548  1.00  0.00     0.069 C 
BRANCH  14  19
ATOM     19  C   UNL A   1      31.473  27.555  26.652  1.00  0.00     0.181 C 
ATOM     20  C   UNL A   1      31.530  28.428  25.423  1.00  0.00     0.095 C 
ATOM     21  O   UNL A   1      31.184  28.027  27.749  1.00  0.00    -0.293 OA
ENDBRANCH  14  19
ENDBRANCH   8  13
ENDBRANCH   4   7
ENDBRANCH   2   3
ENDBRANCH   1   2
BRANCH   1  22
ATOM     22  C   UNL A   1      40.677  20.373  26.106  1.00  0.00     0.023 C 
BRANCH  22  23
ATOM     23  C   UNL A   1      41.951  20.053  26.877  1.00  0.00     0.116 C 
BRANCH  23  24
ATOM     24  N   UNL A   1      43.128  19.879  26.014  1.00  0.00    -0.352 N 
ATOM     25  C   UNL A   1      43.812  20.841  25.276  1.00  0.00     0.251 C 
ATOM     26  H   UNL A   1      43.480  18.961  25.950  1.00  0.00     0.163 HD
ATOM     27  O   UNL A   1      44.520  20.547  24.333  1.00  0.00    -0.269 OA
BRANCH  25  28
ATOM     28  C   UNL A   1      43.691  22.242  25.714  1.00  0.00     0.039 A 
ATOM     29  C   UNL A   1      42.982  23.226  25.015  1.00  0.00     0.014 A 
ATOM     30  C   UNL A   1      44.285  22.519  26.934  1.00  0.00     0.014 A 
ATOM     31  C   UNL A   1      42.848  24.487  25.599  1.00  0.00     0.010 A 
ATOM     32  C   UNL A   1      43.888  23.621  27.618  1.00  0.00     0.010 A 
ATOM     33  C   UNL A   1      43.317  24.665  26.905  1.00  0.00    -0.014 A 
BRANCH  33  34
ATOM     34  C   UNL A   1      43.253  25.910  27.651  1.00  0.00     0.031 A 
ATOM     35  C   UNL A   1      44.266  26.921  27.253  1.00  0.00     0.074 A 
ATOM     36  C   UNL A   1      42.113  26.209  28.321  1.00  0.00     0.049 A 
ATOM     37  N   UNL A   1      45.214  27.429  27.969  1.00  0.00    -0.248 NA
ATOM     38  C   UNL A   1      44.327  27.307  25.831  1.00  0.00     0.031 C 
ATOM     39  C   UNL A   1      40.888  25.396  28.448  1.00  0.00     0.029 A 
ATOM     40  N   UNL A   1      41.746  27.370  28.922  1.00  0.00    -0.354 N 
ATOM     41  C   UNL A   1      45.839  28.367  27.149  1.00  0.00     0.074 A 
ATOM     42  C   UNL A   1      45.423  28.066  25.807  1.00  0.00     0.031 C 
ATOM     43  C   UNL A   1      39.865  26.164  28.881  1.00  0.00     0.029 A 
ATOM     44  C   UNL A   1      40.388  27.470  29.223  1.00  0.00     0.049 A 
ATOM     45  H   UNL A   1      42.389  28.087  29.129  1.00  0.00     0.167 HD
ATOM     46  C   UNL A   1      46.403  29.494  27.667  1.00  0.00     0.037 A 
ATOM     47  C   UNL A   1      39.751  28.572  29.692  1.00  0.00     0.037 A 
ATOM     48  C   UNL A   1      46.564  29.373  29.095  1.00  0.00     0.049 A 
ATOM     49  C   UNL A   1      40.802  29.477  30.223  1.00  0.00     0.074 A 
ATOM     50  C   UNL A   1      47.262  28.525  29.932  1.00  0.00     0.029 A 
ATOM     51  N   UNL A   1      45.620  29.984  29.884  1.00  0.00    -0.354 N 
ATOM     52  N   UNL A   1      41.545  29.189  31.257  1.00  0.00    -0.248 NA
ATOM     53  C   UNL A   1      41.357  30.464  29.309  1.00  0.00     0.031 C 
ATOM     54  C   UNL A   1      46.396  28.313  31.046  1.00  0.00     0.029 A 
ATOM     55  C   UNL A   1      45.256  29.099  30.866  1.00  0.00     0.049 A 
ATOM     56  H   UNL A   1      45.267  30.894  29.765  1.00  0.00     0.167 HD
ATOM     57  C   UNL A   1      42.817  29.628  30.916  1.00  0.00     0.074 A 
ATOM     58  C   UNL A   1      42.624  30.470  29.735  1.00  0.00     0.031 C 
ATOM     59  C   UNL A   1      43.930  29.030  31.436  1.00  0.00     0.037 A 
BRANCH  46  60
ATOM     60  C   UNL A   1      46.424  30.843  26.977  1.00  0.00     0.057 A 
ATOM     61  C   UNL A   1      47.631  31.568  26.951  1.00  0.00     0.134 A 
ATOM     62  C   UNL A   1      45.283  31.585  26.602  1.00  0.00     0.134 A 
ATOM     63  F   UNL A   1      48.793  30.982  27.281  1.00  0.00    -0.206 F 
ATOM     64  C   UNL A   1      47.683  32.939  26.671  1.00  0.00     0.040 A 
ATOM     65  C   UNL A   1      45.333  32.941  26.269  1.00  0.00     0.040 A 
ATOM     66  F   UNL A   1      44.047  31.079  26.631  1.00  0.00    -0.206 F 
ATOM     67  C   UNL A   1      46.528  33.634  26.339  1.00  0.00     0.006 A 
ENDBRANCH  46  60
BRANCH  47  68
ATOM     68  C   UNL A   1      38.371  29.036  29.417  1.00  0.00     0.057 A 
ATOM     69  C   UNL A   1      37.439  29.220  30.451  1.00  0.00     0.134 A 
ATOM     70  C   UNL A   1      38.018  29.580  28.170  1.00  0.00     0.134 A 
ATOM     71  F   UNL A   1      37.703  28.773  31.687  1.00  0.00    -0.206 F 
ATOM     72  C   UNL A   1      36.241  29.921  30.260  1.00  0.00     0.040 A 
ATOM     73  C   UNL A   1      36.824  30.282  27.965  1.00  0.00     0.040 A 
ATOM     74  F   UNL A   1      38.864  29.526  27.130  1.00  0.00    -0.206 F 
ATOM     75  C   UNL A   1      35.935  30.466  29.017  1.00  0.00     0.006 A 
ENDBRANCH  47  68
BRANCH  59  76
ATOM     76  C   UNL A   1      43.731  28.033  32.549  1.00  0.00     0.057 A 
ATOM     77  C   UNL A   1      43.717  26.640  32.365  1.00  0.00     0.134 A 
ATOM     78  C   UNL A   1      43.729  28.488  33.869  1.00  0.00     0.134 A 
ATOM     79  F   UNL A   1      43.811  26.103  31.146  1.00  0.00    -0.206 F 
ATOM     80  C   UNL A   1      43.672  25.747  33.440  1.00  0.00     0.040 A 
ATOM     81  C   UNL A   1      43.716  27.607  34.954  1.00  0.00     0.040 A 
ATOM     82  F   UNL A   1      43.801  29.803  34.127  1.00  0.00    -0.206 F 
ATOM     83  C   UNL A   1      43.681  26.231  34.743  1.00  0.00     0.006 A 
ENDBRANCH  59  76
ENDBRANCH  33  34
ENDBRANCH  25  28
ENDBRANCH  23  24
ENDBRANCH  22  23
ENDBRANCH   1  22
TORSDOF 13
ENDMDL
