MODEL 1
REMARK VINA RESULT:     -12.4      0.000      0.000
REMARK SMILES O=C(NCCCCNC(=O)[C@@H]1[C@H](C(=O)Nc2ccccc2OC(F)F)[C@@H]2C=C[C@H]1C2)c1ccc(-c2c3nc(c(-c4c(F)cccc4F)c4ccc([nH]4)c(-c4c(F)cccc4F)c4nc(c(-c5c(F)cccc5F)c5ccc2[nH]5)C=C4)C=C3)cc1
REMARK SMILES IDX 6 1 5 2 4 3 3 4 1 5 2 6 31 8 32 9 84 10 33 11 83 12 34 13
REMARK SMILES IDX 35 14 36 15 77 16 37 17 82 18 76 19 78 20 38 21 81 22 75 23
REMARK SMILES IDX 74 24 39 26 65 27 48 28 64 29 49 30 52 31 63 32 79 33 50 34
REMARK SMILES IDX 51 35 62 37 80 38 53 39 40 40 41 41 46 42 42 43 43 44 45 45
REMARK SMILES IDX 47 46 44 47 66 48 67 49 72 50 68 51 69 52 71 53 73 54 70 55
REMARK SMILES IDX 54 56 55 57 60 58 56 59 57 60 59 61 61 62 58 63 7 64 8 65
REMARK SMILES IDX 9 66 10 68 11 69 12 70 29 71 26 72 28 73 30 74 27 75 13 76
REMARK SMILES IDX 14 77 15 78 16 80 17 81 21 82 18 83 20 84 19 85 22 86 23 87
REMARK SMILES IDX 24 88 25 89
REMARK H PARENT 3 7 78 25 52 36 8 67 15 79
REMARK Flexibility Score: inf
ROOT
ATOM      1  C   UNL A   1      36.548  20.506  25.009  1.00  0.00     0.023 C 
ENDROOT
BRANCH   1   2
ATOM      2  C   UNL A   1      37.792  19.615  24.953  1.00  0.00     0.023 C 
BRANCH   2   3
ATOM      3  C   UNL A   1      38.993  20.037  25.774  1.00  0.00     0.116 C 
BRANCH   3   4
ATOM      4  N   UNL A   1      40.083  19.083  25.792  1.00  0.00    -0.352 N 
ATOM      5  O   UNL A   1      42.210  18.369  26.047  1.00  0.00    -0.269 OA
ATOM      6  C   UNL A   1      41.407  19.298  26.110  1.00  0.00     0.251 C 
ATOM      7  H   UNL A   1      39.847  18.159  25.546  1.00  0.00     0.163 HD
BRANCH   6   8
ATOM      8  C   UNL A   1      41.878  20.655  26.481  1.00  0.00     0.039 A 
ATOM      9  C   UNL A   1      42.134  21.626  25.511  1.00  0.00     0.014 A 
ATOM     10  C   UNL A   1      42.070  20.962  27.833  1.00  0.00     0.014 A 
ATOM     11  C   UNL A   1      42.723  22.830  25.870  1.00  0.00     0.010 A 
ATOM     12  C   UNL A   1      42.553  22.222  28.205  1.00  0.00     0.010 A 
ATOM     13  C   UNL A   1      42.897  23.160  27.222  1.00  0.00    -0.014 A 
BRANCH  13  14
ATOM     14  C   UNL A   1      43.321  24.539  27.573  1.00  0.00     0.031 A 
ATOM     15  C   UNL A   1      44.756  24.968  27.482  1.00  0.00     0.074 A 
ATOM     16  C   UNL A   1      42.367  25.412  27.952  1.00  0.00     0.049 A 
ATOM     17  N   UNL A   1      45.287  26.125  27.783  1.00  0.00    -0.248 NA
ATOM     18  C   UNL A   1      45.724  23.971  27.000  1.00  0.00     0.031 C 
ATOM     19  C   UNL A   1      40.939  25.093  28.076  1.00  0.00     0.029 A 
ATOM     20  N   UNL A   1      42.433  26.741  28.276  1.00  0.00    -0.354 N 
ATOM     21  C   UNL A   1      46.651  25.991  27.556  1.00  0.00     0.074 A 
ATOM     22  C   UNL A   1      46.870  24.633  27.104  1.00  0.00     0.031 C 
ATOM     23  C   UNL A   1      40.261  26.207  28.379  1.00  0.00     0.029 A 
ATOM     24  C   UNL A   1      41.210  27.295  28.565  1.00  0.00     0.049 A 
ATOM     25  H   UNL A   1      43.276  27.250  28.300  1.00  0.00     0.167 HD
ATOM     26  C   UNL A   1      47.625  26.920  27.715  1.00  0.00     0.037 A 
ATOM     27  C   UNL A   1      40.885  28.536  28.969  1.00  0.00     0.037 A 
ATOM     28  C   UNL A   1      47.382  28.272  28.156  1.00  0.00     0.049 A 
ATOM     29  C   UNL A   1      41.986  29.532  29.161  1.00  0.00     0.074 A 
ATOM     30  C   UNL A   1      48.293  29.298  28.343  1.00  0.00     0.029 A 
ATOM     31  N   UNL A   1      46.133  28.786  28.478  1.00  0.00    -0.354 N 
ATOM     32  N   UNL A   1      43.272  29.387  28.955  1.00  0.00    -0.248 NA
ATOM     33  C   UNL A   1      41.598  30.856  29.661  1.00  0.00     0.031 C 
ATOM     34  C   UNL A   1      47.601  30.417  28.816  1.00  0.00     0.029 A 
ATOM     35  C   UNL A   1      46.252  30.107  28.879  1.00  0.00     0.049 A 
ATOM     36  H   UNL A   1      45.287  28.285  28.429  1.00  0.00     0.167 HD
ATOM     37  C   UNL A   1      43.849  30.602  29.290  1.00  0.00     0.074 A 
ATOM     38  C   UNL A   1      42.767  31.480  29.690  1.00  0.00     0.031 C 
ATOM     39  C   UNL A   1      45.157  30.957  29.276  1.00  0.00     0.037 A 
BRANCH  26  40
ATOM     40  C   UNL A   1      49.042  26.503  27.441  1.00  0.00     0.057 A 
ATOM     41  C   UNL A   1      49.863  25.958  28.436  1.00  0.00     0.134 A 
ATOM     42  C   UNL A   1      49.581  26.608  26.151  1.00  0.00     0.134 A 
ATOM     43  F   UNL A   1      49.417  25.837  29.696  1.00  0.00    -0.206 F 
ATOM     44  C   UNL A   1      51.173  25.554  28.165  1.00  0.00     0.040 A 
ATOM     45  C   UNL A   1      50.880  26.186  25.861  1.00  0.00     0.040 A 
ATOM     46  F   UNL A   1      48.848  27.114  25.147  1.00  0.00    -0.206 F 
ATOM     47  C   UNL A   1      51.682  25.661  26.872  1.00  0.00     0.006 A 
ENDBRANCH  26  40
BRANCH  27  48
ATOM     48  C   UNL A   1      39.466  28.878  29.232  1.00  0.00     0.057 A 
ATOM     49  C   UNL A   1      38.636  29.362  28.215  1.00  0.00     0.134 A 
ATOM     50  C   UNL A   1      38.893  28.694  30.498  1.00  0.00     0.134 A 
ATOM     51  F   UNL A   1      39.128  29.573  26.986  1.00  0.00    -0.206 F 
ATOM     52  C   UNL A   1      37.291  29.653  28.446  1.00  0.00     0.040 A 
ATOM     53  C   UNL A   1      37.543  28.952  30.736  1.00  0.00     0.040 A 
ATOM     54  F   UNL A   1      39.633  28.224  31.514  1.00  0.00    -0.206 F 
ATOM     55  C   UNL A   1      36.739  29.439  29.708  1.00  0.00     0.006 A 
ENDBRANCH  27  48
BRANCH  39  56
ATOM     56  C   UNL A   1      45.472  32.365  29.683  1.00  0.00     0.057 A 
ATOM     57  C   UNL A   1      45.480  33.415  28.756  1.00  0.00     0.134 A 
ATOM     58  C   UNL A   1      45.759  32.671  31.018  1.00  0.00     0.134 A 
ATOM     59  F   UNL A   1      45.232  33.180  27.459  1.00  0.00    -0.206 F 
ATOM     60  C   UNL A   1      45.788  34.721  29.141  1.00  0.00     0.040 A 
ATOM     61  C   UNL A   1      46.042  33.977  31.419  1.00  0.00     0.040 A 
ATOM     62  F   UNL A   1      45.763  31.709  31.953  1.00  0.00    -0.206 F 
ATOM     63  C   UNL A   1      46.063  35.005  30.478  1.00  0.00     0.006 A 
ENDBRANCH  39  56
ENDBRANCH  13  14
ENDBRANCH   6   8
ENDBRANCH   3   4
ENDBRANCH   2   3
ENDBRANCH   1   2
BRANCH   1  64
ATOM     64  C   UNL A   1      36.684  21.819  25.782  1.00  0.00     0.116 C 
BRANCH  64  65
ATOM     65  N   UNL A   1      35.623  22.109  26.738  1.00  0.00    -0.356 N 
ATOM     66  C   UNL A   1      34.341  22.554  26.592  1.00  0.00     0.224 C 
ATOM     67  H   UNL A   1      35.882  21.954  27.675  1.00  0.00     0.163 HD
ATOM     68  O   UNL A   1      33.543  22.169  27.453  1.00  0.00    -0.275 OA
BRANCH  66  69
ATOM     69  C   UNL A   1      33.870  23.367  25.402  1.00  0.00     0.098 C 
ATOM     70  C   UNL A   1      32.731  24.433  25.346  1.00  0.00     0.099 C 
ATOM     71  C   UNL A   1      33.501  22.468  24.173  1.00  0.00     0.025 C 
ATOM     72  C   UNL A   1      32.034  24.143  23.975  1.00  0.00     0.025 C 
ATOM     73  C   UNL A   1      32.103  21.888  24.279  1.00  0.00    -0.027 C 
ATOM     74  C   UNL A   1      33.184  23.561  23.142  1.00  0.00     0.017 C 
ATOM     75  C   UNL A   1      31.228  22.886  24.099  1.00  0.00    -0.027 C 
BRANCH  70  76
ATOM     76  C   UNL A   1      31.747  24.933  26.420  1.00  0.00     0.229 C 
ATOM     77  O   UNL A   1      31.166  24.054  27.086  1.00  0.00    -0.274 OA
ATOM     78  N   UNL A   1      31.544  26.181  26.915  1.00  0.00    -0.323 N 
ATOM     79  H   UNL A   1      31.261  26.141  27.858  1.00  0.00     0.170 HD
BRANCH  78  80
ATOM     80  C   UNL A   1      31.621  27.516  26.472  1.00  0.00     0.084 A 
ATOM     81  C   UNL A   1      31.960  28.494  27.416  1.00  0.00     0.030 A 
ATOM     82  C   UNL A   1      31.196  27.976  25.230  1.00  0.00     0.149 A 
ATOM     83  C   UNL A   1      31.979  29.855  27.072  1.00  0.00     0.002 A 
ATOM     84  C   UNL A   1      31.316  29.313  24.838  1.00  0.00     0.049 A 
ATOM     85  C   UNL A   1      31.697  30.262  25.771  1.00  0.00     0.004 A 
BRANCH  82  86
ATOM     86  O   UNL A   1      30.388  27.247  24.422  1.00  0.00    -0.433 OA
BRANCH  86  87
ATOM     87  C   UNL A   1      29.924  28.041  23.336  1.00  0.00     0.542 C 
ATOM     88  F   UNL A   1      30.293  27.549  22.128  1.00  0.00    -0.167 F 
ATOM     89  F   UNL A   1      28.568  28.016  23.362  1.00  0.00    -0.167 F 
ENDBRANCH  86  87
ENDBRANCH  82  86
ENDBRANCH  78  80
ENDBRANCH  70  76
ENDBRANCH  66  69
ENDBRANCH  64  65
ENDBRANCH   1  64
TORSDOF 15
ENDMDL
MODEL 2
REMARK VINA RESULT:     -12.4      0.472      6.092
REMARK SMILES O=C(NCCCCNC(=O)[C@@H]1[C@H](C(=O)Nc2ccccc2OC(F)F)[C@@H]2C=C[C@H]1C2)c1ccc(-c2c3nc(c(-c4c(F)cccc4F)c4ccc([nH]4)c(-c4c(F)cccc4F)c4nc(c(-c5c(F)cccc5F)c5ccc2[nH]5)C=C4)C=C3)cc1
REMARK SMILES IDX 6 1 5 2 4 3 3 4 1 5 2 6 31 8 32 9 84 10 33 11 83 12 34 13
REMARK SMILES IDX 35 14 36 15 77 16 37 17 82 18 76 19 78 20 38 21 81 22 75 23
REMARK SMILES IDX 74 24 39 26 65 27 48 28 64 29 49 30 52 31 63 32 79 33 50 34
REMARK SMILES IDX 51 35 62 37 80 38 53 39 40 40 41 41 46 42 42 43 43 44 45 45
REMARK SMILES IDX 47 46 44 47 66 48 67 49 72 50 68 51 69 52 71 53 73 54 70 55
REMARK SMILES IDX 54 56 55 57 60 58 56 59 57 60 59 61 61 62 58 63 7 64 8 65
REMARK SMILES IDX 9 66 10 68 11 69 12 70 29 71 26 72 28 73 30 74 27 75 13 76
REMARK SMILES IDX 14 77 15 78 16 80 17 81 21 82 18 83 20 84 19 85 22 86 23 87
REMARK SMILES IDX 24 88 25 89
REMARK H PARENT 3 7 78 25 52 36 8 67 15 79
REMARK Flexibility Score: inf
ROOT
ATOM      1  C   UNL A   1      36.525  20.382  24.998  1.00  0.00     0.023 C 
ENDROOT
BRANCH   1   2
ATOM      2  C   UNL A   1      37.803  19.548  24.873  1.00  0.00     0.023 C 
BRANCH   2   3
ATOM      3  C   UNL A   1      38.985  19.943  25.736  1.00  0.00     0.116 C 
BRANCH   3   4
ATOM      4  N   UNL A   1      40.070  18.983  25.757  1.00  0.00    -0.352 N 
ATOM      5  O   UNL A   1      42.198  18.266  25.989  1.00  0.00    -0.269 OA
ATOM      6  C   UNL A   1      41.401  19.200  26.044  1.00  0.00     0.251 C 
ATOM      7  H   UNL A   1      39.826  18.055  25.537  1.00  0.00     0.163 HD
BRANCH   6   8
ATOM      8  C   UNL A   1      41.885  20.563  26.374  1.00  0.00     0.039 A 
ATOM      9  C   UNL A   1      42.129  21.508  25.377  1.00  0.00     0.014 A 
ATOM     10  C   UNL A   1      42.100  20.903  27.715  1.00  0.00     0.014 A 
ATOM     11  C   UNL A   1      42.730  22.717  25.696  1.00  0.00     0.010 A 
ATOM     12  C   UNL A   1      42.595  22.168  28.047  1.00  0.00     0.010 A 
ATOM     13  C   UNL A   1      42.929  23.080  27.036  1.00  0.00    -0.014 A 
BRANCH  13  14
ATOM     14  C   UNL A   1      43.365  24.465  27.346  1.00  0.00     0.031 A 
ATOM     15  C   UNL A   1      42.397  25.506  27.827  1.00  0.00     0.074 A 
ATOM     16  C   UNL A   1      44.673  24.757  27.207  1.00  0.00     0.049 A 
ATOM     17  N   UNL A   1      42.618  26.764  28.108  1.00  0.00    -0.248 NA
ATOM     18  C   UNL A   1      40.999  25.086  28.010  1.00  0.00     0.031 C 
ATOM     19  C   UNL A   1      45.698  23.815  26.740  1.00  0.00     0.029 A 
ATOM     20  N   UNL A   1      45.376  25.904  27.462  1.00  0.00    -0.354 N 
ATOM     21  C   UNL A   1      41.388  27.296  28.473  1.00  0.00     0.074 A 
ATOM     22  C   UNL A   1      40.418  26.226  28.365  1.00  0.00     0.031 C 
ATOM     23  C   UNL A   1      46.901  24.399  26.811  1.00  0.00     0.029 A 
ATOM     24  C   UNL A   1      46.725  25.781  27.234  1.00  0.00     0.049 A 
ATOM     25  H   UNL A   1      44.956  26.736  27.781  1.00  0.00     0.167 HD
ATOM     26  C   UNL A   1      41.101  28.564  28.860  1.00  0.00     0.037 A 
ATOM     27  C   UNL A   1      47.714  26.688  27.321  1.00  0.00     0.037 A 
ATOM     28  C   UNL A   1      42.086  29.612  28.971  1.00  0.00     0.049 A 
ATOM     29  C   UNL A   1      47.362  28.087  27.724  1.00  0.00     0.074 A 
ATOM     30  C   UNL A   1      41.908  30.928  29.361  1.00  0.00     0.029 A 
ATOM     31  N   UNL A   1      43.438  29.459  28.692  1.00  0.00    -0.354 N 
ATOM     32  N   UNL A   1      46.192  28.578  28.055  1.00  0.00    -0.248 NA
ATOM     33  C   UNL A   1      48.458  29.062  27.748  1.00  0.00     0.031 C 
ATOM     34  C   UNL A   1      43.142  31.581  29.279  1.00  0.00     0.029 A 
ATOM     35  C   UNL A   1      44.101  30.661  28.884  1.00  0.00     0.049 A 
ATOM     36  H   UNL A   1      43.863  28.621  28.400  1.00  0.00     0.167 HD
ATOM     37  C   UNL A   1      46.410  29.918  28.335  1.00  0.00     0.074 A 
ATOM     38  C   UNL A   1      47.830  30.154  28.159  1.00  0.00     0.031 C 
ATOM     39  C   UNL A   1      45.515  30.869  28.698  1.00  0.00     0.037 A 
BRANCH  26  40
ATOM     40  C   UNL A   1      39.668  28.896  29.161  1.00  0.00     0.057 A 
ATOM     41  C   UNL A   1      39.145  28.832  30.459  1.00  0.00     0.134 A 
ATOM     42  C   UNL A   1      38.806  29.327  28.143  1.00  0.00     0.134 A 
ATOM     43  F   UNL A   1      39.911  28.419  31.480  1.00  0.00    -0.206 F 
ATOM     44  C   UNL A   1      37.815  29.164  30.730  1.00  0.00     0.040 A 
ATOM     45  C   UNL A   1      37.481  29.684  28.405  1.00  0.00     0.040 A 
ATOM     46  F   UNL A   1      39.240  29.419  26.876  1.00  0.00    -0.206 F 
ATOM     47  C   UNL A   1      36.981  29.598  29.702  1.00  0.00     0.006 A 
ENDBRANCH  26  40
BRANCH  27  48
ATOM     48  C   UNL A   1      49.107  26.295  26.998  1.00  0.00     0.057 A 
ATOM     49  C   UNL A   1      49.590  26.349  25.687  1.00  0.00     0.134 A 
ATOM     50  C   UNL A   1      50.002  25.892  27.999  1.00  0.00     0.134 A 
ATOM     51  F   UNL A   1      48.779  26.712  24.683  1.00  0.00    -0.206 F 
ATOM     52  C   UNL A   1      50.910  26.013  25.380  1.00  0.00     0.040 A 
ATOM     53  C   UNL A   1      51.332  25.583  27.711  1.00  0.00     0.040 A 
ATOM     54  F   UNL A   1      49.604  25.829  29.278  1.00  0.00    -0.206 F 
ATOM     55  C   UNL A   1      51.788  25.639  26.396  1.00  0.00     0.006 A 
ENDBRANCH  27  48
BRANCH  39  56
ATOM     56  C   UNL A   1      46.063  32.241  28.951  1.00  0.00     0.057 A 
ATOM     57  C   UNL A   1      46.539  32.623  30.211  1.00  0.00     0.134 A 
ATOM     58  C   UNL A   1      46.124  33.183  27.918  1.00  0.00     0.134 A 
ATOM     59  F   UNL A   1      46.489  31.770  31.245  1.00  0.00    -0.206 F 
ATOM     60  C   UNL A   1      47.036  33.907  30.441  1.00  0.00     0.040 A 
ATOM     61  C   UNL A   1      46.642  34.461  28.129  1.00  0.00     0.040 A 
ATOM     62  F   UNL A   1      45.687  32.876  26.687  1.00  0.00    -0.206 F 
ATOM     63  C   UNL A   1      47.093  34.828  29.396  1.00  0.00     0.006 A 
ENDBRANCH  39  56
ENDBRANCH  13  14
ENDBRANCH   6   8
ENDBRANCH   3   4
ENDBRANCH   2   3
ENDBRANCH   1   2
BRANCH   1  64
ATOM     64  C   UNL A   1      36.636  21.684  25.793  1.00  0.00     0.116 C 
BRANCH  64  65
ATOM     65  N   UNL A   1      35.545  21.960  26.718  1.00  0.00    -0.356 N 
ATOM     66  C   UNL A   1      34.280  22.441  26.542  1.00  0.00     0.224 C 
ATOM     67  H   UNL A   1      35.764  21.761  27.657  1.00  0.00     0.163 HD
ATOM     68  O   UNL A   1      33.440  22.042  27.355  1.00  0.00    -0.275 OA
BRANCH  66  69
ATOM     69  C   UNL A   1      33.875  23.313  25.369  1.00  0.00     0.098 C 
ATOM     70  C   UNL A   1      32.783  24.428  25.322  1.00  0.00     0.099 C 
ATOM     71  C   UNL A   1      33.500  22.473  24.101  1.00  0.00     0.025 C 
ATOM     72  C   UNL A   1      32.111  24.215  23.925  1.00  0.00     0.025 C 
ATOM     73  C   UNL A   1      32.078  21.949  24.152  1.00  0.00    -0.027 C 
ATOM     74  C   UNL A   1      33.257  23.611  23.101  1.00  0.00     0.017 C 
ATOM     75  C   UNL A   1      31.250  22.990  23.985  1.00  0.00    -0.027 C 
BRANCH  70  76
ATOM     76  C   UNL A   1      31.793  24.933  26.388  1.00  0.00     0.229 C 
ATOM     77  O   UNL A   1      31.208  24.058  27.055  1.00  0.00    -0.274 OA
ATOM     78  N   UNL A   1      31.588  26.183  26.876  1.00  0.00    -0.323 N 
ATOM     79  H   UNL A   1      31.300  26.148  27.817  1.00  0.00     0.170 HD
BRANCH  78  80
ATOM     80  C   UNL A   1      31.668  27.516  26.427  1.00  0.00     0.084 A 
ATOM     81  C   UNL A   1      31.964  28.504  27.375  1.00  0.00     0.030 A 
ATOM     82  C   UNL A   1      31.282  27.964  25.168  1.00  0.00     0.149 A 
ATOM     83  C   UNL A   1      31.981  29.863  27.024  1.00  0.00     0.002 A 
ATOM     84  C   UNL A   1      31.403  29.300  24.771  1.00  0.00     0.049 A 
ATOM     85  C   UNL A   1      31.742  30.259  25.711  1.00  0.00     0.004 A 
BRANCH  82  86
ATOM     86  O   UNL A   1      30.510  27.223  24.336  1.00  0.00    -0.433 OA
BRANCH  86  87
ATOM     87  C   UNL A   1      30.082  28.004  23.227  1.00  0.00     0.542 C 
ATOM     88  F   UNL A   1      30.442  27.469  22.035  1.00  0.00    -0.167 F 
ATOM     89  F   UNL A   1      28.725  28.025  23.243  1.00  0.00    -0.167 F 
ENDBRANCH  86  87
ENDBRANCH  82  86
ENDBRANCH  78  80
ENDBRANCH  70  76
ENDBRANCH  66  69
ENDBRANCH  64  65
ENDBRANCH   1  64
TORSDOF 15
ENDMDL
MODEL 3
REMARK VINA RESULT:     -12.4      1.168      6.156
REMARK SMILES O=C(NCCCCNC(=O)[C@@H]1[C@H](C(=O)Nc2ccccc2OC(F)F)[C@@H]2C=C[C@H]1C2)c1ccc(-c2c3nc(c(-c4c(F)cccc4F)c4ccc([nH]4)c(-c4c(F)cccc4F)c4nc(c(-c5c(F)cccc5F)c5ccc2[nH]5)C=C4)C=C3)cc1
REMARK SMILES IDX 6 1 5 2 4 3 3 4 1 5 2 6 31 8 32 9 84 10 33 11 83 12 34 13
REMARK SMILES IDX 35 14 36 15 77 16 37 17 82 18 76 19 78 20 38 21 81 22 75 23
REMARK SMILES IDX 74 24 39 26 65 27 48 28 64 29 49 30 52 31 63 32 79 33 50 34
REMARK SMILES IDX 51 35 62 37 80 38 53 39 40 40 41 41 46 42 42 43 43 44 45 45
REMARK SMILES IDX 47 46 44 47 66 48 67 49 72 50 68 51 69 52 71 53 73 54 70 55
REMARK SMILES IDX 54 56 55 57 60 58 56 59 57 60 59 61 61 62 58 63 7 64 8 65
REMARK SMILES IDX 9 66 10 68 11 69 12 70 29 71 26 72 28 73 30 74 27 75 13 76
REMARK SMILES IDX 14 77 15 78 16 80 17 81 21 82 18 83 20 84 19 85 22 86 23 87
REMARK SMILES IDX 24 88 25 89
REMARK H PARENT 3 7 78 25 52 36 8 67 15 79
REMARK Flexibility Score: inf
ROOT
ATOM      1  C   UNL A   1      36.588  20.293  24.959  1.00  0.00     0.023 C 
ENDROOT
BRANCH   1   2
ATOM      2  C   UNL A   1      37.899  19.502  24.929  1.00  0.00     0.023 C 
BRANCH   2   3
ATOM      3  C   UNL A   1      39.057  20.033  25.749  1.00  0.00     0.116 C 
BRANCH   3   4
ATOM      4  N   UNL A   1      40.255  19.219  25.709  1.00  0.00    -0.352 N 
ATOM      5  O   UNL A   1      42.446  18.741  25.967  1.00  0.00    -0.269 OA
ATOM      6  C   UNL A   1      41.534  19.555  26.096  1.00  0.00     0.251 C 
ATOM      7  H   UNL A   1      40.140  18.305  25.361  1.00  0.00     0.163 HD
BRANCH   6   8
ATOM      8  C   UNL A   1      41.826  20.912  26.622  1.00  0.00     0.039 A 
ATOM      9  C   UNL A   1      41.760  21.192  27.987  1.00  0.00     0.014 A 
ATOM     10  C   UNL A   1      42.173  21.929  25.724  1.00  0.00     0.014 A 
ATOM     11  C   UNL A   1      41.882  22.499  28.437  1.00  0.00     0.010 A 
ATOM     12  C   UNL A   1      42.413  23.226  26.192  1.00  0.00     0.010 A 
ATOM     13  C   UNL A   1      42.253  23.523  27.552  1.00  0.00    -0.014 A 
BRANCH  13  14
ATOM     14  C   UNL A   1      42.590  24.858  28.106  1.00  0.00     0.031 A 
ATOM     15  C   UNL A   1      41.534  25.895  28.356  1.00  0.00     0.074 A 
ATOM     16  C   UNL A   1      43.880  25.107  28.406  1.00  0.00     0.049 A 
ATOM     17  N   UNL A   1      41.673  27.116  28.804  1.00  0.00    -0.248 NA
ATOM     18  C   UNL A   1      40.143  25.520  28.058  1.00  0.00     0.031 C 
ATOM     19  C   UNL A   1      44.986  24.165  28.197  1.00  0.00     0.029 A 
ATOM     20  N   UNL A   1      44.483  26.199  28.970  1.00  0.00    -0.354 N 
ATOM     21  C   UNL A   1      40.397  27.666  28.817  1.00  0.00     0.074 A 
ATOM     22  C   UNL A   1      39.496  26.649  28.317  1.00  0.00     0.031 C 
ATOM     23  C   UNL A   1      46.114  24.691  28.690  1.00  0.00     0.029 A 
ATOM     24  C   UNL A   1      45.834  26.040  29.161  1.00  0.00     0.049 A 
ATOM     25  H   UNL A   1      43.996  27.019  29.216  1.00  0.00     0.167 HD
ATOM     26  C   UNL A   1      40.022  28.909  29.209  1.00  0.00     0.037 A 
ATOM     27  C   UNL A   1      46.758  26.896  29.632  1.00  0.00     0.037 A 
ATOM     28  C   UNL A   1      40.937  29.903  29.714  1.00  0.00     0.049 A 
ATOM     29  C   UNL A   1      46.317  28.270  30.032  1.00  0.00     0.074 A 
ATOM     30  C   UNL A   1      40.663  31.189  30.148  1.00  0.00     0.029 A 
ATOM     31  N   UNL A   1      42.306  29.718  29.855  1.00  0.00    -0.354 N 
ATOM     32  N   UNL A   1      45.109  28.780  30.026  1.00  0.00    -0.248 NA
ATOM     33  C   UNL A   1      47.363  29.194  30.482  1.00  0.00     0.031 C 
ATOM     34  C   UNL A   1      41.870  31.795  30.511  1.00  0.00     0.029 A 
ATOM     35  C   UNL A   1      42.892  30.872  30.351  1.00  0.00     0.049 A 
ATOM     36  H   UNL A   1      42.789  28.890  29.634  1.00  0.00     0.167 HD
ATOM     37  C   UNL A   1      45.246  30.082  30.481  1.00  0.00     0.074 A 
ATOM     38  C   UNL A   1      46.653  30.274  30.775  1.00  0.00     0.031 C 
ATOM     39  C   UNL A   1      44.296  31.036  30.632  1.00  0.00     0.037 A 
BRANCH  26  40
ATOM     40  C   UNL A   1      38.570  29.274  29.080  1.00  0.00     0.057 A 
ATOM     41  C   UNL A   1      37.692  29.231  30.170  1.00  0.00     0.134 A 
ATOM     42  C   UNL A   1      38.051  29.715  27.855  1.00  0.00     0.134 A 
ATOM     43  F   UNL A   1      38.118  28.810  31.370  1.00  0.00    -0.206 F 
ATOM     44  C   UNL A   1      36.348  29.593  30.042  1.00  0.00     0.040 A 
ATOM     45  C   UNL A   1      36.716  30.102  27.719  1.00  0.00     0.040 A 
ATOM     46  F   UNL A   1      38.837  29.788  26.769  1.00  0.00    -0.206 F 
ATOM     47  C   UNL A   1      35.859  30.037  28.815  1.00  0.00     0.006 A 
ENDBRANCH  26  40
BRANCH  27  48
ATOM     48  C   UNL A   1      48.177  26.473  29.723  1.00  0.00     0.057 A 
ATOM     49  C   UNL A   1      48.666  25.814  30.855  1.00  0.00     0.134 A 
ATOM     50  C   UNL A   1      49.071  26.684  28.664  1.00  0.00     0.134 A 
ATOM     51  F   UNL A   1      47.864  25.595  31.908  1.00  0.00    -0.206 F 
ATOM     52  C   UNL A   1      49.991  25.382  30.935  1.00  0.00     0.040 A 
ATOM     53  C   UNL A   1      50.389  26.230  28.717  1.00  0.00     0.040 A 
ATOM     54  F   UNL A   1      48.662  27.301  27.545  1.00  0.00    -0.206 F 
ATOM     55  C   UNL A   1      50.854  25.581  29.858  1.00  0.00     0.006 A 
ENDBRANCH  27  48
BRANCH  39  56
ATOM     56  C   UNL A   1      44.756  32.359  31.166  1.00  0.00     0.057 A 
ATOM     57  C   UNL A   1      45.151  33.399  30.316  1.00  0.00     0.134 A 
ATOM     58  C   UNL A   1      44.791  32.596  32.545  1.00  0.00     0.134 A 
ATOM     59  F   UNL A   1      45.157  33.225  28.985  1.00  0.00    -0.206 F 
ATOM     60  C   UNL A   1      45.591  34.624  30.822  1.00  0.00     0.040 A 
ATOM     61  C   UNL A   1      45.203  33.824  33.061  1.00  0.00     0.040 A 
ATOM     62  F   UNL A   1      44.420  31.640  33.411  1.00  0.00    -0.206 F 
ATOM     63  C   UNL A   1      45.611  34.840  32.198  1.00  0.00     0.006 A 
ENDBRANCH  39  56
ENDBRANCH  13  14
ENDBRANCH   6   8
ENDBRANCH   3   4
ENDBRANCH   2   3
ENDBRANCH   1   2
BRANCH   1  64
ATOM     64  C   UNL A   1      36.609  21.616  25.727  1.00  0.00     0.116 C 
BRANCH  64  65
ATOM     65  N   UNL A   1      35.492  21.841  26.636  1.00  0.00    -0.356 N 
ATOM     66  C   UNL A   1      34.234  22.337  26.453  1.00  0.00     0.224 C 
ATOM     67  H   UNL A   1      35.683  21.586  27.568  1.00  0.00     0.163 HD
ATOM     68  O   UNL A   1      33.370  21.894  27.216  1.00  0.00    -0.275 OA
BRANCH  66  69
ATOM     69  C   UNL A   1      33.865  23.280  25.323  1.00  0.00     0.098 C 
ATOM     70  C   UNL A   1      32.818  24.438  25.329  1.00  0.00     0.099 C 
ATOM     71  C   UNL A   1      33.460  22.515  24.017  1.00  0.00     0.025 C 
ATOM     72  C   UNL A   1      32.140  24.317  23.923  1.00  0.00     0.025 C 
ATOM     73  C   UNL A   1      32.017  22.046  24.043  1.00  0.00    -0.027 C 
ATOM     74  C   UNL A   1      33.263  23.709  23.072  1.00  0.00     0.017 C 
ATOM     75  C   UNL A   1      31.232  23.125  23.926  1.00  0.00    -0.027 C 
BRANCH  70  76
ATOM     76  C   UNL A   1      31.848  24.930  26.418  1.00  0.00     0.229 C 
ATOM     77  O   UNL A   1      31.286  24.048  27.095  1.00  0.00    -0.274 OA
ATOM     78  N   UNL A   1      31.641  26.177  26.914  1.00  0.00    -0.323 N 
ATOM     79  H   UNL A   1      31.374  26.136  27.861  1.00  0.00     0.170 HD
BRANCH  78  80
ATOM     80  C   UNL A   1      31.698  27.512  26.467  1.00  0.00     0.084 A 
ATOM     81  C   UNL A   1      32.088  28.490  27.392  1.00  0.00     0.030 A 
ATOM     82  C   UNL A   1      31.210  27.973  25.249  1.00  0.00     0.149 A 
ATOM     83  C   UNL A   1      32.092  29.851  27.048  1.00  0.00     0.002 A 
ATOM     84  C   UNL A   1      31.312  29.310  24.851  1.00  0.00     0.049 A 
ATOM     85  C   UNL A   1      31.744  30.258  25.763  1.00  0.00     0.004 A 
BRANCH  82  86
ATOM     86  O   UNL A   1      30.359  27.246  24.484  1.00  0.00    -0.433 OA
BRANCH  86  87
ATOM     87  C   UNL A   1      30.061  27.938  23.277  1.00  0.00     0.542 C 
ATOM     88  F   UNL A   1      30.531  27.303  22.175  1.00  0.00    -0.167 F 
ATOM     89  F   UNL A   1      28.710  27.975  23.151  1.00  0.00    -0.167 F 
ENDBRANCH  86  87
ENDBRANCH  82  86
ENDBRANCH  78  80
ENDBRANCH  70  76
ENDBRANCH  66  69
ENDBRANCH  64  65
ENDBRANCH   1  64
TORSDOF 15
ENDMDL
