MODEL 1
REMARK VINA RESULT:     -13.3      0.000      0.000
REMARK SMILES Cc1cccc(O[C@H](C)C(=O)NNC(=O)[C@H]2[C@@H]3CC[C@@H](C3)[C@@H]2C(=O)NCCCCNC(=O)c2ccc(-c3c4nc(c(-c5c(F)cccc5F)c5ccc([nH]5)c(-c5c(F)cccc5F)c5nc(c(-c6c(F)cccc6F)c6ccc3[nH]6)C=C5)C=C4)cc2)c1
REMARK SMILES IDX 26 1 25 2 23 3 24 4 22 6 16 7 17 8 18 9 21 10 20 11 19 12
REMARK SMILES IDX 14 13 13 14 15 16 12 17 10 18 11 19 8 21 9 22 7 23 6 24 1 25
REMARK SMILES IDX 2 26 3 27 87 28 4 29 5 30 27 31 28 32 29 33 30 34 31 35
REMARK SMILES IDX 32 37 33 38 34 39 86 40 35 41 85 42 36 43 37 44 38 45 79 46
REMARK SMILES IDX 39 47 84 48 78 49 80 50 40 51 83 52 77 53 76 54 41 56 67 57
REMARK SMILES IDX 50 58 66 59 51 60 54 61 65 62 81 63 52 64 53 65 64 67 82 68
REMARK SMILES IDX 55 69 42 70 43 71 48 72 44 73 45 74 47 75 49 76 46 77 68 78
REMARK SMILES IDX 69 79 74 80 70 81 71 82 73 83 75 84 72 85 56 86 57 87 62 88
REMARK SMILES IDX 58 89 59 90 61 91 63 92 60 93
REMARK H PARENT 25 5 13 15 12 20 30 36 80 55 54 66
REMARK Flexibility Score: inf
ROOT
ATOM      1  C   UNL A   1      33.195  28.189  27.208  1.00  0.00     0.116 C 
ENDROOT
BRANCH   1   2
ATOM      2  N   UNL A   1      33.773  27.546  26.035  1.00  0.00    -0.356 N 
ATOM      3  C   UNL A   1      33.526  26.303  25.518  1.00  0.00     0.224 C 
ATOM      4  O   UNL A   1      34.160  25.933  24.533  1.00  0.00    -0.275 OA
ATOM      5  H   UNL A   1      34.436  28.082  25.545  1.00  0.00     0.163 HD
BRANCH   3   6
ATOM      6  C   UNL A   1      32.470  25.448  26.196  1.00  0.00     0.094 C 
ATOM      7  C   UNL A   1      32.664  23.931  26.060  1.00  0.00     0.096 C 
ATOM      8  C   UNL A   1      31.263  23.426  25.627  1.00  0.00     0.002 C 
ATOM      9  C   UNL A   1      31.096  23.747  24.128  1.00  0.00     0.005 C 
ATOM     10  C   UNL A   1      30.295  24.449  26.223  1.00  0.00     0.009 C 
ATOM     11  C   UNL A   1      31.041  25.646  25.626  1.00  0.00     0.002 C 
ATOM     12  C   UNL A   1      30.977  25.282  24.126  1.00  0.00     0.005 C 
BRANCH   7  13
ATOM     13  C   UNL A   1      33.259  23.168  27.240  1.00  0.00     0.242 C 
ATOM     14  N   UNL A   1      34.587  22.947  27.460  1.00  0.00    -0.267 N 
ATOM     15  H   UNL A   1      34.794  22.364  28.226  1.00  0.00     0.191 HD
ATOM     16  O   UNL A   1      32.486  22.732  28.104  1.00  0.00    -0.273 OA
BRANCH  14  17
ATOM     17  N   UNL A   1      35.675  23.419  26.772  1.00  0.00    -0.264 N 
ATOM     18  C   UNL A   1      36.222  22.934  25.624  1.00  0.00     0.279 C 
ATOM     19  O   UNL A   1      36.960  23.729  25.020  1.00  0.00    -0.269 OA
ATOM     20  H   UNL A   1      36.117  24.209  27.156  1.00  0.00     0.191 HD
BRANCH  18  21
ATOM     21  C   UNL A   1      36.105  21.469  25.116  1.00  0.00     0.260 C 
ATOM     22  C   UNL A   1      37.481  20.939  24.689  1.00  0.00     0.064 C 
BRANCH  21  23
ATOM     23  O   UNL A   1      35.184  20.495  25.550  1.00  0.00    -0.481 OA
BRANCH  23  24
ATOM     24  C   UNL A   1      34.224  19.911  24.793  1.00  0.00     0.120 A 
ATOM     25  C   UNL A   1      33.967  16.401  23.313  1.00  0.00     0.044 C 
ATOM     26  C   UNL A   1      33.655  17.828  23.652  1.00  0.00    -0.047 A 
ATOM     27  C   UNL A   1      32.540  18.453  23.092  1.00  0.00     0.003 A 
ATOM     28  C   UNL A   1      34.484  18.565  24.507  1.00  0.00     0.049 A 
ATOM     29  C   UNL A   1      32.247  19.779  23.408  1.00  0.00     0.004 A 
ATOM     30  C   UNL A   1      33.078  20.502  24.270  1.00  0.00     0.046 A 
ENDBRANCH  23  24
ENDBRANCH  21  23
ENDBRANCH  18  21
ENDBRANCH  14  17
ENDBRANCH   7  13
ENDBRANCH   3   6
ENDBRANCH   1   2
BRANCH   1  31
ATOM     31  C   UNL A   1      32.412  29.467  26.871  1.00  0.00     0.023 C 
BRANCH  31  32
ATOM     32  C   UNL A   1      33.015  30.774  27.400  1.00  0.00     0.023 C 
BRANCH  32  33
ATOM     33  C   UNL A   1      34.534  30.864  27.314  1.00  0.00     0.116 C 
BRANCH  33  34
ATOM     34  N   UNL A   1      35.184  31.615  28.377  1.00  0.00    -0.352 N 
ATOM     35  C   UNL A   1      36.165  31.214  29.277  1.00  0.00     0.251 C 
ATOM     36  H   UNL A   1      34.885  32.548  28.474  1.00  0.00     0.163 HD
ATOM     37  O   UNL A   1      36.499  31.967  30.177  1.00  0.00    -0.269 OA
BRANCH  35  38
ATOM     38  C   UNL A   1      36.917  29.943  29.061  1.00  0.00     0.039 A 
ATOM     39  C   UNL A   1      37.091  29.094  30.164  1.00  0.00     0.014 A 
ATOM     40  C   UNL A   1      37.622  29.692  27.890  1.00  0.00     0.014 A 
ATOM     41  C   UNL A   1      38.165  28.203  30.186  1.00  0.00     0.010 A 
ATOM     42  C   UNL A   1      38.752  28.903  27.949  1.00  0.00     0.010 A 
ATOM     43  C   UNL A   1      39.068  28.220  29.126  1.00  0.00    -0.014 A 
BRANCH  43  44
ATOM     44  C   UNL A   1      40.433  27.710  29.215  1.00  0.00     0.031 A 
ATOM     45  C   UNL A   1      40.791  26.373  28.702  1.00  0.00     0.074 A 
ATOM     46  C   UNL A   1      41.410  28.548  29.629  1.00  0.00     0.049 A 
ATOM     47  N   UNL A   1      41.879  25.753  29.014  1.00  0.00    -0.248 NA
ATOM     48  C   UNL A   1      39.932  25.611  27.802  1.00  0.00     0.031 C 
ATOM     49  C   UNL A   1      42.854  28.386  29.471  1.00  0.00     0.029 A 
ATOM     50  N   UNL A   1      41.281  29.658  30.476  1.00  0.00    -0.354 N 
ATOM     51  C   UNL A   1      41.988  24.657  28.194  1.00  0.00     0.074 A 
ATOM     52  C   UNL A   1      40.733  24.591  27.479  1.00  0.00     0.031 C 
ATOM     53  C   UNL A   1      43.478  29.139  30.389  1.00  0.00     0.029 A 
ATOM     54  C   UNL A   1      42.456  29.684  31.264  1.00  0.00     0.049 A 
ATOM     55  H   UNL A   1      40.527  30.289  30.515  1.00  0.00     0.167 HD
ATOM     56  C   UNL A   1      43.165  23.975  28.127  1.00  0.00     0.037 A 
ATOM     57  C   UNL A   1      42.391  29.494  32.615  1.00  0.00     0.037 A 
ATOM     58  C   UNL A   1      44.166  24.514  29.038  1.00  0.00     0.049 A 
ATOM     59  C   UNL A   1      43.129  28.270  33.119  1.00  0.00     0.074 A 
ATOM     60  C   UNL A   1      45.207  25.419  28.907  1.00  0.00     0.029 A 
ATOM     61  N   UNL A   1      43.973  24.349  30.394  1.00  0.00    -0.354 N 
ATOM     62  N   UNL A   1      43.724  27.398  32.352  1.00  0.00    -0.248 NA
ATOM     63  C   UNL A   1      43.166  27.880  34.532  1.00  0.00     0.031 C 
ATOM     64  C   UNL A   1      45.605  25.827  30.211  1.00  0.00     0.029 A 
ATOM     65  C   UNL A   1      44.813  25.161  31.129  1.00  0.00     0.049 A 
ATOM     66  H   UNL A   1      43.318  23.729  30.790  1.00  0.00     0.167 HD
ATOM     67  C   UNL A   1      44.126  26.332  33.108  1.00  0.00     0.074 A 
ATOM     68  C   UNL A   1      43.777  26.685  34.470  1.00  0.00     0.031 C 
ATOM     69  C   UNL A   1      44.663  25.203  32.570  1.00  0.00     0.037 A 
BRANCH  56  70
ATOM     70  C   UNL A   1      43.453  22.937  27.082  1.00  0.00     0.057 A 
ATOM     71  C   UNL A   1      42.767  21.709  27.077  1.00  0.00     0.134 A 
ATOM     72  C   UNL A   1      44.412  23.088  26.068  1.00  0.00     0.134 A 
ATOM     73  F   UNL A   1      41.781  21.450  27.945  1.00  0.00    -0.206 F 
ATOM     74  C   UNL A   1      43.076  20.675  26.185  1.00  0.00     0.040 A 
ATOM     75  C   UNL A   1      44.770  22.043  25.205  1.00  0.00     0.040 A 
ATOM     76  F   UNL A   1      45.020  24.264  25.856  1.00  0.00    -0.206 F 
ATOM     77  C   UNL A   1      44.105  20.826  25.268  1.00  0.00     0.006 A 
ENDBRANCH  56  70
BRANCH  57  78
ATOM     78  C   UNL A   1      41.134  30.026  33.207  1.00  0.00     0.057 A 
ATOM     79  C   UNL A   1      41.000  31.417  33.366  1.00  0.00     0.134 A 
ATOM     80  C   UNL A   1      39.965  29.262  33.252  1.00  0.00     0.134 A 
ATOM     81  F   UNL A   1      42.084  32.209  33.329  1.00  0.00    -0.206 F 
ATOM     82  C   UNL A   1      39.749  32.032  33.439  1.00  0.00     0.040 A 
ATOM     83  C   UNL A   1      38.707  29.866  33.346  1.00  0.00     0.040 A 
ATOM     84  F   UNL A   1      40.009  27.933  33.085  1.00  0.00    -0.206 F 
ATOM     85  C   UNL A   1      38.595  31.255  33.396  1.00  0.00     0.006 A 
ENDBRANCH  57  78
BRANCH  69  86
ATOM     86  C   UNL A   1      45.091  24.036  33.397  1.00  0.00     0.057 A 
ATOM     87  C   UNL A   1      44.220  22.979  33.688  1.00  0.00     0.134 A 
ATOM     88  C   UNL A   1      46.342  24.010  34.040  1.00  0.00     0.134 A 
ATOM     89  F   UNL A   1      42.997  22.930  33.140  1.00  0.00    -0.206 F 
ATOM     90  C   UNL A   1      44.576  21.950  34.565  1.00  0.00     0.040 A 
ATOM     91  C   UNL A   1      46.693  23.011  34.948  1.00  0.00     0.040 A 
ATOM     92  F   UNL A   1      47.271  24.947  33.794  1.00  0.00    -0.206 F 
ATOM     93  C   UNL A   1      45.808  21.973  35.212  1.00  0.00     0.006 A 
ENDBRANCH  69  86
ENDBRANCH  43  44
ENDBRANCH  35  38
ENDBRANCH  33  34
ENDBRANCH  32  33
ENDBRANCH  31  32
ENDBRANCH   1  31
TORSDOF 16
ENDMDL
MODEL 2
REMARK VINA RESULT:     -12.8      3.866      9.561
REMARK SMILES Cc1cccc(O[C@H](C)C(=O)NNC(=O)[C@H]2[C@@H]3CC[C@@H](C3)[C@@H]2C(=O)NCCCCNC(=O)c2ccc(-c3c4nc(c(-c5c(F)cccc5F)c5ccc([nH]5)c(-c5c(F)cccc5F)c5nc(c(-c6c(F)cccc6F)c6ccc3[nH]6)C=C5)C=C4)cc2)c1
REMARK SMILES IDX 26 1 25 2 23 3 24 4 22 6 16 7 17 8 18 9 21 10 20 11 19 12
REMARK SMILES IDX 14 13 13 14 15 16 12 17 10 18 11 19 8 21 9 22 7 23 6 24 1 25
REMARK SMILES IDX 2 26 3 27 87 28 4 29 5 30 27 31 28 32 29 33 30 34 31 35
REMARK SMILES IDX 32 37 33 38 34 39 86 40 35 41 85 42 36 43 37 44 38 45 79 46
REMARK SMILES IDX 39 47 84 48 78 49 80 50 40 51 83 52 77 53 76 54 41 56 67 57
REMARK SMILES IDX 50 58 66 59 51 60 54 61 65 62 81 63 52 64 53 65 64 67 82 68
REMARK SMILES IDX 55 69 42 70 43 71 48 72 44 73 45 74 47 75 49 76 46 77 68 78
REMARK SMILES IDX 69 79 74 80 70 81 71 82 73 83 75 84 72 85 56 86 57 87 62 88
REMARK SMILES IDX 58 89 59 90 61 91 63 92 60 93
REMARK H PARENT 25 5 13 15 12 20 30 36 80 55 54 66
REMARK Flexibility Score: inf
ROOT
ATOM      1  C   UNL A   1      36.536  22.664  25.318  1.00  0.00     0.116 C 
ENDROOT
BRANCH   1   2
ATOM      2  N   UNL A   1      35.448  23.267  26.075  1.00  0.00    -0.356 N 
ATOM      3  C   UNL A   1      34.289  23.839  25.624  1.00  0.00     0.224 C 
ATOM      4  O   UNL A   1      33.513  24.333  26.438  1.00  0.00    -0.275 OA
ATOM      5  H   UNL A   1      35.563  23.264  27.053  1.00  0.00     0.163 HD
BRANCH   3   6
ATOM      6  C   UNL A   1      34.026  23.823  24.128  1.00  0.00     0.094 C 
ATOM      7  C   UNL A   1      33.042  24.887  23.622  1.00  0.00     0.096 C 
ATOM      8  C   UNL A   1      32.071  24.082  22.720  1.00  0.00     0.002 C 
ATOM      9  C   UNL A   1      31.097  23.326  23.645  1.00  0.00     0.005 C 
ATOM     10  C   UNL A   1      32.915  22.911  22.214  1.00  0.00     0.009 C 
ATOM     11  C   UNL A   1      33.374  22.510  23.619  1.00  0.00     0.002 C 
ATOM     12  C   UNL A   1      32.005  22.262  24.290  1.00  0.00     0.005 C 
BRANCH   7  13
ATOM     13  C   UNL A   1      33.608  26.140  22.958  1.00  0.00     0.242 C 
ATOM     14  N   UNL A   1      34.000  27.277  23.602  1.00  0.00    -0.267 N 
ATOM     15  H   UNL A   1      34.263  28.022  23.014  1.00  0.00     0.191 HD
ATOM     16  O   UNL A   1      33.766  26.130  21.730  1.00  0.00    -0.273 OA
BRANCH  14  17
ATOM     17  N   UNL A   1      34.080  27.534  24.946  1.00  0.00    -0.264 N 
ATOM     18  C   UNL A   1      33.139  28.092  25.755  1.00  0.00     0.279 C 
ATOM     19  O   UNL A   1      33.309  27.892  26.969  1.00  0.00    -0.269 OA
ATOM     20  H   UNL A   1      34.925  27.284  25.382  1.00  0.00     0.191 HD
BRANCH  18  21
ATOM     21  C   UNL A   1      31.996  29.040  25.294  1.00  0.00     0.260 C 
ATOM     22  C   UNL A   1      31.962  30.302  26.167  1.00  0.00     0.064 C 
BRANCH  21  23
ATOM     23  O   UNL A   1      31.501  29.192  23.983  1.00  0.00    -0.481 OA
BRANCH  23  24
ATOM     24  C   UNL A   1      30.199  29.162  23.613  1.00  0.00     0.120 A 
ATOM     25  C   UNL A   1      27.652  31.964  23.124  1.00  0.00     0.044 C 
ATOM     26  C   UNL A   1      28.264  30.599  23.212  1.00  0.00    -0.047 A 
ATOM     27  C   UNL A   1      27.469  29.463  23.048  1.00  0.00     0.003 A 
ATOM     28  C   UNL A   1      29.628  30.435  23.485  1.00  0.00     0.049 A 
ATOM     29  C   UNL A   1      28.038  28.193  23.127  1.00  0.00     0.004 A 
ATOM     30  C   UNL A   1      29.403  28.042  23.393  1.00  0.00     0.046 A 
ENDBRANCH  23  24
ENDBRANCH  21  23
ENDBRANCH  18  21
ENDBRANCH  14  17
ENDBRANCH   7  13
ENDBRANCH   3   6
ENDBRANCH   1   2
BRANCH   1  31
ATOM     31  C   UNL A   1      37.923  23.164  25.749  1.00  0.00     0.023 C 
BRANCH  31  32
ATOM     32  C   UNL A   1      38.948  22.074  26.082  1.00  0.00     0.023 C 
BRANCH  32  33
ATOM     33  C   UNL A   1      39.874  22.394  27.250  1.00  0.00     0.116 C 
BRANCH  33  34
ATOM     34  N   UNL A   1      41.187  22.909  26.893  1.00  0.00    -0.352 N 
ATOM     35  C   UNL A   1      41.587  24.212  26.623  1.00  0.00     0.251 C 
ATOM     36  H   UNL A   1      41.900  22.232  26.832  1.00  0.00     0.163 HD
ATOM     37  O   UNL A   1      42.722  24.423  26.225  1.00  0.00    -0.269 OA
BRANCH  35  38
ATOM     38  C   UNL A   1      40.700  25.363  26.963  1.00  0.00     0.039 A 
ATOM     39  C   UNL A   1      40.776  26.506  26.152  1.00  0.00     0.014 A 
ATOM     40  C   UNL A   1      39.986  25.419  28.154  1.00  0.00     0.014 A 
ATOM     41  C   UNL A   1      40.402  27.745  26.672  1.00  0.00     0.010 A 
ATOM     42  C   UNL A   1      39.726  26.652  28.717  1.00  0.00     0.010 A 
ATOM     43  C   UNL A   1      40.009  27.820  28.005  1.00  0.00    -0.014 A 
BRANCH  43  44
ATOM     44  C   UNL A   1      40.038  29.049  28.793  1.00  0.00     0.031 A 
ATOM     45  C   UNL A   1      38.947  30.041  28.713  1.00  0.00     0.074 A 
ATOM     46  C   UNL A   1      41.004  29.195  29.728  1.00  0.00     0.049 A 
ATOM     47  N   UNL A   1      39.051  31.256  29.136  1.00  0.00    -0.248 NA
ATOM     48  C   UNL A   1      37.645  29.745  28.125  1.00  0.00     0.031 C 
ATOM     49  C   UNL A   1      41.034  30.139  30.842  1.00  0.00     0.029 A 
ATOM     50  N   UNL A   1      42.283  28.621  29.731  1.00  0.00    -0.354 N 
ATOM     51  C   UNL A   1      37.798  31.818  29.111  1.00  0.00     0.074 A 
ATOM     52  C   UNL A   1      36.960  30.849  28.440  1.00  0.00     0.031 C 
ATOM     53  C   UNL A   1      42.305  30.304  31.236  1.00  0.00     0.029 A 
ATOM     54  C   UNL A   1      43.144  29.594  30.288  1.00  0.00     0.049 A 
ATOM     55  H   UNL A   1      42.530  27.724  29.411  1.00  0.00     0.167 HD
ATOM     56  C   UNL A   1      37.573  33.000  29.748  1.00  0.00     0.037 A 
ATOM     57  C   UNL A   1      44.136  30.157  29.536  1.00  0.00     0.037 A 
ATOM     58  C   UNL A   1      38.786  33.545  30.342  1.00  0.00     0.049 A 
ATOM     59  C   UNL A   1      44.006  31.654  29.334  1.00  0.00     0.074 A 
ATOM     60  C   UNL A   1      39.353  33.494  31.605  1.00  0.00     0.029 A 
ATOM     61  N   UNL A   1      39.773  34.014  29.499  1.00  0.00    -0.354 N 
ATOM     62  N   UNL A   1      43.002  32.372  29.759  1.00  0.00    -0.248 NA
ATOM     63  C   UNL A   1      44.956  32.443  28.545  1.00  0.00     0.031 C 
ATOM     64  C   UNL A   1      40.713  33.899  31.496  1.00  0.00     0.029 A 
ATOM     65  C   UNL A   1      40.964  34.205  30.171  1.00  0.00     0.049 A 
ATOM     66  H   UNL A   1      39.645  34.191  28.539  1.00  0.00     0.167 HD
ATOM     67  C   UNL A   1      43.108  33.638  29.252  1.00  0.00     0.074 A 
ATOM     68  C   UNL A   1      44.356  33.645  28.516  1.00  0.00     0.031 C 
ATOM     69  C   UNL A   1      42.142  34.582  29.414  1.00  0.00     0.037 A 
BRANCH  56  70
ATOM     70  C   UNL A   1      36.198  33.552  29.990  1.00  0.00     0.057 A 
ATOM     71  C   UNL A   1      35.396  33.985  28.919  1.00  0.00     0.134 A 
ATOM     72  C   UNL A   1      35.623  33.699  31.262  1.00  0.00     0.134 A 
ATOM     73  F   UNL A   1      35.788  33.848  27.646  1.00  0.00    -0.206 F 
ATOM     74  C   UNL A   1      34.152  34.600  29.106  1.00  0.00     0.040 A 
ATOM     75  C   UNL A   1      34.405  34.362  31.469  1.00  0.00     0.040 A 
ATOM     76  F   UNL A   1      36.205  33.179  32.352  1.00  0.00    -0.206 F 
ATOM     77  C   UNL A   1      33.668  34.823  30.386  1.00  0.00     0.006 A 
ENDBRANCH  56  70
BRANCH  57  78
ATOM     78  C   UNL A   1      44.695  29.214  28.531  1.00  0.00     0.057 A 
ATOM     79  C   UNL A   1      45.640  28.262  28.952  1.00  0.00     0.134 A 
ATOM     80  C   UNL A   1      44.059  28.985  27.308  1.00  0.00     0.134 A 
ATOM     81  F   UNL A   1      46.284  28.420  30.121  1.00  0.00    -0.206 F 
ATOM     82  C   UNL A   1      45.849  27.073  28.252  1.00  0.00     0.040 A 
ATOM     83  C   UNL A   1      44.277  27.807  26.587  1.00  0.00     0.040 A 
ATOM     84  F   UNL A   1      43.130  29.836  26.850  1.00  0.00    -0.206 F 
ATOM     85  C   UNL A   1      45.140  26.830  27.079  1.00  0.00     0.006 A 
ENDBRANCH  57  78
BRANCH  69  86
ATOM     86  C   UNL A   1      42.254  35.961  28.850  1.00  0.00     0.057 A 
ATOM     87  C   UNL A   1      41.748  36.283  27.585  1.00  0.00     0.134 A 
ATOM     88  C   UNL A   1      42.996  36.963  29.501  1.00  0.00     0.134 A 
ATOM     89  F   UNL A   1      41.047  35.384  26.879  1.00  0.00    -0.206 F 
ATOM     90  C   UNL A   1      41.964  37.536  27.002  1.00  0.00     0.040 A 
ATOM     91  C   UNL A   1      43.252  38.202  28.913  1.00  0.00     0.040 A 
ATOM     92  F   UNL A   1      43.483  36.776  30.738  1.00  0.00    -0.206 F 
ATOM     93  C   UNL A   1      42.733  38.493  27.657  1.00  0.00     0.006 A 
ENDBRANCH  69  86
ENDBRANCH  43  44
ENDBRANCH  35  38
ENDBRANCH  33  34
ENDBRANCH  32  33
ENDBRANCH  31  32
ENDBRANCH   1  31
TORSDOF 16
ENDMDL
MODEL 3
REMARK VINA RESULT:     -12.7      2.363      4.772
REMARK SMILES Cc1cccc(O[C@H](C)C(=O)NNC(=O)[C@H]2[C@@H]3CC[C@@H](C3)[C@@H]2C(=O)NCCCCNC(=O)c2ccc(-c3c4nc(c(-c5c(F)cccc5F)c5ccc([nH]5)c(-c5c(F)cccc5F)c5nc(c(-c6c(F)cccc6F)c6ccc3[nH]6)C=C5)C=C4)cc2)c1
REMARK SMILES IDX 26 1 25 2 23 3 24 4 22 6 16 7 17 8 18 9 21 10 20 11 19 12
REMARK SMILES IDX 14 13 13 14 15 16 12 17 10 18 11 19 8 21 9 22 7 23 6 24 1 25
REMARK SMILES IDX 2 26 3 27 87 28 4 29 5 30 27 31 28 32 29 33 30 34 31 35
REMARK SMILES IDX 32 37 33 38 34 39 86 40 35 41 85 42 36 43 37 44 38 45 79 46
REMARK SMILES IDX 39 47 84 48 78 49 80 50 40 51 83 52 77 53 76 54 41 56 67 57
REMARK SMILES IDX 50 58 66 59 51 60 54 61 65 62 81 63 52 64 53 65 64 67 82 68
REMARK SMILES IDX 55 69 42 70 43 71 48 72 44 73 45 74 47 75 49 76 46 77 68 78
REMARK SMILES IDX 69 79 74 80 70 81 71 82 73 83 75 84 72 85 56 86 57 87 62 88
REMARK SMILES IDX 58 89 59 90 61 91 63 92 60 93
REMARK H PARENT 25 5 13 15 12 20 30 36 80 55 54 66
REMARK Flexibility Score: inf
ROOT
ATOM      1  C   UNL A   1      32.762  27.542  26.024  1.00  0.00     0.116 C 
ENDROOT
BRANCH   1   2
ATOM      2  N   UNL A   1      32.027  26.477  26.693  1.00  0.00    -0.356 N 
ATOM      3  C   UNL A   1      32.086  25.124  26.494  1.00  0.00     0.224 C 
ATOM      4  O   UNL A   1      31.341  24.395  27.144  1.00  0.00    -0.275 OA
ATOM      5  H   UNL A   1      31.395  26.774  27.388  1.00  0.00     0.163 HD
BRANCH   3   6
ATOM      6  C   UNL A   1      33.083  24.600  25.475  1.00  0.00     0.094 C 
ATOM      7  C   UNL A   1      32.605  23.399  24.646  1.00  0.00     0.096 C 
ATOM      8  C   UNL A   1      33.793  22.406  24.731  1.00  0.00     0.002 C 
ATOM      9  C   UNL A   1      33.736  21.733  26.117  1.00  0.00     0.005 C 
ATOM     10  C   UNL A   1      35.016  23.302  24.925  1.00  0.00     0.009 C 
ATOM     11  C   UNL A   1      34.395  24.061  26.101  1.00  0.00     0.002 C 
ATOM     12  C   UNL A   1      34.120  22.885  27.065  1.00  0.00     0.005 C 
BRANCH   7  13
ATOM     13  C   UNL A   1      32.111  23.652  23.224  1.00  0.00     0.242 C 
ATOM     14  N   UNL A   1      30.991  24.350  22.880  1.00  0.00    -0.267 N 
ATOM     15  H   UNL A   1      30.773  24.347  21.919  1.00  0.00     0.191 HD
ATOM     16  O   UNL A   1      32.793  23.223  22.283  1.00  0.00    -0.273 OA
BRANCH  14  17
ATOM     17  N   UNL A   1      30.125  25.056  23.675  1.00  0.00    -0.264 N 
ATOM     18  C   UNL A   1      29.709  26.344  23.533  1.00  0.00     0.279 C 
ATOM     19  O   UNL A   1      28.674  26.629  24.156  1.00  0.00    -0.269 OA
ATOM     20  H   UNL A   1      29.758  24.570  24.447  1.00  0.00     0.191 HD
BRANCH  18  21
ATOM     21  C   UNL A   1      30.485  27.469  22.791  1.00  0.00     0.260 C 
ATOM     22  C   UNL A   1      31.897  26.992  22.423  1.00  0.00     0.064 C 
BRANCH  21  23
ATOM     23  O   UNL A   1      29.937  28.461  21.952  1.00  0.00    -0.481 OA
BRANCH  23  24
ATOM     24  C   UNL A   1      29.440  29.656  22.349  1.00  0.00     0.120 A 
ATOM     25  C   UNL A   1      27.785  32.478  20.382  1.00  0.00     0.044 C 
ATOM     26  C   UNL A   1      28.373  31.687  21.511  1.00  0.00    -0.047 A 
ATOM     27  C   UNL A   1      28.482  32.254  22.782  1.00  0.00     0.003 A 
ATOM     28  C   UNL A   1      28.848  30.385  21.310  1.00  0.00     0.049 A 
ATOM     29  C   UNL A   1      29.027  31.519  23.833  1.00  0.00     0.004 A 
ATOM     30  C   UNL A   1      29.490  30.216  23.621  1.00  0.00     0.046 A 
ENDBRANCH  23  24
ENDBRANCH  21  23
ENDBRANCH  18  21
ENDBRANCH  14  17
ENDBRANCH   7  13
ENDBRANCH   3   6
ENDBRANCH   1   2
BRANCH   1  31
ATOM     31  C   UNL A   1      33.782  28.238  26.938  1.00  0.00     0.023 C 
BRANCH  31  32
ATOM     32  C   UNL A   1      33.289  29.511  27.634  1.00  0.00     0.023 C 
BRANCH  32  33
ATOM     33  C   UNL A   1      33.977  30.798  27.190  1.00  0.00     0.116 C 
BRANCH  33  34
ATOM     34  N   UNL A   1      34.570  31.597  28.251  1.00  0.00    -0.352 N 
ATOM     35  C   UNL A   1      35.604  31.285  29.125  1.00  0.00     0.251 C 
ATOM     36  H   UNL A   1      34.181  32.494  28.367  1.00  0.00     0.163 HD
ATOM     37  O   UNL A   1      35.880  32.057  30.030  1.00  0.00    -0.269 OA
BRANCH  35  38
ATOM     38  C   UNL A   1      36.476  30.099  28.877  1.00  0.00     0.039 A 
ATOM     39  C   UNL A   1      36.725  29.237  29.955  1.00  0.00     0.014 A 
ATOM     40  C   UNL A   1      37.206  29.953  27.704  1.00  0.00     0.014 A 
ATOM     41  C   UNL A   1      37.879  28.453  29.957  1.00  0.00     0.010 A 
ATOM     42  C   UNL A   1      38.407  29.274  27.747  1.00  0.00     0.010 A 
ATOM     43  C   UNL A   1      38.781  28.588  28.905  1.00  0.00    -0.014 A 
BRANCH  43  44
ATOM     44  C   UNL A   1      40.188  28.208  28.989  1.00  0.00     0.031 A 
ATOM     45  C   UNL A   1      40.687  26.959  28.380  1.00  0.00     0.074 A 
ATOM     46  C   UNL A   1      41.070  29.101  29.494  1.00  0.00     0.049 A 
ATOM     47  N   UNL A   1      41.825  26.425  28.669  1.00  0.00    -0.248 NA
ATOM     48  C   UNL A   1      39.924  26.193  27.399  1.00  0.00     0.031 C 
ATOM     49  C   UNL A   1      42.525  29.094  29.360  1.00  0.00     0.029 A 
ATOM     50  N   UNL A   1      40.816  30.119  30.423  1.00  0.00    -0.354 N 
ATOM     51  C   UNL A   1      42.058  25.416  27.767  1.00  0.00     0.074 A 
ATOM     52  C   UNL A   1      40.828  25.286  27.017  1.00  0.00     0.031 C 
ATOM     53  C   UNL A   1      43.054  29.826  30.352  1.00  0.00     0.029 A 
ATOM     54  C   UNL A   1      41.967  30.195  31.241  1.00  0.00     0.049 A 
ATOM     55  H   UNL A   1      40.002  30.668  30.493  1.00  0.00     0.167 HD
ATOM     56  C   UNL A   1      43.297  24.860  27.676  1.00  0.00     0.037 A 
ATOM     57  C   UNL A   1      41.898  29.888  32.570  1.00  0.00     0.037 A 
ATOM     58  C   UNL A   1      44.223  25.417  28.653  1.00  0.00     0.049 A 
ATOM     59  C   UNL A   1      42.745  28.705  32.994  1.00  0.00     0.074 A 
ATOM     60  C   UNL A   1      45.171  26.427  28.622  1.00  0.00     0.029 A 
ATOM     61  N   UNL A   1      44.023  25.123  29.986  1.00  0.00    -0.354 N 
ATOM     62  N   UNL A   1      43.437  27.962  32.174  1.00  0.00    -0.248 NA
ATOM     63  C   UNL A   1      42.795  28.206  34.371  1.00  0.00     0.031 C 
ATOM     64  C   UNL A   1      45.503  26.764  29.964  1.00  0.00     0.029 A 
ATOM     65  C   UNL A   1      44.765  25.950  30.805  1.00  0.00     0.049 A 
ATOM     66  H   UNL A   1      43.426  24.411  30.314  1.00  0.00     0.167 HD
ATOM     67  C   UNL A   1      43.929  26.881  32.853  1.00  0.00     0.074 A 
ATOM     68  C   UNL A   1      43.523  27.085  34.229  1.00  0.00     0.031 C 
ATOM     69  C   UNL A   1      44.586  25.859  32.240  1.00  0.00     0.037 A 
BRANCH  56  70
ATOM     70  C   UNL A   1      43.705  23.944  26.559  1.00  0.00     0.057 A 
ATOM     71  C   UNL A   1      43.436  22.565  26.621  1.00  0.00     0.134 A 
ATOM     72  C   UNL A   1      44.386  24.367  25.406  1.00  0.00     0.134 A 
ATOM     73  F   UNL A   1      42.739  22.030  27.631  1.00  0.00    -0.206 F 
ATOM     74  C   UNL A   1      43.889  21.662  25.651  1.00  0.00     0.040 A 
ATOM     75  C   UNL A   1      44.893  23.470  24.456  1.00  0.00     0.040 A 
ATOM     76  F   UNL A   1      44.561  25.669  25.140  1.00  0.00    -0.206 F 
ATOM     77  C   UNL A   1      44.651  22.109  24.582  1.00  0.00     0.006 A 
ENDBRANCH  56  70
BRANCH  57  78
ATOM     78  C   UNL A   1      40.584  30.245  33.170  1.00  0.00     0.057 A 
ATOM     79  C   UNL A   1      40.313  31.598  33.446  1.00  0.00     0.134 A 
ATOM     80  C   UNL A   1      39.493  29.373  33.115  1.00  0.00     0.134 A 
ATOM     81  F   UNL A   1      41.317  32.488  33.508  1.00  0.00    -0.206 F 
ATOM     82  C   UNL A   1      39.008  32.082  33.536  1.00  0.00     0.040 A 
ATOM     83  C   UNL A   1      38.182  29.845  33.225  1.00  0.00     0.040 A 
ATOM     84  F   UNL A   1      39.669  28.074  32.835  1.00  0.00    -0.206 F 
ATOM     85  C   UNL A   1      37.935  31.207  33.393  1.00  0.00     0.006 A 
ENDBRANCH  57  78
BRANCH  69  86
ATOM     86  C   UNL A   1      45.113  24.675  32.982  1.00  0.00     0.057 A 
ATOM     87  C   UNL A   1      44.378  23.488  33.096  1.00  0.00     0.134 A 
ATOM     88  C   UNL A   1      46.308  24.742  33.720  1.00  0.00     0.134 A 
ATOM     89  F   UNL A   1      43.213  23.340  32.447  1.00  0.00    -0.206 F 
ATOM     90  C   UNL A   1      44.811  22.426  33.895  1.00  0.00     0.040 A 
ATOM     91  C   UNL A   1      46.730  23.705  34.552  1.00  0.00     0.040 A 
ATOM     92  F   UNL A   1      47.114  25.813  33.644  1.00  0.00    -0.206 F 
ATOM     93  C   UNL A   1      45.981  22.538  34.640  1.00  0.00     0.006 A 
ENDBRANCH  69  86
ENDBRANCH  43  44
ENDBRANCH  35  38
ENDBRANCH  33  34
ENDBRANCH  32  33
ENDBRANCH  31  32
ENDBRANCH   1  31
TORSDOF 16
ENDMDL
