MODEL 1
REMARK VINA RESULT:     -10.7      0.000      0.000
REMARK SMILES CC(C)[C@@H](NC(=O)[C@H]1CCCO1)C(=O)NCCCCNC(=O)c1ccc(-c2c3nc(c(-c4c(F)cccc4F)c4ccc([nH]4)c(-c4c(F)cccc4F)c4nc(c(-c5c(F)cccc5F)c5ccc2[nH]5)C=C4)C=C3)cc1
REMARK SMILES IDX 17 1 16 2 15 3 13 4 14 5 4 7 2 8 1 9 3 10 5 11 6 12 7 14
REMARK SMILES IDX 8 15 9 16 12 17 10 18 11 19 18 20 19 21 20 22 21 23 22 25
REMARK SMILES IDX 23 26 24 27 76 28 25 29 75 30 26 31 27 32 28 33 69 34 29 35
REMARK SMILES IDX 74 36 68 37 70 38 30 39 73 40 67 41 66 42 31 44 57 45 40 46
REMARK SMILES IDX 56 47 41 48 44 49 55 50 71 51 42 52 43 53 54 55 72 56 45 57
REMARK SMILES IDX 32 58 33 59 38 60 34 61 35 62 37 63 39 64 36 65 58 66 59 67
REMARK SMILES IDX 64 68 60 69 61 70 63 71 65 72 62 73 46 74 47 75 52 76 48 77
REMARK SMILES IDX 49 78 51 79 53 80 50 81
REMARK H PARENT 15 6 5 13 20 24 70 43 44 54
REMARK Flexibility Score: inf
ROOT
ATOM      1  C   UNL A   1      31.685  30.205  26.501  1.00  0.00     0.023 C 
ENDROOT
BRANCH   1   2
ATOM      2  C   UNL A   1      33.058  29.841  25.954  1.00  0.00     0.116 C 
BRANCH   2   3
ATOM      3  N   UNL A   1      33.033  29.777  24.502  1.00  0.00    -0.354 N 
ATOM      4  C   UNL A   1      32.840  28.714  23.670  1.00  0.00     0.242 C 
ATOM      5  O   UNL A   1      32.982  28.905  22.459  1.00  0.00    -0.273 OA
ATOM      6  H   UNL A   1      33.178  30.638  24.048  1.00  0.00     0.163 HD
BRANCH   4   7
ATOM      7  C   UNL A   1      32.679  27.302  24.247  1.00  0.00     0.174 C 
BRANCH   7   8
ATOM      8  C   UNL A   1      31.129  27.112  24.476  1.00  0.00     0.015 C 
ATOM      9  C   UNL A   1      30.419  26.255  23.428  1.00  0.00     0.010 C 
ATOM     10  C   UNL A   1      30.801  26.546  25.870  1.00  0.00     0.010 C 
ENDBRANCH   7   8
BRANCH   7  11
ATOM     11  N   UNL A   1      33.244  26.273  23.348  1.00  0.00    -0.342 N 
ATOM     12  C   UNL A   1      33.969  25.141  23.580  1.00  0.00     0.249 C 
ATOM     13  H   UNL A   1      33.061  26.437  22.395  1.00  0.00     0.164 HD
ATOM     14  O   UNL A   1      34.036  24.349  22.628  1.00  0.00    -0.272 OA
BRANCH  12  15
ATOM     15  C   UNL A   1      34.785  24.831  24.871  1.00  0.00     0.207 C 
ATOM     16  C   UNL A   1      33.883  24.232  25.960  1.00  0.00     0.044 C 
ATOM     17  O   UNL A   1      35.965  24.051  24.834  1.00  0.00    -0.368 OA
ATOM     18  C   UNL A   1      34.553  22.938  26.352  1.00  0.00     0.032 C 
ATOM     19  C   UNL A   1      35.989  23.163  25.960  1.00  0.00     0.161 C 
ENDBRANCH  12  15
ENDBRANCH   7  11
ENDBRANCH   4   7
ENDBRANCH   2   3
ENDBRANCH   1   2
BRANCH   1  20
ATOM     20  C   UNL A   1      31.447  31.711  26.608  1.00  0.00     0.023 C 
BRANCH  20  21
ATOM     21  C   UNL A   1      32.688  32.532  26.939  1.00  0.00     0.116 C 
BRANCH  21  22
ATOM     22  N   UNL A   1      32.380  33.823  27.518  1.00  0.00    -0.352 N 
ATOM     23  C   UNL A   1      33.064  34.510  28.487  1.00  0.00     0.251 C 
ATOM     24  H   UNL A   1      31.573  34.266  27.170  1.00  0.00     0.163 HD
ATOM     25  O   UNL A   1      32.631  35.583  28.900  1.00  0.00    -0.269 OA
BRANCH  23  26
ATOM     26  C   UNL A   1      34.292  33.936  29.081  1.00  0.00     0.039 A 
ATOM     27  C   UNL A   1      34.141  32.915  30.020  1.00  0.00     0.014 A 
ATOM     28  C   UNL A   1      35.571  34.380  28.728  1.00  0.00     0.014 A 
ATOM     29  C   UNL A   1      35.268  32.312  30.577  1.00  0.00     0.010 A 
ATOM     30  C   UNL A   1      36.699  33.731  29.239  1.00  0.00     0.010 A 
ATOM     31  C   UNL A   1      36.559  32.694  30.175  1.00  0.00    -0.014 A 
BRANCH  31  32
ATOM     32  C   UNL A   1      37.745  31.999  30.743  1.00  0.00     0.031 A 
ATOM     33  C   UNL A   1      38.236  32.319  32.129  1.00  0.00     0.074 A 
ATOM     34  C   UNL A   1      38.381  31.063  30.011  1.00  0.00     0.049 A 
ATOM     35  N   UNL A   1      39.213  31.770  32.805  1.00  0.00    -0.248 NA
ATOM     36  C   UNL A   1      37.551  33.407  32.844  1.00  0.00     0.031 C 
ATOM     37  C   UNL A   1      38.037  30.686  28.638  1.00  0.00     0.029 A 
ATOM     38  N   UNL A   1      39.445  30.251  30.321  1.00  0.00    -0.354 N 
ATOM     39  C   UNL A   1      39.262  32.442  34.020  1.00  0.00     0.074 A 
ATOM     40  C   UNL A   1      38.249  33.475  33.968  1.00  0.00     0.031 C 
ATOM     41  C   UNL A   1      38.853  29.698  28.236  1.00  0.00     0.029 A 
ATOM     42  C   UNL A   1      39.797  29.392  29.307  1.00  0.00     0.049 A 
ATOM     43  H   UNL A   1      39.910  30.282  31.186  1.00  0.00     0.167 HD
ATOM     44  C   UNL A   1      40.060  32.208  35.089  1.00  0.00     0.037 A 
ATOM     45  C   UNL A   1      40.769  28.462  29.244  1.00  0.00     0.037 A 
ATOM     46  C   UNL A   1      41.059  31.172  35.148  1.00  0.00     0.049 A 
ATOM     47  C   UNL A   1      41.646  28.228  30.445  1.00  0.00     0.074 A 
ATOM     48  C   UNL A   1      41.876  30.823  36.212  1.00  0.00     0.029 A 
ATOM     49  N   UNL A   1      41.387  30.323  34.102  1.00  0.00    -0.354 N 
ATOM     50  N   UNL A   1      41.622  28.816  31.615  1.00  0.00    -0.248 NA
ATOM     51  C   UNL A   1      42.676  27.186  30.318  1.00  0.00     0.031 C 
ATOM     52  C   UNL A   1      42.736  29.805  35.790  1.00  0.00     0.029 A 
ATOM     53  C   UNL A   1      42.412  29.472  34.485  1.00  0.00     0.049 A 
ATOM     54  H   UNL A   1      40.954  30.326  33.217  1.00  0.00     0.167 HD
ATOM     55  C   UNL A   1      42.609  28.197  32.373  1.00  0.00     0.074 A 
ATOM     56  C   UNL A   1      43.199  27.174  31.536  1.00  0.00     0.031 C 
ATOM     57  C   UNL A   1      42.991  28.453  33.648  1.00  0.00     0.037 A 
BRANCH  44  58
ATOM     58  C   UNL A   1      39.893  33.094  36.291  1.00  0.00     0.057 A 
ATOM     59  C   UNL A   1      38.963  32.809  37.299  1.00  0.00     0.134 A 
ATOM     60  C   UNL A   1      40.713  34.216  36.470  1.00  0.00     0.134 A 
ATOM     61  F   UNL A   1      38.139  31.755  37.187  1.00  0.00    -0.206 F 
ATOM     62  C   UNL A   1      38.839  33.619  38.430  1.00  0.00     0.040 A 
ATOM     63  C   UNL A   1      40.619  35.016  37.610  1.00  0.00     0.040 A 
ATOM     64  F   UNL A   1      41.632  34.543  35.549  1.00  0.00    -0.206 F 
ATOM     65  C   UNL A   1      39.675  34.721  38.592  1.00  0.00     0.006 A 
ENDBRANCH  44  58
BRANCH  45  66
ATOM     66  C   UNL A   1      40.966  27.670  28.002  1.00  0.00     0.057 A 
ATOM     67  C   UNL A   1      41.757  28.147  26.950  1.00  0.00     0.134 A 
ATOM     68  C   UNL A   1      40.342  26.429  27.825  1.00  0.00     0.134 A 
ATOM     69  F   UNL A   1      42.366  29.339  27.050  1.00  0.00    -0.206 F 
ATOM     70  C   UNL A   1      41.897  27.436  25.757  1.00  0.00     0.040 A 
ATOM     71  C   UNL A   1      40.496  25.693  26.650  1.00  0.00     0.040 A 
ATOM     72  F   UNL A   1      39.577  25.911  28.797  1.00  0.00    -0.206 F 
ATOM     73  C   UNL A   1      41.267  26.202  25.607  1.00  0.00     0.006 A 
ENDBRANCH  45  66
BRANCH  57  74
ATOM     74  C   UNL A   1      44.069  27.583  34.232  1.00  0.00     0.057 A 
ATOM     75  C   UNL A   1      43.787  26.356  34.846  1.00  0.00     0.134 A 
ATOM     76  C   UNL A   1      45.413  27.974  34.163  1.00  0.00     0.134 A 
ATOM     77  F   UNL A   1      42.521  25.926  34.957  1.00  0.00    -0.206 F 
ATOM     78  C   UNL A   1      44.796  25.567  35.401  1.00  0.00     0.040 A 
ATOM     79  C   UNL A   1      46.435  27.178  34.684  1.00  0.00     0.040 A 
ATOM     80  F   UNL A   1      45.758  29.131  33.579  1.00  0.00    -0.206 F 
ATOM     81  C   UNL A   1      46.126  25.976  35.315  1.00  0.00     0.006 A 
ENDBRANCH  57  74
ENDBRANCH  31  32
ENDBRANCH  23  26
ENDBRANCH  21  22
ENDBRANCH  20  21
ENDBRANCH   1  20
TORSDOF 14
ENDMDL
MODEL 2
REMARK VINA RESULT:     -10.5      0.618      1.526
REMARK SMILES CC(C)[C@@H](NC(=O)[C@H]1CCCO1)C(=O)NCCCCNC(=O)c1ccc(-c2c3nc(c(-c4c(F)cccc4F)c4ccc([nH]4)c(-c4c(F)cccc4F)c4nc(c(-c5c(F)cccc5F)c5ccc2[nH]5)C=C4)C=C3)cc1
REMARK SMILES IDX 17 1 16 2 15 3 13 4 14 5 4 7 2 8 1 9 3 10 5 11 6 12 7 14
REMARK SMILES IDX 8 15 9 16 12 17 10 18 11 19 18 20 19 21 20 22 21 23 22 25
REMARK SMILES IDX 23 26 24 27 76 28 25 29 75 30 26 31 27 32 28 33 69 34 29 35
REMARK SMILES IDX 74 36 68 37 70 38 30 39 73 40 67 41 66 42 31 44 57 45 40 46
REMARK SMILES IDX 56 47 41 48 44 49 55 50 71 51 42 52 43 53 54 55 72 56 45 57
REMARK SMILES IDX 32 58 33 59 38 60 34 61 35 62 37 63 39 64 36 65 58 66 59 67
REMARK SMILES IDX 64 68 60 69 61 70 63 71 65 72 62 73 46 74 47 75 52 76 48 77
REMARK SMILES IDX 49 78 51 79 53 80 50 81
REMARK H PARENT 15 6 5 13 20 24 70 43 44 54
REMARK Flexibility Score: inf
ROOT
ATOM      1  C   UNL A   1      31.443  30.602  25.718  1.00  0.00     0.023 C 
ENDROOT
BRANCH   1   2
ATOM      2  C   UNL A   1      32.626  29.645  25.722  1.00  0.00     0.116 C 
BRANCH   2   3
ATOM      3  N   UNL A   1      33.309  29.667  24.439  1.00  0.00    -0.354 N 
ATOM      4  C   UNL A   1      33.355  28.732  23.448  1.00  0.00     0.242 C 
ATOM      5  O   UNL A   1      34.110  28.948  22.496  1.00  0.00    -0.273 OA
ATOM      6  H   UNL A   1      33.820  30.490  24.257  1.00  0.00     0.163 HD
BRANCH   4   7
ATOM      7  C   UNL A   1      32.666  27.375  23.636  1.00  0.00     0.174 C 
BRANCH   7   8
ATOM      8  C   UNL A   1      31.122  27.689  23.704  1.00  0.00     0.015 C 
ATOM      9  C   UNL A   1      30.485  28.102  22.376  1.00  0.00     0.010 C 
ATOM     10  C   UNL A   1      30.304  26.525  24.293  1.00  0.00     0.010 C 
ENDBRANCH   7   8
BRANCH   7  11
ATOM     11  N   UNL A   1      33.001  26.433  22.547  1.00  0.00    -0.342 N 
ATOM     12  C   UNL A   1      33.356  25.116  22.541  1.00  0.00     0.249 C 
ATOM     13  H   UNL A   1      32.959  26.835  21.649  1.00  0.00     0.164 HD
ATOM     14  O   UNL A   1      33.285  24.551  21.439  1.00  0.00    -0.272 OA
BRANCH  12  15
ATOM     15  C   UNL A   1      33.931  24.322  23.752  1.00  0.00     0.207 C 
ATOM     16  C   UNL A   1      34.600  23.020  23.288  1.00  0.00     0.044 C 
ATOM     17  O   UNL A   1      34.804  24.925  24.689  1.00  0.00    -0.368 OA
ATOM     18  C   UNL A   1      35.995  23.072  23.859  1.00  0.00     0.032 C 
ATOM     19  C   UNL A   1      35.850  24.005  25.032  1.00  0.00     0.161 C 
ENDBRANCH  12  15
ENDBRANCH   7  11
ENDBRANCH   4   7
ENDBRANCH   2   3
ENDBRANCH   1   2
BRANCH   1  20
ATOM     20  C   UNL A   1      31.448  31.590  26.884  1.00  0.00     0.023 C 
BRANCH  20  21
ATOM     21  C   UNL A   1      32.663  32.509  26.938  1.00  0.00     0.116 C 
BRANCH  21  22
ATOM     22  N   UNL A   1      32.374  33.804  27.515  1.00  0.00    -0.352 N 
ATOM     23  C   UNL A   1      33.072  34.486  28.477  1.00  0.00     0.251 C 
ATOM     24  H   UNL A   1      31.569  34.255  27.171  1.00  0.00     0.163 HD
ATOM     25  O   UNL A   1      32.653  35.565  28.891  1.00  0.00    -0.269 OA
BRANCH  23  26
ATOM     26  C   UNL A   1      34.296  33.900  29.065  1.00  0.00     0.039 A 
ATOM     27  C   UNL A   1      34.143  32.837  29.956  1.00  0.00     0.014 A 
ATOM     28  C   UNL A   1      35.576  34.374  28.752  1.00  0.00     0.014 A 
ATOM     29  C   UNL A   1      35.269  32.222  30.503  1.00  0.00     0.010 A 
ATOM     30  C   UNL A   1      36.703  33.715  29.252  1.00  0.00     0.010 A 
ATOM     31  C   UNL A   1      36.561  32.636  30.139  1.00  0.00    -0.014 A 
BRANCH  31  32
ATOM     32  C   UNL A   1      37.746  31.930  30.694  1.00  0.00     0.031 A 
ATOM     33  C   UNL A   1      38.235  32.221  32.087  1.00  0.00     0.074 A 
ATOM     34  C   UNL A   1      38.385  31.009  29.944  1.00  0.00     0.049 A 
ATOM     35  N   UNL A   1      39.211  31.658  32.754  1.00  0.00    -0.248 NA
ATOM     36  C   UNL A   1      37.548  33.293  32.824  1.00  0.00     0.031 C 
ATOM     37  C   UNL A   1      38.044  30.662  28.563  1.00  0.00     0.029 A 
ATOM     38  N   UNL A   1      39.448  30.192  30.238  1.00  0.00    -0.354 N 
ATOM     39  C   UNL A   1      39.257  32.304  33.983  1.00  0.00     0.074 A 
ATOM     40  C   UNL A   1      38.244  33.337  33.951  1.00  0.00     0.031 C 
ATOM     41  C   UNL A   1      38.860  29.682  28.141  1.00  0.00     0.029 A 
ATOM     42  C   UNL A   1      39.802  29.355  29.207  1.00  0.00     0.049 A 
ATOM     43  H   UNL A   1      39.912  30.204  31.105  1.00  0.00     0.167 HD
ATOM     44  C   UNL A   1      40.053  32.048  35.049  1.00  0.00     0.037 A 
ATOM     45  C   UNL A   1      40.775  28.426  29.127  1.00  0.00     0.037 A 
ATOM     46  C   UNL A   1      41.053  31.011  35.088  1.00  0.00     0.049 A 
ATOM     47  C   UNL A   1      41.650  28.167  30.324  1.00  0.00     0.074 A 
ATOM     48  C   UNL A   1      41.867  30.641  36.145  1.00  0.00     0.029 A 
ATOM     49  N   UNL A   1      41.383  30.185  34.024  1.00  0.00    -0.354 N 
ATOM     50  N   UNL A   1      41.624  28.731  31.506  1.00  0.00    -0.248 NA
ATOM     51  C   UNL A   1      42.681  27.129  30.177  1.00  0.00     0.031 C 
ATOM     52  C   UNL A   1      42.729  29.632  35.703  1.00  0.00     0.029 A 
ATOM     53  C   UNL A   1      42.407  29.327  34.391  1.00  0.00     0.049 A 
ATOM     54  H   UNL A   1      40.952  30.207  33.138  1.00  0.00     0.167 HD
ATOM     55  C   UNL A   1      42.609  28.096  32.252  1.00  0.00     0.074 A 
ATOM     56  C   UNL A   1      43.201  27.092  31.395  1.00  0.00     0.031 C 
ATOM     57  C   UNL A   1      42.989  28.325  33.534  1.00  0.00     0.037 A 
BRANCH  44  58
ATOM     58  C   UNL A   1      39.884  32.908  36.269  1.00  0.00     0.057 A 
ATOM     59  C   UNL A   1      40.616  34.090  36.450  1.00  0.00     0.134 A 
ATOM     60  C   UNL A   1      38.936  32.581  37.247  1.00  0.00     0.134 A 
ATOM     61  F   UNL A   1      41.547  34.458  35.556  1.00  0.00    -0.206 F 
ATOM     62  C   UNL A   1      40.426  34.902  37.570  1.00  0.00     0.040 A 
ATOM     63  C   UNL A   1      38.717  33.401  38.356  1.00  0.00     0.040 A 
ATOM     64  F   UNL A   1      38.195  31.469  37.133  1.00  0.00    -0.206 F 
ATOM     65  C   UNL A   1      39.468  34.563  38.522  1.00  0.00     0.006 A 
ENDBRANCH  44  58
BRANCH  45  66
ATOM     66  C   UNL A   1      40.975  27.661  27.868  1.00  0.00     0.057 A 
ATOM     67  C   UNL A   1      40.367  26.415  27.668  1.00  0.00     0.134 A 
ATOM     68  C   UNL A   1      41.802  28.144  26.848  1.00  0.00     0.134 A 
ATOM     69  F   UNL A   1      39.579  25.888  28.617  1.00  0.00    -0.206 F 
ATOM     70  C   UNL A   1      40.599  25.665  26.515  1.00  0.00     0.040 A 
ATOM     71  C   UNL A   1      42.019  27.418  25.676  1.00  0.00     0.040 A 
ATOM     72  F   UNL A   1      42.407  29.335  26.973  1.00  0.00    -0.206 F 
ATOM     73  C   UNL A   1      41.425  26.169  25.513  1.00  0.00     0.006 A 
ENDBRANCH  45  66
BRANCH  57  74
ATOM     74  C   UNL A   1      44.066  27.444  34.101  1.00  0.00     0.057 A 
ATOM     75  C   UNL A   1      43.785  26.198  34.675  1.00  0.00     0.134 A 
ATOM     76  C   UNL A   1      45.409  27.843  34.056  1.00  0.00     0.134 A 
ATOM     77  F   UNL A   1      42.520  25.758  34.763  1.00  0.00    -0.206 F 
ATOM     78  C   UNL A   1      44.794  25.397  35.216  1.00  0.00     0.040 A 
ATOM     79  C   UNL A   1      46.430  27.038  34.562  1.00  0.00     0.040 A 
ATOM     80  F   UNL A   1      45.753  29.020  33.510  1.00  0.00    -0.206 F 
ATOM     81  C   UNL A   1      46.122  25.815  35.155  1.00  0.00     0.006 A 
ENDBRANCH  57  74
ENDBRANCH  31  32
ENDBRANCH  23  26
ENDBRANCH  21  22
ENDBRANCH  20  21
ENDBRANCH   1  20
TORSDOF 14
ENDMDL
MODEL 3
REMARK VINA RESULT:     -10.4      4.295      9.595
REMARK SMILES CC(C)[C@@H](NC(=O)[C@H]1CCCO1)C(=O)NCCCCNC(=O)c1ccc(-c2c3nc(c(-c4c(F)cccc4F)c4ccc([nH]4)c(-c4c(F)cccc4F)c4nc(c(-c5c(F)cccc5F)c5ccc2[nH]5)C=C4)C=C3)cc1
REMARK SMILES IDX 17 1 16 2 15 3 13 4 14 5 4 7 2 8 1 9 3 10 5 11 6 12 7 14
REMARK SMILES IDX 8 15 9 16 12 17 10 18 11 19 18 20 19 21 20 22 21 23 22 25
REMARK SMILES IDX 23 26 24 27 76 28 25 29 75 30 26 31 27 32 28 33 69 34 29 35
REMARK SMILES IDX 74 36 68 37 70 38 30 39 73 40 67 41 66 42 31 44 57 45 40 46
REMARK SMILES IDX 56 47 41 48 44 49 55 50 71 51 42 52 43 53 54 55 72 56 45 57
REMARK SMILES IDX 32 58 33 59 38 60 34 61 35 62 37 63 39 64 36 65 58 66 59 67
REMARK SMILES IDX 64 68 60 69 61 70 63 71 65 72 62 73 46 74 47 75 52 76 48 77
REMARK SMILES IDX 49 78 51 79 53 80 50 81
REMARK H PARENT 15 6 5 13 20 24 70 43 44 54
REMARK Flexibility Score: inf
ROOT
ATOM      1  C   UNL A   1      37.380  33.111  29.349  1.00  0.00     0.023 C 
ENDROOT
BRANCH   1   2
ATOM      2  C   UNL A   1      37.752  34.533  29.744  1.00  0.00     0.116 C 
BRANCH   2   3
ATOM      3  N   UNL A   1      38.100  34.600  31.154  1.00  0.00    -0.354 N 
ATOM      4  C   UNL A   1      37.302  34.611  32.259  1.00  0.00     0.242 C 
ATOM      5  O   UNL A   1      37.845  34.793  33.353  1.00  0.00    -0.273 OA
ATOM      6  H   UNL A   1      39.066  34.645  31.340  1.00  0.00     0.163 HD
BRANCH   4   7
ATOM      7  C   UNL A   1      35.776  34.623  32.109  1.00  0.00     0.174 C 
BRANCH   7   8
ATOM      8  C   UNL A   1      35.260  33.369  32.915  1.00  0.00     0.015 C 
ATOM      9  C   UNL A   1      36.070  32.088  32.709  1.00  0.00     0.010 C 
ATOM     10  C   UNL A   1      35.152  33.638  34.427  1.00  0.00     0.010 C 
ENDBRANCH   7   8
BRANCH   7  11
ATOM     11  N   UNL A   1      35.185  35.887  32.598  1.00  0.00    -0.342 N 
ATOM     12  C   UNL A   1      33.987  36.498  32.366  1.00  0.00     0.249 C 
ATOM     13  H   UNL A   1      35.771  36.386  33.211  1.00  0.00     0.164 HD
ATOM     14  O   UNL A   1      33.690  37.404  33.159  1.00  0.00    -0.272 OA
BRANCH  12  15
ATOM     15  C   UNL A   1      33.046  36.227  31.154  1.00  0.00     0.207 C 
ATOM     16  C   UNL A   1      33.288  37.248  30.032  1.00  0.00     0.044 C 
ATOM     17  O   UNL A   1      32.968  34.952  30.544  1.00  0.00    -0.368 OA
ATOM     18  C   UNL A   1      33.566  36.418  28.803  1.00  0.00     0.032 C 
ATOM     19  C   UNL A   1      32.901  35.104  29.120  1.00  0.00     0.161 C 
ENDBRANCH  12  15
ENDBRANCH   7  11
ENDBRANCH   4   7
ENDBRANCH   2   3
ENDBRANCH   1   2
BRANCH   1  20
ATOM     20  C   UNL A   1      36.073  33.016  28.563  1.00  0.00     0.023 C 
BRANCH  20  21
ATOM     21  C   UNL A   1      34.925  32.346  29.309  1.00  0.00     0.116 C 
BRANCH  21  22
ATOM     22  N   UNL A   1      34.215  31.371  28.508  1.00  0.00    -0.352 N 
ATOM     23  C   UNL A   1      34.674  30.182  28.004  1.00  0.00     0.251 C 
ATOM     24  H   UNL A   1      33.279  31.591  28.298  1.00  0.00     0.163 HD
ATOM     25  O   UNL A   1      33.943  29.493  27.295  1.00  0.00    -0.269 OA
BRANCH  23  26
ATOM     26  C   UNL A   1      36.067  29.754  28.258  1.00  0.00     0.039 A 
ATOM     27  C   UNL A   1      36.968  29.814  27.194  1.00  0.00     0.014 A 
ATOM     28  C   UNL A   1      36.492  29.302  29.513  1.00  0.00     0.014 A 
ATOM     29  C   UNL A   1      38.303  29.461  27.394  1.00  0.00     0.010 A 
ATOM     30  C   UNL A   1      37.843  29.011  29.726  1.00  0.00     0.010 A 
ATOM     31  C   UNL A   1      38.761  29.081  28.667  1.00  0.00    -0.014 A 
BRANCH  31  32
ATOM     32  C   UNL A   1      40.200  28.762  28.868  1.00  0.00     0.031 A 
ATOM     33  C   UNL A   1      40.758  27.425  28.460  1.00  0.00     0.074 A 
ATOM     34  C   UNL A   1      41.017  29.686  29.412  1.00  0.00     0.049 A 
ATOM     35  N   UNL A   1      41.995  26.999  28.504  1.00  0.00    -0.248 NA
ATOM     36  C   UNL A   1      39.801  26.432  27.949  1.00  0.00     0.031 C 
ATOM     37  C   UNL A   1      40.599  31.005  29.892  1.00  0.00     0.029 A 
ATOM     38  N   UNL A   1      42.370  29.662  29.646  1.00  0.00    -0.354 N 
ATOM     39  C   UNL A   1      41.966  25.693  28.030  1.00  0.00     0.074 A 
ATOM     40  C   UNL A   1      40.581  25.379  27.752  1.00  0.00     0.031 C 
ATOM     41  C   UNL A   1      41.677  31.674  30.334  1.00  0.00     0.029 A 
ATOM     42  C   UNL A   1      42.855  30.823  30.200  1.00  0.00     0.049 A 
ATOM     43  H   UNL A   1      42.938  28.886  29.437  1.00  0.00     0.167 HD
ATOM     44  C   UNL A   1      43.000  24.842  27.823  1.00  0.00     0.037 A 
ATOM     45  C   UNL A   1      44.107  31.165  30.559  1.00  0.00     0.037 A 
ATOM     46  C   UNL A   1      44.380  25.157  28.086  1.00  0.00     0.049 A 
ATOM     47  C   UNL A   1      45.235  30.197  30.325  1.00  0.00     0.074 A 
ATOM     48  C   UNL A   1      45.501  24.377  27.853  1.00  0.00     0.029 A 
ATOM     49  N   UNL A   1      44.831  26.342  28.647  1.00  0.00    -0.354 N 
ATOM     50  N   UNL A   1      45.200  28.998  29.798  1.00  0.00    -0.248 NA
ATOM     51  C   UNL A   1      46.579  30.639  30.723  1.00  0.00     0.031 C 
ATOM     52  C   UNL A   1      46.621  25.065  28.327  1.00  0.00     0.029 A 
ATOM     53  C   UNL A   1      46.209  26.302  28.794  1.00  0.00     0.049 A 
ATOM     54  H   UNL A   1      44.257  27.100  28.903  1.00  0.00     0.167 HD
ATOM     55  C   UNL A   1      46.518  28.555  29.772  1.00  0.00     0.074 A 
ATOM     56  C   UNL A   1      47.328  29.623  30.317  1.00  0.00     0.031 C 
ATOM     57  C   UNL A   1      47.011  27.371  29.334  1.00  0.00     0.037 A 
BRANCH  44  58
ATOM     58  C   UNL A   1      42.679  23.474  27.290  1.00  0.00     0.057 A 
ATOM     59  C   UNL A   1      42.314  22.416  28.133  1.00  0.00     0.134 A 
ATOM     60  C   UNL A   1      42.681  23.227  25.911  1.00  0.00     0.134 A 
ATOM     61  F   UNL A   1      42.301  22.581  29.465  1.00  0.00    -0.206 F 
ATOM     62  C   UNL A   1      41.984  21.158  27.626  1.00  0.00     0.040 A 
ATOM     63  C   UNL A   1      42.324  21.982  25.390  1.00  0.00     0.040 A 
ATOM     64  F   UNL A   1      43.012  24.197  25.046  1.00  0.00    -0.206 F 
ATOM     65  C   UNL A   1      41.979  20.941  26.250  1.00  0.00     0.006 A 
ENDBRANCH  44  58
BRANCH  45  66
ATOM     66  C   UNL A   1      44.370  32.493  31.174  1.00  0.00     0.057 A 
ATOM     67  C   UNL A   1      44.714  33.603  30.393  1.00  0.00     0.134 A 
ATOM     68  C   UNL A   1      44.314  32.675  32.560  1.00  0.00     0.134 A 
ATOM     69  F   UNL A   1      44.804  33.489  29.059  1.00  0.00    -0.206 F 
ATOM     70  C   UNL A   1      45.021  34.837  30.969  1.00  0.00     0.040 A 
ATOM     71  C   UNL A   1      44.589  33.910  33.148  1.00  0.00     0.040 A 
ATOM     72  F   UNL A   1      43.983  31.654  33.365  1.00  0.00    -0.206 F 
ATOM     73  C   UNL A   1      44.955  34.993  32.351  1.00  0.00     0.006 A 
ENDBRANCH  45  66
BRANCH  57  74
ATOM     74  C   UNL A   1      48.501  27.184  29.385  1.00  0.00     0.057 A 
ATOM     75  C   UNL A   1      49.139  26.564  30.467  1.00  0.00     0.134 A 
ATOM     76  C   UNL A   1      49.309  27.615  28.324  1.00  0.00     0.134 A 
ATOM     77  F   UNL A   1      48.428  26.137  31.522  1.00  0.00    -0.206 F 
ATOM     78  C   UNL A   1      50.526  26.413  30.510  1.00  0.00     0.040 A 
ATOM     79  C   UNL A   1      50.694  27.440  28.339  1.00  0.00     0.040 A 
ATOM     80  F   UNL A   1      48.765  28.207  27.249  1.00  0.00    -0.206 F 
ATOM     81  C   UNL A   1      51.307  26.847  29.440  1.00  0.00     0.006 A 
ENDBRANCH  57  74
ENDBRANCH  31  32
ENDBRANCH  23  26
ENDBRANCH  21  22
ENDBRANCH  20  21
ENDBRANCH   1  20
TORSDOF 14
ENDMDL
