MODEL 1
REMARK VINA RESULT:      -9.6      0.000      0.000
REMARK SMILES CC(C)c1ccc(CCCC(=O)NCCCCNC(=O)c2ccc(-c3c4nc(c(-c5c(F)cccc5F)c5ccc([nH]5)c(-c5c(F)cccc5F)c5nc(c(-c6c(F)cccc6F)c6ccc3[nH]6)C=C5)C=C4)cc2)cc1
REMARK SMILES IDX 14 1 13 2 11 3 12 4 10 6 9 7 8 8 7 9 4 10 5 11 76 12 6 13
REMARK SMILES IDX 75 14 2 15 1 16 3 17 15 18 16 19 17 20 18 21 19 22 20 24
REMARK SMILES IDX 21 25 22 26 74 27 23 28 73 29 24 30 25 31 26 32 67 33 27 34
REMARK SMILES IDX 72 35 66 36 68 37 28 38 71 39 65 40 64 41 29 43 55 44 38 45
REMARK SMILES IDX 54 46 39 47 42 48 53 49 69 50 40 51 41 52 52 54 70 55 43 56
REMARK SMILES IDX 30 57 31 58 36 59 32 60 33 61 35 62 37 63 34 64 56 65 57 66
REMARK SMILES IDX 62 67 58 68 59 69 61 70 63 71 60 72 44 73 45 74 50 75 46 76
REMARK SMILES IDX 47 77 49 78 51 79 48 80
REMARK H PARENT 13 5 18 23 68 42 42 53
REMARK Flexibility Score: inf
ROOT
ATOM      1  C   UNL A   1      32.957  35.703  29.122  1.00  0.00     0.116 C 
ENDROOT
BRANCH   1   2
ATOM      2  N   UNL A   1      33.016  36.789  30.078  1.00  0.00    -0.356 N 
ATOM      3  C   UNL A   1      33.029  36.731  31.438  1.00  0.00     0.220 C 
ATOM      4  O   UNL A   1      32.912  37.779  32.074  1.00  0.00    -0.275 OA
ATOM      5  H   UNL A   1      33.053  37.693  29.692  1.00  0.00     0.163 HD
BRANCH   3   6
ATOM      6  C   UNL A   1      33.269  35.408  32.138  1.00  0.00     0.100 C 
BRANCH   6   7
ATOM      7  C   UNL A   1      34.707  35.089  32.558  1.00  0.00     0.015 C 
BRANCH   7   8
ATOM      8  C   UNL A   1      35.405  33.821  32.039  1.00  0.00     0.036 C 
BRANCH   8   9
ATOM      9  C   UNL A   1      36.841  33.835  31.554  1.00  0.00    -0.048 A 
ATOM     10  C   UNL A   1      39.463  33.957  30.418  1.00  0.00    -0.045 A 
ATOM     11  C   UNL A   1      39.187  34.470  31.692  1.00  0.00     0.004 A 
ATOM     12  C   UNL A   1      38.404  33.370  29.719  1.00  0.00     0.004 A 
ATOM     13  C   UNL A   1      37.913  34.373  32.264  1.00  0.00     0.004 A 
ATOM     14  C   UNL A   1      37.114  33.324  30.272  1.00  0.00     0.004 A 
BRANCH  10  15
ATOM     15  C   UNL A   1      40.884  34.065  29.876  1.00  0.00     0.013 C 
ATOM     16  C   UNL A   1      41.044  35.329  29.019  1.00  0.00     0.012 C 
ATOM     17  C   UNL A   1      41.999  34.032  30.926  1.00  0.00     0.012 C 
ENDBRANCH  10  15
ENDBRANCH   8   9
ENDBRANCH   7   8
ENDBRANCH   6   7
ENDBRANCH   3   6
ENDBRANCH   1   2
BRANCH   1  18
ATOM     18  C   UNL A   1      34.370  35.300  28.696  1.00  0.00     0.023 C 
BRANCH  18  19
ATOM     19  C   UNL A   1      34.410  34.050  27.826  1.00  0.00     0.023 C 
BRANCH  19  20
ATOM     20  C   UNL A   1      34.109  32.763  28.581  1.00  0.00     0.116 C 
BRANCH  20  21
ATOM     21  N   UNL A   1      33.778  31.643  27.709  1.00  0.00    -0.352 N 
ATOM     22  C   UNL A   1      34.508  30.495  27.485  1.00  0.00     0.251 C 
ATOM     23  H   UNL A   1      32.928  31.715  27.218  1.00  0.00     0.163 HD
ATOM     24  O   UNL A   1      34.157  29.667  26.658  1.00  0.00    -0.269 OA
BRANCH  22  25
ATOM     25  C   UNL A   1      35.765  30.316  28.240  1.00  0.00     0.039 A 
ATOM     26  C   UNL A   1      35.711  29.734  29.508  1.00  0.00     0.014 A 
ATOM     27  C   UNL A   1      36.989  30.593  27.628  1.00  0.00     0.014 A 
ATOM     28  C   UNL A   1      36.895  29.324  30.120  1.00  0.00     0.010 A 
ATOM     29  C   UNL A   1      38.159  30.114  28.205  1.00  0.00     0.010 A 
ATOM     30  C   UNL A   1      38.120  29.452  29.443  1.00  0.00    -0.014 A 
BRANCH  30  31
ATOM     31  C   UNL A   1      39.368  28.854  29.978  1.00  0.00     0.031 A 
ATOM     32  C   UNL A   1      40.048  29.469  31.167  1.00  0.00     0.074 A 
ATOM     33  C   UNL A   1      39.948  27.828  29.324  1.00  0.00     0.049 A 
ATOM     34  N   UNL A   1      41.207  29.178  31.698  1.00  0.00    -0.248 NA
ATOM     35  C   UNL A   1      39.344  30.581  31.826  1.00  0.00     0.031 C 
ATOM     36  C   UNL A   1      39.421  27.180  28.121  1.00  0.00     0.029 A 
ATOM     37  N   UNL A   1      41.123  27.161  29.568  1.00  0.00    -0.354 N 
ATOM     38  C   UNL A   1      41.383  30.084  32.734  1.00  0.00     0.074 A 
ATOM     39  C   UNL A   1      40.233  30.962  32.731  1.00  0.00     0.031 C 
ATOM     40  C   UNL A   1      40.259  26.201  27.742  1.00  0.00     0.029 A 
ATOM     41  C   UNL A   1      41.401  26.178  28.649  1.00  0.00     0.049 A 
ATOM     42  H   UNL A   1      41.712  27.368  30.330  1.00  0.00     0.167 HD
ATOM     43  C   UNL A   1      42.403  30.163  33.622  1.00  0.00     0.037 A 
ATOM     44  C   UNL A   1      42.466  25.361  28.538  1.00  0.00     0.037 A 
ATOM     45  C   UNL A   1      43.524  29.265  33.648  1.00  0.00     0.049 A 
ATOM     46  C   UNL A   1      43.583  25.468  29.538  1.00  0.00     0.074 A 
ATOM     47  C   UNL A   1      44.559  29.206  34.566  1.00  0.00     0.029 A 
ATOM     48  N   UNL A   1      43.759  28.268  32.713  1.00  0.00    -0.354 N 
ATOM     49  N   UNL A   1      43.699  26.280  30.560  1.00  0.00    -0.248 NA
ATOM     50  C   UNL A   1      44.718  24.550  29.367  1.00  0.00     0.031 C 
ATOM     51  C   UNL A   1      45.441  28.197  34.165  1.00  0.00     0.029 A 
ATOM     52  C   UNL A   1      44.937  27.606  33.017  1.00  0.00     0.049 A 
ATOM     53  H   UNL A   1      43.176  28.062  31.947  1.00  0.00     0.167 HD
ATOM     54  C   UNL A   1      44.909  25.962  31.162  1.00  0.00     0.074 A 
ATOM     55  C   UNL A   1      45.484  24.871  30.400  1.00  0.00     0.031 C 
ATOM     56  C   UNL A   1      45.494  26.524  32.247  1.00  0.00     0.037 A 
BRANCH  43  57
ATOM     57  C   UNL A   1      42.342  31.257  34.645  1.00  0.00     0.057 A 
ATOM     58  C   UNL A   1      42.989  32.484  34.449  1.00  0.00     0.134 A 
ATOM     59  C   UNL A   1      41.602  31.094  35.822  1.00  0.00     0.134 A 
ATOM     60  F   UNL A   1      43.724  32.697  33.348  1.00  0.00    -0.206 F 
ATOM     61  C   UNL A   1      42.921  33.502  35.401  1.00  0.00     0.040 A 
ATOM     62  C   UNL A   1      41.508  32.113  36.769  1.00  0.00     0.040 A 
ATOM     63  F   UNL A   1      40.956  29.943  36.068  1.00  0.00    -0.206 F 
ATOM     64  C   UNL A   1      42.172  33.321  36.562  1.00  0.00     0.006 A 
ENDBRANCH  43  57
BRANCH  44  65
ATOM     65  C   UNL A   1      42.527  24.363  27.442  1.00  0.00     0.057 A 
ATOM     66  C   UNL A   1      42.045  23.062  27.627  1.00  0.00     0.134 A 
ATOM     67  C   UNL A   1      43.073  24.679  26.193  1.00  0.00     0.134 A 
ATOM     68  F   UNL A   1      41.529  22.696  28.809  1.00  0.00    -0.206 F 
ATOM     69  C   UNL A   1      42.116  22.105  26.613  1.00  0.00     0.040 A 
ATOM     70  C   UNL A   1      43.131  23.738  25.163  1.00  0.00     0.040 A 
ATOM     71  F   UNL A   1      43.547  25.910  25.952  1.00  0.00    -0.206 F 
ATOM     72  C   UNL A   1      42.658  22.445  25.374  1.00  0.00     0.006 A 
ENDBRANCH  44  65
BRANCH  56  73
ATOM     73  C   UNL A   1      46.814  25.965  32.681  1.00  0.00     0.057 A 
ATOM     74  C   UNL A   1      46.898  24.938  33.629  1.00  0.00     0.134 A 
ATOM     75  C   UNL A   1      48.008  26.419  32.106  1.00  0.00     0.134 A 
ATOM     76  F   UNL A   1      45.791  24.471  34.225  1.00  0.00    -0.206 F 
ATOM     77  C   UNL A   1      48.127  24.391  34.001  1.00  0.00     0.040 A 
ATOM     78  C   UNL A   1      49.240  25.865  32.453  1.00  0.00     0.040 A 
ATOM     79  F   UNL A   1      47.993  27.395  31.186  1.00  0.00    -0.206 F 
ATOM     80  C   UNL A   1      49.301  24.849  33.406  1.00  0.00     0.006 A 
ENDBRANCH  56  73
ENDBRANCH  30  31
ENDBRANCH  22  25
ENDBRANCH  20  21
ENDBRANCH  19  20
ENDBRANCH  18  19
ENDBRANCH   1  18
TORSDOF 15
ENDMDL
MODEL 2
REMARK VINA RESULT:      -9.3      3.822      7.229
REMARK SMILES CC(C)c1ccc(CCCC(=O)NCCCCNC(=O)c2ccc(-c3c4nc(c(-c5c(F)cccc5F)c5ccc([nH]5)c(-c5c(F)cccc5F)c5nc(c(-c6c(F)cccc6F)c6ccc3[nH]6)C=C5)C=C4)cc2)cc1
REMARK SMILES IDX 14 1 13 2 11 3 12 4 10 6 9 7 8 8 7 9 4 10 5 11 76 12 6 13
REMARK SMILES IDX 75 14 2 15 1 16 3 17 15 18 16 19 17 20 18 21 19 22 20 24
REMARK SMILES IDX 21 25 22 26 74 27 23 28 73 29 24 30 25 31 26 32 67 33 27 34
REMARK SMILES IDX 72 35 66 36 68 37 28 38 71 39 65 40 64 41 29 43 55 44 38 45
REMARK SMILES IDX 54 46 39 47 42 48 53 49 69 50 40 51 41 52 52 54 70 55 43 56
REMARK SMILES IDX 30 57 31 58 36 59 32 60 33 61 35 62 37 63 34 64 56 65 57 66
REMARK SMILES IDX 62 67 58 68 59 69 61 70 63 71 60 72 44 73 45 74 50 75 46 76
REMARK SMILES IDX 47 77 49 78 51 79 48 80
REMARK H PARENT 13 5 18 23 68 42 42 53
REMARK Flexibility Score: inf
ROOT
ATOM      1  C   UNL A   1      32.228  29.687  25.470  1.00  0.00     0.116 C 
ENDROOT
BRANCH   1   2
ATOM      2  N   UNL A   1      32.989  28.455  25.487  1.00  0.00    -0.356 N 
ATOM      3  C   UNL A   1      32.556  27.185  25.716  1.00  0.00     0.220 C 
ATOM      4  O   UNL A   1      33.393  26.292  25.853  1.00  0.00    -0.275 OA
ATOM      5  H   UNL A   1      33.952  28.549  25.307  1.00  0.00     0.163 HD
BRANCH   3   6
ATOM      6  C   UNL A   1      31.071  26.879  25.714  1.00  0.00     0.100 C 
BRANCH   6   7
ATOM      7  C   UNL A   1      30.531  26.044  24.549  1.00  0.00     0.015 C 
BRANCH   7   8
ATOM      8  C   UNL A   1      29.189  26.405  23.890  1.00  0.00     0.036 C 
BRANCH   8   9
ATOM      9  C   UNL A   1      28.908  27.790  23.343  1.00  0.00    -0.048 A 
ATOM     10  C   UNL A   1      28.237  30.446  22.521  1.00  0.00    -0.045 A 
ATOM     11  C   UNL A   1      29.560  29.984  22.514  1.00  0.00     0.004 A 
ATOM     12  C   UNL A   1      27.247  29.552  22.939  1.00  0.00     0.004 A 
ATOM     13  C   UNL A   1      29.882  28.672  22.877  1.00  0.00     0.004 A 
ATOM     14  C   UNL A   1      27.580  28.253  23.357  1.00  0.00     0.004 A 
BRANCH  10  15
ATOM     15  C   UNL A   1      27.957  31.877  22.075  1.00  0.00     0.013 C 
ATOM     16  C   UNL A   1      28.899  32.861  22.786  1.00  0.00     0.012 C 
ATOM     17  C   UNL A   1      28.025  32.127  20.565  1.00  0.00     0.012 C 
ENDBRANCH  10  15
ENDBRANCH   8   9
ENDBRANCH   7   8
ENDBRANCH   6   7
ENDBRANCH   3   6
ENDBRANCH   1   2
BRANCH   1  18
ATOM     18  C   UNL A   1      32.246  30.335  26.855  1.00  0.00     0.023 C 
BRANCH  18  19
ATOM     19  C   UNL A   1      31.883  31.815  26.839  1.00  0.00     0.023 C 
BRANCH  19  20
ATOM     20  C   UNL A   1      32.930  32.714  27.479  1.00  0.00     0.116 C 
BRANCH  20  21
ATOM     21  N   UNL A   1      32.474  34.083  27.682  1.00  0.00    -0.352 N 
ATOM     22  C   UNL A   1      32.975  35.026  28.554  1.00  0.00     0.251 C 
ATOM     23  H   UNL A   1      31.712  34.370  27.128  1.00  0.00     0.163 HD
ATOM     24  O   UNL A   1      32.442  36.117  28.688  1.00  0.00    -0.269 OA
BRANCH  22  25
ATOM     25  C   UNL A   1      34.151  34.660  29.368  1.00  0.00     0.039 A 
ATOM     26  C   UNL A   1      33.951  34.202  30.672  1.00  0.00     0.014 A 
ATOM     27  C   UNL A   1      35.421  34.636  28.785  1.00  0.00     0.014 A 
ATOM     28  C   UNL A   1      35.014  33.612  31.357  1.00  0.00     0.010 A 
ATOM     29  C   UNL A   1      36.455  33.979  29.440  1.00  0.00     0.010 A 
ATOM     30  C   UNL A   1      36.254  33.439  30.720  1.00  0.00    -0.014 A 
BRANCH  30  31
ATOM     31  C   UNL A   1      37.343  32.646  31.345  1.00  0.00     0.031 A 
ATOM     32  C   UNL A   1      37.920  33.072  32.664  1.00  0.00     0.074 A 
ATOM     33  C   UNL A   1      37.885  31.613  30.671  1.00  0.00     0.049 A 
ATOM     34  N   UNL A   1      38.957  32.595  33.303  1.00  0.00    -0.248 NA
ATOM     35  C   UNL A   1      37.266  34.205  33.335  1.00  0.00     0.031 C 
ATOM     36  C   UNL A   1      37.455  31.138  29.354  1.00  0.00     0.029 A 
ATOM     37  N   UNL A   1      38.932  30.786  30.993  1.00  0.00    -0.354 N 
ATOM     38  C   UNL A   1      39.093  33.383  34.437  1.00  0.00     0.074 A 
ATOM     39  C   UNL A   1      38.061  34.395  34.377  1.00  0.00     0.031 C 
ATOM     40  C   UNL A   1      38.219  30.096  28.988  1.00  0.00     0.029 A 
ATOM     41  C   UNL A   1      39.219  29.855  30.023  1.00  0.00     0.049 A 
ATOM     42  H   UNL A   1      39.433  30.854  31.838  1.00  0.00     0.167 HD
ATOM     43  C   UNL A   1      39.986  33.260  35.448  1.00  0.00     0.037 A 
ATOM     44  C   UNL A   1      40.189  28.923  29.966  1.00  0.00     0.037 A 
ATOM     45  C   UNL A   1      40.984  32.229  35.525  1.00  0.00     0.049 A 
ATOM     46  C   UNL A   1      41.166  28.806  31.102  1.00  0.00     0.074 A 
ATOM     47  C   UNL A   1      41.872  31.966  36.554  1.00  0.00     0.029 A 
ATOM     48  N   UNL A   1      41.229  31.291  34.534  1.00  0.00    -0.354 N 
ATOM     49  N   UNL A   1      41.234  29.511  32.206  1.00  0.00    -0.248 NA
ATOM     50  C   UNL A   1      42.201  27.770  30.984  1.00  0.00     0.031 C 
ATOM     51  C   UNL A   1      42.680  30.891  36.169  1.00  0.00     0.029 A 
ATOM     52  C   UNL A   1      42.272  30.464  34.915  1.00  0.00     0.049 A 
ATOM     53  H   UNL A   1      40.735  31.224  33.684  1.00  0.00     0.167 HD
ATOM     54  C   UNL A   1      42.308  28.995  32.919  1.00  0.00     0.074 A 
ATOM     55  C   UNL A   1      42.852  27.907  32.131  1.00  0.00     0.031 C 
ATOM     56  C   UNL A   1      42.801  29.388  34.118  1.00  0.00     0.037 A 
BRANCH  43  57
ATOM     57  C   UNL A   1      39.912  34.265  36.557  1.00  0.00     0.057 A 
ATOM     58  C   UNL A   1      40.605  35.481  36.496  1.00  0.00     0.134 A 
ATOM     59  C   UNL A   1      39.115  34.029  37.684  1.00  0.00     0.134 A 
ATOM     60  F   UNL A   1      41.395  35.761  35.450  1.00  0.00    -0.206 F 
ATOM     61  C   UNL A   1      40.525  36.417  37.528  1.00  0.00     0.040 A 
ATOM     62  C   UNL A   1      39.009  34.967  38.710  1.00  0.00     0.040 A 
ATOM     63  F   UNL A   1      38.424  32.885  37.802  1.00  0.00    -0.206 F 
ATOM     64  C   UNL A   1      39.719  36.164  38.636  1.00  0.00     0.006 A 
ENDBRANCH  43  57
BRANCH  44  65
ATOM     65  C   UNL A   1      40.284  28.019  28.793  1.00  0.00     0.057 A 
ATOM     66  C   UNL A   1      41.042  28.374  27.671  1.00  0.00     0.134 A 
ATOM     67  C   UNL A   1      39.617  26.789  28.761  1.00  0.00     0.134 A 
ATOM     68  F   UNL A   1      41.687  29.548  27.638  1.00  0.00    -0.206 F 
ATOM     69  C   UNL A   1      41.123  27.543  26.552  1.00  0.00     0.040 A 
ATOM     70  C   UNL A   1      39.706  25.940  27.656  1.00  0.00     0.040 A 
ATOM     71  F   UNL A   1      38.879  26.391  29.807  1.00  0.00    -0.206 F 
ATOM     72  C   UNL A   1      40.456  26.320  26.545  1.00  0.00     0.006 A 
ENDBRANCH  44  65
BRANCH  56  73
ATOM     73  C   UNL A   1      43.978  28.634  34.655  1.00  0.00     0.057 A 
ATOM     74  C   UNL A   1      43.816  27.468  35.413  1.00  0.00     0.134 A 
ATOM     75  C   UNL A   1      45.285  29.046  34.367  1.00  0.00     0.134 A 
ATOM     76  F   UNL A   1      42.589  27.030  35.734  1.00  0.00    -0.206 F 
ATOM     77  C   UNL A   1      44.916  26.745  35.878  1.00  0.00     0.040 A 
ATOM     78  C   UNL A   1      46.391  28.320  34.808  1.00  0.00     0.040 A 
ATOM     79  F   UNL A   1      45.505  30.151  33.640  1.00  0.00    -0.206 F 
ATOM     80  C   UNL A   1      46.207  27.166  35.568  1.00  0.00     0.006 A 
ENDBRANCH  56  73
ENDBRANCH  30  31
ENDBRANCH  22  25
ENDBRANCH  20  21
ENDBRANCH  19  20
ENDBRANCH  18  19
ENDBRANCH   1  18
TORSDOF 15
ENDMDL
MODEL 3
REMARK VINA RESULT:      -9.3      2.169      4.123
REMARK SMILES CC(C)c1ccc(CCCC(=O)NCCCCNC(=O)c2ccc(-c3c4nc(c(-c5c(F)cccc5F)c5ccc([nH]5)c(-c5c(F)cccc5F)c5nc(c(-c6c(F)cccc6F)c6ccc3[nH]6)C=C5)C=C4)cc2)cc1
REMARK SMILES IDX 14 1 13 2 11 3 12 4 10 6 9 7 8 8 7 9 4 10 5 11 76 12 6 13
REMARK SMILES IDX 75 14 2 15 1 16 3 17 15 18 16 19 17 20 18 21 19 22 20 24
REMARK SMILES IDX 21 25 22 26 74 27 23 28 73 29 24 30 25 31 26 32 67 33 27 34
REMARK SMILES IDX 72 35 66 36 68 37 28 38 71 39 65 40 64 41 29 43 55 44 38 45
REMARK SMILES IDX 54 46 39 47 42 48 53 49 69 50 40 51 41 52 52 54 70 55 43 56
REMARK SMILES IDX 30 57 31 58 36 59 32 60 33 61 35 62 37 63 34 64 56 65 57 66
REMARK SMILES IDX 62 67 58 68 59 69 61 70 63 71 60 72 44 73 45 74 50 75 46 76
REMARK SMILES IDX 47 77 49 78 51 79 48 80
REMARK H PARENT 13 5 18 23 68 42 42 53
REMARK Flexibility Score: inf
ROOT
ATOM      1  C   UNL A   1      38.742  34.431  29.925  1.00  0.00     0.116 C 
ENDROOT
BRANCH   1   2
ATOM      2  N   UNL A   1      38.047  34.966  31.078  1.00  0.00    -0.356 N 
ATOM      3  C   UNL A   1      37.845  34.393  32.297  1.00  0.00     0.220 C 
ATOM      4  O   UNL A   1      37.081  34.946  33.089  1.00  0.00    -0.275 OA
ATOM      5  H   UNL A   1      37.668  35.867  30.965  1.00  0.00     0.163 HD
BRANCH   3   6
ATOM      6  C   UNL A   1      38.619  33.150  32.687  1.00  0.00     0.100 C 
BRANCH   6   7
ATOM      7  C   UNL A   1      37.832  31.840  32.790  1.00  0.00     0.015 C 
BRANCH   7   8
ATOM      8  C   UNL A   1      38.325  30.707  33.706  1.00  0.00     0.036 C 
BRANCH   8   9
ATOM      9  C   UNL A   1      39.667  30.033  33.503  1.00  0.00    -0.048 A 
ATOM     10  C   UNL A   1      42.247  28.808  33.367  1.00  0.00    -0.045 A 
ATOM     11  C   UNL A   1      41.102  28.173  32.868  1.00  0.00     0.004 A 
ATOM     12  C   UNL A   1      42.084  30.077  33.930  1.00  0.00     0.004 A 
ATOM     13  C   UNL A   1      39.847  28.790  32.898  1.00  0.00     0.004 A 
ATOM     14  C   UNL A   1      40.813  30.671  34.009  1.00  0.00     0.004 A 
BRANCH  10  15
ATOM     15  C   UNL A   1      43.588  28.089  33.265  1.00  0.00     0.013 C 
ATOM     16  C   UNL A   1      44.078  27.654  34.654  1.00  0.00     0.012 C 
ATOM     17  C   UNL A   1      43.623  26.881  32.324  1.00  0.00     0.012 C 
ENDBRANCH  10  15
ENDBRANCH   8   9
ENDBRANCH   7   8
ENDBRANCH   6   7
ENDBRANCH   3   6
ENDBRANCH   1   2
BRANCH   1  18
ATOM     18  C   UNL A   1      37.827  33.478  29.156  1.00  0.00     0.023 C 
BRANCH  18  19
ATOM     19  C   UNL A   1      36.345  33.788  29.324  1.00  0.00     0.023 C 
BRANCH  19  20
ATOM     20  C   UNL A   1      35.561  32.693  30.031  1.00  0.00     0.116 C 
BRANCH  20  21
ATOM     21  N   UNL A   1      34.542  32.074  29.193  1.00  0.00    -0.352 N 
ATOM     22  C   UNL A   1      34.636  30.912  28.457  1.00  0.00     0.251 C 
ATOM     23  H   UNL A   1      33.678  32.545  29.146  1.00  0.00     0.163 HD
ATOM     24  O   UNL A   1      33.730  30.547  27.724  1.00  0.00    -0.269 OA
BRANCH  22  25
ATOM     25  C   UNL A   1      35.894  30.142  28.539  1.00  0.00     0.039 A 
ATOM     26  C   UNL A   1      36.762  30.154  27.446  1.00  0.00     0.014 A 
ATOM     27  C   UNL A   1      36.263  29.539  29.743  1.00  0.00     0.014 A 
ATOM     28  C   UNL A   1      38.055  29.655  27.598  1.00  0.00     0.010 A 
ATOM     29  C   UNL A   1      37.575  29.114  29.914  1.00  0.00     0.010 A 
ATOM     30  C   UNL A   1      38.490  29.192  28.851  1.00  0.00    -0.014 A 
BRANCH  30  31
ATOM     31  C   UNL A   1      39.910  28.836  29.097  1.00  0.00     0.031 A 
ATOM     32  C   UNL A   1      40.855  29.859  29.658  1.00  0.00     0.074 A 
ATOM     33  C   UNL A   1      40.370  27.630  28.710  1.00  0.00     0.049 A 
ATOM     34  N   UNL A   1      42.151  29.785  29.819  1.00  0.00    -0.248 NA
ATOM     35  C   UNL A   1      40.269  31.147  30.061  1.00  0.00     0.031 C 
ATOM     36  C   UNL A   1      39.567  26.570  28.096  1.00  0.00     0.029 A 
ATOM     37  N   UNL A   1      41.635  27.098  28.757  1.00  0.00    -0.354 N 
ATOM     38  C   UNL A   1      42.537  31.021  30.317  1.00  0.00     0.074 A 
ATOM     39  C   UNL A   1      41.348  31.840  30.391  1.00  0.00     0.031 C 
ATOM     40  C   UNL A   1      40.353  25.512  27.839  1.00  0.00     0.029 A 
ATOM     41  C   UNL A   1      41.722  25.832  28.230  1.00  0.00     0.049 A 
ATOM     42  H   UNL A   1      42.408  27.579  29.132  1.00  0.00     0.167 HD
ATOM     43  C   UNL A   1      43.772  31.428  30.697  1.00  0.00     0.037 A 
ATOM     44  C   UNL A   1      42.787  25.025  28.065  1.00  0.00     0.037 A 
ATOM     45  C   UNL A   1      44.945  30.599  30.660  1.00  0.00     0.049 A 
ATOM     46  C   UNL A   1      44.145  25.500  28.498  1.00  0.00     0.074 A 
ATOM     47  C   UNL A   1      46.221  30.892  31.112  1.00  0.00     0.029 A 
ATOM     48  N   UNL A   1      44.988  29.315  30.140  1.00  0.00    -0.354 N 
ATOM     49  N   UNL A   1      44.483  26.646  29.038  1.00  0.00    -0.248 NA
ATOM     50  C   UNL A   1      45.269  24.576  28.293  1.00  0.00     0.031 C 
ATOM     51  C   UNL A   1      47.045  29.797  30.831  1.00  0.00     0.029 A 
ATOM     52  C   UNL A   1      46.274  28.811  30.235  1.00  0.00     0.049 A 
ATOM     53  H   UNL A   1      44.218  28.833  29.759  1.00  0.00     0.167 HD
ATOM     54  C   UNL A   1      45.853  26.574  29.252  1.00  0.00     0.074 A 
ATOM     55  C   UNL A   1      46.282  25.267  28.798  1.00  0.00     0.031 C 
ATOM     56  C   UNL A   1      46.683  27.508  29.776  1.00  0.00     0.037 A 
BRANCH  43  57
ATOM     57  C   UNL A   1      43.909  32.835  31.196  1.00  0.00     0.057 A 
ATOM     58  C   UNL A   1      44.021  33.123  32.562  1.00  0.00     0.134 A 
ATOM     59  C   UNL A   1      43.963  33.910  30.300  1.00  0.00     0.134 A 
ATOM     60  F   UNL A   1      43.964  32.140  33.472  1.00  0.00    -0.206 F 
ATOM     61  C   UNL A   1      44.158  34.434  33.021  1.00  0.00     0.040 A 
ATOM     62  C   UNL A   1      44.123  35.222  30.745  1.00  0.00     0.040 A 
ATOM     63  F   UNL A   1      43.864  33.700  28.978  1.00  0.00    -0.206 F 
ATOM     64  C   UNL A   1      44.216  35.487  32.110  1.00  0.00     0.006 A 
ENDBRANCH  43  57
BRANCH  44  65
ATOM     65  C   UNL A   1      42.614  23.678  27.467  1.00  0.00     0.057 A 
ATOM     66  C   UNL A   1      42.680  23.493  26.081  1.00  0.00     0.134 A 
ATOM     67  C   UNL A   1      42.372  22.550  28.259  1.00  0.00     0.134 A 
ATOM     68  F   UNL A   1      42.890  24.540  25.270  1.00  0.00    -0.206 F 
ATOM     69  C   UNL A   1      42.497  22.235  25.502  1.00  0.00     0.040 A 
ATOM     70  C   UNL A   1      42.208  21.284  27.695  1.00  0.00     0.040 A 
ATOM     71  F   UNL A   1      42.303  22.662  29.594  1.00  0.00    -0.206 F 
ATOM     72  C   UNL A   1      42.264  21.125  26.312  1.00  0.00     0.006 A 
ENDBRANCH  44  65
BRANCH  56  73
ATOM     73  C   UNL A   1      48.132  27.148  29.896  1.00  0.00     0.057 A 
ATOM     74  C   UNL A   1      49.066  27.539  28.930  1.00  0.00     0.134 A 
ATOM     75  C   UNL A   1      48.606  26.451  31.015  1.00  0.00     0.134 A 
ATOM     76  F   UNL A   1      48.671  28.197  27.829  1.00  0.00    -0.206 F 
ATOM     77  C   UNL A   1      50.421  27.237  29.065  1.00  0.00     0.040 A 
ATOM     78  C   UNL A   1      49.961  26.162  31.172  1.00  0.00     0.040 A 
ATOM     79  F   UNL A   1      47.761  26.056  31.979  1.00  0.00    -0.206 F 
ATOM     80  C   UNL A   1      50.874  26.555  30.193  1.00  0.00     0.006 A 
ENDBRANCH  56  73
ENDBRANCH  30  31
ENDBRANCH  22  25
ENDBRANCH  20  21
ENDBRANCH  19  20
ENDBRANCH  18  19
ENDBRANCH   1  18
TORSDOF 15
ENDMDL
