MODEL 1
REMARK VINA RESULT:     -12.9      0.000      0.000
REMARK SMILES O=C(NCCCCNC(=O)c1ccccc1NC(=O)c1ccc(N2C(=O)[C@H]3CC=CC[C@H]3C2=O)cc1)c1ccc(-c2c3nc(c(-c4c(F)cccc4F)c4ccc([nH]4)c(-c4c(F)cccc4F)c4nc(c(-c5c(F)cccc5F)c5ccc2[nH]5)C=C4)C=C3)cc1
REMARK SMILES IDX 6 1 5 2 4 3 3 4 1 5 2 6 37 8 38 9 90 10 39 11 89 12 40 13
REMARK SMILES IDX 41 14 42 15 83 16 43 17 88 18 82 19 84 20 44 21 87 22 81 23
REMARK SMILES IDX 80 24 45 26 71 27 54 28 70 29 55 30 58 31 69 32 85 33 56 34
REMARK SMILES IDX 57 35 68 37 86 38 59 39 46 40 47 41 52 42 48 43 49 44 51 45
REMARK SMILES IDX 53 46 50 47 72 48 73 49 78 50 74 51 75 52 77 53 79 54 76 55
REMARK SMILES IDX 60 56 61 57 66 58 62 59 63 60 65 61 67 62 64 63 7 64 8 65
REMARK SMILES IDX 9 66 10 68 11 69 12 70 16 71 13 72 15 73 14 74 17 75 18 76
REMARK SMILES IDX 19 78 20 79 21 80 36 81 22 82 35 83 23 84 24 85 25 86 33 87
REMARK SMILES IDX 26 88 27 89 32 90 34 91 28 92 31 93 29 94 30 95
REMARK H PARENT 3 7 84 25 58 36 8 67 17 77
REMARK Flexibility Score: inf
ROOT
ATOM      1  C   UNL A   1      36.334  19.184  25.025  1.00  0.00     0.023 C 
ENDROOT
BRANCH   1   2
ATOM      2  C   UNL A   1      37.707  19.679  24.571  1.00  0.00     0.023 C 
BRANCH   2   3
ATOM      3  C   UNL A   1      38.677  20.040  25.688  1.00  0.00     0.116 C 
BRANCH   3   4
ATOM      4  N   UNL A   1      39.841  19.170  25.729  1.00  0.00    -0.352 N 
ATOM      5  O   UNL A   1      42.030  18.642  25.868  1.00  0.00    -0.269 OA
ATOM      6  C   UNL A   1      41.143  19.474  26.040  1.00  0.00     0.251 C 
ATOM      7  H   UNL A   1      39.671  18.228  25.499  1.00  0.00     0.163 HD
BRANCH   6   8
ATOM      8  C   UNL A   1      41.484  20.816  26.563  1.00  0.00     0.039 A 
ATOM      9  C   UNL A   1      41.880  21.838  25.698  1.00  0.00     0.014 A 
ATOM     10  C   UNL A   1      41.390  21.057  27.937  1.00  0.00     0.014 A 
ATOM     11  C   UNL A   1      42.315  23.052  26.217  1.00  0.00     0.010 A 
ATOM     12  C   UNL A   1      41.745  22.309  28.450  1.00  0.00     0.010 A 
ATOM     13  C   UNL A   1      42.231  23.309  27.595  1.00  0.00    -0.014 A 
BRANCH  13  14
ATOM     14  C   UNL A   1      42.570  24.663  28.100  1.00  0.00     0.031 A 
ATOM     15  C   UNL A   1      41.514  25.712  28.311  1.00  0.00     0.074 A 
ATOM     16  C   UNL A   1      43.859  24.933  28.388  1.00  0.00     0.049 A 
ATOM     17  N   UNL A   1      41.650  26.937  28.754  1.00  0.00    -0.248 NA
ATOM     18  C   UNL A   1      40.129  25.348  27.975  1.00  0.00     0.031 C 
ATOM     19  C   UNL A   1      44.974  24.000  28.205  1.00  0.00     0.029 A 
ATOM     20  N   UNL A   1      44.450  26.057  28.905  1.00  0.00    -0.354 N 
ATOM     21  C   UNL A   1      40.378  27.494  28.736  1.00  0.00     0.074 A 
ATOM     22  C   UNL A   1      39.483  26.482  28.220  1.00  0.00     0.031 C 
ATOM     23  C   UNL A   1      46.105  24.572  28.639  1.00  0.00     0.029 A 
ATOM     24  C   UNL A   1      45.808  25.932  29.073  1.00  0.00     0.049 A 
ATOM     25  H   UNL A   1      43.951  26.873  29.135  1.00  0.00     0.167 HD
ATOM     26  C   UNL A   1      39.998  28.737  29.120  1.00  0.00     0.037 A 
ATOM     27  C   UNL A   1      46.721  26.820  29.506  1.00  0.00     0.037 A 
ATOM     28  C   UNL A   1      40.892  29.733  29.655  1.00  0.00     0.049 A 
ATOM     29  C   UNL A   1      46.268  28.192  29.908  1.00  0.00     0.074 A 
ATOM     30  C   UNL A   1      40.587  31.000  30.125  1.00  0.00     0.029 A 
ATOM     31  N   UNL A   1      42.264  29.578  29.787  1.00  0.00    -0.354 N 
ATOM     32  N   UNL A   1      45.054  28.687  29.930  1.00  0.00    -0.248 NA
ATOM     33  C   UNL A   1      47.310  29.132  30.340  1.00  0.00     0.031 C 
ATOM     34  C   UNL A   1      41.780  31.628  30.497  1.00  0.00     0.029 A 
ATOM     35  C   UNL A   1      42.822  30.737  30.302  1.00  0.00     0.049 A 
ATOM     36  H   UNL A   1      42.766  28.766  29.549  1.00  0.00     0.167 HD
ATOM     37  C   UNL A   1      45.185  29.990  30.387  1.00  0.00     0.074 A 
ATOM     38  C   UNL A   1      46.592  30.200  30.657  1.00  0.00     0.031 C 
ATOM     39  C   UNL A   1      44.225  30.931  30.561  1.00  0.00     0.037 A 
BRANCH  26  40
ATOM     40  C   UNL A   1      38.552  29.110  28.973  1.00  0.00     0.057 A 
ATOM     41  C   UNL A   1      37.662  29.064  30.053  1.00  0.00     0.134 A 
ATOM     42  C   UNL A   1      38.067  29.607  27.756  1.00  0.00     0.134 A 
ATOM     43  F   UNL A   1      38.062  28.591  31.244  1.00  0.00    -0.206 F 
ATOM     44  C   UNL A   1      36.340  29.496  29.928  1.00  0.00     0.040 A 
ATOM     45  C   UNL A   1      36.753  30.060  27.624  1.00  0.00     0.040 A 
ATOM     46  F   UNL A   1      38.869  29.686  26.684  1.00  0.00    -0.206 F 
ATOM     47  C   UNL A   1      35.885  30.005  28.713  1.00  0.00     0.006 A 
ENDBRANCH  26  40
BRANCH  27  48
ATOM     48  C   UNL A   1      48.155  26.445  29.557  1.00  0.00     0.057 A 
ATOM     49  C   UNL A   1      48.700  25.809  30.678  1.00  0.00     0.134 A 
ATOM     50  C   UNL A   1      49.015  26.716  28.487  1.00  0.00     0.134 A 
ATOM     51  F   UNL A   1      47.930  25.539  31.743  1.00  0.00    -0.206 F 
ATOM     52  C   UNL A   1      50.054  25.476  30.741  1.00  0.00     0.040 A 
ATOM     53  C   UNL A   1      50.363  26.363  28.524  1.00  0.00     0.040 A 
ATOM     54  F   UNL A   1      48.551  27.317  27.381  1.00  0.00    -0.206 F 
ATOM     55  C   UNL A   1      50.889  25.748  29.658  1.00  0.00     0.006 A 
ENDBRANCH  27  48
BRANCH  39  56
ATOM     56  C   UNL A   1      44.672  32.264  31.080  1.00  0.00     0.057 A 
ATOM     57  C   UNL A   1      44.763  32.524  32.453  1.00  0.00     0.134 A 
ATOM     58  C   UNL A   1      45.027  33.292  30.199  1.00  0.00     0.134 A 
ATOM     59  F   UNL A   1      44.420  31.585  33.348  1.00  0.00    -0.206 F 
ATOM     60  C   UNL A   1      45.170  33.770  32.932  1.00  0.00     0.040 A 
ATOM     61  C   UNL A   1      45.460  34.534  30.666  1.00  0.00     0.040 A 
ATOM     62  F   UNL A   1      44.967  33.105  28.872  1.00  0.00    -0.206 F 
ATOM     63  C   UNL A   1      45.525  34.777  32.037  1.00  0.00     0.006 A 
ENDBRANCH  39  56
ENDBRANCH  13  14
ENDBRANCH   6   8
ENDBRANCH   3   4
ENDBRANCH   2   3
ENDBRANCH   1   2
BRANCH   1  64
ATOM     64  C   UNL A   1      35.861  17.883  24.382  1.00  0.00     0.116 C 
BRANCH  64  65
ATOM     65  N   UNL A   1      34.767  17.264  25.114  1.00  0.00    -0.352 N 
ATOM     66  C   UNL A   1      33.453  17.640  25.206  1.00  0.00     0.253 C 
ATOM     67  H   UNL A   1      35.007  16.454  25.618  1.00  0.00     0.163 HD
ATOM     68  O   UNL A   1      32.711  17.057  25.992  1.00  0.00    -0.269 OA
BRANCH  66  69
ATOM     69  C   UNL A   1      32.913  18.735  24.375  1.00  0.00     0.063 A 
ATOM     70  C   UNL A   1      32.536  18.379  23.070  1.00  0.00     0.016 A 
ATOM     71  C   UNL A   1      32.834  20.073  24.818  1.00  0.00     0.054 A 
ATOM     72  C   UNL A   1      32.069  19.349  22.190  1.00  0.00     0.001 A 
ATOM     73  C   UNL A   1      32.422  21.037  23.892  1.00  0.00     0.027 A 
ATOM     74  C   UNL A   1      32.024  20.677  22.597  1.00  0.00     0.002 A 
BRANCH  71  75
ATOM     75  N   UNL A   1      33.202  20.384  26.149  1.00  0.00    -0.321 N 
ATOM     76  C   UNL A   1      33.597  21.540  26.782  1.00  0.00     0.255 C 
ATOM     77  H   UNL A   1      33.169  19.607  26.750  1.00  0.00     0.170 HD
ATOM     78  O   UNL A   1      33.920  21.504  27.968  1.00  0.00    -0.269 OA
BRANCH  76  79
ATOM     79  C   UNL A   1      33.606  22.843  26.099  1.00  0.00     0.040 A 
ATOM     80  C   UNL A   1      32.418  23.570  26.065  1.00  0.00     0.016 A 
ATOM     81  C   UNL A   1      34.762  23.360  25.515  1.00  0.00     0.016 A 
ATOM     82  C   UNL A   1      32.419  24.872  25.559  1.00  0.00     0.027 A 
ATOM     83  C   UNL A   1      34.751  24.661  25.000  1.00  0.00     0.027 A 
ATOM     84  C   UNL A   1      33.592  25.458  25.058  1.00  0.00     0.052 A 
BRANCH  84  85
ATOM     85  N   UNL A   1      33.634  26.836  24.697  1.00  0.00    -0.250 N 
ATOM     86  C   UNL A   1      33.600  27.295  23.400  1.00  0.00     0.238 C 
ATOM     87  C   UNL A   1      33.657  27.870  25.599  1.00  0.00     0.238 C 
ATOM     88  O   UNL A   1      33.602  26.644  22.361  1.00  0.00    -0.274 OA
ATOM     89  C   UNL A   1      33.519  28.803  23.399  1.00  0.00     0.096 C 
ATOM     90  C   UNL A   1      33.462  29.180  24.878  1.00  0.00     0.096 C 
ATOM     91  O   UNL A   1      33.834  27.816  26.812  1.00  0.00    -0.274 OA
ATOM     92  C   UNL A   1      32.328  29.260  22.551  1.00  0.00     0.041 C 
ATOM     93  C   UNL A   1      32.164  29.830  25.372  1.00  0.00     0.041 C 
ATOM     94  C   UNL A   1      31.025  29.155  23.286  1.00  0.00    -0.030 C 
ATOM     95  C   UNL A   1      30.952  29.413  24.597  1.00  0.00    -0.030 C 
ENDBRANCH  84  85
ENDBRANCH  76  79
ENDBRANCH  71  75
ENDBRANCH  66  69
ENDBRANCH  64  65
ENDBRANCH   1  64
TORSDOF 14
ENDMDL
MODEL 2
REMARK VINA RESULT:     -12.9      0.254      6.001
REMARK SMILES O=C(NCCCCNC(=O)c1ccccc1NC(=O)c1ccc(N2C(=O)[C@H]3CC=CC[C@H]3C2=O)cc1)c1ccc(-c2c3nc(c(-c4c(F)cccc4F)c4ccc([nH]4)c(-c4c(F)cccc4F)c4nc(c(-c5c(F)cccc5F)c5ccc2[nH]5)C=C4)C=C3)cc1
REMARK SMILES IDX 6 1 5 2 4 3 3 4 1 5 2 6 37 8 38 9 90 10 39 11 89 12 40 13
REMARK SMILES IDX 41 14 42 15 83 16 43 17 88 18 82 19 84 20 44 21 87 22 81 23
REMARK SMILES IDX 80 24 45 26 71 27 54 28 70 29 55 30 58 31 69 32 85 33 56 34
REMARK SMILES IDX 57 35 68 37 86 38 59 39 46 40 47 41 52 42 48 43 49 44 51 45
REMARK SMILES IDX 53 46 50 47 72 48 73 49 78 50 74 51 75 52 77 53 79 54 76 55
REMARK SMILES IDX 60 56 61 57 66 58 62 59 63 60 65 61 67 62 64 63 7 64 8 65
REMARK SMILES IDX 9 66 10 68 11 69 12 70 16 71 13 72 15 73 14 74 17 75 18 76
REMARK SMILES IDX 19 78 20 79 21 80 36 81 22 82 35 83 23 84 24 85 25 86 33 87
REMARK SMILES IDX 26 88 27 89 32 90 34 91 28 92 31 93 29 94 30 95
REMARK H PARENT 3 7 84 25 58 36 8 67 17 77
REMARK Flexibility Score: inf
ROOT
ATOM      1  C   UNL A   1      36.311  19.149  25.050  1.00  0.00     0.023 C 
ENDROOT
BRANCH   1   2
ATOM      2  C   UNL A   1      37.637  19.712  24.536  1.00  0.00     0.023 C 
BRANCH   2   3
ATOM      3  C   UNL A   1      38.643  20.106  25.610  1.00  0.00     0.116 C 
BRANCH   3   4
ATOM      4  N   UNL A   1      39.773  19.196  25.686  1.00  0.00    -0.352 N 
ATOM      5  O   UNL A   1      41.937  18.591  25.900  1.00  0.00    -0.269 OA
ATOM      6  C   UNL A   1      41.074  19.452  26.046  1.00  0.00     0.251 C 
ATOM      7  H   UNL A   1      39.579  18.261  25.444  1.00  0.00     0.163 HD
BRANCH   6   8
ATOM      8  C   UNL A   1      41.442  20.779  26.590  1.00  0.00     0.039 A 
ATOM      9  C   UNL A   1      41.323  21.049  27.954  1.00  0.00     0.014 A 
ATOM     10  C   UNL A   1      41.930  21.760  25.721  1.00  0.00     0.014 A 
ATOM     11  C   UNL A   1      41.555  22.335  28.427  1.00  0.00     0.010 A 
ATOM     12  C   UNL A   1      42.247  23.030  26.214  1.00  0.00     0.010 A 
ATOM     13  C   UNL A   1      42.041  23.334  27.567  1.00  0.00    -0.014 A 
BRANCH  13  14
ATOM     14  C   UNL A   1      42.412  24.656  28.131  1.00  0.00     0.031 A 
ATOM     15  C   UNL A   1      43.829  24.976  28.519  1.00  0.00     0.074 A 
ATOM     16  C   UNL A   1      41.445  25.583  28.273  1.00  0.00     0.049 A 
ATOM     17  N   UNL A   1      44.313  26.087  29.015  1.00  0.00    -0.248 NA
ATOM     18  C   UNL A   1      44.832  23.916  28.336  1.00  0.00     0.031 C 
ATOM     19  C   UNL A   1      40.030  25.379  27.950  1.00  0.00     0.029 A 
ATOM     20  N   UNL A   1      41.500  26.881  28.711  1.00  0.00    -0.354 N 
ATOM     21  C   UNL A   1      45.667  25.857  29.219  1.00  0.00     0.074 A 
ATOM     22  C   UNL A   1      45.929  24.494  28.811  1.00  0.00     0.031 C 
ATOM     23  C   UNL A   1      39.360  26.520  28.161  1.00  0.00     0.029 A 
ATOM     24  C   UNL A   1      40.281  27.516  28.693  1.00  0.00     0.049 A 
ATOM     25  H   UNL A   1      42.331  27.317  29.010  1.00  0.00     0.167 HD
ATOM     26  C   UNL A   1      46.604  26.711  29.700  1.00  0.00     0.037 A 
ATOM     27  C   UNL A   1      39.936  28.756  29.083  1.00  0.00     0.037 A 
ATOM     28  C   UNL A   1      46.340  28.075  30.083  1.00  0.00     0.049 A 
ATOM     29  C   UNL A   1      40.994  29.670  29.625  1.00  0.00     0.074 A 
ATOM     30  C   UNL A   1      47.238  29.033  30.526  1.00  0.00     0.029 A 
ATOM     31  N   UNL A   1      45.090  28.675  30.073  1.00  0.00    -0.354 N 
ATOM     32  N   UNL A   1      42.279  29.452  29.767  1.00  0.00    -0.248 NA
ATOM     33  C   UNL A   1      40.555  30.999  30.068  1.00  0.00     0.031 C 
ATOM     34  C   UNL A   1      46.523  30.197  30.828  1.00  0.00     0.029 A 
ATOM     35  C   UNL A   1      45.188  29.979  30.531  1.00  0.00     0.049 A 
ATOM     36  H   UNL A   1      44.257  28.238  29.784  1.00  0.00     0.167 HD
ATOM     37  C   UNL A   1      42.803  30.619  30.303  1.00  0.00     0.074 A 
ATOM     38  C   UNL A   1      41.703  31.551  30.437  1.00  0.00     0.031 C 
ATOM     39  C   UNL A   1      44.082  30.891  30.661  1.00  0.00     0.037 A 
BRANCH  26  40
ATOM     40  C   UNL A   1      48.008  26.205  29.854  1.00  0.00     0.057 A 
ATOM     41  C   UNL A   1      48.950  26.313  28.824  1.00  0.00     0.134 A 
ATOM     42  C   UNL A   1      48.446  25.687  31.080  1.00  0.00     0.134 A 
ATOM     43  F   UNL A   1      48.593  26.793  27.623  1.00  0.00    -0.206 F 
ATOM     44  C   UNL A   1      50.278  25.919  29.006  1.00  0.00     0.040 A 
ATOM     45  C   UNL A   1      49.775  25.309  31.281  1.00  0.00     0.040 A 
ATOM     46  F   UNL A   1      47.596  25.566  32.111  1.00  0.00    -0.206 F 
ATOM     47  C   UNL A   1      50.695  25.425  30.240  1.00  0.00     0.006 A 
ENDBRANCH  26  40
BRANCH  27  48
ATOM     48  C   UNL A   1      38.521  29.193  28.997  1.00  0.00     0.057 A 
ATOM     49  C   UNL A   1      37.978  29.664  27.796  1.00  0.00     0.134 A 
ATOM     50  C   UNL A   1      37.680  29.154  30.115  1.00  0.00     0.134 A 
ATOM     51  F   UNL A   1      38.740  29.742  26.695  1.00  0.00    -0.206 F 
ATOM     52  C   UNL A   1      36.655  30.099  27.715  1.00  0.00     0.040 A 
ATOM     53  C   UNL A   1      36.347  29.559  30.042  1.00  0.00     0.040 A 
ATOM     54  F   UNL A   1      38.138  28.706  31.292  1.00  0.00    -0.206 F 
ATOM     55  C   UNL A   1      35.833  30.042  28.840  1.00  0.00     0.006 A 
ENDBRANCH  27  48
BRANCH  39  56
ATOM     56  C   UNL A   1      44.352  32.257  31.215  1.00  0.00     0.057 A 
ATOM     57  C   UNL A   1      44.656  33.341  30.382  1.00  0.00     0.134 A 
ATOM     58  C   UNL A   1      44.295  32.494  32.594  1.00  0.00     0.134 A 
ATOM     59  F   UNL A   1      44.742  33.174  29.053  1.00  0.00    -0.206 F 
ATOM     60  C   UNL A   1      44.917  34.609  30.903  1.00  0.00     0.040 A 
ATOM     61  C   UNL A   1      44.529  33.763  33.125  1.00  0.00     0.040 A 
ATOM     62  F   UNL A   1      44.004  31.499  33.445  1.00  0.00    -0.206 F 
ATOM     63  C   UNL A   1      44.848  34.823  32.278  1.00  0.00     0.006 A 
ENDBRANCH  39  56
ENDBRANCH  13  14
ENDBRANCH   6   8
ENDBRANCH   3   4
ENDBRANCH   2   3
ENDBRANCH   1   2
BRANCH   1  64
ATOM     64  C   UNL A   1      35.881  17.822  24.433  1.00  0.00     0.116 C 
BRANCH  64  65
ATOM     65  N   UNL A   1      34.778  17.204  25.153  1.00  0.00    -0.352 N 
ATOM     66  C   UNL A   1      33.463  17.580  25.230  1.00  0.00     0.253 C 
ATOM     67  H   UNL A   1      35.012  16.394  25.660  1.00  0.00     0.163 HD
ATOM     68  O   UNL A   1      32.712  16.998  26.008  1.00  0.00    -0.269 OA
BRANCH  66  69
ATOM     69  C   UNL A   1      32.934  18.676  24.394  1.00  0.00     0.063 A 
ATOM     70  C   UNL A   1      32.545  18.316  23.094  1.00  0.00     0.016 A 
ATOM     71  C   UNL A   1      32.874  20.019  24.826  1.00  0.00     0.054 A 
ATOM     72  C   UNL A   1      32.086  19.285  22.208  1.00  0.00     0.001 A 
ATOM     73  C   UNL A   1      32.470  20.981  23.895  1.00  0.00     0.027 A 
ATOM     74  C   UNL A   1      32.061  20.616  22.606  1.00  0.00     0.002 A 
BRANCH  71  75
ATOM     75  N   UNL A   1      33.254  20.335  26.153  1.00  0.00    -0.321 N 
ATOM     76  C   UNL A   1      33.650  21.494  26.779  1.00  0.00     0.255 C 
ATOM     77  H   UNL A   1      33.229  19.559  26.757  1.00  0.00     0.170 HD
ATOM     78  O   UNL A   1      33.985  21.463  27.962  1.00  0.00    -0.269 OA
BRANCH  76  79
ATOM     79  C   UNL A   1      33.648  22.795  26.092  1.00  0.00     0.040 A 
ATOM     80  C   UNL A   1      32.456  23.515  26.064  1.00  0.00     0.016 A 
ATOM     81  C   UNL A   1      34.798  23.317  25.500  1.00  0.00     0.016 A 
ATOM     82  C   UNL A   1      32.447  24.816  25.554  1.00  0.00     0.027 A 
ATOM     83  C   UNL A   1      34.776  24.616  24.981  1.00  0.00     0.027 A 
ATOM     84  C   UNL A   1      33.614  25.407  25.044  1.00  0.00     0.052 A 
BRANCH  84  85
ATOM     85  N   UNL A   1      33.646  26.784  24.678  1.00  0.00    -0.250 N 
ATOM     86  C   UNL A   1      33.598  27.239  23.380  1.00  0.00     0.238 C 
ATOM     87  C   UNL A   1      33.672  27.821  25.577  1.00  0.00     0.238 C 
ATOM     88  O   UNL A   1      33.594  26.585  22.344  1.00  0.00    -0.274 OA
ATOM     89  C   UNL A   1      33.510  28.747  23.376  1.00  0.00     0.096 C 
ATOM     90  C   UNL A   1      33.465  29.128  24.854  1.00  0.00     0.096 C 
ATOM     91  O   UNL A   1      33.860  27.771  26.788  1.00  0.00    -0.274 OA
ATOM     92  C   UNL A   1      32.310  29.196  22.537  1.00  0.00     0.041 C 
ATOM     93  C   UNL A   1      32.168  29.773  25.358  1.00  0.00     0.041 C 
ATOM     94  C   UNL A   1      31.014  29.087  23.284  1.00  0.00    -0.030 C 
ATOM     95  C   UNL A   1      30.951  29.348  24.595  1.00  0.00    -0.030 C 
ENDBRANCH  84  85
ENDBRANCH  76  79
ENDBRANCH  71  75
ENDBRANCH  66  69
ENDBRANCH  64  65
ENDBRANCH   1  64
TORSDOF 14
ENDMDL
MODEL 3
REMARK VINA RESULT:     -12.5      3.850      6.421
REMARK SMILES O=C(NCCCCNC(=O)c1ccccc1NC(=O)c1ccc(N2C(=O)[C@H]3CC=CC[C@H]3C2=O)cc1)c1ccc(-c2c3nc(c(-c4c(F)cccc4F)c4ccc([nH]4)c(-c4c(F)cccc4F)c4nc(c(-c5c(F)cccc5F)c5ccc2[nH]5)C=C4)C=C3)cc1
REMARK SMILES IDX 6 1 5 2 4 3 3 4 1 5 2 6 37 8 38 9 90 10 39 11 89 12 40 13
REMARK SMILES IDX 41 14 42 15 83 16 43 17 88 18 82 19 84 20 44 21 87 22 81 23
REMARK SMILES IDX 80 24 45 26 71 27 54 28 70 29 55 30 58 31 69 32 85 33 56 34
REMARK SMILES IDX 57 35 68 37 86 38 59 39 46 40 47 41 52 42 48 43 49 44 51 45
REMARK SMILES IDX 53 46 50 47 72 48 73 49 78 50 74 51 75 52 77 53 79 54 76 55
REMARK SMILES IDX 60 56 61 57 66 58 62 59 63 60 65 61 67 62 64 63 7 64 8 65
REMARK SMILES IDX 9 66 10 68 11 69 12 70 16 71 13 72 15 73 14 74 17 75 18 76
REMARK SMILES IDX 19 78 20 79 21 80 36 81 22 82 35 83 23 84 24 85 25 86 33 87
REMARK SMILES IDX 26 88 27 89 32 90 34 91 28 92 31 93 29 94 30 95
REMARK H PARENT 3 7 84 25 58 36 8 67 17 77
REMARK Flexibility Score: inf
ROOT
ATOM      1  C   UNL A   1      44.019  22.244  25.579  1.00  0.00     0.023 C 
ENDROOT
BRANCH   1   2
ATOM      2  C   UNL A   1      43.283  23.253  24.696  1.00  0.00     0.023 C 
BRANCH   2   3
ATOM      3  C   UNL A   1      43.639  24.714  24.934  1.00  0.00     0.116 C 
BRANCH   3   4
ATOM      4  N   UNL A   1      45.072  24.937  25.032  1.00  0.00    -0.352 N 
ATOM      5  O   UNL A   1      46.970  25.959  25.699  1.00  0.00    -0.269 OA
ATOM      6  C   UNL A   1      45.766  25.781  25.864  1.00  0.00     0.251 C 
ATOM      7  H   UNL A   1      45.624  24.408  24.411  1.00  0.00     0.163 HD
BRANCH   6   8
ATOM      8  C   UNL A   1      45.058  26.497  26.948  1.00  0.00     0.039 A 
ATOM      9  C   UNL A   1      44.440  25.793  27.983  1.00  0.00     0.014 A 
ATOM     10  C   UNL A   1      45.028  27.895  26.935  1.00  0.00     0.014 A 
ATOM     11  C   UNL A   1      43.676  26.475  28.923  1.00  0.00     0.010 A 
ATOM     12  C   UNL A   1      44.331  28.585  27.933  1.00  0.00     0.010 A 
ATOM     13  C   UNL A   1      43.630  27.878  28.922  1.00  0.00    -0.014 A 
BRANCH  13  14
ATOM     14  C   UNL A   1      42.921  28.580  30.021  1.00  0.00     0.031 A 
ATOM     15  C   UNL A   1      41.556  29.177  29.823  1.00  0.00     0.074 A 
ATOM     16  C   UNL A   1      43.526  28.656  31.223  1.00  0.00     0.049 A 
ATOM     17  N   UNL A   1      40.804  29.812  30.687  1.00  0.00    -0.248 NA
ATOM     18  C   UNL A   1      40.958  29.057  28.484  1.00  0.00     0.031 C 
ATOM     19  C   UNL A   1      44.859  28.131  31.529  1.00  0.00     0.029 A 
ATOM     20  N   UNL A   1      43.100  29.190  32.413  1.00  0.00    -0.354 N 
ATOM     21  C   UNL A   1      39.656  30.181  29.997  1.00  0.00     0.074 A 
ATOM     22  C   UNL A   1      39.815  29.715  28.637  1.00  0.00     0.031 C 
ATOM     23  C   UNL A   1      45.126  28.331  32.827  1.00  0.00     0.029 A 
ATOM     24  C   UNL A   1      44.013  29.053  33.431  1.00  0.00     0.049 A 
ATOM     25  H   UNL A   1      42.226  29.627  32.527  1.00  0.00     0.167 HD
ATOM     26  C   UNL A   1      38.570  30.842  30.464  1.00  0.00     0.037 A 
ATOM     27  C   UNL A   1      43.971  29.479  34.706  1.00  0.00     0.037 A 
ATOM     28  C   UNL A   1      38.408  31.283  31.827  1.00  0.00     0.049 A 
ATOM     29  C   UNL A   1      42.760  30.224  35.185  1.00  0.00     0.074 A 
ATOM     30  C   UNL A   1      37.317  31.910  32.405  1.00  0.00     0.029 A 
ATOM     31  N   UNL A   1      39.364  31.147  32.822  1.00  0.00    -0.354 N 
ATOM     32  N   UNL A   1      41.663  30.521  34.532  1.00  0.00    -0.248 NA
ATOM     33  C   UNL A   1      42.782  30.697  36.574  1.00  0.00     0.031 C 
ATOM     34  C   UNL A   1      37.631  32.195  33.738  1.00  0.00     0.029 A 
ATOM     35  C   UNL A   1      38.899  31.706  34.002  1.00  0.00     0.049 A 
ATOM     36  H   UNL A   1      40.242  30.718  32.708  1.00  0.00     0.167 HD
ATOM     37  C   UNL A   1      40.860  31.205  35.434  1.00  0.00     0.074 A 
ATOM     38  C   UNL A   1      41.585  31.255  36.686  1.00  0.00     0.031 C 
ATOM     39  C   UNL A   1      39.635  31.751  35.238  1.00  0.00     0.037 A 
BRANCH  26  40
ATOM     40  C   UNL A   1      37.461  31.148  29.499  1.00  0.00     0.057 A 
ATOM     41  C   UNL A   1      36.428  30.238  29.248  1.00  0.00     0.134 A 
ATOM     42  C   UNL A   1      37.380  32.405  28.885  1.00  0.00     0.134 A 
ATOM     43  F   UNL A   1      36.450  29.015  29.800  1.00  0.00    -0.206 F 
ATOM     44  C   UNL A   1      35.354  30.565  28.416  1.00  0.00     0.040 A 
ATOM     45  C   UNL A   1      36.303  32.751  28.068  1.00  0.00     0.040 A 
ATOM     46  F   UNL A   1      38.333  33.326  29.091  1.00  0.00    -0.206 F 
ATOM     47  C   UNL A   1      35.285  31.828  27.832  1.00  0.00     0.006 A 
ENDBRANCH  26  40
BRANCH  27  48
ATOM     48  C   UNL A   1      45.123  29.235  35.608  1.00  0.00     0.057 A 
ATOM     49  C   UNL A   1      45.186  28.091  36.411  1.00  0.00     0.134 A 
ATOM     50  C   UNL A   1      46.185  30.142  35.690  1.00  0.00     0.134 A 
ATOM     51  F   UNL A   1      44.189  27.194  36.389  1.00  0.00    -0.206 F 
ATOM     52  C   UNL A   1      46.255  27.867  37.279  1.00  0.00     0.040 A 
ATOM     53  C   UNL A   1      47.274  29.918  36.532  1.00  0.00     0.040 A 
ATOM     54  F   UNL A   1      46.188  31.253  34.940  1.00  0.00    -0.206 F 
ATOM     55  C   UNL A   1      47.307  28.781  37.337  1.00  0.00     0.006 A 
ENDBRANCH  27  48
BRANCH  39  56
ATOM     56  C   UNL A   1      39.004  32.432  36.414  1.00  0.00     0.057 A 
ATOM     57  C   UNL A   1      39.294  33.763  36.735  1.00  0.00     0.134 A 
ATOM     58  C   UNL A   1      38.085  31.754  37.225  1.00  0.00     0.134 A 
ATOM     59  F   UNL A   1      40.180  34.461  36.007  1.00  0.00    -0.206 F 
ATOM     60  C   UNL A   1      38.711  34.391  37.837  1.00  0.00     0.040 A 
ATOM     61  C   UNL A   1      37.475  32.379  38.314  1.00  0.00     0.040 A 
ATOM     62  F   UNL A   1      37.758  30.479  36.967  1.00  0.00    -0.206 F 
ATOM     63  C   UNL A   1      37.794  33.699  38.626  1.00  0.00     0.006 A 
ENDBRANCH  39  56
ENDBRANCH  13  14
ENDBRANCH   6   8
ENDBRANCH   3   4
ENDBRANCH   2   3
ENDBRANCH   1   2
BRANCH   1  64
ATOM     64  C   UNL A   1      43.607  22.236  27.048  1.00  0.00     0.116 C 
BRANCH  64  65
ATOM     65  N   UNL A   1      42.554  21.271  27.327  1.00  0.00    -0.352 N 
ATOM     66  C   UNL A   1      41.218  21.474  27.552  1.00  0.00     0.253 C 
ATOM     67  H   UNL A   1      42.845  20.332  27.357  1.00  0.00     0.163 HD
ATOM     68  O   UNL A   1      40.515  20.532  27.907  1.00  0.00    -0.269 OA
BRANCH  66  69
ATOM     69  C   UNL A   1      40.610  22.808  27.375  1.00  0.00     0.063 A 
ATOM     70  C   UNL A   1      41.138  23.829  28.182  1.00  0.00     0.016 A 
ATOM     71  C   UNL A   1      39.523  23.053  26.509  1.00  0.00     0.054 A 
ATOM     72  C   UNL A   1      40.596  25.109  28.132  1.00  0.00     0.001 A 
ATOM     73  C   UNL A   1      38.957  24.332  26.526  1.00  0.00     0.027 A 
ATOM     74  C   UNL A   1      39.500  25.355  27.315  1.00  0.00     0.002 A 
BRANCH  71  75
ATOM     75  N   UNL A   1      39.035  22.001  25.696  1.00  0.00    -0.321 N 
ATOM     76  C   UNL A   1      37.793  21.673  25.208  1.00  0.00     0.255 C 
ATOM     77  H   UNL A   1      39.737  21.369  25.421  1.00  0.00     0.170 HD
ATOM     78  O   UNL A   1      37.648  20.640  24.555  1.00  0.00    -0.269 OA
BRANCH  76  79
ATOM     79  C   UNL A   1      36.621  22.542  25.400  1.00  0.00     0.040 A 
ATOM     80  C   UNL A   1      36.291  23.427  24.377  1.00  0.00     0.016 A 
ATOM     81  C   UNL A   1      35.842  22.482  26.556  1.00  0.00     0.016 A 
ATOM     82  C   UNL A   1      35.105  24.162  24.454  1.00  0.00     0.027 A 
ATOM     83  C   UNL A   1      34.662  23.231  26.630  1.00  0.00     0.027 A 
ATOM     84  C   UNL A   1      34.247  24.046  25.560  1.00  0.00     0.052 A 
BRANCH  84  85
ATOM     85  N   UNL A   1      32.963  24.663  25.567  1.00  0.00    -0.250 N 
ATOM     86  C   UNL A   1      32.733  25.959  25.969  1.00  0.00     0.238 C 
ATOM     87  C   UNL A   1      31.813  24.060  25.122  1.00  0.00     0.238 C 
ATOM     88  O   UNL A   1      33.528  26.763  26.442  1.00  0.00    -0.274 OA
ATOM     89  C   UNL A   1      31.288  26.320  25.711  1.00  0.00     0.096 C 
ATOM     90  C   UNL A   1      30.698  25.073  25.056  1.00  0.00     0.096 C 
ATOM     91  O   UNL A   1      31.638  22.881  24.833  1.00  0.00    -0.274 OA
ATOM     92  C   UNL A   1      31.212  27.605  24.882  1.00  0.00     0.041 C 
ATOM     93  C   UNL A   1      30.242  25.214  23.598  1.00  0.00     0.041 C 
ATOM     94  C   UNL A   1      31.449  27.363  23.422  1.00  0.00    -0.030 C 
ATOM     95  C   UNL A   1      31.005  26.248  22.829  1.00  0.00    -0.030 C 
ENDBRANCH  84  85
ENDBRANCH  76  79
ENDBRANCH  71  75
ENDBRANCH  66  69
ENDBRANCH  64  65
ENDBRANCH   1  64
TORSDOF 14
ENDMDL
