MODEL 1
REMARK VINA RESULT:     -11.4      0.000      0.000
REMARK SMILES CC(=O)N[C@@H](C(=O)NCCCCNC(=O)c1ccc(-c2c3nc(c(-c4c(F)cccc4F)c4ccc([nH]4)c(-c4c(F)cccc4F)c4nc(c(-c5c(F)cccc5F)c5ccc2[nH]5)C=C4)C=C3)cc1)C(c1ccccc1)c1ccccc1
REMARK SMILES IDX 10 1 9 2 8 3 6 4 7 5 5 7 4 8 1 9 2 10 3 11 70 13 71 14 72 15
REMARK SMILES IDX 76 16 73 17 75 18 74 19 77 20 78 21 82 22 79 23 81 24 80 25
REMARK SMILES IDX 11 26 12 27 13 28 14 29 15 31 16 32 17 33 69 34 18 35 68 36
REMARK SMILES IDX 19 37 20 38 21 39 62 40 22 41 67 42 61 43 63 44 23 45 66 46
REMARK SMILES IDX 60 47 59 48 24 50 50 51 33 52 49 53 34 54 37 55 48 56 64 57
REMARK SMILES IDX 35 58 36 59 47 61 65 62 38 63 25 64 26 65 31 66 27 67 28 68
REMARK SMILES IDX 30 69 32 70 29 71 51 72 52 73 57 74 53 75 54 76 56 77 58 78
REMARK SMILES IDX 55 79 39 80 40 81 45 82 41 83 42 84 44 85 46 86 43 87
REMARK H PARENT 8 6 4 12 13 30 63 49 37 60
REMARK Flexibility Score: inf
ROOT
ATOM      1  C   UNL A   1      31.395  27.465  26.813  1.00  0.00     0.023 C 
ENDROOT
BRANCH   1   2
ATOM      2  C   UNL A   1      31.138  26.120  26.131  1.00  0.00     0.116 C 
BRANCH   2   3
ATOM      3  N   UNL A   1      31.426  25.024  27.033  1.00  0.00    -0.354 N 
ATOM      4  C   UNL A   1      31.844  23.758  26.721  1.00  0.00     0.243 C 
ATOM      5  O   UNL A   1      31.696  22.888  27.581  1.00  0.00    -0.273 OA
ATOM      6  H   UNL A   1      31.306  25.213  27.991  1.00  0.00     0.163 HD
BRANCH   4   7
ATOM      7  C   UNL A   1      32.389  23.457  25.298  1.00  0.00     0.183 C 
BRANCH   7   8
ATOM      8  N   UNL A   1      32.731  22.026  25.355  1.00  0.00    -0.344 N 
ATOM      9  C   UNL A   1      32.145  21.484  23.011  1.00  0.00     0.114 C 
ATOM     10  C   UNL A   1      32.574  21.073  24.394  1.00  0.00     0.217 C 
ATOM     11  O   UNL A   1      32.767  19.894  24.687  1.00  0.00    -0.275 OA
ATOM     12  H   UNL A   1      33.126  21.717  26.201  1.00  0.00     0.164 HD
ENDBRANCH   7   8
BRANCH   7  13
ATOM     13  C   UNL A   1      33.581  24.434  24.967  1.00  0.00     0.081 C 
BRANCH  13  14
ATOM     14  C   UNL A   1      34.952  23.724  24.860  1.00  0.00    -0.038 A 
ATOM     15  C   UNL A   1      35.410  23.278  23.605  1.00  0.00     0.004 A 
ATOM     16  C   UNL A   1      35.762  23.433  25.972  1.00  0.00     0.004 A 
ATOM     17  C   UNL A   1      36.644  22.637  23.455  1.00  0.00     0.000 A 
ATOM     18  C   UNL A   1      36.966  22.733  25.832  1.00  0.00     0.000 A 
ATOM     19  C   UNL A   1      37.417  22.353  24.572  1.00  0.00     0.000 A 
ENDBRANCH  13  14
BRANCH  13  20
ATOM     20  C   UNL A   1      33.275  25.379  23.773  1.00  0.00    -0.038 A 
ATOM     21  C   UNL A   1      32.280  25.008  22.846  1.00  0.00     0.004 A 
ATOM     22  C   UNL A   1      33.951  26.592  23.544  1.00  0.00     0.004 A 
ATOM     23  C   UNL A   1      31.962  25.825  21.757  1.00  0.00     0.000 A 
ATOM     24  C   UNL A   1      33.659  27.388  22.431  1.00  0.00     0.000 A 
ATOM     25  C   UNL A   1      32.659  27.010  21.544  1.00  0.00     0.000 A 
ENDBRANCH  13  20
ENDBRANCH   7  13
ENDBRANCH   4   7
ENDBRANCH   2   3
ENDBRANCH   1   2
BRANCH   1  26
ATOM     26  C   UNL A   1      32.567  28.248  26.214  1.00  0.00     0.023 C 
BRANCH  26  27
ATOM     27  C   UNL A   1      33.671  28.599  27.206  1.00  0.00     0.116 C 
BRANCH  27  28
ATOM     28  N   UNL A   1      33.605  29.974  27.675  1.00  0.00    -0.352 N 
ATOM     29  C   UNL A   1      34.589  30.711  28.294  1.00  0.00     0.251 C 
ATOM     30  H   UNL A   1      32.749  30.436  27.530  1.00  0.00     0.163 HD
ATOM     31  O   UNL A   1      34.354  31.825  28.733  1.00  0.00    -0.269 OA
BRANCH  29  32
ATOM     32  C   UNL A   1      35.930  30.111  28.456  1.00  0.00     0.039 A 
ATOM     33  C   UNL A   1      36.816  30.148  27.378  1.00  0.00     0.014 A 
ATOM     34  C   UNL A   1      36.321  29.564  29.680  1.00  0.00     0.014 A 
ATOM     35  C   UNL A   1      38.124  29.694  27.549  1.00  0.00     0.010 A 
ATOM     36  C   UNL A   1      37.643  29.179  29.870  1.00  0.00     0.010 A 
ATOM     37  C   UNL A   1      38.558  29.241  28.807  1.00  0.00    -0.014 A 
BRANCH  37  38
ATOM     38  C   UNL A   1      39.965  28.828  29.031  1.00  0.00     0.031 A 
ATOM     39  C   UNL A   1      40.944  29.790  29.644  1.00  0.00     0.074 A 
ATOM     40  C   UNL A   1      40.375  27.609  28.628  1.00  0.00     0.049 A 
ATOM     41  N   UNL A   1      42.227  29.643  29.852  1.00  0.00    -0.248 NA
ATOM     42  C   UNL A   1      40.415  31.101  30.052  1.00  0.00     0.031 C 
ATOM     43  C   UNL A   1      39.532  26.601  27.979  1.00  0.00     0.029 A 
ATOM     44  N   UNL A   1      41.610  27.014  28.695  1.00  0.00    -0.354 N 
ATOM     45  C   UNL A   1      42.659  30.841  30.406  1.00  0.00     0.074 A 
ATOM     46  C   UNL A   1      41.514  31.726  30.448  1.00  0.00     0.031 C 
ATOM     47  C   UNL A   1      40.268  25.506  27.731  1.00  0.00     0.029 A 
ATOM     48  C   UNL A   1      41.640  25.745  28.165  1.00  0.00     0.049 A 
ATOM     49  H   UNL A   1      42.399  27.453  29.085  1.00  0.00     0.167 HD
ATOM     50  C   UNL A   1      43.890  31.167  30.864  1.00  0.00     0.037 A 
ATOM     51  C   UNL A   1      42.662  24.878  28.041  1.00  0.00     0.037 A 
ATOM     52  C   UNL A   1      45.021  30.279  30.844  1.00  0.00     0.049 A 
ATOM     53  C   UNL A   1      44.025  25.272  28.545  1.00  0.00     0.074 A 
ATOM     54  C   UNL A   1      46.300  30.500  31.326  1.00  0.00     0.029 A 
ATOM     55  N   UNL A   1      45.008  28.996  30.317  1.00  0.00    -0.354 N 
ATOM     56  N   UNL A   1      44.403  26.387  29.121  1.00  0.00    -0.248 NA
ATOM     57  C   UNL A   1      45.100  24.283  28.386  1.00  0.00     0.031 C 
ATOM     58  C   UNL A   1      47.071  29.364  31.054  1.00  0.00     0.029 A 
ATOM     59  C   UNL A   1      46.260  28.420  30.447  1.00  0.00     0.049 A 
ATOM     60  H   UNL A   1      44.224  28.560  29.909  1.00  0.00     0.167 HD
ATOM     61  C   UNL A   1      45.749  26.221  29.424  1.00  0.00     0.074 A 
ATOM     62  C   UNL A   1      46.116  24.892  28.979  1.00  0.00     0.031 C 
ATOM     63  C   UNL A   1      46.603  27.090  30.015  1.00  0.00     0.037 A 
BRANCH  50  64
ATOM     64  C   UNL A   1      44.075  32.540  31.440  1.00  0.00     0.057 A 
ATOM     65  C   UNL A   1      44.446  33.629  30.640  1.00  0.00     0.134 A 
ATOM     66  C   UNL A   1      43.837  32.787  32.798  1.00  0.00     0.134 A 
ATOM     67  F   UNL A   1      44.702  33.458  29.334  1.00  0.00    -0.206 F 
ATOM     68  C   UNL A   1      44.596  34.911  31.175  1.00  0.00     0.040 A 
ATOM     69  C   UNL A   1      43.956  34.069  33.338  1.00  0.00     0.040 A 
ATOM     70  F   UNL A   1      43.473  31.790  33.619  1.00  0.00    -0.206 F 
ATOM     71  C   UNL A   1      44.342  35.134  32.526  1.00  0.00     0.006 A 
ENDBRANCH  50  64
BRANCH  51  72
ATOM     72  C   UNL A   1      42.443  23.542  27.430  1.00  0.00     0.057 A 
ATOM     73  C   UNL A   1      42.582  23.347  26.051  1.00  0.00     0.134 A 
ATOM     74  C   UNL A   1      42.057  22.439  28.201  1.00  0.00     0.134 A 
ATOM     75  F   UNL A   1      42.930  24.370  25.258  1.00  0.00    -0.206 F 
ATOM     76  C   UNL A   1      42.318  22.113  25.455  1.00  0.00     0.040 A 
ATOM     77  C   UNL A   1      41.816  21.192  27.622  1.00  0.00     0.040 A 
ATOM     78  F   UNL A   1      41.913  22.557  29.529  1.00  0.00    -0.206 F 
ATOM     79  C   UNL A   1      41.936  21.029  26.243  1.00  0.00     0.006 A 
ENDBRANCH  51  72
BRANCH  63  80
ATOM     80  C   UNL A   1      48.006  26.615  30.258  1.00  0.00     0.057 A 
ATOM     81  C   UNL A   1      48.361  25.919  31.420  1.00  0.00     0.134 A 
ATOM     82  C   UNL A   1      49.004  26.824  29.298  1.00  0.00     0.134 A 
ATOM     83  F   UNL A   1      47.454  25.698  32.384  1.00  0.00    -0.206 F 
ATOM     84  C   UNL A   1      49.666  25.470  31.630  1.00  0.00     0.040 A 
ATOM     85  C   UNL A   1      50.305  26.356  29.484  1.00  0.00     0.040 A 
ATOM     86  F   UNL A   1      48.727  27.476  28.158  1.00  0.00    -0.206 F 
ATOM     87  C   UNL A   1      50.640  25.681  30.656  1.00  0.00     0.006 A 
ENDBRANCH  63  80
ENDBRANCH  37  38
ENDBRANCH  29  32
ENDBRANCH  27  28
ENDBRANCH  26  27
ENDBRANCH   1  26
TORSDOF 15
ENDMDL
MODEL 2
REMARK VINA RESULT:     -11.2      3.019      6.728
REMARK SMILES CC(=O)N[C@@H](C(=O)NCCCCNC(=O)c1ccc(-c2c3nc(c(-c4c(F)cccc4F)c4ccc([nH]4)c(-c4c(F)cccc4F)c4nc(c(-c5c(F)cccc5F)c5ccc2[nH]5)C=C4)C=C3)cc1)C(c1ccccc1)c1ccccc1
REMARK SMILES IDX 10 1 9 2 8 3 6 4 7 5 5 7 4 8 1 9 2 10 3 11 70 13 71 14 72 15
REMARK SMILES IDX 76 16 73 17 75 18 74 19 77 20 78 21 82 22 79 23 81 24 80 25
REMARK SMILES IDX 11 26 12 27 13 28 14 29 15 31 16 32 17 33 69 34 18 35 68 36
REMARK SMILES IDX 19 37 20 38 21 39 62 40 22 41 67 42 61 43 63 44 23 45 66 46
REMARK SMILES IDX 60 47 59 48 24 50 50 51 33 52 49 53 34 54 37 55 48 56 64 57
REMARK SMILES IDX 35 58 36 59 47 61 65 62 38 63 25 64 26 65 31 66 27 67 28 68
REMARK SMILES IDX 30 69 32 70 29 71 51 72 52 73 57 74 53 75 54 76 56 77 58 78
REMARK SMILES IDX 55 79 39 80 40 81 45 82 41 83 42 84 44 85 46 86 43 87
REMARK H PARENT 8 6 4 12 13 30 63 49 37 60
REMARK Flexibility Score: inf
ROOT
ATOM      1  C   UNL A   1      31.403  27.428  26.497  1.00  0.00     0.023 C 
ENDROOT
BRANCH   1   2
ATOM      2  C   UNL A   1      30.891  26.059  26.045  1.00  0.00     0.116 C 
BRANCH   2   3
ATOM      3  N   UNL A   1      31.306  25.024  26.969  1.00  0.00    -0.354 N 
ATOM      4  C   UNL A   1      31.821  23.790  26.682  1.00  0.00     0.243 C 
ATOM      5  O   UNL A   1      31.782  22.941  27.573  1.00  0.00    -0.273 OA
ATOM      6  H   UNL A   1      31.203  25.236  27.924  1.00  0.00     0.163 HD
BRANCH   4   7
ATOM      7  C   UNL A   1      32.340  23.487  25.249  1.00  0.00     0.183 C 
BRANCH   7   8
ATOM      8  N   UNL A   1      32.612  22.040  25.278  1.00  0.00    -0.344 N 
ATOM      9  C   UNL A   1      32.150  21.601  22.885  1.00  0.00     0.114 C 
ATOM     10  C   UNL A   1      32.472  21.127  24.277  1.00  0.00     0.217 C 
ATOM     11  O   UNL A   1      32.591  19.931  24.541  1.00  0.00    -0.275 OA
ATOM     12  H   UNL A   1      32.938  21.686  26.136  1.00  0.00     0.164 HD
ENDBRANCH   7   8
BRANCH   7  13
ATOM     13  C   UNL A   1      33.576  24.411  24.925  1.00  0.00     0.081 C 
BRANCH  13  14
ATOM     14  C   UNL A   1      34.908  23.634  24.783  1.00  0.00    -0.038 A 
ATOM     15  C   UNL A   1      35.676  23.354  25.930  1.00  0.00     0.004 A 
ATOM     16  C   UNL A   1      35.443  23.233  23.546  1.00  0.00     0.004 A 
ATOM     17  C   UNL A   1      36.882  22.650  25.855  1.00  0.00     0.000 A 
ATOM     18  C   UNL A   1      36.682  22.587  23.464  1.00  0.00     0.000 A 
ATOM     19  C   UNL A   1      37.392  22.277  24.619  1.00  0.00     0.000 A 
ENDBRANCH  13  14
BRANCH  13  20
ATOM     20  C   UNL A   1      33.304  25.398  23.758  1.00  0.00    -0.038 A 
ATOM     21  C   UNL A   1      32.294  25.092  22.825  1.00  0.00     0.004 A 
ATOM     22  C   UNL A   1      34.026  26.591  23.560  1.00  0.00     0.004 A 
ATOM     23  C   UNL A   1      32.004  25.950  21.759  1.00  0.00     0.000 A 
ATOM     24  C   UNL A   1      33.762  27.427  22.470  1.00  0.00     0.000 A 
ATOM     25  C   UNL A   1      32.746  27.112  21.577  1.00  0.00     0.000 A 
ENDBRANCH  13  20
ENDBRANCH   7  13
ENDBRANCH   4   7
ENDBRANCH   2   3
ENDBRANCH   1   2
BRANCH   1  26
ATOM     26  C   UNL A   1      31.623  28.417  25.349  1.00  0.00     0.023 C 
BRANCH  26  27
ATOM     27  C   UNL A   1      32.755  29.412  25.574  1.00  0.00     0.116 C 
BRANCH  27  28
ATOM     28  N   UNL A   1      32.291  30.724  25.996  1.00  0.00    -0.352 N 
ATOM     29  C   UNL A   1      32.860  31.575  26.915  1.00  0.00     0.251 C 
ATOM     30  H   UNL A   1      31.464  31.044  25.569  1.00  0.00     0.163 HD
ATOM     31  O   UNL A   1      32.295  32.604  27.250  1.00  0.00    -0.269 OA
BRANCH  29  32
ATOM     32  C   UNL A   1      34.154  31.200  27.524  1.00  0.00     0.039 A 
ATOM     33  C   UNL A   1      35.139  32.178  27.663  1.00  0.00     0.014 A 
ATOM     34  C   UNL A   1      34.366  29.903  27.999  1.00  0.00     0.014 A 
ATOM     35  C   UNL A   1      36.319  31.872  28.342  1.00  0.00     0.010 A 
ATOM     36  C   UNL A   1      35.510  29.621  28.736  1.00  0.00     0.010 A 
ATOM     37  C   UNL A   1      36.497  30.602  28.916  1.00  0.00    -0.014 A 
BRANCH  37  38
ATOM     38  C   UNL A   1      37.710  30.281  29.708  1.00  0.00     0.031 A 
ATOM     39  C   UNL A   1      38.756  29.362  29.142  1.00  0.00     0.074 A 
ATOM     40  C   UNL A   1      37.839  30.766  30.958  1.00  0.00     0.049 A 
ATOM     41  N   UNL A   1      39.846  28.904  29.704  1.00  0.00    -0.248 NA
ATOM     42  C   UNL A   1      38.536  28.873  27.771  1.00  0.00     0.031 C 
ATOM     43  C   UNL A   1      36.871  31.631  31.638  1.00  0.00     0.029 A 
ATOM     44  N   UNL A   1      38.835  30.593  31.886  1.00  0.00    -0.354 N 
ATOM     45  C   UNL A   1      40.434  28.070  28.762  1.00  0.00     0.074 A 
ATOM     46  C   UNL A   1      39.552  28.037  27.615  1.00  0.00     0.031 C 
ATOM     47  C   UNL A   1      37.332  31.931  32.862  1.00  0.00     0.029 A 
ATOM     48  C   UNL A   1      38.606  31.252  33.071  1.00  0.00     0.049 A 
ATOM     49  H   UNL A   1      39.637  30.048  31.719  1.00  0.00     0.167 HD
ATOM     50  C   UNL A   1      41.613  27.411  28.835  1.00  0.00     0.037 A 
ATOM     51  C   UNL A   1      39.340  31.296  34.199  1.00  0.00     0.037 A 
ATOM     52  C   UNL A   1      42.500  27.462  29.967  1.00  0.00     0.049 A 
ATOM     53  C   UNL A   1      40.641  30.542  34.258  1.00  0.00     0.074 A 
ATOM     54  C   UNL A   1      43.740  26.866  30.119  1.00  0.00     0.029 A 
ATOM     55  N   UNL A   1      42.242  28.155  31.140  1.00  0.00    -0.354 N 
ATOM     56  N   UNL A   1      41.213  29.805  33.336  1.00  0.00    -0.248 NA
ATOM     57  C   UNL A   1      41.402  30.632  35.512  1.00  0.00     0.031 C 
ATOM     58  C   UNL A   1      44.215  27.166  31.400  1.00  0.00     0.029 A 
ATOM     59  C   UNL A   1      43.292  27.988  32.027  1.00  0.00     0.049 A 
ATOM     60  H   UNL A   1      41.432  28.687  31.316  1.00  0.00     0.167 HD
ATOM     61  C   UNL A   1      42.413  29.372  33.886  1.00  0.00     0.074 A 
ATOM     62  C   UNL A   1      42.492  29.940  35.215  1.00  0.00     0.031 C 
ATOM     63  C   UNL A   1      43.363  28.575  33.340  1.00  0.00     0.037 A 
BRANCH  50  64
ATOM     64  C   UNL A   1      42.022  26.587  27.649  1.00  0.00     0.057 A 
ATOM     65  C   UNL A   1      41.652  25.240  27.527  1.00  0.00     0.134 A 
ATOM     66  C   UNL A   1      42.754  27.154  26.599  1.00  0.00     0.134 A 
ATOM     67  F   UNL A   1      40.962  24.633  28.505  1.00  0.00    -0.206 F 
ATOM     68  C   UNL A   1      42.014  24.482  26.412  1.00  0.00     0.040 A 
ATOM     69  C   UNL A   1      43.097  26.413  25.466  1.00  0.00     0.040 A 
ATOM     70  F   UNL A   1      43.135  28.439  26.649  1.00  0.00    -0.206 F 
ATOM     71  C   UNL A   1      42.732  25.071  25.374  1.00  0.00     0.006 A 
ENDBRANCH  50  64
BRANCH  51  72
ATOM     72  C   UNL A   1      38.881  32.096  35.363  1.00  0.00     0.057 A 
ATOM     73  C   UNL A   1      39.186  33.458  35.469  1.00  0.00     0.134 A 
ATOM     74  C   UNL A   1      38.158  31.515  36.411  1.00  0.00     0.134 A 
ATOM     75  F   UNL A   1      39.894  34.066  34.506  1.00  0.00    -0.206 F 
ATOM     76  C   UNL A   1      38.816  34.207  36.585  1.00  0.00     0.040 A 
ATOM     77  C   UNL A   1      37.757  32.259  37.522  1.00  0.00     0.040 A 
ATOM     78  F   UNL A   1      37.827  30.216  36.368  1.00  0.00    -0.206 F 
ATOM     79  C   UNL A   1      38.095  33.607  37.617  1.00  0.00     0.006 A 
ENDBRANCH  51  72
BRANCH  63  80
ATOM     80  C   UNL A   1      44.591  28.309  34.161  1.00  0.00     0.057 A 
ATOM     81  C   UNL A   1      45.686  29.182  34.158  1.00  0.00     0.134 A 
ATOM     82  C   UNL A   1      44.659  27.185  34.993  1.00  0.00     0.134 A 
ATOM     83  F   UNL A   1      45.687  30.270  33.373  1.00  0.00    -0.206 F 
ATOM     84  C   UNL A   1      46.817  28.931  34.937  1.00  0.00     0.040 A 
ATOM     85  C   UNL A   1      45.773  26.938  35.796  1.00  0.00     0.040 A 
ATOM     86  F   UNL A   1      43.640  26.314  35.048  1.00  0.00    -0.206 F 
ATOM     87  C   UNL A   1      46.860  27.811  35.764  1.00  0.00     0.006 A 
ENDBRANCH  63  80
ENDBRANCH  37  38
ENDBRANCH  29  32
ENDBRANCH  27  28
ENDBRANCH  26  27
ENDBRANCH   1  26
TORSDOF 15
ENDMDL
MODEL 3
REMARK VINA RESULT:     -11.2      2.696      7.683
REMARK SMILES CC(=O)N[C@@H](C(=O)NCCCCNC(=O)c1ccc(-c2c3nc(c(-c4c(F)cccc4F)c4ccc([nH]4)c(-c4c(F)cccc4F)c4nc(c(-c5c(F)cccc5F)c5ccc2[nH]5)C=C4)C=C3)cc1)C(c1ccccc1)c1ccccc1
REMARK SMILES IDX 10 1 9 2 8 3 6 4 7 5 5 7 4 8 1 9 2 10 3 11 70 13 71 14 72 15
REMARK SMILES IDX 76 16 73 17 75 18 74 19 77 20 78 21 82 22 79 23 81 24 80 25
REMARK SMILES IDX 11 26 12 27 13 28 14 29 15 31 16 32 17 33 69 34 18 35 68 36
REMARK SMILES IDX 19 37 20 38 21 39 62 40 22 41 67 42 61 43 63 44 23 45 66 46
REMARK SMILES IDX 60 47 59 48 24 50 50 51 33 52 49 53 34 54 37 55 48 56 64 57
REMARK SMILES IDX 35 58 36 59 47 61 65 62 38 63 25 64 26 65 31 66 27 67 28 68
REMARK SMILES IDX 30 69 32 70 29 71 51 72 52 73 57 74 53 75 54 76 56 77 58 78
REMARK SMILES IDX 55 79 39 80 40 81 45 82 41 83 42 84 44 85 46 86 43 87
REMARK H PARENT 8 6 4 12 13 30 63 49 37 60
REMARK Flexibility Score: inf
ROOT
ATOM      1  C   UNL A   1      34.378  22.803  25.589  1.00  0.00     0.023 C 
ENDROOT
BRANCH   1   2
ATOM      2  C   UNL A   1      33.821  23.524  26.817  1.00  0.00     0.116 C 
BRANCH   2   3
ATOM      3  N   UNL A   1      32.423  23.197  27.014  1.00  0.00    -0.354 N 
ATOM      4  C   UNL A   1      31.327  23.975  26.756  1.00  0.00     0.243 C 
ATOM      5  O   UNL A   1      30.271  23.662  27.308  1.00  0.00    -0.273 OA
ATOM      6  H   UNL A   1      32.239  22.303  27.381  1.00  0.00     0.163 HD
BRANCH   4   7
ATOM      7  C   UNL A   1      31.476  25.243  25.872  1.00  0.00     0.183 C 
BRANCH   7   8
ATOM      8  N   UNL A   1      30.948  26.322  26.724  1.00  0.00    -0.344 N 
ATOM      9  C   UNL A   1      32.922  27.810  26.581  1.00  0.00     0.114 C 
ATOM     10  C   UNL A   1      31.570  27.459  27.143  1.00  0.00     0.217 C 
ATOM     11  O   UNL A   1      31.020  28.162  27.989  1.00  0.00    -0.275 OA
ATOM     12  H   UNL A   1      30.021  26.205  27.032  1.00  0.00     0.164 HD
ENDBRANCH   7   8
BRANCH   7  13
ATOM     13  C   UNL A   1      30.730  25.026  24.500  1.00  0.00     0.081 C 
BRANCH  13  14
ATOM     14  C   UNL A   1      30.062  26.310  23.949  1.00  0.00    -0.038 A 
ATOM     15  C   UNL A   1      30.866  27.383  23.517  1.00  0.00     0.004 A 
ATOM     16  C   UNL A   1      28.669  26.501  23.908  1.00  0.00     0.004 A 
ATOM     17  C   UNL A   1      30.311  28.560  23.006  1.00  0.00     0.000 A 
ATOM     18  C   UNL A   1      28.114  27.705  23.458  1.00  0.00     0.000 A 
ATOM     19  C   UNL A   1      28.933  28.726  22.988  1.00  0.00     0.000 A 
ENDBRANCH  13  14
BRANCH  13  20
ATOM     20  C   UNL A   1      31.596  24.277  23.452  1.00  0.00    -0.038 A 
ATOM     21  C   UNL A   1      31.501  22.874  23.364  1.00  0.00     0.004 A 
ATOM     22  C   UNL A   1      32.499  24.918  22.582  1.00  0.00     0.004 A 
ATOM     23  C   UNL A   1      32.255  22.151  22.434  1.00  0.00     0.000 A 
ATOM     24  C   UNL A   1      33.282  24.190  21.681  1.00  0.00     0.000 A 
ATOM     25  C   UNL A   1      33.153  22.809  21.600  1.00  0.00     0.000 A 
ENDBRANCH  13  20
ENDBRANCH   7  13
ENDBRANCH   4   7
ENDBRANCH   2   3
ENDBRANCH   1   2
BRANCH   1  26
ATOM     26  C   UNL A   1      35.489  23.574  24.870  1.00  0.00     0.023 C 
BRANCH  26  27
ATOM     27  C   UNL A   1      36.721  23.858  25.722  1.00  0.00     0.116 C 
BRANCH  27  28
ATOM     28  N   UNL A   1      37.596  22.705  25.867  1.00  0.00    -0.352 N 
ATOM     29  C   UNL A   1      38.896  22.674  26.316  1.00  0.00     0.251 C 
ATOM     30  H   UNL A   1      37.209  21.838  25.611  1.00  0.00     0.163 HD
ATOM     31  O   UNL A   1      39.546  21.642  26.280  1.00  0.00    -0.269 OA
BRANCH  29  32
ATOM     32  C   UNL A   1      39.509  23.927  26.807  1.00  0.00     0.039 A 
ATOM     33  C   UNL A   1      40.057  24.813  25.879  1.00  0.00     0.014 A 
ATOM     34  C   UNL A   1      39.492  24.240  28.168  1.00  0.00     0.014 A 
ATOM     35  C   UNL A   1      40.532  26.052  26.311  1.00  0.00     0.010 A 
ATOM     36  C   UNL A   1      39.899  25.502  28.587  1.00  0.00     0.010 A 
ATOM     37  C   UNL A   1      40.422  26.420  27.663  1.00  0.00    -0.014 A 
BRANCH  37  38
ATOM     38  C   UNL A   1      40.849  27.762  28.131  1.00  0.00     0.031 A 
ATOM     39  C   UNL A   1      42.309  28.117  28.165  1.00  0.00     0.074 A 
ATOM     40  C   UNL A   1      39.927  28.636  28.581  1.00  0.00     0.049 A 
ATOM     41  N   UNL A   1      42.884  29.206  28.607  1.00  0.00    -0.248 NA
ATOM     42  C   UNL A   1      43.248  27.104  27.659  1.00  0.00     0.031 C 
ATOM     43  C   UNL A   1      38.484  28.393  28.642  1.00  0.00     0.029 A 
ATOM     44  N   UNL A   1      40.070  29.905  29.084  1.00  0.00    -0.354 N 
ATOM     45  C   UNL A   1      44.248  29.006  28.441  1.00  0.00     0.074 A 
ATOM     46  C   UNL A   1      44.419  27.670  27.912  1.00  0.00     0.031 C 
ATOM     47  C   UNL A   1      37.873  29.485  29.130  1.00  0.00     0.029 A 
ATOM     48  C   UNL A   1      38.881  30.490  29.452  1.00  0.00     0.049 A 
ATOM     49  H   UNL A   1      40.941  30.354  29.174  1.00  0.00     0.167 HD
ATOM     50  C   UNL A   1      45.265  29.865  28.681  1.00  0.00     0.037 A 
ATOM     51  C   UNL A   1      38.635  31.698  29.994  1.00  0.00     0.037 A 
ATOM     52  C   UNL A   1      45.092  31.202  29.184  1.00  0.00     0.049 A 
ATOM     53  C   UNL A   1      39.787  32.628  30.264  1.00  0.00     0.074 A 
ATOM     54  C   UNL A   1      46.057  32.167  29.418  1.00  0.00     0.029 A 
ATOM     55  N   UNL A   1      43.872  31.765  29.527  1.00  0.00    -0.354 N 
ATOM     56  N   UNL A   1      41.067  32.447  30.046  1.00  0.00    -0.248 NA
ATOM     57  C   UNL A   1      39.457  33.935  30.851  1.00  0.00     0.031 C 
ATOM     58  C   UNL A   1      45.423  33.300  29.940  1.00  0.00     0.029 A 
ATOM     59  C   UNL A   1      44.060  33.057  29.986  1.00  0.00     0.049 A 
ATOM     60  H   UNL A   1      43.000  31.311  29.455  1.00  0.00     0.167 HD
ATOM     61  C   UNL A   1      41.690  33.625  30.435  1.00  0.00     0.074 A 
ATOM     62  C   UNL A   1      40.646  34.519  30.892  1.00  0.00     0.031 C 
ATOM     63  C   UNL A   1      43.008  33.939  30.419  1.00  0.00     0.037 A 
BRANCH  50  64
ATOM     64  C   UNL A   1      46.658  29.391  28.388  1.00  0.00     0.057 A 
ATOM     65  C   UNL A   1      47.249  29.578  27.131  1.00  0.00     0.134 A 
ATOM     66  C   UNL A   1      47.434  28.783  29.383  1.00  0.00     0.134 A 
ATOM     67  F   UNL A   1      46.554  30.141  26.130  1.00  0.00    -0.206 F 
ATOM     68  C   UNL A   1      48.554  29.157  26.867  1.00  0.00     0.040 A 
ATOM     69  C   UNL A   1      48.749  28.383  29.139  1.00  0.00     0.040 A 
ATOM     70  F   UNL A   1      46.932  28.579  30.610  1.00  0.00    -0.206 F 
ATOM     71  C   UNL A   1      49.310  28.565  27.876  1.00  0.00     0.006 A 
ENDBRANCH  50  64
BRANCH  51  72
ATOM     72  C   UNL A   1      37.243  32.113  30.302  1.00  0.00     0.057 A 
ATOM     73  C   UNL A   1      36.478  32.820  29.367  1.00  0.00     0.134 A 
ATOM     74  C   UNL A   1      36.657  31.846  31.545  1.00  0.00     0.134 A 
ATOM     75  F   UNL A   1      36.991  33.123  28.167  1.00  0.00    -0.206 F 
ATOM     76  C   UNL A   1      35.192  33.272  29.665  1.00  0.00     0.040 A 
ATOM     77  C   UNL A   1      35.361  32.268  31.847  1.00  0.00     0.040 A 
ATOM     78  F   UNL A   1      37.334  31.167  32.482  1.00  0.00    -0.206 F 
ATOM     79  C   UNL A   1      34.628  32.993  30.909  1.00  0.00     0.006 A 
ENDBRANCH  51  72
BRANCH  63  80
ATOM     80  C   UNL A   1      43.390  35.321  30.863  1.00  0.00     0.057 A 
ATOM     81  C   UNL A   1      43.533  36.377  29.955  1.00  0.00     0.134 A 
ATOM     82  C   UNL A   1      43.579  35.604  32.222  1.00  0.00     0.134 A 
ATOM     83  F   UNL A   1      43.378  36.168  28.639  1.00  0.00    -0.206 F 
ATOM     84  C   UNL A   1      43.876  37.661  30.380  1.00  0.00     0.040 A 
ATOM     85  C   UNL A   1      43.895  36.890  32.662  1.00  0.00     0.040 A 
ATOM     86  F   UNL A   1      43.448  34.638  33.143  1.00  0.00    -0.206 F 
ATOM     87  C   UNL A   1      44.050  37.922  31.738  1.00  0.00     0.006 A 
ENDBRANCH  63  80
ENDBRANCH  37  38
ENDBRANCH  29  32
ENDBRANCH  27  28
ENDBRANCH  26  27
ENDBRANCH   1  26
TORSDOF 15
ENDMDL
