MODEL 1
REMARK VINA RESULT:     -10.2      0.000      0.000
REMARK SMILES O=C(NCCCCNC(=O)[C@@H]1CC(=O)N(CCO)C1)c1ccc(-c2c3nc(c(-c4c(F)cccc4F)c4ccc([nH]4)c(-c4c(F)cccc4F)c4nc(c(-c5c(F)cccc5F)c5ccc2[nH]5)C=C4)C=C3)cc1
REMARK SMILES IDX 6 1 5 2 4 3 3 4 1 5 2 6 20 8 21 9 73 10 22 11 72 12 23 13
REMARK SMILES IDX 24 14 25 15 66 16 26 17 71 18 65 19 67 20 27 21 70 22 64 23
REMARK SMILES IDX 63 24 28 26 54 27 37 28 53 29 38 30 41 31 52 32 68 33 39 34
REMARK SMILES IDX 40 35 51 37 69 38 42 39 29 40 30 41 35 42 31 43 32 44 34 45
REMARK SMILES IDX 36 46 33 47 55 48 56 49 61 50 57 51 58 52 60 53 62 54 59 55
REMARK SMILES IDX 43 56 44 57 49 58 45 59 46 60 48 61 50 62 47 63 7 64 8 65
REMARK SMILES IDX 9 66 10 68 11 69 12 70 19 71 13 72 15 73 14 74 16 75 17 76
REMARK SMILES IDX 18 77
REMARK H PARENT 3 7 67 25 41 36 8 67 18 78
REMARK Flexibility Score: inf
ROOT
ATOM      1  C   UNL A   1      36.525  20.715  25.049  1.00  0.00     0.023 C 
ENDROOT
BRANCH   1   2
ATOM      2  C   UNL A   1      37.807  19.912  24.837  1.00  0.00     0.023 C 
BRANCH   2   3
ATOM      3  C   UNL A   1      38.942  20.265  25.788  1.00  0.00     0.116 C 
BRANCH   3   4
ATOM      4  N   UNL A   1      39.988  19.253  25.834  1.00  0.00    -0.352 N 
ATOM      5  O   UNL A   1      42.112  18.491  25.992  1.00  0.00    -0.269 OA
ATOM      6  C   UNL A   1      41.325  19.421  26.113  1.00  0.00     0.251 C 
ATOM      7  H   UNL A   1      39.703  18.331  25.640  1.00  0.00     0.163 HD
BRANCH   6   8
ATOM      8  C   UNL A   1      41.800  20.755  26.533  1.00  0.00     0.039 A 
ATOM      9  C   UNL A   1      41.832  21.085  27.890  1.00  0.00     0.014 A 
ATOM     10  C   UNL A   1      42.164  21.694  25.566  1.00  0.00     0.014 A 
ATOM     11  C   UNL A   1      42.075  22.396  28.269  1.00  0.00     0.010 A 
ATOM     12  C   UNL A   1      42.514  22.988  25.960  1.00  0.00     0.010 A 
ATOM     13  C   UNL A   1      42.448  23.356  27.313  1.00  0.00    -0.014 A 
BRANCH  13  14
ATOM     14  C   UNL A   1      42.853  24.704  27.781  1.00  0.00     0.031 A 
ATOM     15  C   UNL A   1      44.297  25.112  27.864  1.00  0.00     0.074 A 
ATOM     16  C   UNL A   1      41.879  25.580  28.098  1.00  0.00     0.049 A 
ATOM     17  N   UNL A   1      44.804  26.264  28.230  1.00  0.00    -0.248 NA
ATOM     18  C   UNL A   1      45.303  24.104  27.497  1.00  0.00     0.031 C 
ATOM     19  C   UNL A   1      40.443  25.287  28.067  1.00  0.00     0.029 A 
ATOM     20  N   UNL A   1      41.939  26.892  28.487  1.00  0.00    -0.354 N 
ATOM     21  C   UNL A   1      46.182  26.118  28.150  1.00  0.00     0.074 A 
ATOM     22  C   UNL A   1      46.436  24.756  27.728  1.00  0.00     0.031 C 
ATOM     23  C   UNL A   1      39.758  26.398  28.367  1.00  0.00     0.029 A 
ATOM     24  C   UNL A   1      40.704  27.458  28.690  1.00  0.00     0.049 A 
ATOM     25  H   UNL A   1      42.784  27.382  28.608  1.00  0.00     0.167 HD
ATOM     26  C   UNL A   1      47.143  27.041  28.399  1.00  0.00     0.037 A 
ATOM     27  C   UNL A   1      40.365  28.687  29.117  1.00  0.00     0.037 A 
ATOM     28  C   UNL A   1      46.878  28.396  28.816  1.00  0.00     0.049 A 
ATOM     29  C   UNL A   1      41.455  29.670  29.427  1.00  0.00     0.074 A 
ATOM     30  C   UNL A   1      47.783  29.413  29.067  1.00  0.00     0.029 A 
ATOM     31  N   UNL A   1      45.615  28.921  29.050  1.00  0.00    -0.354 N 
ATOM     32  N   UNL A   1      42.753  29.527  29.311  1.00  0.00    -0.248 NA
ATOM     33  C   UNL A   1      41.033  30.982  29.930  1.00  0.00     0.031 C 
ATOM     34  C   UNL A   1      47.073  30.535  29.506  1.00  0.00     0.029 A 
ATOM     35  C   UNL A   1      45.720  30.239  29.471  1.00  0.00     0.049 A 
ATOM     36  H   UNL A   1      44.769  28.431  28.936  1.00  0.00     0.167 HD
ATOM     37  C   UNL A   1      43.303  30.738  29.708  1.00  0.00     0.074 A 
ATOM     38  C   UNL A   1      42.194  31.611  30.039  1.00  0.00     0.031 C 
ATOM     39  C   UNL A   1      44.607  31.094  29.797  1.00  0.00     0.037 A 
BRANCH  26  40
ATOM     40  C   UNL A   1      48.578  26.621  28.246  1.00  0.00     0.057 A 
ATOM     41  C   UNL A   1      49.322  26.116  29.320  1.00  0.00     0.134 A 
ATOM     42  C   UNL A   1      49.202  26.655  26.991  1.00  0.00     0.134 A 
ATOM     43  F   UNL A   1      48.790  26.063  30.550  1.00  0.00    -0.206 F 
ATOM     44  C   UNL A   1      50.638  25.675  29.154  1.00  0.00     0.040 A 
ATOM     45  C   UNL A   1      50.506  26.193  26.808  1.00  0.00     0.040 A 
ATOM     46  F   UNL A   1      48.545  27.118  25.916  1.00  0.00    -0.206 F 
ATOM     47  C   UNL A   1      51.230  25.703  27.893  1.00  0.00     0.006 A 
ENDBRANCH  26  40
BRANCH  27  48
ATOM     48  C   UNL A   1      38.936  29.042  29.302  1.00  0.00     0.057 A 
ATOM     49  C   UNL A   1      38.178  29.574  28.253  1.00  0.00     0.134 A 
ATOM     50  C   UNL A   1      38.297  28.870  30.537  1.00  0.00     0.134 A 
ATOM     51  F   UNL A   1      38.737  29.774  27.050  1.00  0.00    -0.206 F 
ATOM     52  C   UNL A   1      36.845  29.946  28.431  1.00  0.00     0.040 A 
ATOM     53  C   UNL A   1      36.955  29.205  30.719  1.00  0.00     0.040 A 
ATOM     54  F   UNL A   1      38.964  28.354  31.580  1.00  0.00    -0.206 F 
ATOM     55  C   UNL A   1      36.229  29.757  29.667  1.00  0.00     0.006 A 
ENDBRANCH  27  48
BRANCH  39  56
ATOM     56  C   UNL A   1      44.897  32.499  30.240  1.00  0.00     0.057 A 
ATOM     57  C   UNL A   1      44.976  33.562  29.331  1.00  0.00     0.134 A 
ATOM     58  C   UNL A   1      45.093  32.792  31.595  1.00  0.00     0.134 A 
ATOM     59  F   UNL A   1      44.816  33.346  28.017  1.00  0.00    -0.206 F 
ATOM     60  C   UNL A   1      45.275  34.859  29.750  1.00  0.00     0.040 A 
ATOM     61  C   UNL A   1      45.360  34.090  32.030  1.00  0.00     0.040 A 
ATOM     62  F   UNL A   1      45.023  31.822  32.520  1.00  0.00    -0.206 F 
ATOM     63  C   UNL A   1      45.461  35.127  31.104  1.00  0.00     0.006 A 
ENDBRANCH  39  56
ENDBRANCH  13  14
ENDBRANCH   6   8
ENDBRANCH   3   4
ENDBRANCH   2   3
ENDBRANCH   1   2
BRANCH   1  64
ATOM     64  C   UNL A   1      36.714  22.225  24.922  1.00  0.00     0.116 C 
BRANCH  64  65
ATOM     65  N   UNL A   1      35.785  22.783  23.957  1.00  0.00    -0.356 N 
ATOM     66  C   UNL A   1      34.665  23.530  24.190  1.00  0.00     0.225 C 
ATOM     67  H   UNL A   1      35.989  22.600  23.011  1.00  0.00     0.163 HD
ATOM     68  O   UNL A   1      33.923  23.793  23.248  1.00  0.00    -0.275 OA
BRANCH  66  69
ATOM     69  C   UNL A   1      34.446  24.067  25.590  1.00  0.00     0.107 C 
ATOM     70  C   UNL A   1      33.454  23.253  26.416  1.00  0.00     0.115 C 
ATOM     71  C   UNL A   1      33.861  25.468  25.471  1.00  0.00     0.133 C 
ATOM     72  C   UNL A   1      32.330  24.198  26.729  1.00  0.00     0.223 C 
ATOM     73  N   UNL A   1      32.615  25.434  26.188  1.00  0.00    -0.340 N 
ATOM     74  O   UNL A   1      31.340  23.906  27.384  1.00  0.00    -0.275 OA
BRANCH  73  75
ATOM     75  C   UNL A   1      31.670  26.548  26.178  1.00  0.00     0.147 C 
BRANCH  75  76
ATOM     76  C   UNL A   1      32.051  27.689  27.119  1.00  0.00     0.177 C 
BRANCH  76  77
ATOM     77  O   UNL A   1      31.071  27.853  28.144  1.00  0.00    -0.395 OA
ATOM     78  H   UNL A   1      30.697  28.746  28.093  1.00  0.00     0.210 HD
ENDBRANCH  76  77
ENDBRANCH  75  76
ENDBRANCH  73  75
ENDBRANCH  66  69
ENDBRANCH  64  65
ENDBRANCH   1  64
TORSDOF 14
ENDMDL
MODEL 2
REMARK VINA RESULT:     -10.2      5.171      9.969
REMARK SMILES O=C(NCCCCNC(=O)[C@@H]1CC(=O)N(CCO)C1)c1ccc(-c2c3nc(c(-c4c(F)cccc4F)c4ccc([nH]4)c(-c4c(F)cccc4F)c4nc(c(-c5c(F)cccc5F)c5ccc2[nH]5)C=C4)C=C3)cc1
REMARK SMILES IDX 6 1 5 2 4 3 3 4 1 5 2 6 20 8 21 9 73 10 22 11 72 12 23 13
REMARK SMILES IDX 24 14 25 15 66 16 26 17 71 18 65 19 67 20 27 21 70 22 64 23
REMARK SMILES IDX 63 24 28 26 54 27 37 28 53 29 38 30 41 31 52 32 68 33 39 34
REMARK SMILES IDX 40 35 51 37 69 38 42 39 29 40 30 41 35 42 31 43 32 44 34 45
REMARK SMILES IDX 36 46 33 47 55 48 56 49 61 50 57 51 58 52 60 53 62 54 59 55
REMARK SMILES IDX 43 56 44 57 49 58 45 59 46 60 48 61 50 62 47 63 7 64 8 65
REMARK SMILES IDX 9 66 10 68 11 69 12 70 19 71 13 72 15 73 14 74 16 75 17 76
REMARK SMILES IDX 18 77
REMARK H PARENT 3 7 67 25 41 36 8 67 18 78
REMARK Flexibility Score: inf
ROOT
ATOM      1  C   UNL A   1      32.165  30.011  27.231  1.00  0.00     0.023 C 
ENDROOT
BRANCH   1   2
ATOM      2  C   UNL A   1      31.735  31.441  26.906  1.00  0.00     0.023 C 
BRANCH   2   3
ATOM      3  C   UNL A   1      32.876  32.445  26.829  1.00  0.00     0.116 C 
BRANCH   3   4
ATOM      4  N   UNL A   1      32.527  33.753  27.366  1.00  0.00    -0.352 N 
ATOM      5  O   UNL A   1      32.599  35.458  28.851  1.00  0.00    -0.269 OA
ATOM      6  C   UNL A   1      33.083  34.411  28.438  1.00  0.00     0.251 C 
ATOM      7  H   UNL A   1      31.799  34.227  26.902  1.00  0.00     0.163 HD
BRANCH   6   8
ATOM      8  C   UNL A   1      34.260  33.816  29.103  1.00  0.00     0.039 A 
ATOM      9  C   UNL A   1      35.543  34.248  28.761  1.00  0.00     0.014 A 
ATOM     10  C   UNL A   1      34.082  32.789  30.032  1.00  0.00     0.014 A 
ATOM     11  C   UNL A   1      36.647  33.549  29.226  1.00  0.00     0.010 A 
ATOM     12  C   UNL A   1      35.199  32.156  30.583  1.00  0.00     0.010 A 
ATOM     13  C   UNL A   1      36.490  32.515  30.165  1.00  0.00    -0.014 A 
BRANCH  13  14
ATOM     14  C   UNL A   1      37.705  31.901  30.755  1.00  0.00     0.031 A 
ATOM     15  C   UNL A   1      38.203  32.287  32.119  1.00  0.00     0.074 A 
ATOM     16  C   UNL A   1      38.340  30.950  30.043  1.00  0.00     0.049 A 
ATOM     17  N   UNL A   1      39.235  31.820  32.778  1.00  0.00    -0.248 NA
ATOM     18  C   UNL A   1      37.456  33.330  32.839  1.00  0.00     0.031 C 
ATOM     19  C   UNL A   1      37.952  30.505  28.700  1.00  0.00     0.029 A 
ATOM     20  N   UNL A   1      39.424  30.170  30.347  1.00  0.00    -0.354 N 
ATOM     21  C   UNL A   1      39.271  32.517  33.978  1.00  0.00     0.074 A 
ATOM     22  C   UNL A   1      38.173  33.460  33.948  1.00  0.00     0.031 C 
ATOM     23  C   UNL A   1      38.749  29.498  28.321  1.00  0.00     0.029 A 
ATOM     24  C   UNL A   1      39.752  29.279  29.353  1.00  0.00     0.049 A 
ATOM     25  H   UNL A   1      39.920  30.240  31.194  1.00  0.00     0.167 HD
ATOM     26  C   UNL A   1      40.137  32.373  35.011  1.00  0.00     0.037 A 
ATOM     27  C   UNL A   1      40.765  28.400  29.268  1.00  0.00     0.037 A 
ATOM     28  C   UNL A   1      41.225  31.427  35.031  1.00  0.00     0.049 A 
ATOM     29  C   UNL A   1      41.732  28.297  30.409  1.00  0.00     0.074 A 
ATOM     30  C   UNL A   1      42.141  31.188  36.041  1.00  0.00     0.029 A 
ATOM     31  N   UNL A   1      41.550  30.569  33.989  1.00  0.00    -0.354 N 
ATOM     32  N   UNL A   1      41.730  28.938  31.553  1.00  0.00    -0.248 NA
ATOM     33  C   UNL A   1      42.844  27.354  30.248  1.00  0.00     0.031 C 
ATOM     34  C   UNL A   1      43.051  30.226  35.592  1.00  0.00     0.029 A 
ATOM     35  C   UNL A   1      42.669  29.821  34.323  1.00  0.00     0.049 A 
ATOM     36  H   UNL A   1      41.060  30.502  33.139  1.00  0.00     0.167 HD
ATOM     37  C   UNL A   1      42.827  28.461  32.256  1.00  0.00     0.074 A 
ATOM     38  C   UNL A   1      43.453  27.457  31.419  1.00  0.00     0.031 C 
ATOM     39  C   UNL A   1      43.281  28.825  33.480  1.00  0.00     0.037 A 
BRANCH  26  40
ATOM     40  C   UNL A   1      39.961  33.267  36.206  1.00  0.00     0.057 A 
ATOM     41  C   UNL A   1      40.615  34.502  36.311  1.00  0.00     0.134 A 
ATOM     42  C   UNL A   1      39.070  32.922  37.231  1.00  0.00     0.134 A 
ATOM     43  F   UNL A   1      41.488  34.891  35.370  1.00  0.00    -0.206 F 
ATOM     44  C   UNL A   1      40.401  35.352  37.399  1.00  0.00     0.040 A 
ATOM     45  C   UNL A   1      38.829  33.775  38.310  1.00  0.00     0.040 A 
ATOM     46  F   UNL A   1      38.402  31.759  37.191  1.00  0.00    -0.206 F 
ATOM     47  C   UNL A   1      39.498  34.993  38.398  1.00  0.00     0.006 A 
ENDBRANCH  26  40
BRANCH  27  48
ATOM     48  C   UNL A   1      40.929  27.571  28.047  1.00  0.00     0.057 A 
ATOM     49  C   UNL A   1      41.666  28.031  26.951  1.00  0.00     0.134 A 
ATOM     50  C   UNL A   1      40.339  26.304  27.943  1.00  0.00     0.134 A 
ATOM     51  F   UNL A   1      42.243  29.241  26.984  1.00  0.00    -0.206 F 
ATOM     52  C   UNL A   1      41.790  27.273  25.785  1.00  0.00     0.040 A 
ATOM     53  C   UNL A   1      40.485  25.522  26.797  1.00  0.00     0.040 A 
ATOM     54  F   UNL A   1      39.630  25.800  28.963  1.00  0.00    -0.206 F 
ATOM     55  C   UNL A   1      41.201  26.012  25.709  1.00  0.00     0.006 A 
ENDBRANCH  27  48
BRANCH  39  56
ATOM     56  C   UNL A   1      44.493  28.106  33.994  1.00  0.00     0.057 A 
ATOM     57  C   UNL A   1      45.789  28.602  33.797  1.00  0.00     0.134 A 
ATOM     58  C   UNL A   1      44.363  26.903  34.701  1.00  0.00     0.134 A 
ATOM     59  F   UNL A   1      45.985  29.739  33.114  1.00  0.00    -0.206 F 
ATOM     60  C   UNL A   1      46.911  27.910  34.255  1.00  0.00     0.040 A 
ATOM     61  C   UNL A   1      45.475  26.220  35.192  1.00  0.00     0.040 A 
ATOM     62  F   UNL A   1      43.150  26.376  34.931  1.00  0.00    -0.206 F 
ATOM     63  C   UNL A   1      46.756  26.719  34.960  1.00  0.00     0.006 A 
ENDBRANCH  39  56
ENDBRANCH  13  14
ENDBRANCH   6   8
ENDBRANCH   3   4
ENDBRANCH   2   3
ENDBRANCH   1   2
BRANCH   1  64
ATOM     64  C   UNL A   1      31.564  28.959  26.301  1.00  0.00     0.116 C 
BRANCH  64  65
ATOM     65  N   UNL A   1      32.148  29.048  24.976  1.00  0.00    -0.356 N 
ATOM     66  C   UNL A   1      31.508  29.142  23.771  1.00  0.00     0.225 C 
ATOM     67  H   UNL A   1      33.131  29.040  24.939  1.00  0.00     0.163 HD
ATOM     68  O   UNL A   1      32.172  29.063  22.742  1.00  0.00    -0.275 OA
BRANCH  66  69
ATOM     69  C   UNL A   1      30.019  29.427  23.776  1.00  0.00     0.107 C 
ATOM     70  C   UNL A   1      29.288  28.912  22.540  1.00  0.00     0.115 C 
ATOM     71  C   UNL A   1      29.829  30.937  23.793  1.00  0.00     0.133 C 
ATOM     72  C   UNL A   1      28.719  30.134  21.879  1.00  0.00     0.223 C 
ATOM     73  N   UNL A   1      29.039  31.244  22.632  1.00  0.00    -0.340 N 
ATOM     74  O   UNL A   1      28.057  30.123  20.851  1.00  0.00    -0.275 OA
BRANCH  73  75
ATOM     75  C   UNL A   1      28.768  32.615  22.203  1.00  0.00     0.147 C 
BRANCH  75  76
ATOM     76  C   UNL A   1      28.951  33.654  23.308  1.00  0.00     0.177 C 
BRANCH  76  77
ATOM     77  O   UNL A   1      30.178  34.364  23.142  1.00  0.00    -0.395 OA
ATOM     78  H   UNL A   1      30.237  35.067  23.807  1.00  0.00     0.210 HD
ENDBRANCH  76  77
ENDBRANCH  75  76
ENDBRANCH  73  75
ENDBRANCH  66  69
ENDBRANCH  64  65
ENDBRANCH   1  64
TORSDOF 14
ENDMDL
MODEL 3
REMARK VINA RESULT:     -10.1      0.877      1.923
REMARK SMILES O=C(NCCCCNC(=O)[C@@H]1CC(=O)N(CCO)C1)c1ccc(-c2c3nc(c(-c4c(F)cccc4F)c4ccc([nH]4)c(-c4c(F)cccc4F)c4nc(c(-c5c(F)cccc5F)c5ccc2[nH]5)C=C4)C=C3)cc1
REMARK SMILES IDX 6 1 5 2 4 3 3 4 1 5 2 6 20 8 21 9 73 10 22 11 72 12 23 13
REMARK SMILES IDX 24 14 25 15 66 16 26 17 71 18 65 19 67 20 27 21 70 22 64 23
REMARK SMILES IDX 63 24 28 26 54 27 37 28 53 29 38 30 41 31 52 32 68 33 39 34
REMARK SMILES IDX 40 35 51 37 69 38 42 39 29 40 30 41 35 42 31 43 32 44 34 45
REMARK SMILES IDX 36 46 33 47 55 48 56 49 61 50 57 51 58 52 60 53 62 54 59 55
REMARK SMILES IDX 43 56 44 57 49 58 45 59 46 60 48 61 50 62 47 63 7 64 8 65
REMARK SMILES IDX 9 66 10 68 11 69 12 70 19 71 13 72 15 73 14 74 16 75 17 76
REMARK SMILES IDX 18 77
REMARK H PARENT 3 7 67 25 41 36 8 67 18 78
REMARK Flexibility Score: inf
ROOT
ATOM      1  C   UNL A   1      37.375  21.740  24.482  1.00  0.00     0.023 C 
ENDROOT
BRANCH   1   2
ATOM      2  C   UNL A   1      37.889  20.343  24.830  1.00  0.00     0.023 C 
BRANCH   2   3
ATOM      3  C   UNL A   1      38.836  20.293  26.020  1.00  0.00     0.116 C 
BRANCH   3   4
ATOM      4  N   UNL A   1      39.946  19.370  25.831  1.00  0.00    -0.352 N 
ATOM      5  O   UNL A   1      42.121  18.766  25.679  1.00  0.00    -0.269 OA
ATOM      6  C   UNL A   1      41.291  19.609  25.997  1.00  0.00     0.251 C 
ATOM      7  H   UNL A   1      39.704  18.459  25.550  1.00  0.00     0.163 HD
BRANCH   6   8
ATOM      8  C   UNL A   1      41.718  20.916  26.537  1.00  0.00     0.039 A 
ATOM      9  C   UNL A   1      41.707  21.133  27.917  1.00  0.00     0.014 A 
ATOM     10  C   UNL A   1      42.081  21.940  25.660  1.00  0.00     0.014 A 
ATOM     11  C   UNL A   1      41.904  22.415  28.408  1.00  0.00     0.010 A 
ATOM     12  C   UNL A   1      42.386  23.206  26.168  1.00  0.00     0.010 A 
ATOM     13  C   UNL A   1      42.275  23.459  27.544  1.00  0.00    -0.014 A 
BRANCH  13  14
ATOM     14  C   UNL A   1      42.631  24.775  28.131  1.00  0.00     0.031 A 
ATOM     15  C   UNL A   1      44.045  25.119  28.501  1.00  0.00     0.074 A 
ATOM     16  C   UNL A   1      41.645  25.680  28.292  1.00  0.00     0.049 A 
ATOM     17  N   UNL A   1      44.514  26.237  29.000  1.00  0.00    -0.248 NA
ATOM     18  C   UNL A   1      45.067  24.082  28.292  1.00  0.00     0.031 C 
ATOM     19  C   UNL A   1      40.232  25.448  27.978  1.00  0.00     0.029 A 
ATOM     20  N   UNL A   1      41.676  26.976  28.734  1.00  0.00    -0.354 N 
ATOM     21  C   UNL A   1      45.876  26.036  29.176  1.00  0.00     0.074 A 
ATOM     22  C   UNL A   1      46.157  24.678  28.759  1.00  0.00     0.031 C 
ATOM     23  C   UNL A   1      39.542  26.577  28.186  1.00  0.00     0.029 A 
ATOM     24  C   UNL A   1      40.446  27.586  28.722  1.00  0.00     0.049 A 
ATOM     25  H   UNL A   1      42.500  27.426  29.032  1.00  0.00     0.167 HD
ATOM     26  C   UNL A   1      46.804  26.910  29.638  1.00  0.00     0.037 A 
ATOM     27  C   UNL A   1      40.076  28.815  29.124  1.00  0.00     0.037 A 
ATOM     28  C   UNL A   1      46.512  28.261  30.048  1.00  0.00     0.049 A 
ATOM     29  C   UNL A   1      41.120  29.741  29.671  1.00  0.00     0.074 A 
ATOM     30  C   UNL A   1      47.388  29.231  30.505  1.00  0.00     0.029 A 
ATOM     31  N   UNL A   1      45.247  28.831  30.059  1.00  0.00    -0.354 N 
ATOM     32  N   UNL A   1      42.411  29.548  29.797  1.00  0.00    -0.248 NA
ATOM     33  C   UNL A   1      40.657  31.054  30.135  1.00  0.00     0.031 C 
ATOM     34  C   UNL A   1      46.647  30.368  30.844  1.00  0.00     0.029 A 
ATOM     35  C   UNL A   1      45.316  30.130  30.542  1.00  0.00     0.049 A 
ATOM     36  H   UNL A   1      44.422  28.380  29.769  1.00  0.00     0.167 HD
ATOM     37  C   UNL A   1      42.917  30.722  30.337  1.00  0.00     0.074 A 
ATOM     38  C   UNL A   1      41.797  31.630  30.486  1.00  0.00     0.031 C 
ATOM     39  C   UNL A   1      44.192  31.021  30.684  1.00  0.00     0.037 A 
BRANCH  26  40
ATOM     40  C   UNL A   1      48.226  26.435  29.742  1.00  0.00     0.057 A 
ATOM     41  C   UNL A   1      49.160  26.659  28.722  1.00  0.00     0.134 A 
ATOM     42  C   UNL A   1      48.686  25.809  30.909  1.00  0.00     0.134 A 
ATOM     43  F   UNL A   1      48.786  27.245  27.575  1.00  0.00    -0.206 F 
ATOM     44  C   UNL A   1      50.494  26.263  28.853  1.00  0.00     0.040 A 
ATOM     45  C   UNL A   1      50.022  25.433  31.061  1.00  0.00     0.040 A 
ATOM     46  F   UNL A   1      47.849  25.571  31.930  1.00  0.00    -0.206 F 
ATOM     47  C   UNL A   1      50.930  25.658  30.029  1.00  0.00     0.006 A 
ENDBRANCH  26  40
BRANCH  27  48
ATOM     48  C   UNL A   1      38.651  29.224  29.048  1.00  0.00     0.057 A 
ATOM     49  C   UNL A   1      37.823  29.184  30.175  1.00  0.00     0.134 A 
ATOM     50  C   UNL A   1      38.080  29.651  27.842  1.00  0.00     0.134 A 
ATOM     51  F   UNL A   1      38.308  28.771  31.355  1.00  0.00    -0.206 F 
ATOM     52  C   UNL A   1      36.473  29.529  30.101  1.00  0.00     0.040 A 
ATOM     53  C   UNL A   1      36.740  30.032  27.762  1.00  0.00     0.040 A 
ATOM     54  F   UNL A   1      38.822  29.723  26.727  1.00  0.00    -0.206 F 
ATOM     55  C   UNL A   1      35.929  29.960  28.891  1.00  0.00     0.006 A 
ENDBRANCH  27  48
BRANCH  39  56
ATOM     56  C   UNL A   1      44.442  32.397  31.228  1.00  0.00     0.057 A 
ATOM     57  C   UNL A   1      44.395  32.672  32.601  1.00  0.00     0.134 A 
ATOM     58  C   UNL A   1      44.738  33.461  30.366  1.00  0.00     0.134 A 
ATOM     59  F   UNL A   1      44.099  31.702  33.479  1.00  0.00    -0.206 F 
ATOM     60  C   UNL A   1      44.601  33.962  33.094  1.00  0.00     0.040 A 
ATOM     61  C   UNL A   1      44.978  34.747  30.849  1.00  0.00     0.040 A 
ATOM     62  F   UNL A   1      44.806  33.266  29.040  1.00  0.00    -0.206 F 
ATOM     63  C   UNL A   1      44.899  35.002  32.217  1.00  0.00     0.006 A 
ENDBRANCH  39  56
ENDBRANCH  13  14
ENDBRANCH   6   8
ENDBRANCH   3   4
ENDBRANCH   2   3
ENDBRANCH   1   2
BRANCH   1  64
ATOM     64  C   UNL A   1      35.856  21.875  24.555  1.00  0.00     0.116 C 
BRANCH  64  65
ATOM     65  N   UNL A   1      35.378  22.861  23.603  1.00  0.00    -0.356 N 
ATOM     66  C   UNL A   1      34.609  23.966  23.839  1.00  0.00     0.225 C 
ATOM     67  H   UNL A   1      35.643  22.715  22.667  1.00  0.00     0.163 HD
ATOM     68  O   UNL A   1      34.185  24.606  22.881  1.00  0.00    -0.275 OA
BRANCH  66  69
ATOM     69  C   UNL A   1      34.395  24.391  25.278  1.00  0.00     0.107 C 
ATOM     70  C   UNL A   1      33.157  23.778  25.926  1.00  0.00     0.115 C 
ATOM     71  C   UNL A   1      34.191  25.900  25.299  1.00  0.00     0.133 C 
ATOM     72  C   UNL A   1      32.277  24.943  26.279  1.00  0.00     0.223 C 
ATOM     73  N   UNL A   1      32.912  26.113  25.919  1.00  0.00    -0.340 N 
ATOM     74  O   UNL A   1      31.187  24.849  26.823  1.00  0.00    -0.275 OA
BRANCH  73  75
ATOM     75  C   UNL A   1      32.279  27.427  25.987  1.00  0.00     0.147 C 
BRANCH  75  76
ATOM     76  C   UNL A   1      32.289  28.046  27.384  1.00  0.00     0.177 C 
BRANCH  76  77
ATOM     77  O   UNL A   1      31.069  27.773  28.072  1.00  0.00    -0.395 OA
ATOM     78  H   UNL A   1      30.421  28.465  27.868  1.00  0.00     0.210 HD
ENDBRANCH  76  77
ENDBRANCH  75  76
ENDBRANCH  73  75
ENDBRANCH  66  69
ENDBRANCH  64  65
ENDBRANCH   1  64
TORSDOF 14
ENDMDL
