MODEL 1
REMARK VINA RESULT:     -12.3      0.000      0.000
REMARK SMILES Cc1ccc(NC(=O)N[C@@H]2C=C[C@@H](C(=O)NCCCCNC(=O)c3ccc(-c4c5nc(c(-c6c(F)cccc6F)c6ccc([nH]6)c(-c6c(F)cccc6F)c6nc(c(-c7c(F)cccc7F)c7ccc4[nH]7)C=C6)C=C5)cc3)C2)c(F)c1
REMARK SMILES IDX 18 1 17 2 16 3 14 4 15 5 13 7 10 8 11 9 78 10 12 11 9 12
REMARK SMILES IDX 6 13 7 14 8 16 5 18 1 19 2 20 3 21 81 22 4 23 79 24 80 25
REMARK SMILES IDX 19 26 20 27 21 28 22 29 23 31 24 32 25 33 77 34 26 35 76 36
REMARK SMILES IDX 27 37 28 38 29 39 70 40 30 41 75 42 69 43 71 44 31 45 74 46
REMARK SMILES IDX 68 47 67 48 32 50 58 51 41 52 57 53 42 54 45 55 56 56 72 57
REMARK SMILES IDX 43 58 44 59 55 61 73 62 46 63 33 64 34 65 39 66 35 67 36 68
REMARK SMILES IDX 38 69 40 70 37 71 59 72 60 73 65 74 61 75 62 76 64 77 66 78
REMARK SMILES IDX 63 79 47 80 48 81 53 82 49 83 50 84 52 85 54 86 51 87
REMARK H PARENT 16 6 6 15 9 17 21 30 71 49 45 60
REMARK Flexibility Score: inf
ROOT
ATOM      1  C   UNL A   1      33.476  28.492  24.352  1.00  0.00     0.023 C 
ENDROOT
BRANCH   1   2
ATOM      2  C   UNL A   1      33.733  26.986  24.314  1.00  0.00     0.116 C 
BRANCH   2   3
ATOM      3  N   UNL A   1      33.701  26.453  22.969  1.00  0.00    -0.356 N 
ATOM      4  C   UNL A   1      32.801  25.746  22.249  1.00  0.00     0.227 C 
ATOM      5  O   UNL A   1      33.120  25.564  21.063  1.00  0.00    -0.274 OA
ATOM      6  H   UNL A   1      34.523  26.648  22.463  1.00  0.00     0.163 HD
BRANCH   4   7
ATOM      7  C   UNL A   1      31.434  25.235  22.725  1.00  0.00     0.103 C 
ATOM      8  C   UNL A   1      30.970  24.754  25.076  1.00  0.00     0.107 C 
ATOM      9  C   UNL A   1      30.374  26.057  24.656  1.00  0.00    -0.006 C 
ATOM     10  C   UNL A   1      31.256  24.084  23.719  1.00  0.00     0.047 C 
ATOM     11  C   UNL A   1      30.670  26.345  23.385  1.00  0.00    -0.016 C 
BRANCH   8  12
ATOM     12  N   UNL A   1      30.088  24.006  25.944  1.00  0.00    -0.332 N 
ATOM     13  N   UNL A   1      31.526  22.578  27.198  1.00  0.00    -0.305 N 
ATOM     14  C   UNL A   1      30.297  23.048  26.876  1.00  0.00     0.319 C 
ATOM     15  H   UNL A   1      31.596  22.201  28.104  1.00  0.00     0.171 HD
ATOM     16  O   UNL A   1      29.333  22.706  27.566  1.00  0.00    -0.248 OA
ATOM     17  H   UNL A   1      29.139  24.243  25.833  1.00  0.00     0.165 HD
BRANCH  13  18
ATOM     18  C   UNL A   1      32.714  22.536  26.457  1.00  0.00     0.078 A 
ATOM     19  C   UNL A   1      35.719  23.244  23.500  1.00  0.00     0.044 C 
ATOM     20  C   UNL A   1      34.814  22.883  24.641  1.00  0.00    -0.048 A 
ATOM     21  C   UNL A   1      34.667  23.751  25.731  1.00  0.00     0.006 A 
ATOM     22  C   UNL A   1      34.000  21.749  24.562  1.00  0.00     0.045 A 
ATOM     23  C   UNL A   1      33.646  23.553  26.666  1.00  0.00     0.029 A 
ATOM     24  C   UNL A   1      32.958  21.582  25.468  1.00  0.00     0.147 A 
ATOM     25  F   UNL A   1      32.131  20.538  25.307  1.00  0.00    -0.205 F 
ENDBRANCH  13  18
ENDBRANCH   8  12
ENDBRANCH   4   7
ENDBRANCH   2   3
ENDBRANCH   1   2
BRANCH   1  26
ATOM     26  C   UNL A   1      32.895  29.026  25.663  1.00  0.00     0.023 C 
BRANCH  26  27
ATOM     27  C   UNL A   1      33.849  29.012  26.855  1.00  0.00     0.116 C 
BRANCH  27  28
ATOM     28  N   UNL A   1      33.827  30.255  27.613  1.00  0.00    -0.352 N 
ATOM     29  C   UNL A   1      34.782  30.800  28.438  1.00  0.00     0.251 C 
ATOM     30  H   UNL A   1      33.004  30.786  27.519  1.00  0.00     0.163 HD
ATOM     31  O   UNL A   1      34.514  31.794  29.109  1.00  0.00    -0.269 OA
BRANCH  29  32
ATOM     32  C   UNL A   1      36.118  30.177  28.554  1.00  0.00     0.039 A 
ATOM     33  C   UNL A   1      36.979  30.217  27.454  1.00  0.00     0.014 A 
ATOM     34  C   UNL A   1      36.526  29.558  29.739  1.00  0.00     0.014 A 
ATOM     35  C   UNL A   1      38.278  29.717  27.569  1.00  0.00     0.010 A 
ATOM     36  C   UNL A   1      37.843  29.126  29.876  1.00  0.00     0.010 A 
ATOM     37  C   UNL A   1      38.736  29.209  28.796  1.00  0.00    -0.014 A 
BRANCH  37  38
ATOM     38  C   UNL A   1      40.149  28.786  28.978  1.00  0.00     0.031 A 
ATOM     39  C   UNL A   1      41.170  29.747  29.520  1.00  0.00     0.074 A 
ATOM     40  C   UNL A   1      40.532  27.557  28.577  1.00  0.00     0.049 A 
ATOM     41  N   UNL A   1      42.460  29.588  29.666  1.00  0.00    -0.248 NA
ATOM     42  C   UNL A   1      40.678  31.072  29.927  1.00  0.00     0.031 C 
ATOM     43  C   UNL A   1      39.654  26.547  27.984  1.00  0.00     0.029 A 
ATOM     44  N   UNL A   1      41.766  26.954  28.594  1.00  0.00    -0.354 N 
ATOM     45  C   UNL A   1      42.938  30.795  30.160  1.00  0.00     0.074 A 
ATOM     46  C   UNL A   1      41.805  31.691  30.249  1.00  0.00     0.031 C 
ATOM     47  C   UNL A   1      40.371  25.446  27.711  1.00  0.00     0.029 A 
ATOM     48  C   UNL A   1      41.765  25.682  28.074  1.00  0.00     0.049 A 
ATOM     49  H   UNL A   1      42.574  27.391  28.946  1.00  0.00     0.167 HD
ATOM     50  C   UNL A   1      44.201  31.120  30.527  1.00  0.00     0.037 A 
ATOM     51  C   UNL A   1      42.773  24.807  27.900  1.00  0.00     0.037 A 
ATOM     52  C   UNL A   1      45.322  30.219  30.470  1.00  0.00     0.049 A 
ATOM     53  C   UNL A   1      44.163  25.189  28.327  1.00  0.00     0.074 A 
ATOM     54  C   UNL A   1      46.624  30.437  30.885  1.00  0.00     0.029 A 
ATOM     55  N   UNL A   1      45.273  28.928  29.967  1.00  0.00    -0.354 N 
ATOM     56  N   UNL A   1      44.586  26.310  28.857  1.00  0.00    -0.248 NA
ATOM     57  C   UNL A   1      45.215  24.179  28.136  1.00  0.00     0.031 C 
ATOM     58  C   UNL A   1      47.373  29.290  30.598  1.00  0.00     0.029 A 
ATOM     59  C   UNL A   1      46.527  28.344  30.043  1.00  0.00     0.049 A 
ATOM     60  H   UNL A   1      44.467  28.492  29.607  1.00  0.00     0.167 HD
ATOM     61  C   UNL A   1      45.944  26.133  29.086  1.00  0.00     0.074 A 
ATOM     62  C   UNL A   1      46.272  24.792  28.651  1.00  0.00     0.031 C 
ATOM     63  C   UNL A   1      46.838  27.005  29.612  1.00  0.00     0.037 A 
BRANCH  50  64
ATOM     64  C   UNL A   1      44.437  32.513  31.031  1.00  0.00     0.057 A 
ATOM     65  C   UNL A   1      44.330  32.834  32.391  1.00  0.00     0.134 A 
ATOM     66  C   UNL A   1      44.812  33.538  30.154  1.00  0.00     0.134 A 
ATOM     67  F   UNL A   1      43.962  31.901  33.282  1.00  0.00    -0.206 F 
ATOM     68  C   UNL A   1      44.564  34.128  32.856  1.00  0.00     0.040 A 
ATOM     69  C   UNL A   1      45.075  34.831  30.611  1.00  0.00     0.040 A 
ATOM     70  F   UNL A   1      44.940  33.298  28.840  1.00  0.00    -0.206 F 
ATOM     71  C   UNL A   1      44.945  35.129  31.965  1.00  0.00     0.006 A 
ENDBRANCH  50  64
BRANCH  51  72
ATOM     72  C   UNL A   1      42.503  23.472  27.313  1.00  0.00     0.057 A 
ATOM     73  C   UNL A   1      42.146  22.388  28.122  1.00  0.00     0.134 A 
ATOM     74  C   UNL A   1      42.601  23.245  25.934  1.00  0.00     0.134 A 
ATOM     75  F   UNL A   1      42.055  22.540  29.451  1.00  0.00    -0.206 F 
ATOM     76  C   UNL A   1      41.912  21.121  27.585  1.00  0.00     0.040 A 
ATOM     77  C   UNL A   1      42.347  21.990  25.381  1.00  0.00     0.040 A 
ATOM     78  F   UNL A   1      42.932  24.246  25.105  1.00  0.00    -0.206 F 
ATOM     79  C   UNL A   1      42.007  20.921  26.209  1.00  0.00     0.006 A 
ENDBRANCH  51  72
BRANCH  63  80
ATOM     80  C   UNL A   1      48.250  26.525  29.775  1.00  0.00     0.057 A 
ATOM     81  C   UNL A   1      49.218  26.729  28.784  1.00  0.00     0.134 A 
ATOM     82  C   UNL A   1      48.655  25.888  30.955  1.00  0.00     0.134 A 
ATOM     83  F   UNL A   1      48.892  27.322  27.625  1.00  0.00    -0.206 F 
ATOM     84  C   UNL A   1      50.535  26.296  28.953  1.00  0.00     0.040 A 
ATOM     85  C   UNL A   1      49.972  25.473  31.144  1.00  0.00     0.040 A 
ATOM     86  F   UNL A   1      47.777  25.670  31.946  1.00  0.00    -0.206 F 
ATOM     87  C   UNL A   1      50.916  25.672  30.139  1.00  0.00     0.006 A 
ENDBRANCH  63  80
ENDBRANCH  37  38
ENDBRANCH  29  32
ENDBRANCH  27  28
ENDBRANCH  26  27
ENDBRANCH   1  26
TORSDOF 13
ENDMDL
MODEL 2
REMARK VINA RESULT:     -12.3      4.794      6.925
REMARK SMILES Cc1ccc(NC(=O)N[C@@H]2C=C[C@@H](C(=O)NCCCCNC(=O)c3ccc(-c4c5nc(c(-c6c(F)cccc6F)c6ccc([nH]6)c(-c6c(F)cccc6F)c6nc(c(-c7c(F)cccc7F)c7ccc4[nH]7)C=C6)C=C5)cc3)C2)c(F)c1
REMARK SMILES IDX 18 1 17 2 16 3 14 4 15 5 13 7 10 8 11 9 78 10 12 11 9 12
REMARK SMILES IDX 6 13 7 14 8 16 5 18 1 19 2 20 3 21 81 22 4 23 79 24 80 25
REMARK SMILES IDX 19 26 20 27 21 28 22 29 23 31 24 32 25 33 77 34 26 35 76 36
REMARK SMILES IDX 27 37 28 38 29 39 70 40 30 41 75 42 69 43 71 44 31 45 74 46
REMARK SMILES IDX 68 47 67 48 32 50 58 51 41 52 57 53 42 54 45 55 56 56 72 57
REMARK SMILES IDX 43 58 44 59 55 61 73 62 46 63 33 64 34 65 39 66 35 67 36 68
REMARK SMILES IDX 38 69 40 70 37 71 59 72 60 73 65 74 61 75 62 76 64 77 66 78
REMARK SMILES IDX 63 79 47 80 48 81 53 82 49 83 50 84 52 85 54 86 51 87
REMARK H PARENT 16 6 6 15 9 17 21 30 71 49 45 60
REMARK Flexibility Score: inf
ROOT
ATOM      1  C   UNL A   1      34.411  33.370  28.328  1.00  0.00     0.023 C 
ENDROOT
BRANCH   1   2
ATOM      2  C   UNL A   1      34.160  31.867  28.211  1.00  0.00     0.116 C 
BRANCH   2   3
ATOM      3  N   UNL A   1      33.258  31.539  27.129  1.00  0.00    -0.356 N 
ATOM      4  C   UNL A   1      32.615  30.417  26.735  1.00  0.00     0.227 C 
ATOM      5  O   UNL A   1      31.831  30.579  25.786  1.00  0.00    -0.274 OA
ATOM      6  H   UNL A   1      33.069  32.310  26.544  1.00  0.00     0.163 HD
BRANCH   4   7
ATOM      7  C   UNL A   1      32.704  29.027  27.380  1.00  0.00     0.103 C 
ATOM      8  C   UNL A   1      31.507  27.094  26.482  1.00  0.00     0.107 C 
ATOM      9  C   UNL A   1      32.955  27.057  26.122  1.00  0.00    -0.006 C 
ATOM     10  C   UNL A   1      31.493  28.125  27.627  1.00  0.00     0.047 C 
ATOM     11  C   UNL A   1      33.601  28.139  26.569  1.00  0.00    -0.016 C 
BRANCH   8  12
ATOM     12  N   UNL A   1      31.001  25.788  26.840  1.00  0.00    -0.332 N 
ATOM     13  N   UNL A   1      30.279  24.825  24.783  1.00  0.00    -0.305 N 
ATOM     14  C   UNL A   1      30.455  24.777  26.126  1.00  0.00     0.319 C 
ATOM     15  H   UNL A   1      30.249  23.945  24.344  1.00  0.00     0.171 HD
ATOM     16  O   UNL A   1      30.255  23.709  26.712  1.00  0.00    -0.248 OA
ATOM     17  H   UNL A   1      31.066  25.595  27.803  1.00  0.00     0.165 HD
BRANCH  13  18
ATOM     18  C   UNL A   1      30.132  25.915  23.917  1.00  0.00     0.078 A 
ATOM     19  C   UNL A   1      30.276  29.828  22.204  1.00  0.00     0.044 C 
ATOM     20  C   UNL A   1      30.152  28.391  22.614  1.00  0.00    -0.048 A 
ATOM     21  C   UNL A   1      31.252  27.528  22.517  1.00  0.00     0.006 A 
ATOM     22  C   UNL A   1      28.984  27.934  23.232  1.00  0.00     0.045 A 
ATOM     23  C   UNL A   1      31.226  26.270  23.128  1.00  0.00     0.029 A 
ATOM     24  C   UNL A   1      28.980  26.702  23.877  1.00  0.00     0.147 A 
ATOM     25  F   UNL A   1      27.878  26.334  24.548  1.00  0.00    -0.205 F 
ENDBRANCH  13  18
ENDBRANCH   8  12
ENDBRANCH   4   7
ENDBRANCH   2   3
ENDBRANCH   1   2
BRANCH   1  26
ATOM     26  C   UNL A   1      33.176  34.220  28.636  1.00  0.00     0.023 C 
BRANCH  26  27
ATOM     27  C   UNL A   1      33.464  35.635  29.133  1.00  0.00     0.116 C 
BRANCH  27  28
ATOM     28  N   UNL A   1      32.579  36.047  30.213  1.00  0.00    -0.352 N 
ATOM     29  C   UNL A   1      32.648  35.781  31.559  1.00  0.00     0.251 C 
ATOM     30  H   UNL A   1      31.814  36.602  29.936  1.00  0.00     0.163 HD
ATOM     31  O   UNL A   1      31.716  36.100  32.295  1.00  0.00    -0.269 OA
BRANCH  29  32
ATOM     32  C   UNL A   1      33.822  35.082  32.126  1.00  0.00     0.039 A 
ATOM     33  C   UNL A   1      33.654  33.798  32.652  1.00  0.00     0.014 A 
ATOM     34  C   UNL A   1      35.083  35.683  32.139  1.00  0.00     0.014 A 
ATOM     35  C   UNL A   1      34.764  33.083  33.108  1.00  0.00     0.010 A 
ATOM     36  C   UNL A   1      36.198  34.944  32.527  1.00  0.00     0.010 A 
ATOM     37  C   UNL A   1      36.052  33.633  33.006  1.00  0.00    -0.014 A 
BRANCH  37  38
ATOM     38  C   UNL A   1      37.259  32.846  33.371  1.00  0.00     0.031 A 
ATOM     39  C   UNL A   1      37.987  33.118  34.657  1.00  0.00     0.074 A 
ATOM     40  C   UNL A   1      37.749  31.940  32.502  1.00  0.00     0.049 A 
ATOM     41  N   UNL A   1      39.103  32.598  35.102  1.00  0.00    -0.248 NA
ATOM     42  C   UNL A   1      37.398  34.129  35.549  1.00  0.00     0.031 C 
ATOM     43  C   UNL A   1      37.170  31.617  31.197  1.00  0.00     0.029 A 
ATOM     44  N   UNL A   1      38.857  31.131  32.582  1.00  0.00    -0.354 N 
ATOM     45  C   UNL A   1      39.360  33.230  36.312  1.00  0.00     0.074 A 
ATOM     46  C   UNL A   1      38.307  34.203  36.511  1.00  0.00     0.031 C 
ATOM     47  C   UNL A   1      37.915  30.670  30.606  1.00  0.00     0.029 A 
ATOM     48  C   UNL A   1      39.044  30.342  31.472  1.00  0.00     0.049 A 
ATOM     49  H   UNL A   1      39.459  31.118  33.360  1.00  0.00     0.167 HD
ATOM     50  C   UNL A   1      40.368  33.006  37.188  1.00  0.00     0.037 A 
ATOM     51  C   UNL A   1      40.019  29.460  31.180  1.00  0.00     0.037 A 
ATOM     52  C   UNL A   1      41.398  32.016  37.007  1.00  0.00     0.049 A 
ATOM     53  C   UNL A   1      41.120  29.221  32.175  1.00  0.00     0.074 A 
ATOM     54  C   UNL A   1      42.421  31.669  37.872  1.00  0.00     0.029 A 
ATOM     55  N   UNL A   1      41.535  31.214  35.884  1.00  0.00    -0.354 N 
ATOM     56  N   UNL A   1      41.310  29.778  33.346  1.00  0.00    -0.248 NA
ATOM     57  C   UNL A   1      42.138  28.226  31.809  1.00  0.00     0.031 C 
ATOM     58  C   UNL A   1      43.200  30.683  37.256  1.00  0.00     0.029 A 
ATOM     59  C   UNL A   1      42.636  30.387  36.026  1.00  0.00     0.049 A 
ATOM     60  H   UNL A   1      40.937  31.232  35.101  1.00  0.00     0.167 HD
ATOM     61  C   UNL A   1      42.453  29.184  33.867  1.00  0.00     0.074 A 
ATOM     62  C   UNL A   1      42.904  28.215  32.890  1.00  0.00     0.031 C 
ATOM     63  C   UNL A   1      43.071  29.422  35.049  1.00  0.00     0.037 A 
BRANCH  50  64
ATOM     64  C   UNL A   1      40.405  33.846  38.431  1.00  0.00     0.057 A 
ATOM     65  C   UNL A   1      41.165  35.021  38.504  1.00  0.00     0.134 A 
ATOM     66  C   UNL A   1      39.643  33.498  39.553  1.00  0.00     0.134 A 
ATOM     67  F   UNL A   1      41.926  35.404  37.468  1.00  0.00    -0.206 F 
ATOM     68  C   UNL A   1      41.184  35.807  39.657  1.00  0.00     0.040 A 
ATOM     69  C   UNL A   1      39.634  34.290  40.703  1.00  0.00     0.040 A 
ATOM     70  F   UNL A   1      38.888  32.390  39.547  1.00  0.00    -0.206 F 
ATOM     71  C   UNL A   1      40.412  35.444  40.759  1.00  0.00     0.006 A 
ENDBRANCH  50  64
BRANCH  51  72
ATOM     72  C   UNL A   1      39.987  28.719  29.896  1.00  0.00     0.057 A 
ATOM     73  C   UNL A   1      39.273  27.521  29.773  1.00  0.00     0.134 A 
ATOM     74  C   UNL A   1      40.670  29.183  28.765  1.00  0.00     0.134 A 
ATOM     75  F   UNL A   1      38.615  27.017  30.827  1.00  0.00    -0.206 F 
ATOM     76  C   UNL A   1      39.254  26.801  28.577  1.00  0.00     0.040 A 
ATOM     77  C   UNL A   1      40.640  28.486  27.556  1.00  0.00     0.040 A 
ATOM     78  F   UNL A   1      41.365  30.328  28.817  1.00  0.00    -0.206 F 
ATOM     79  C   UNL A   1      39.935  27.287  27.462  1.00  0.00     0.006 A 
ENDBRANCH  51  72
BRANCH  63  80
ATOM     80  C   UNL A   1      44.284  28.598  35.367  1.00  0.00     0.057 A 
ATOM     81  C   UNL A   1      45.573  29.015  35.014  1.00  0.00     0.134 A 
ATOM     82  C   UNL A   1      44.162  27.393  36.071  1.00  0.00     0.134 A 
ATOM     83  F   UNL A   1      45.756  30.153  34.327  1.00  0.00    -0.206 F 
ATOM     84  C   UNL A   1      46.698  28.251  35.331  1.00  0.00     0.040 A 
ATOM     85  C   UNL A   1      45.280  26.634  36.414  1.00  0.00     0.040 A 
ATOM     86  F   UNL A   1      42.955  26.942  36.445  1.00  0.00    -0.206 F 
ATOM     87  C   UNL A   1      46.553  27.060  36.040  1.00  0.00     0.006 A 
ENDBRANCH  63  80
ENDBRANCH  37  38
ENDBRANCH  29  32
ENDBRANCH  27  28
ENDBRANCH  26  27
ENDBRANCH   1  26
TORSDOF 13
ENDMDL
MODEL 3
REMARK VINA RESULT:     -12.3      2.914      7.749
REMARK SMILES Cc1ccc(NC(=O)N[C@@H]2C=C[C@@H](C(=O)NCCCCNC(=O)c3ccc(-c4c5nc(c(-c6c(F)cccc6F)c6ccc([nH]6)c(-c6c(F)cccc6F)c6nc(c(-c7c(F)cccc7F)c7ccc4[nH]7)C=C6)C=C5)cc3)C2)c(F)c1
REMARK SMILES IDX 18 1 17 2 16 3 14 4 15 5 13 7 10 8 11 9 78 10 12 11 9 12
REMARK SMILES IDX 6 13 7 14 8 16 5 18 1 19 2 20 3 21 81 22 4 23 79 24 80 25
REMARK SMILES IDX 19 26 20 27 21 28 22 29 23 31 24 32 25 33 77 34 26 35 76 36
REMARK SMILES IDX 27 37 28 38 29 39 70 40 30 41 75 42 69 43 71 44 31 45 74 46
REMARK SMILES IDX 68 47 67 48 32 50 58 51 41 52 57 53 42 54 45 55 56 56 72 57
REMARK SMILES IDX 43 58 44 59 55 61 73 62 46 63 33 64 34 65 39 66 35 67 36 68
REMARK SMILES IDX 38 69 40 70 37 71 59 72 60 73 65 74 61 75 62 76 64 77 66 78
REMARK SMILES IDX 63 79 47 80 48 81 53 82 49 83 50 84 52 85 54 86 51 87
REMARK H PARENT 16 6 6 15 9 17 21 30 71 49 45 60
REMARK Flexibility Score: inf
ROOT
ATOM      1  C   UNL A   1      34.694  24.437  24.526  1.00  0.00     0.023 C 
ENDROOT
BRANCH   1   2
ATOM      2  C   UNL A   1      33.854  25.381  25.385  1.00  0.00     0.116 C 
BRANCH   2   3
ATOM      3  N   UNL A   1      33.049  24.676  26.358  1.00  0.00    -0.356 N 
ATOM      4  C   UNL A   1      31.735  24.378  26.468  1.00  0.00     0.227 C 
ATOM      5  O   UNL A   1      31.450  23.650  27.431  1.00  0.00    -0.274 OA
ATOM      6  H   UNL A   1      33.579  24.336  27.116  1.00  0.00     0.163 HD
BRANCH   4   7
ATOM      7  C   UNL A   1      30.613  24.780  25.498  1.00  0.00     0.103 C 
ATOM      8  C   UNL A   1      30.948  26.438  23.735  1.00  0.00     0.107 C 
ATOM      9  C   UNL A   1      30.967  25.049  23.190  1.00  0.00    -0.006 C 
ATOM     10  C   UNL A   1      30.298  26.228  25.116  1.00  0.00     0.047 C 
ATOM     11  C   UNL A   1      30.835  24.138  24.160  1.00  0.00    -0.016 C 
BRANCH   8  12
ATOM     12  N   UNL A   1      30.239  27.354  22.869  1.00  0.00    -0.332 N 
ATOM     13  N   UNL A   1      31.378  29.433  23.108  1.00  0.00    -0.305 N 
ATOM     14  C   UNL A   1      30.397  28.665  22.576  1.00  0.00     0.319 C 
ATOM     15  H   UNL A   1      31.631  30.211  22.560  1.00  0.00     0.171 HD
ATOM     16  O   UNL A   1      29.707  29.132  21.666  1.00  0.00    -0.248 OA
ATOM     17  H   UNL A   1      29.484  26.936  22.395  1.00  0.00     0.165 HD
BRANCH  13  18
ATOM     18  C   UNL A   1      32.093  29.307  24.305  1.00  0.00     0.078 A 
ATOM     19  C   UNL A   1      34.618  30.088  27.665  1.00  0.00     0.044 C 
ATOM     20  C   UNL A   1      33.677  29.634  26.588  1.00  0.00    -0.048 A 
ATOM     21  C   UNL A   1      32.347  30.074  26.578  1.00  0.00     0.006 A 
ATOM     22  C   UNL A   1      34.153  28.887  25.507  1.00  0.00     0.045 A 
ATOM     23  C   UNL A   1      31.538  29.870  25.455  1.00  0.00     0.029 A 
ATOM     24  C   UNL A   1      33.360  28.727  24.375  1.00  0.00     0.147 A 
ATOM     25  F   UNL A   1      33.881  28.093  23.313  1.00  0.00    -0.205 F 
ENDBRANCH  13  18
ENDBRANCH   8  12
ENDBRANCH   4   7
ENDBRANCH   2   3
ENDBRANCH   1   2
BRANCH   1  26
ATOM     26  C   UNL A   1      35.379  23.296  25.281  1.00  0.00     0.023 C 
BRANCH  26  27
ATOM     27  C   UNL A   1      36.643  23.683  26.044  1.00  0.00     0.116 C 
BRANCH  27  28
ATOM     28  N   UNL A   1      37.638  22.621  26.069  1.00  0.00    -0.352 N 
ATOM     29  C   UNL A   1      38.985  22.682  26.335  1.00  0.00     0.251 C 
ATOM     30  H   UNL A   1      37.294  21.722  25.864  1.00  0.00     0.163 HD
ATOM     31  O   UNL A   1      39.689  21.689  26.161  1.00  0.00    -0.269 OA
BRANCH  29  32
ATOM     32  C   UNL A   1      39.602  23.944  26.797  1.00  0.00     0.039 A 
ATOM     33  C   UNL A   1      40.040  24.869  25.846  1.00  0.00     0.014 A 
ATOM     34  C   UNL A   1      39.747  24.220  28.159  1.00  0.00     0.014 A 
ATOM     35  C   UNL A   1      40.542  26.106  26.259  1.00  0.00     0.010 A 
ATOM     36  C   UNL A   1      40.179  25.480  28.568  1.00  0.00     0.010 A 
ATOM     37  C   UNL A   1      40.572  26.439  27.622  1.00  0.00    -0.014 A 
BRANCH  37  38
ATOM     38  C   UNL A   1      40.985  27.793  28.078  1.00  0.00     0.031 A 
ATOM     39  C   UNL A   1      42.439  28.172  28.120  1.00  0.00     0.074 A 
ATOM     40  C   UNL A   1      40.053  28.654  28.533  1.00  0.00     0.049 A 
ATOM     41  N   UNL A   1      42.994  29.269  28.569  1.00  0.00    -0.248 NA
ATOM     42  C   UNL A   1      43.397  27.176  27.617  1.00  0.00     0.031 C 
ATOM     43  C   UNL A   1      38.615  28.391  28.597  1.00  0.00     0.029 A 
ATOM     44  N   UNL A   1      40.181  29.924  29.043  1.00  0.00    -0.354 N 
ATOM     45  C   UNL A   1      44.363  29.088  28.422  1.00  0.00     0.074 A 
ATOM     46  C   UNL A   1      44.557  27.759  27.883  1.00  0.00     0.031 C 
ATOM     47  C   UNL A   1      37.992  29.470  29.098  1.00  0.00     0.029 A 
ATOM     48  C   UNL A   1      38.987  30.486  29.426  1.00  0.00     0.049 A 
ATOM     49  H   UNL A   1      41.046  30.386  29.125  1.00  0.00     0.167 HD
ATOM     50  C   UNL A   1      45.367  29.957  28.691  1.00  0.00     0.037 A 
ATOM     51  C   UNL A   1      38.723  31.682  29.986  1.00  0.00     0.037 A 
ATOM     52  C   UNL A   1      45.174  31.291  29.197  1.00  0.00     0.049 A 
ATOM     53  C   UNL A   1      39.854  32.632  30.263  1.00  0.00     0.074 A 
ATOM     54  C   UNL A   1      46.125  32.268  29.435  1.00  0.00     0.029 A 
ATOM     55  N   UNL A   1      43.946  31.835  29.542  1.00  0.00    -0.354 N 
ATOM     56  N   UNL A   1      41.137  32.473  30.053  1.00  0.00    -0.248 NA
ATOM     57  C   UNL A   1      39.497  33.933  30.849  1.00  0.00     0.031 C 
ATOM     58  C   UNL A   1      45.476  33.391  29.960  1.00  0.00     0.029 A 
ATOM     59  C   UNL A   1      44.117  33.128  30.009  1.00  0.00     0.049 A 
ATOM     60  H   UNL A   1      43.081  31.370  29.467  1.00  0.00     0.167 HD
ATOM     61  C   UNL A   1      41.738  33.658  30.457  1.00  0.00     0.074 A 
ATOM     62  C   UNL A   1      40.677  34.533  30.911  1.00  0.00     0.031 C 
ATOM     63  C   UNL A   1      43.052  33.990  30.451  1.00  0.00     0.037 A 
BRANCH  50  64
ATOM     64  C   UNL A   1      46.771  29.492  28.437  1.00  0.00     0.057 A 
ATOM     65  C   UNL A   1      47.526  28.851  29.428  1.00  0.00     0.134 A 
ATOM     66  C   UNL A   1      47.362  29.654  27.177  1.00  0.00     0.134 A 
ATOM     67  F   UNL A   1      47.022  28.676  30.659  1.00  0.00    -0.206 F 
ATOM     68  C   UNL A   1      48.826  28.408  29.182  1.00  0.00     0.040 A 
ATOM     69  C   UNL A   1      48.652  29.192  26.913  1.00  0.00     0.040 A 
ATOM     70  F   UNL A   1      46.692  30.254  26.182  1.00  0.00    -0.206 F 
ATOM     71  C   UNL A   1      49.390  28.573  27.919  1.00  0.00     0.006 A 
ENDBRANCH  50  64
BRANCH  51  72
ATOM     72  C   UNL A   1      37.324  32.059  30.302  1.00  0.00     0.057 A 
ATOM     73  C   UNL A   1      36.743  31.714  31.528  1.00  0.00     0.134 A 
ATOM     74  C   UNL A   1      36.532  32.767  29.389  1.00  0.00     0.134 A 
ATOM     75  F   UNL A   1      37.446  31.019  32.434  1.00  0.00    -0.206 F 
ATOM     76  C   UNL A   1      35.421  32.043  31.828  1.00  0.00     0.040 A 
ATOM     77  C   UNL A   1      35.216  33.123  29.685  1.00  0.00     0.040 A 
ATOM     78  F   UNL A   1      37.034  33.134  28.201  1.00  0.00    -0.206 F 
ATOM     79  C   UNL A   1      34.655  32.755  30.907  1.00  0.00     0.006 A 
ENDBRANCH  51  72
BRANCH  63  80
ATOM     80  C   UNL A   1      43.413  35.369  30.920  1.00  0.00     0.057 A 
ATOM     81  C   UNL A   1      43.671  35.647  32.268  1.00  0.00     0.134 A 
ATOM     82  C   UNL A   1      43.543  36.421  30.005  1.00  0.00     0.134 A 
ATOM     83  F   UNL A   1      43.551  34.685  33.196  1.00  0.00    -0.206 F 
ATOM     84  C   UNL A   1      44.025  36.929  32.693  1.00  0.00     0.040 A 
ATOM     85  C   UNL A   1      43.920  37.700  30.414  1.00  0.00     0.040 A 
ATOM     86  F   UNL A   1      43.317  36.219  28.698  1.00  0.00    -0.206 F 
ATOM     87  C   UNL A   1      44.157  37.958  31.762  1.00  0.00     0.006 A 
ENDBRANCH  63  80
ENDBRANCH  37  38
ENDBRANCH  29  32
ENDBRANCH  27  28
ENDBRANCH  26  27
ENDBRANCH   1  26
TORSDOF 13
ENDMDL
