MODEL 1
REMARK VINA RESULT:     -11.3      0.000      0.000
REMARK SMILES CC1(C)[C@H](C(=O)NCCCCNC(=O)c2ccc(-c3c4nc(c(-c5c(F)cccc5F)c5ccc([nH]5)c(-c5c(F)cccc5F)c5nc(c(-c6c(F)cccc6F)c6ccc3[nH]6)C=C5)C=C4)cc2)[C@@H]1C(=O)Nc1ccon1
REMARK SMILES IDX 9 1 8 2 7 3 5 4 6 5 4 7 1 8 2 9 3 10 69 11 70 12 71 13 72 14
REMARK SMILES IDX 73 16 74 17 77 18 75 19 76 20 10 21 11 22 12 23 13 24 14 26
REMARK SMILES IDX 15 27 16 28 68 29 17 30 67 31 18 32 19 33 20 34 61 35 21 36
REMARK SMILES IDX 66 37 60 38 62 39 22 40 65 41 59 42 58 43 23 45 49 46 32 47
REMARK SMILES IDX 48 48 33 49 36 50 47 51 63 52 34 53 35 54 46 56 64 57 37 58
REMARK SMILES IDX 24 59 25 60 30 61 26 62 27 63 29 64 31 65 28 66 50 67 51 68
REMARK SMILES IDX 56 69 52 70 53 71 55 72 57 73 54 74 38 75 39 76 44 77 40 78
REMARK SMILES IDX 41 79 43 80 45 81 42 82
REMARK H PARENT 7 6 72 15 12 25 62 44 36 55
REMARK Flexibility Score: inf
ROOT
ATOM      1  C   UNL A   1      31.882  30.315  26.863  1.00  0.00     0.023 C 
ENDROOT
BRANCH   1   2
ATOM      2  C   UNL A   1      33.174  30.138  26.071  1.00  0.00     0.116 C 
BRANCH   2   3
ATOM      3  N   UNL A   1      32.911  29.880  24.674  1.00  0.00    -0.356 N 
ATOM      4  C   UNL A   1      32.129  29.003  23.985  1.00  0.00     0.224 C 
ATOM      5  O   UNL A   1      32.208  29.076  22.756  1.00  0.00    -0.275 OA
ATOM      6  H   UNL A   1      33.417  30.480  24.080  1.00  0.00     0.163 HD
BRANCH   4   7
ATOM      7  C   UNL A   1      31.155  28.013  24.518  1.00  0.00     0.098 C 
ATOM      8  C   UNL A   1      29.258  26.386  23.924  1.00  0.00     0.013 C 
ATOM      9  C   UNL A   1      30.748  26.663  23.965  1.00  0.00    -0.011 C 
ATOM     10  C   UNL A   1      31.455  26.086  22.765  1.00  0.00     0.013 C 
ATOM     11  C   UNL A   1      31.391  26.799  25.369  1.00  0.00     0.098 C 
BRANCH  11  12
ATOM     12  C   UNL A   1      32.694  26.210  25.738  1.00  0.00     0.230 C 
ATOM     13  O   UNL A   1      33.712  26.890  25.629  1.00  0.00    -0.274 OA
ATOM     14  N   UNL A   1      32.793  24.922  26.185  1.00  0.00    -0.308 N 
ATOM     15  H   UNL A   1      33.699  24.659  26.465  1.00  0.00     0.171 HD
BRANCH  14  16
ATOM     16  C   UNL A   1      31.852  23.930  26.313  1.00  0.00     0.175 A 
ATOM     17  C   UNL A   1      31.340  23.017  25.368  1.00  0.00     0.092 A 
ATOM     18  N   UNL A   1      31.289  23.731  27.512  1.00  0.00    -0.062 NA
ATOM     19  C   UNL A   1      30.367  22.329  26.045  1.00  0.00     0.233 A 
ATOM     20  O   UNL A   1      30.333  22.751  27.330  1.00  0.00    -0.363 OA
ENDBRANCH  14  16
ENDBRANCH  11  12
ENDBRANCH   4   7
ENDBRANCH   2   3
ENDBRANCH   1   2
BRANCH   1  21
ATOM     21  C   UNL A   1      31.377  31.755  26.925  1.00  0.00     0.023 C 
BRANCH  21  22
ATOM     22  C   UNL A   1      32.435  32.824  26.663  1.00  0.00     0.116 C 
BRANCH  22  23
ATOM     23  N   UNL A   1      32.286  34.000  27.510  1.00  0.00    -0.352 N 
ATOM     24  C   UNL A   1      33.072  34.415  28.559  1.00  0.00     0.251 C 
ATOM     25  H   UNL A   1      31.517  34.579  27.301  1.00  0.00     0.163 HD
ATOM     26  O   UNL A   1      32.750  35.375  29.249  1.00  0.00    -0.269 OA
BRANCH  24  27
ATOM     27  C   UNL A   1      34.295  33.653  28.869  1.00  0.00     0.039 A 
ATOM     28  C   UNL A   1      35.537  34.244  28.628  1.00  0.00     0.014 A 
ATOM     29  C   UNL A   1      34.203  32.401  29.482  1.00  0.00     0.014 A 
ATOM     30  C   UNL A   1      36.693  33.621  29.101  1.00  0.00     0.010 A 
ATOM     31  C   UNL A   1      35.348  31.815  30.007  1.00  0.00     0.010 A 
ATOM     32  C   UNL A   1      36.599  32.433  29.843  1.00  0.00    -0.014 A 
BRANCH  32  33
ATOM     33  C   UNL A   1      37.781  31.842  30.513  1.00  0.00     0.031 A 
ATOM     34  C   UNL A   1      38.587  30.783  29.822  1.00  0.00     0.074 A 
ATOM     35  C   UNL A   1      38.061  32.187  31.786  1.00  0.00     0.049 A 
ATOM     36  N   UNL A   1      39.568  30.055  30.290  1.00  0.00    -0.248 NA
ATOM     37  C   UNL A   1      38.223  30.484  28.428  1.00  0.00     0.031 C 
ATOM     38  C   UNL A   1      37.321  33.172  32.578  1.00  0.00     0.029 A 
ATOM     39  N   UNL A   1      39.028  31.730  32.643  1.00  0.00    -0.354 N 
ATOM     40  C   UNL A   1      39.927  29.201  29.258  1.00  0.00     0.074 A 
ATOM     41  C   UNL A   1      39.033  29.472  28.152  1.00  0.00     0.031 C 
ATOM     42  C   UNL A   1      37.871  33.253  33.801  1.00  0.00     0.029 A 
ATOM     43  C   UNL A   1      38.971  32.298  33.892  1.00  0.00     0.049 A 
ATOM     44  H   UNL A   1      39.702  31.057  32.388  1.00  0.00     0.167 HD
ATOM     45  C   UNL A   1      40.924  28.286  29.229  1.00  0.00     0.037 A 
ATOM     46  C   UNL A   1      39.708  32.062  34.993  1.00  0.00     0.037 A 
ATOM     47  C   UNL A   1      41.826  28.038  30.322  1.00  0.00     0.049 A 
ATOM     48  C   UNL A   1      40.791  31.023  34.944  1.00  0.00     0.074 A 
ATOM     49  C   UNL A   1      42.919  27.190  30.361  1.00  0.00     0.029 A 
ATOM     50  N   UNL A   1      41.735  28.633  31.570  1.00  0.00    -0.354 N 
ATOM     51  N   UNL A   1      41.164  30.268  33.939  1.00  0.00    -0.248 NA
ATOM     52  C   UNL A   1      41.549  30.797  36.182  1.00  0.00     0.031 C 
ATOM     53  C   UNL A   1      43.467  27.244  31.647  1.00  0.00     0.029 A 
ATOM     54  C   UNL A   1      42.735  28.151  32.398  1.00  0.00     0.049 A 
ATOM     55  H   UNL A   1      41.060  29.301  31.829  1.00  0.00     0.167 HD
ATOM     56  C   UNL A   1      42.207  29.488  34.418  1.00  0.00     0.074 A 
ATOM     57  C   UNL A   1      42.418  29.871  35.800  1.00  0.00     0.031 C 
ATOM     58  C   UNL A   1      42.925  28.539  33.771  1.00  0.00     0.037 A 
BRANCH  45  59
ATOM     59  C   UNL A   1      41.090  27.490  27.971  1.00  0.00     0.057 A 
ATOM     60  C   UNL A   1      41.897  27.938  26.918  1.00  0.00     0.134 A 
ATOM     61  C   UNL A   1      40.457  26.251  27.819  1.00  0.00     0.134 A 
ATOM     62  F   UNL A   1      42.521  29.124  26.997  1.00  0.00    -0.206 F 
ATOM     63  C   UNL A   1      42.050  27.194  25.747  1.00  0.00     0.040 A 
ATOM     64  C   UNL A   1      40.619  25.487  26.662  1.00  0.00     0.040 A 
ATOM     65  F   UNL A   1      39.672  25.762  28.791  1.00  0.00    -0.206 F 
ATOM     66  C   UNL A   1      41.413  25.961  25.619  1.00  0.00     0.006 A 
ENDBRANCH  45  59
BRANCH  46  67
ATOM     67  C   UNL A   1      39.449  32.830  36.235  1.00  0.00     0.057 A 
ATOM     68  C   UNL A   1      40.113  34.036  36.486  1.00  0.00     0.134 A 
ATOM     69  C   UNL A   1      38.534  32.384  37.196  1.00  0.00     0.134 A 
ATOM     70  F   UNL A   1      41.015  34.502  35.610  1.00  0.00    -0.206 F 
ATOM     71  C   UNL A   1      39.885  34.768  37.652  1.00  0.00     0.040 A 
ATOM     72  C   UNL A   1      38.281  33.114  38.358  1.00  0.00     0.040 A 
ATOM     73  F   UNL A   1      37.863  31.238  37.011  1.00  0.00    -0.206 F 
ATOM     74  C   UNL A   1      38.961  34.308  38.590  1.00  0.00     0.006 A 
ENDBRANCH  46  67
BRANCH  58  75
ATOM     75  C   UNL A   1      44.010  27.856  34.546  1.00  0.00     0.057 A 
ATOM     76  C   UNL A   1      45.291  28.412  34.658  1.00  0.00     0.134 A 
ATOM     77  C   UNL A   1      43.757  26.660  35.229  1.00  0.00     0.134 A 
ATOM     78  F   UNL A   1      45.596  29.548  34.014  1.00  0.00    -0.206 F 
ATOM     79  C   UNL A   1      46.287  27.794  35.414  1.00  0.00     0.040 A 
ATOM     80  C   UNL A   1      44.740  26.043  36.004  1.00  0.00     0.040 A 
ATOM     81  F   UNL A   1      42.549  26.082  35.166  1.00  0.00    -0.206 F 
ATOM     82  C   UNL A   1      46.011  26.610  36.097  1.00  0.00     0.006 A 
ENDBRANCH  58  75
ENDBRANCH  32  33
ENDBRANCH  24  27
ENDBRANCH  22  23
ENDBRANCH  21  22
ENDBRANCH   1  21
TORSDOF 13
ENDMDL
MODEL 2
REMARK VINA RESULT:     -11.3      0.151      1.638
REMARK SMILES CC1(C)[C@H](C(=O)NCCCCNC(=O)c2ccc(-c3c4nc(c(-c5c(F)cccc5F)c5ccc([nH]5)c(-c5c(F)cccc5F)c5nc(c(-c6c(F)cccc6F)c6ccc3[nH]6)C=C5)C=C4)cc2)[C@@H]1C(=O)Nc1ccon1
REMARK SMILES IDX 9 1 8 2 7 3 5 4 6 5 4 7 1 8 2 9 3 10 69 11 70 12 71 13 72 14
REMARK SMILES IDX 73 16 74 17 77 18 75 19 76 20 10 21 11 22 12 23 13 24 14 26
REMARK SMILES IDX 15 27 16 28 68 29 17 30 67 31 18 32 19 33 20 34 61 35 21 36
REMARK SMILES IDX 66 37 60 38 62 39 22 40 65 41 59 42 58 43 23 45 49 46 32 47
REMARK SMILES IDX 48 48 33 49 36 50 47 51 63 52 34 53 35 54 46 56 64 57 37 58
REMARK SMILES IDX 24 59 25 60 30 61 26 62 27 63 29 64 31 65 28 66 50 67 51 68
REMARK SMILES IDX 56 69 52 70 53 71 55 72 57 73 54 74 38 75 39 76 44 77 40 78
REMARK SMILES IDX 41 79 43 80 45 81 42 82
REMARK H PARENT 7 6 72 15 12 25 62 44 36 55
REMARK Flexibility Score: inf
ROOT
ATOM      1  C   UNL A   1      31.776  30.411  26.855  1.00  0.00     0.023 C 
ENDROOT
BRANCH   1   2
ATOM      2  C   UNL A   1      33.095  30.157  26.133  1.00  0.00     0.116 C 
BRANCH   2   3
ATOM      3  N   UNL A   1      32.888  29.853  24.736  1.00  0.00    -0.356 N 
ATOM      4  C   UNL A   1      32.130  28.955  24.045  1.00  0.00     0.224 C 
ATOM      5  O   UNL A   1      32.259  28.987  22.819  1.00  0.00    -0.275 OA
ATOM      6  H   UNL A   1      33.420  30.430  24.143  1.00  0.00     0.163 HD
BRANCH   4   7
ATOM      7  C   UNL A   1      31.131  27.987  24.572  1.00  0.00     0.098 C 
ATOM      8  C   UNL A   1      29.303  26.293  23.952  1.00  0.00     0.013 C 
ATOM      9  C   UNL A   1      30.782  26.597  24.083  1.00  0.00    -0.011 C 
ATOM     10  C   UNL A   1      31.583  25.953  22.979  1.00  0.00     0.013 C 
ATOM     11  C   UNL A   1      31.318  26.837  25.517  1.00  0.00     0.098 C 
BRANCH  11  12
ATOM     12  C   UNL A   1      32.597  26.295  26.019  1.00  0.00     0.230 C 
ATOM     13  O   UNL A   1      33.571  27.039  26.102  1.00  0.00    -0.274 OA
ATOM     14  N   UNL A   1      32.723  24.983  26.381  1.00  0.00    -0.308 N 
ATOM     15  H   UNL A   1      33.599  24.750  26.765  1.00  0.00     0.171 HD
BRANCH  14  16
ATOM     16  C   UNL A   1      31.842  23.931  26.306  1.00  0.00     0.175 A 
ATOM     17  C   UNL A   1      31.698  22.918  25.336  1.00  0.00     0.092 A 
ATOM     18  N   UNL A   1      30.946  23.773  27.288  1.00  0.00    -0.062 NA
ATOM     19  C   UNL A   1      30.601  22.204  25.743  1.00  0.00     0.233 A 
ATOM     20  O   UNL A   1      30.147  22.711  26.913  1.00  0.00    -0.363 OA
ENDBRANCH  14  16
ENDBRANCH  11  12
ENDBRANCH   4   7
ENDBRANCH   2   3
ENDBRANCH   1   2
BRANCH   1  21
ATOM     21  C   UNL A   1      31.332  31.872  26.856  1.00  0.00     0.023 C 
BRANCH  21  22
ATOM     22  C   UNL A   1      32.459  32.890  26.706  1.00  0.00     0.116 C 
BRANCH  22  23
ATOM     23  N   UNL A   1      32.304  34.054  27.569  1.00  0.00    -0.352 N 
ATOM     24  C   UNL A   1      33.089  34.459  28.623  1.00  0.00     0.251 C 
ATOM     25  H   UNL A   1      31.529  34.629  27.371  1.00  0.00     0.163 HD
ATOM     26  O   UNL A   1      32.761  35.406  29.327  1.00  0.00    -0.269 OA
BRANCH  24  27
ATOM     27  C   UNL A   1      34.319  33.702  28.919  1.00  0.00     0.039 A 
ATOM     28  C   UNL A   1      35.555  34.318  28.714  1.00  0.00     0.014 A 
ATOM     29  C   UNL A   1      34.237  32.427  29.483  1.00  0.00     0.014 A 
ATOM     30  C   UNL A   1      36.715  33.694  29.177  1.00  0.00     0.010 A 
ATOM     31  C   UNL A   1      35.384  31.837  29.999  1.00  0.00     0.010 A 
ATOM     32  C   UNL A   1      36.628  32.477  29.873  1.00  0.00    -0.014 A 
BRANCH  32  33
ATOM     33  C   UNL A   1      37.811  31.878  30.534  1.00  0.00     0.031 A 
ATOM     34  C   UNL A   1      38.603  30.812  29.838  1.00  0.00     0.074 A 
ATOM     35  C   UNL A   1      38.103  32.222  31.804  1.00  0.00     0.049 A 
ATOM     36  N   UNL A   1      39.582  30.077  30.299  1.00  0.00    -0.248 NA
ATOM     37  C   UNL A   1      38.226  30.515  28.447  1.00  0.00     0.031 C 
ATOM     38  C   UNL A   1      37.377  33.212  32.602  1.00  0.00     0.029 A 
ATOM     39  N   UNL A   1      39.074  31.757  32.655  1.00  0.00    -0.354 N 
ATOM     40  C   UNL A   1      39.926  29.220  29.264  1.00  0.00     0.074 A 
ATOM     41  C   UNL A   1      39.026  29.497  28.165  1.00  0.00     0.031 C 
ATOM     42  C   UNL A   1      37.937  33.290  33.821  1.00  0.00     0.029 A 
ATOM     43  C   UNL A   1      39.030  32.326  33.904  1.00  0.00     0.049 A 
ATOM     44  H   UNL A   1      39.740  31.079  32.394  1.00  0.00     0.167 HD
ATOM     45  C   UNL A   1      40.916  28.297  29.228  1.00  0.00     0.037 A 
ATOM     46  C   UNL A   1      39.774  32.086  34.999  1.00  0.00     0.037 A 
ATOM     47  C   UNL A   1      41.825  28.042  30.314  1.00  0.00     0.049 A 
ATOM     48  C   UNL A   1      40.848  31.038  34.942  1.00  0.00     0.074 A 
ATOM     49  C   UNL A   1      42.912  27.186  30.345  1.00  0.00     0.029 A 
ATOM     50  N   UNL A   1      41.748  28.639  31.562  1.00  0.00    -0.354 N 
ATOM     51  N   UNL A   1      41.208  30.279  33.935  1.00  0.00    -0.248 NA
ATOM     52  C   UNL A   1      41.614  30.807  36.175  1.00  0.00     0.031 C 
ATOM     53  C   UNL A   1      43.470  27.236  31.627  1.00  0.00     0.029 A 
ATOM     54  C   UNL A   1      42.751  28.149  32.383  1.00  0.00     0.049 A 
ATOM     55  H   UNL A   1      41.080  29.312  31.827  1.00  0.00     0.167 HD
ATOM     56  C   UNL A   1      42.248  29.491  34.407  1.00  0.00     0.074 A 
ATOM     57  C   UNL A   1      42.473  29.874  35.786  1.00  0.00     0.031 C 
ATOM     58  C   UNL A   1      42.954  28.537  33.754  1.00  0.00     0.037 A 
BRANCH  45  59
ATOM     59  C   UNL A   1      41.067  27.498  27.969  1.00  0.00     0.057 A 
ATOM     60  C   UNL A   1      40.415  26.271  27.794  1.00  0.00     0.134 A 
ATOM     61  C   UNL A   1      41.852  27.971  26.912  1.00  0.00     0.134 A 
ATOM     62  F   UNL A   1      39.658  25.757  28.776  1.00  0.00    -0.206 F 
ATOM     63  C   UNL A   1      40.558  25.529  26.620  1.00  0.00     0.040 A 
ATOM     64  C   UNL A   1      41.985  27.250  25.724  1.00  0.00     0.040 A 
ATOM     65  F   UNL A   1      42.501  29.141  27.013  1.00  0.00    -0.206 F 
ATOM     66  C   UNL A   1      41.341  26.022  25.578  1.00  0.00     0.006 A 
ENDBRANCH  45  59
BRANCH  46  67
ATOM     67  C   UNL A   1      39.530  32.856  36.243  1.00  0.00     0.057 A 
ATOM     68  C   UNL A   1      38.578  32.428  37.175  1.00  0.00     0.134 A 
ATOM     69  C   UNL A   1      40.240  34.026  36.533  1.00  0.00     0.134 A 
ATOM     70  F   UNL A   1      37.854  31.324  36.941  1.00  0.00    -0.206 F 
ATOM     71  C   UNL A   1      38.332  33.143  38.348  1.00  0.00     0.040 A 
ATOM     72  C   UNL A   1      40.018  34.741  37.711  1.00  0.00     0.040 A 
ATOM     73  F   UNL A   1      41.169  34.483  35.681  1.00  0.00    -0.206 F 
ATOM     74  C   UNL A   1      39.058  34.301  38.621  1.00  0.00     0.006 A 
ENDBRANCH  46  67
BRANCH  58  75
ATOM     75  C   UNL A   1      44.040  27.846  34.522  1.00  0.00     0.057 A 
ATOM     76  C   UNL A   1      43.812  26.632  35.180  1.00  0.00     0.134 A 
ATOM     77  C   UNL A   1      45.336  28.375  34.560  1.00  0.00     0.134 A 
ATOM     78  F   UNL A   1      42.587  26.085  35.191  1.00  0.00    -0.206 F 
ATOM     79  C   UNL A   1      44.835  25.971  35.860  1.00  0.00     0.040 A 
ATOM     80  C   UNL A   1      46.372  27.713  35.221  1.00  0.00     0.040 A 
ATOM     81  F   UNL A   1      45.618  29.532  33.944  1.00  0.00    -0.206 F 
ATOM     82  C   UNL A   1      46.122  26.507  35.875  1.00  0.00     0.006 A 
ENDBRANCH  58  75
ENDBRANCH  32  33
ENDBRANCH  24  27
ENDBRANCH  22  23
ENDBRANCH  21  22
ENDBRANCH   1  21
TORSDOF 13
ENDMDL
MODEL 3
REMARK VINA RESULT:     -11.1      3.928      9.425
REMARK SMILES CC1(C)[C@H](C(=O)NCCCCNC(=O)c2ccc(-c3c4nc(c(-c5c(F)cccc5F)c5ccc([nH]5)c(-c5c(F)cccc5F)c5nc(c(-c6c(F)cccc6F)c6ccc3[nH]6)C=C5)C=C4)cc2)[C@@H]1C(=O)Nc1ccon1
REMARK SMILES IDX 9 1 8 2 7 3 5 4 6 5 4 7 1 8 2 9 3 10 69 11 70 12 71 13 72 14
REMARK SMILES IDX 73 16 74 17 77 18 75 19 76 20 10 21 11 22 12 23 13 24 14 26
REMARK SMILES IDX 15 27 16 28 68 29 17 30 67 31 18 32 19 33 20 34 61 35 21 36
REMARK SMILES IDX 66 37 60 38 62 39 22 40 65 41 59 42 58 43 23 45 49 46 32 47
REMARK SMILES IDX 48 48 33 49 36 50 47 51 63 52 34 53 35 54 46 56 64 57 37 58
REMARK SMILES IDX 24 59 25 60 30 61 26 62 27 63 29 64 31 65 28 66 50 67 51 68
REMARK SMILES IDX 56 69 52 70 53 71 55 72 57 73 54 74 38 75 39 76 44 77 40 78
REMARK SMILES IDX 41 79 43 80 45 81 42 82
REMARK H PARENT 7 6 72 15 12 25 62 44 36 55
REMARK Flexibility Score: inf
ROOT
ATOM      1  C   UNL A   1      33.692  34.481  29.446  1.00  0.00     0.023 C 
ENDROOT
BRANCH   1   2
ATOM      2  C   UNL A   1      34.929  34.134  30.268  1.00  0.00     0.116 C 
BRANCH   2   3
ATOM      3  N   UNL A   1      34.938  34.828  31.536  1.00  0.00    -0.356 N 
ATOM      4  C   UNL A   1      35.818  34.938  32.571  1.00  0.00     0.224 C 
ATOM      5  O   UNL A   1      35.432  35.619  33.523  1.00  0.00    -0.275 OA
ATOM      6  H   UNL A   1      34.114  35.344  31.687  1.00  0.00     0.163 HD
BRANCH   4   7
ATOM      7  C   UNL A   1      37.197  34.392  32.675  1.00  0.00     0.098 C 
ATOM      8  C   UNL A   1      39.398  34.454  33.998  1.00  0.00     0.013 C 
ATOM      9  C   UNL A   1      37.972  33.950  33.899  1.00  0.00    -0.011 C 
ATOM     10  C   UNL A   1      37.302  33.904  35.249  1.00  0.00     0.013 C 
ATOM     11  C   UNL A   1      37.662  32.967  32.743  1.00  0.00     0.098 C 
BRANCH  11  12
ATOM     12  C   UNL A   1      36.820  31.762  32.890  1.00  0.00     0.230 C 
ATOM     13  O   UNL A   1      35.692  31.755  32.402  1.00  0.00    -0.274 OA
ATOM     14  N   UNL A   1      37.264  30.661  33.567  1.00  0.00    -0.308 N 
ATOM     15  H   UNL A   1      36.647  29.894  33.544  1.00  0.00     0.171 HD
BRANCH  14  16
ATOM     16  C   UNL A   1      38.419  30.434  34.275  1.00  0.00     0.175 A 
ATOM     17  C   UNL A   1      39.749  30.264  33.839  1.00  0.00     0.092 A 
ATOM     18  N   UNL A   1      38.348  30.357  35.610  1.00  0.00    -0.062 NA
ATOM     19  C   UNL A   1      40.453  29.982  34.981  1.00  0.00     0.233 A 
ATOM     20  O   UNL A   1      39.620  30.038  36.045  1.00  0.00    -0.363 OA
ENDBRANCH  14  16
ENDBRANCH  11  12
ENDBRANCH   4   7
ENDBRANCH   2   3
ENDBRANCH   1   2
BRANCH   1  21
ATOM     21  C   UNL A   1      33.499  33.611  28.206  1.00  0.00     0.023 C 
BRANCH  21  22
ATOM     22  C   UNL A   1      34.551  32.523  28.009  1.00  0.00     0.116 C 
BRANCH  22  23
ATOM     23  N   UNL A   1      33.979  31.199  27.805  1.00  0.00    -0.352 N 
ATOM     24  C   UNL A   1      34.595  29.971  27.877  1.00  0.00     0.251 C 
ATOM     25  H   UNL A   1      33.019  31.179  27.586  1.00  0.00     0.163 HD
ATOM     26  O   UNL A   1      33.999  28.946  27.567  1.00  0.00    -0.269 OA
BRANCH  24  27
ATOM     27  C   UNL A   1      36.008  29.913  28.294  1.00  0.00     0.039 A 
ATOM     28  C   UNL A   1      36.306  29.613  29.625  1.00  0.00     0.014 A 
ATOM     29  C   UNL A   1      37.023  30.063  27.347  1.00  0.00     0.014 A 
ATOM     30  C   UNL A   1      37.630  29.356  29.987  1.00  0.00     0.010 A 
ATOM     31  C   UNL A   1      38.330  29.745  27.695  1.00  0.00     0.010 A 
ATOM     32  C   UNL A   1      38.640  29.365  29.011  1.00  0.00    -0.014 A 
BRANCH  32  33
ATOM     33  C   UNL A   1      40.019  28.922  29.322  1.00  0.00     0.031 A 
ATOM     34  C   UNL A   1      40.974  29.856  30.004  1.00  0.00     0.074 A 
ATOM     35  C   UNL A   1      40.439  27.716  28.891  1.00  0.00     0.049 A 
ATOM     36  N   UNL A   1      42.252  29.703  30.240  1.00  0.00    -0.248 NA
ATOM     37  C   UNL A   1      40.424  31.143  30.457  1.00  0.00     0.031 C 
ATOM     38  C   UNL A   1      39.616  26.739  28.176  1.00  0.00     0.029 A 
ATOM     39  N   UNL A   1      41.671  27.118  28.972  1.00  0.00    -0.354 N 
ATOM     40  C   UNL A   1      42.663  30.879  30.852  1.00  0.00     0.074 A 
ATOM     41  C   UNL A   1      41.509  31.751  30.915  1.00  0.00     0.031 C 
ATOM     42  C   UNL A   1      40.362  25.657  27.895  1.00  0.00     0.029 A 
ATOM     43  C   UNL A   1      41.724  25.884  28.371  1.00  0.00     0.049 A 
ATOM     44  H   UNL A   1      42.444  27.533  29.419  1.00  0.00     0.167 HD
ATOM     45  C   UNL A   1      43.888  31.194  31.333  1.00  0.00     0.037 A 
ATOM     46  C   UNL A   1      42.757  25.038  28.205  1.00  0.00     0.037 A 
ATOM     47  C   UNL A   1      45.025  30.313  31.291  1.00  0.00     0.049 A 
ATOM     48  C   UNL A   1      44.113  25.422  28.724  1.00  0.00     0.074 A 
ATOM     49  C   UNL A   1      46.286  30.509  31.826  1.00  0.00     0.029 A 
ATOM     50  N   UNL A   1      45.039  29.073  30.675  1.00  0.00    -0.354 N 
ATOM     51  N   UNL A   1      44.474  26.510  29.360  1.00  0.00    -0.248 NA
ATOM     52  C   UNL A   1      45.205  24.466  28.496  1.00  0.00     0.031 C 
ATOM     53  C   UNL A   1      47.076  29.402  31.498  1.00  0.00     0.029 A 
ATOM     54  C   UNL A   1      46.296  28.502  30.789  1.00  0.00     0.049 A 
ATOM     55  H   UNL A   1      44.269  28.658  30.222  1.00  0.00     0.167 HD
ATOM     56  C   UNL A   1      45.829  26.365  29.620  1.00  0.00     0.074 A 
ATOM     57  C   UNL A   1      46.224  25.077  29.086  1.00  0.00     0.031 C 
ATOM     58  C   UNL A   1      46.671  27.223  30.246  1.00  0.00     0.037 A 
BRANCH  45  59
ATOM     59  C   UNL A   1      44.056  32.549  31.950  1.00  0.00     0.057 A 
ATOM     60  C   UNL A   1      44.489  33.650  31.201  1.00  0.00     0.134 A 
ATOM     61  C   UNL A   1      43.761  32.761  33.302  1.00  0.00     0.134 A 
ATOM     62  F   UNL A   1      44.802  33.508  29.903  1.00  0.00    -0.206 F 
ATOM     63  C   UNL A   1      44.646  34.911  31.779  1.00  0.00     0.040 A 
ATOM     64  C   UNL A   1      43.892  34.022  33.887  1.00  0.00     0.040 A 
ATOM     65  F   UNL A   1      43.339  31.749  34.075  1.00  0.00    -0.206 F 
ATOM     66  C   UNL A   1      44.341  35.099  33.126  1.00  0.00     0.006 A 
ENDBRANCH  45  59
BRANCH  46  67
ATOM     67  C   UNL A   1      42.548  23.740  27.518  1.00  0.00     0.057 A 
ATOM     68  C   UNL A   1      42.241  22.584  28.246  1.00  0.00     0.134 A 
ATOM     69  C   UNL A   1      42.643  23.622  26.127  1.00  0.00     0.134 A 
ATOM     70  F   UNL A   1      42.157  22.634  29.583  1.00  0.00    -0.206 F 
ATOM     71  C   UNL A   1      42.047  21.354  27.616  1.00  0.00     0.040 A 
ATOM     72  C   UNL A   1      42.431  22.402  25.481  1.00  0.00     0.040 A 
ATOM     73  F   UNL A   1      42.928  24.694  25.375  1.00  0.00    -0.206 F 
ATOM     74  C   UNL A   1      42.137  21.263  26.228  1.00  0.00     0.006 A 
ENDBRANCH  46  67
BRANCH  58  75
ATOM     75  C   UNL A   1      48.098  26.792  30.393  1.00  0.00     0.057 A 
ATOM     76  C   UNL A   1      48.523  26.027  31.486  1.00  0.00     0.134 A 
ATOM     77  C   UNL A   1      49.045  27.103  29.408  1.00  0.00     0.134 A 
ATOM     78  F   UNL A   1      47.666  25.712  32.468  1.00  0.00    -0.206 F 
ATOM     79  C   UNL A   1      49.845  25.594  31.599  1.00  0.00     0.040 A 
ATOM     80  C   UNL A   1      50.364  26.659  29.501  1.00  0.00     0.040 A 
ATOM     81  F   UNL A   1      48.697  27.828  28.334  1.00  0.00    -0.206 F 
ATOM     82  C   UNL A   1      50.768  25.903  30.601  1.00  0.00     0.006 A 
ENDBRANCH  58  75
ENDBRANCH  32  33
ENDBRANCH  24  27
ENDBRANCH  22  23
ENDBRANCH  21  22
ENDBRANCH   1  21
TORSDOF 13
ENDMDL
