MODEL 1
REMARK VINA RESULT:     -11.7      0.000      0.000
REMARK SMILES C[NH2+][C@@]1(C(=O)NCCCCNC(=O)c2ccc(-c3c4nc(c(-c5c(F)cccc5F)c5ccc([nH]5)c(-c5c(F)cccc5F)c5nc(c(-c6c(F)cccc6F)c6ccc3[nH]6)C=C5)C=C4)cc2)CCC[C@H](Oc2cccc(OC)c2)C1
REMARK SMILES IDX 8 1 7 2 6 3 4 4 5 5 3 7 68 8 81 9 69 10 71 11 70 12 2 13
REMARK SMILES IDX 1 14 72 17 73 18 74 19 80 20 75 21 77 22 76 23 78 24 79 25
REMARK SMILES IDX 9 26 10 27 11 28 12 29 13 31 14 32 15 33 67 34 16 35 66 36
REMARK SMILES IDX 17 37 18 38 19 39 60 40 20 41 65 42 59 43 61 44 21 45 64 46
REMARK SMILES IDX 58 47 57 48 22 50 48 51 31 52 47 53 32 54 35 55 46 56 62 57
REMARK SMILES IDX 33 58 34 59 45 61 63 62 36 63 23 64 24 65 29 66 25 67 26 68
REMARK SMILES IDX 28 69 30 70 27 71 49 72 50 73 55 74 51 75 52 76 54 77 56 78
REMARK SMILES IDX 53 79 37 80 38 81 43 82 39 83 40 84 42 85 44 86 41 87
REMARK H PARENT 6 6 2 15 2 16 11 30 61 49 35 60
REMARK Flexibility Score: inf
ROOT
ATOM      1  C   UNL A   1      31.219  30.260  25.419  1.00  0.00     0.023 C 
ENDROOT
BRANCH   1   2
ATOM      2  C   UNL A   1      32.667  29.805  25.311  1.00  0.00     0.116 C 
BRANCH   2   3
ATOM      3  N   UNL A   1      32.959  29.447  23.939  1.00  0.00    -0.351 N 
ATOM      4  C   UNL A   1      33.676  28.347  23.542  1.00  0.00     0.281 C 
ATOM      5  O   UNL A   1      34.603  28.579  22.755  1.00  0.00    -0.268 OA
ATOM      6  H   UNL A   1      32.613  30.039  23.233  1.00  0.00     0.163 HD
BRANCH   4   7
ATOM      7  C   UNL A   1      33.233  26.872  23.890  1.00  0.00     0.178 C 
ATOM      8  C   UNL A   1      33.866  25.706  23.113  1.00  0.00     0.079 C 
ATOM      9  C   UNL A   1      31.686  26.757  23.873  1.00  0.00     0.124 C 
ATOM     10  C   UNL A   1      33.086  25.124  21.941  1.00  0.00     0.011 C 
ATOM     11  C   UNL A   1      31.028  26.690  22.481  1.00  0.00     0.180 C 
ATOM     12  C   UNL A   1      31.784  25.778  21.507  1.00  0.00     0.046 C 
BRANCH   7  13
ATOM     13  N   UNL A   1      33.628  26.671  25.339  1.00  0.00    -0.336 N 
ATOM     14  C   UNL A   1      32.679  25.889  26.128  1.00  0.00     0.331 C 
ATOM     15  H   UNL A   1      34.527  26.191  25.358  1.00  0.00     0.346 HD
ATOM     16  H   UNL A   1      33.656  27.599  25.760  1.00  0.00     0.346 HD
ENDBRANCH   7  13
BRANCH  11  17
ATOM     17  O   UNL A   1      30.845  28.038  22.009  1.00  0.00    -0.490 OA
BRANCH  17  18
ATOM     18  C   UNL A   1      29.774  28.815  22.376  1.00  0.00     0.123 A 
ATOM     19  C   UNL A   1      28.617  28.378  23.016  1.00  0.00     0.047 A 
ATOM     20  C   UNL A   1      29.850  30.156  21.957  1.00  0.00     0.092 A 
ATOM     21  C   UNL A   1      27.516  29.232  23.141  1.00  0.00     0.008 A 
ATOM     22  C   UNL A   1      28.755  31.014  22.092  1.00  0.00     0.122 A 
ATOM     23  C   UNL A   1      27.585  30.545  22.679  1.00  0.00     0.046 A 
BRANCH  22  24
ATOM     24  O   UNL A   1      28.778  32.342  21.762  1.00  0.00    -0.497 OA
ATOM     25  C   UNL A   1      27.932  32.690  20.671  1.00  0.00     0.278 C 
ENDBRANCH  22  24
ENDBRANCH  17  18
ENDBRANCH  11  17
ENDBRANCH   4   7
ENDBRANCH   2   3
ENDBRANCH   1   2
BRANCH   1  26
ATOM     26  C   UNL A   1      31.020  31.622  26.042  1.00  0.00     0.023 C 
BRANCH  26  27
ATOM     27  C   UNL A   1      32.264  32.118  26.753  1.00  0.00     0.116 C 
BRANCH  27  28
ATOM     28  N   UNL A   1      32.124  33.462  27.318  1.00  0.00    -0.352 N 
ATOM     29  C   UNL A   1      32.910  34.199  28.175  1.00  0.00     0.251 C 
ATOM     30  H   UNL A   1      31.309  33.930  27.027  1.00  0.00     0.163 HD
ATOM     31  O   UNL A   1      32.529  35.310  28.544  1.00  0.00    -0.269 OA
BRANCH  29  32
ATOM     32  C   UNL A   1      34.185  33.661  28.695  1.00  0.00     0.039 A 
ATOM     33  C   UNL A   1      35.393  34.272  28.342  1.00  0.00     0.014 A 
ATOM     34  C   UNL A   1      34.201  32.563  29.545  1.00  0.00     0.014 A 
ATOM     35  C   UNL A   1      36.589  33.844  28.930  1.00  0.00     0.010 A 
ATOM     36  C   UNL A   1      35.347  32.262  30.259  1.00  0.00     0.010 A 
ATOM     37  C   UNL A   1      36.567  32.874  29.943  1.00  0.00    -0.014 A 
BRANCH  37  38
ATOM     38  C   UNL A   1      37.782  32.404  30.659  1.00  0.00     0.031 A 
ATOM     39  C   UNL A   1      38.541  31.221  30.108  1.00  0.00     0.074 A 
ATOM     40  C   UNL A   1      38.129  32.927  31.851  1.00  0.00     0.049 A 
ATOM     41  N   UNL A   1      39.425  30.452  30.689  1.00  0.00    -0.248 NA
ATOM     42  C   UNL A   1      38.196  30.800  28.738  1.00  0.00     0.031 C 
ATOM     43  C   UNL A   1      37.463  34.043  32.525  1.00  0.00     0.029 A 
ATOM     44  N   UNL A   1      39.126  32.564  32.722  1.00  0.00    -0.354 N 
ATOM     45  C   UNL A   1      39.679  29.425  29.788  1.00  0.00     0.074 A 
ATOM     46  C   UNL A   1      38.812  29.633  28.651  1.00  0.00     0.031 C 
ATOM     47  C   UNL A   1      38.088  34.294  33.687  1.00  0.00     0.029 A 
ATOM     48  C   UNL A   1      39.160  33.322  33.867  1.00  0.00     0.049 A 
ATOM     49  H   UNL A   1      39.757  31.831  32.543  1.00  0.00     0.167 HD
ATOM     50  C   UNL A   1      40.577  28.417  29.881  1.00  0.00     0.037 A 
ATOM     51  C   UNL A   1      39.960  33.230  34.947  1.00  0.00     0.037 A 
ATOM     52  C   UNL A   1      41.511  28.278  30.964  1.00  0.00     0.049 A 
ATOM     53  C   UNL A   1      41.000  32.145  34.999  1.00  0.00     0.074 A 
ATOM     54  C   UNL A   1      42.526  27.351  31.117  1.00  0.00     0.029 A 
ATOM     55  N   UNL A   1      41.561  29.116  32.068  1.00  0.00    -0.354 N 
ATOM     56  N   UNL A   1      41.246  31.193  34.131  1.00  0.00    -0.248 NA
ATOM     57  C   UNL A   1      41.872  32.121  36.181  1.00  0.00     0.031 C 
ATOM     58  C   UNL A   1      43.181  27.618  32.323  1.00  0.00     0.029 A 
ATOM     59  C   UNL A   1      42.593  28.730  32.905  1.00  0.00     0.049 A 
ATOM     60  H   UNL A   1      40.953  29.873  32.232  1.00  0.00     0.167 HD
ATOM     61  C   UNL A   1      42.319  30.478  34.646  1.00  0.00     0.074 A 
ATOM     62  C   UNL A   1      42.682  31.112  35.897  1.00  0.00     0.031 C 
ATOM     63  C   UNL A   1      42.948  29.393  34.133  1.00  0.00     0.037 A 
BRANCH  50  64
ATOM     64  C   UNL A   1      40.607  27.409  28.768  1.00  0.00     0.057 A 
ATOM     65  C   UNL A   1      39.763  26.290  28.757  1.00  0.00     0.134 A 
ATOM     66  C   UNL A   1      41.488  27.560  27.690  1.00  0.00     0.134 A 
ATOM     67  F   UNL A   1      38.906  26.075  29.767  1.00  0.00    -0.206 F 
ATOM     68  C   UNL A   1      39.819  25.341  27.736  1.00  0.00     0.040 A 
ATOM     69  C   UNL A   1      41.531  26.634  26.645  1.00  0.00     0.040 A 
ATOM     70  F   UNL A   1      42.320  28.611  27.632  1.00  0.00    -0.206 F 
ATOM     71  C   UNL A   1      40.702  25.515  26.673  1.00  0.00     0.006 A 
ENDBRANCH  50  64
BRANCH  51  72
ATOM     72  C   UNL A   1      39.838  34.215  36.051  1.00  0.00     0.057 A 
ATOM     73  C   UNL A   1      40.517  35.438  35.994  1.00  0.00     0.134 A 
ATOM     74  C   UNL A   1      39.054  33.964  37.182  1.00  0.00     0.134 A 
ATOM     75  F   UNL A   1      41.299  35.727  34.942  1.00  0.00    -0.206 F 
ATOM     76  C   UNL A   1      40.439  36.368  37.031  1.00  0.00     0.040 A 
ATOM     77  C   UNL A   1      38.948  34.896  38.217  1.00  0.00     0.040 A 
ATOM     78  F   UNL A   1      38.371  32.816  37.292  1.00  0.00    -0.206 F 
ATOM     79  C   UNL A   1      39.649  36.099  38.146  1.00  0.00     0.006 A 
ENDBRANCH  51  72
BRANCH  63  80
ATOM     80  C   UNL A   1      44.120  28.855  34.896  1.00  0.00     0.057 A 
ATOM     81  C   UNL A   1      43.976  27.846  35.856  1.00  0.00     0.134 A 
ATOM     82  C   UNL A   1      45.414  29.318  34.627  1.00  0.00     0.134 A 
ATOM     83  F   UNL A   1      42.760  27.370  36.164  1.00  0.00    -0.206 F 
ATOM     84  C   UNL A   1      45.078  27.329  36.537  1.00  0.00     0.040 A 
ATOM     85  C   UNL A   1      46.526  28.791  35.284  1.00  0.00     0.040 A 
ATOM     86  F   UNL A   1      45.619  30.276  33.711  1.00  0.00    -0.206 F 
ATOM     87  C   UNL A   1      46.359  27.796  36.246  1.00  0.00     0.006 A 
ENDBRANCH  63  80
ENDBRANCH  37  38
ENDBRANCH  29  32
ENDBRANCH  27  28
ENDBRANCH  26  27
ENDBRANCH   1  26
TORSDOF 15
ENDMDL
MODEL 2
REMARK VINA RESULT:     -11.6      5.918     10.763
REMARK SMILES C[NH2+][C@@]1(C(=O)NCCCCNC(=O)c2ccc(-c3c4nc(c(-c5c(F)cccc5F)c5ccc([nH]5)c(-c5c(F)cccc5F)c5nc(c(-c6c(F)cccc6F)c6ccc3[nH]6)C=C5)C=C4)cc2)CCC[C@H](Oc2cccc(OC)c2)C1
REMARK SMILES IDX 8 1 7 2 6 3 4 4 5 5 3 7 68 8 81 9 69 10 71 11 70 12 2 13
REMARK SMILES IDX 1 14 72 17 73 18 74 19 80 20 75 21 77 22 76 23 78 24 79 25
REMARK SMILES IDX 9 26 10 27 11 28 12 29 13 31 14 32 15 33 67 34 16 35 66 36
REMARK SMILES IDX 17 37 18 38 19 39 60 40 20 41 65 42 59 43 61 44 21 45 64 46
REMARK SMILES IDX 58 47 57 48 22 50 48 51 31 52 47 53 32 54 35 55 46 56 62 57
REMARK SMILES IDX 33 58 34 59 45 61 63 62 36 63 23 64 24 65 29 66 25 67 26 68
REMARK SMILES IDX 28 69 30 70 27 71 49 72 50 73 55 74 51 75 52 76 54 77 56 78
REMARK SMILES IDX 53 79 37 80 38 81 43 82 39 83 40 84 42 85 44 86 41 87
REMARK H PARENT 6 6 2 15 2 16 11 30 61 49 35 60
REMARK Flexibility Score: inf
ROOT
ATOM      1  C   UNL A   1      36.279  20.455  24.769  1.00  0.00     0.023 C 
ENDROOT
BRANCH   1   2
ATOM      2  C   UNL A   1      36.228  21.573  25.800  1.00  0.00     0.116 C 
BRANCH   2   3
ATOM      3  N   UNL A   1      35.039  21.423  26.614  1.00  0.00    -0.351 N 
ATOM      4  C   UNL A   1      34.242  22.451  27.047  1.00  0.00     0.281 C 
ATOM      5  O   UNL A   1      34.007  22.458  28.262  1.00  0.00    -0.268 OA
ATOM      6  H   UNL A   1      34.782  20.510  26.876  1.00  0.00     0.163 HD
BRANCH   4   7
ATOM      7  C   UNL A   1      33.503  23.432  26.054  1.00  0.00     0.178 C 
ATOM      8  C   UNL A   1      32.392  24.342  26.601  1.00  0.00     0.079 C 
ATOM      9  C   UNL A   1      33.004  22.658  24.806  1.00  0.00     0.124 C 
ATOM     10  C   UNL A   1      30.949  23.889  26.424  1.00  0.00     0.011 C 
ATOM     11  C   UNL A   1      31.735  21.806  25.002  1.00  0.00     0.180 C 
ATOM     12  C   UNL A   1      30.659  22.520  25.830  1.00  0.00     0.046 C 
BRANCH   7  13
ATOM     13  N   UNL A   1      34.584  24.359  25.536  1.00  0.00    -0.336 N 
ATOM     14  C   UNL A   1      34.585  24.549  24.088  1.00  0.00     0.331 C 
ATOM     15  H   UNL A   1      34.457  25.271  25.975  1.00  0.00     0.346 HD
ATOM     16  H   UNL A   1      35.475  23.921  25.769  1.00  0.00     0.346 HD
ENDBRANCH   7  13
BRANCH  11  17
ATOM     17  O   UNL A   1      32.134  20.526  25.527  1.00  0.00    -0.490 OA
BRANCH  17  18
ATOM     18  C   UNL A   1      32.519  19.480  24.725  1.00  0.00     0.123 A 
ATOM     19  C   UNL A   1      32.384  19.408  23.341  1.00  0.00     0.047 A 
ATOM     20  C   UNL A   1      32.998  18.353  25.417  1.00  0.00     0.092 A 
ATOM     21  C   UNL A   1      32.621  18.203  22.671  1.00  0.00     0.008 A 
ATOM     22  C   UNL A   1      33.246  17.151  24.749  1.00  0.00     0.122 A 
ATOM     23  C   UNL A   1      33.049  17.078  23.374  1.00  0.00     0.046 A 
BRANCH  22  24
ATOM     24  O   UNL A   1      33.768  16.037  25.347  1.00  0.00    -0.497 OA
ATOM     25  C   UNL A   1      32.834  14.978  25.530  1.00  0.00     0.278 C 
ENDBRANCH  22  24
ENDBRANCH  17  18
ENDBRANCH  11  17
ENDBRANCH   4   7
ENDBRANCH   2   3
ENDBRANCH   1   2
BRANCH   1  26
ATOM     26  C   UNL A   1      37.417  19.476  24.942  1.00  0.00     0.023 C 
BRANCH  26  27
ATOM     27  C   UNL A   1      38.598  20.088  25.670  1.00  0.00     0.116 C 
BRANCH  27  28
ATOM     28  N   UNL A   1      39.797  19.247  25.663  1.00  0.00    -0.352 N 
ATOM     29  C   UNL A   1      41.107  19.487  26.010  1.00  0.00     0.251 C 
ATOM     30  H   UNL A   1      39.633  18.329  25.348  1.00  0.00     0.163 HD
ATOM     31  O   UNL A   1      41.948  18.602  25.856  1.00  0.00    -0.269 OA
BRANCH  29  32
ATOM     32  C   UNL A   1      41.529  20.807  26.527  1.00  0.00     0.039 A 
ATOM     33  C   UNL A   1      41.946  20.932  27.855  1.00  0.00     0.014 A 
ATOM     34  C   UNL A   1      41.534  21.926  25.704  1.00  0.00     0.014 A 
ATOM     35  C   UNL A   1      42.464  22.150  28.313  1.00  0.00     0.010 A 
ATOM     36  C   UNL A   1      42.209  23.067  26.098  1.00  0.00     0.010 A 
ATOM     37  C   UNL A   1      42.658  23.212  27.417  1.00  0.00    -0.014 A 
BRANCH  37  38
ATOM     38  C   UNL A   1      43.254  24.518  27.804  1.00  0.00     0.031 A 
ATOM     39  C   UNL A   1      42.339  25.631  28.256  1.00  0.00     0.074 A 
ATOM     40  C   UNL A   1      44.568  24.758  27.629  1.00  0.00     0.049 A 
ATOM     41  N   UNL A   1      42.572  26.914  28.353  1.00  0.00    -0.248 NA
ATOM     42  C   UNL A   1      40.948  25.253  28.564  1.00  0.00     0.031 C 
ATOM     43  C   UNL A   1      45.562  23.791  27.161  1.00  0.00     0.029 A 
ATOM     44  N   UNL A   1      45.289  25.913  27.806  1.00  0.00    -0.354 N 
ATOM     45  C   UNL A   1      41.346  27.495  28.657  1.00  0.00     0.074 A 
ATOM     46  C   UNL A   1      40.364  26.436  28.665  1.00  0.00     0.031 C 
ATOM     47  C   UNL A   1      46.767  24.384  27.117  1.00  0.00     0.029 A 
ATOM     48  C   UNL A   1      46.621  25.784  27.499  1.00  0.00     0.049 A 
ATOM     49  H   UNL A   1      44.889  26.755  28.124  1.00  0.00     0.167 HD
ATOM     50  C   UNL A   1      41.066  28.789  28.937  1.00  0.00     0.037 A 
ATOM     51  C   UNL A   1      47.609  26.698  27.511  1.00  0.00     0.037 A 
ATOM     52  C   UNL A   1      42.064  29.818  29.034  1.00  0.00     0.049 A 
ATOM     53  C   UNL A   1      47.289  28.118  27.894  1.00  0.00     0.074 A 
ATOM     54  C   UNL A   1      41.908  31.143  29.401  1.00  0.00     0.029 A 
ATOM     55  N   UNL A   1      43.416  29.624  28.789  1.00  0.00    -0.354 N 
ATOM     56  N   UNL A   1      46.132  28.651  28.201  1.00  0.00    -0.248 NA
ATOM     57  C   UNL A   1      48.415  29.061  27.931  1.00  0.00     0.031 C 
ATOM     58  C   UNL A   1      43.164  31.755  29.363  1.00  0.00     0.029 A 
ATOM     59  C   UNL A   1      44.106  30.804  29.002  1.00  0.00     0.049 A 
ATOM     60  H   UNL A   1      43.823  28.774  28.506  1.00  0.00     0.167 HD
ATOM     61  C   UNL A   1      46.393  29.982  28.498  1.00  0.00     0.074 A 
ATOM     62  C   UNL A   1      47.821  30.172  28.343  1.00  0.00     0.031 C 
ATOM     63  C   UNL A   1      45.530  30.961  28.864  1.00  0.00     0.037 A 
BRANCH  50  64
ATOM     64  C   UNL A   1      39.631  29.151  29.187  1.00  0.00     0.057 A 
ATOM     65  C   UNL A   1      39.079  29.156  30.475  1.00  0.00     0.134 A 
ATOM     66  C   UNL A   1      38.788  29.506  28.126  1.00  0.00     0.134 A 
ATOM     67  F   UNL A   1      39.826  28.810  31.535  1.00  0.00    -0.206 F 
ATOM     68  C   UNL A   1      37.735  29.462  30.696  1.00  0.00     0.040 A 
ATOM     69  C   UNL A   1      37.449  29.846  28.337  1.00  0.00     0.040 A 
ATOM     70  F   UNL A   1      39.250  29.529  26.867  1.00  0.00    -0.206 F 
ATOM     71  C   UNL A   1      36.918  29.814  29.625  1.00  0.00     0.006 A 
ENDBRANCH  50  64
BRANCH  51  72
ATOM     72  C   UNL A   1      49.001  26.297  27.187  1.00  0.00     0.057 A 
ATOM     73  C   UNL A   1      49.471  26.355  25.869  1.00  0.00     0.134 A 
ATOM     74  C   UNL A   1      49.889  25.846  28.169  1.00  0.00     0.134 A 
ATOM     75  F   UNL A   1      48.659  26.763  24.881  1.00  0.00    -0.206 F 
ATOM     76  C   UNL A   1      50.766  25.958  25.536  1.00  0.00     0.040 A 
ATOM     77  C   UNL A   1      51.195  25.468  27.853  1.00  0.00     0.040 A 
ATOM     78  F   UNL A   1      49.502  25.776  29.451  1.00  0.00    -0.206 F 
ATOM     79  C   UNL A   1      51.634  25.516  26.531  1.00  0.00     0.006 A 
ENDBRANCH  51  72
BRANCH  63  80
ATOM     80  C   UNL A   1      46.112  32.308  29.169  1.00  0.00     0.057 A 
ATOM     81  C   UNL A   1      46.240  33.296  28.187  1.00  0.00     0.134 A 
ATOM     82  C   UNL A   1      46.499  32.633  30.475  1.00  0.00     0.134 A 
ATOM     83  F   UNL A   1      45.897  33.040  26.916  1.00  0.00    -0.206 F 
ATOM     84  C   UNL A   1      46.752  34.559  28.489  1.00  0.00     0.040 A 
ATOM     85  C   UNL A   1      46.989  33.899  30.795  1.00  0.00     0.040 A 
ATOM     86  F   UNL A   1      46.390  31.732  31.463  1.00  0.00    -0.206 F 
ATOM     87  C   UNL A   1      47.121  34.865  29.798  1.00  0.00     0.006 A 
ENDBRANCH  63  80
ENDBRANCH  37  38
ENDBRANCH  29  32
ENDBRANCH  27  28
ENDBRANCH  26  27
ENDBRANCH   1  26
TORSDOF 15
ENDMDL
MODEL 3
REMARK VINA RESULT:     -11.6      5.971     10.846
REMARK SMILES C[NH2+][C@@]1(C(=O)NCCCCNC(=O)c2ccc(-c3c4nc(c(-c5c(F)cccc5F)c5ccc([nH]5)c(-c5c(F)cccc5F)c5nc(c(-c6c(F)cccc6F)c6ccc3[nH]6)C=C5)C=C4)cc2)CCC[C@H](Oc2cccc(OC)c2)C1
REMARK SMILES IDX 8 1 7 2 6 3 4 4 5 5 3 7 68 8 81 9 69 10 71 11 70 12 2 13
REMARK SMILES IDX 1 14 72 17 73 18 74 19 80 20 75 21 77 22 76 23 78 24 79 25
REMARK SMILES IDX 9 26 10 27 11 28 12 29 13 31 14 32 15 33 67 34 16 35 66 36
REMARK SMILES IDX 17 37 18 38 19 39 60 40 20 41 65 42 59 43 61 44 21 45 64 46
REMARK SMILES IDX 58 47 57 48 22 50 48 51 31 52 47 53 32 54 35 55 46 56 62 57
REMARK SMILES IDX 33 58 34 59 45 61 63 62 36 63 23 64 24 65 29 66 25 67 26 68
REMARK SMILES IDX 28 69 30 70 27 71 49 72 50 73 55 74 51 75 52 76 54 77 56 78
REMARK SMILES IDX 53 79 37 80 38 81 43 82 39 83 40 84 42 85 44 86 41 87
REMARK H PARENT 6 6 2 15 2 16 11 30 61 49 35 60
REMARK Flexibility Score: inf
ROOT
ATOM      1  C   UNL A   1      36.304  19.994  24.996  1.00  0.00     0.023 C 
ENDROOT
BRANCH   1   2
ATOM      2  C   UNL A   1      36.116  21.376  25.604  1.00  0.00     0.116 C 
BRANCH   2   3
ATOM      3  N   UNL A   1      34.994  21.351  26.520  1.00  0.00    -0.351 N 
ATOM      4  C   UNL A   1      34.278  22.448  26.925  1.00  0.00     0.281 C 
ATOM      5  O   UNL A   1      34.146  22.568  28.150  1.00  0.00    -0.268 OA
ATOM      6  H   UNL A   1      34.724  20.476  26.880  1.00  0.00     0.163 HD
BRANCH   4   7
ATOM      7  C   UNL A   1      33.499  23.377  25.913  1.00  0.00     0.178 C 
ATOM      8  C   UNL A   1      32.395  24.300  26.453  1.00  0.00     0.079 C 
ATOM      9  C   UNL A   1      32.971  22.543  24.716  1.00  0.00     0.124 C 
ATOM     10  C   UNL A   1      30.952  23.826  26.341  1.00  0.00     0.011 C 
ATOM     11  C   UNL A   1      31.718  21.688  24.988  1.00  0.00     0.180 C 
ATOM     12  C   UNL A   1      30.660  22.428  25.817  1.00  0.00     0.046 C 
BRANCH   7  13
ATOM     13  N   UNL A   1      34.554  24.290  25.321  1.00  0.00    -0.336 N 
ATOM     14  C   UNL A   1      34.170  25.697  25.243  1.00  0.00     0.331 C 
ATOM     15  H   UNL A   1      35.392  24.222  25.898  1.00  0.00     0.346 HD
ATOM     16  H   UNL A   1      34.699  23.978  24.361  1.00  0.00     0.346 HD
ENDBRANCH   7  13
BRANCH  11  17
ATOM     17  O   UNL A   1      32.146  20.437  25.557  1.00  0.00    -0.490 OA
BRANCH  17  18
ATOM     18  C   UNL A   1      32.565  19.377  24.792  1.00  0.00     0.123 A 
ATOM     19  C   UNL A   1      32.435  19.253  23.411  1.00  0.00     0.047 A 
ATOM     20  C   UNL A   1      33.079  18.290  25.523  1.00  0.00     0.092 A 
ATOM     21  C   UNL A   1      32.711  18.034  22.783  1.00  0.00     0.008 A 
ATOM     22  C   UNL A   1      33.367  17.075  24.897  1.00  0.00     0.122 A 
ATOM     23  C   UNL A   1      33.174  16.948  23.525  1.00  0.00     0.046 A 
BRANCH  22  24
ATOM     24  O   UNL A   1      33.923  15.999  25.533  1.00  0.00    -0.497 OA
ATOM     25  C   UNL A   1      35.322  15.846  25.314  1.00  0.00     0.278 C 
ENDBRANCH  22  24
ENDBRANCH  17  18
ENDBRANCH  11  17
ENDBRANCH   4   7
ENDBRANCH   2   3
ENDBRANCH   1   2
BRANCH   1  26
ATOM     26  C   UNL A   1      37.724  19.650  24.612  1.00  0.00     0.023 C 
BRANCH  26  27
ATOM     27  C   UNL A   1      38.719  20.025  25.693  1.00  0.00     0.116 C 
BRANCH  27  28
ATOM     28  N   UNL A   1      39.920  19.186  25.705  1.00  0.00    -0.352 N 
ATOM     29  C   UNL A   1      41.229  19.436  26.053  1.00  0.00     0.251 C 
ATOM     30  H   UNL A   1      39.760  18.262  25.407  1.00  0.00     0.163 HD
ATOM     31  O   UNL A   1      42.072  18.551  25.918  1.00  0.00    -0.269 OA
BRANCH  29  32
ATOM     32  C   UNL A   1      41.647  20.766  26.545  1.00  0.00     0.039 A 
ATOM     33  C   UNL A   1      42.082  20.913  27.866  1.00  0.00     0.014 A 
ATOM     34  C   UNL A   1      41.628  21.874  25.708  1.00  0.00     0.014 A 
ATOM     35  C   UNL A   1      42.595  22.142  28.300  1.00  0.00     0.010 A 
ATOM     36  C   UNL A   1      42.298  23.027  26.077  1.00  0.00     0.010 A 
ATOM     37  C   UNL A   1      42.766  23.193  27.388  1.00  0.00    -0.014 A 
BRANCH  37  38
ATOM     38  C   UNL A   1      43.355  24.509  27.749  1.00  0.00     0.031 A 
ATOM     39  C   UNL A   1      42.436  25.622  28.193  1.00  0.00     0.074 A 
ATOM     40  C   UNL A   1      44.665  24.757  27.556  1.00  0.00     0.049 A 
ATOM     41  N   UNL A   1      42.659  26.908  28.269  1.00  0.00    -0.248 NA
ATOM     42  C   UNL A   1      41.051  25.238  28.521  1.00  0.00     0.031 C 
ATOM     43  C   UNL A   1      45.662  23.791  27.092  1.00  0.00     0.029 A 
ATOM     44  N   UNL A   1      45.378  25.921  27.708  1.00  0.00    -0.354 N 
ATOM     45  C   UNL A   1      41.432  27.484  28.576  1.00  0.00     0.074 A 
ATOM     46  C   UNL A   1      40.459  26.417  28.611  1.00  0.00     0.031 C 
ATOM     47  C   UNL A   1      46.862  24.393  27.027  1.00  0.00     0.029 A 
ATOM     48  C   UNL A   1      46.708  25.797  27.389  1.00  0.00     0.049 A 
ATOM     49  H   UNL A   1      44.975  26.764  28.017  1.00  0.00     0.167 HD
ATOM     50  C   UNL A   1      41.145  28.780  28.840  1.00  0.00     0.037 A 
ATOM     51  C   UNL A   1      47.689  26.720  27.377  1.00  0.00     0.037 A 
ATOM     52  C   UNL A   1      42.136  29.818  28.911  1.00  0.00     0.049 A 
ATOM     53  C   UNL A   1      47.362  28.142  27.742  1.00  0.00     0.074 A 
ATOM     54  C   UNL A   1      41.973  31.147  29.260  1.00  0.00     0.029 A 
ATOM     55  N   UNL A   1      43.486  29.632  28.655  1.00  0.00    -0.354 N 
ATOM     56  N   UNL A   1      46.204  28.670  28.053  1.00  0.00    -0.248 NA
ATOM     57  C   UNL A   1      48.480  29.095  27.753  1.00  0.00     0.031 C 
ATOM     58  C   UNL A   1      43.223  31.769  29.199  1.00  0.00     0.029 A 
ATOM     59  C   UNL A   1      44.169  30.820  28.843  1.00  0.00     0.049 A 
ATOM     60  H   UNL A   1      43.897  28.780  28.380  1.00  0.00     0.167 HD
ATOM     61  C   UNL A   1      46.457  30.008  28.327  1.00  0.00     0.074 A 
ATOM     62  C   UNL A   1      47.882  30.207  28.154  1.00  0.00     0.031 C 
ATOM     63  C   UNL A   1      45.591  30.985  28.687  1.00  0.00     0.037 A 
BRANCH  50  64
ATOM     64  C   UNL A   1      39.709  29.134  29.099  1.00  0.00     0.057 A 
ATOM     65  C   UNL A   1      38.831  29.485  28.064  1.00  0.00     0.134 A 
ATOM     66  C   UNL A   1      39.192  29.119  30.401  1.00  0.00     0.134 A 
ATOM     67  F   UNL A   1      39.265  29.535  26.795  1.00  0.00    -0.206 F 
ATOM     68  C   UNL A   1      37.507  29.844  28.316  1.00  0.00     0.040 A 
ATOM     69  C   UNL A   1      37.860  29.445  30.663  1.00  0.00     0.040 A 
ATOM     70  F   UNL A   1      39.973  28.786  31.440  1.00  0.00    -0.206 F 
ATOM     71  C   UNL A   1      37.017  29.819  29.619  1.00  0.00     0.006 A 
ENDBRANCH  50  64
BRANCH  51  72
ATOM     72  C   UNL A   1      49.081  26.325  27.044  1.00  0.00     0.057 A 
ATOM     73  C   UNL A   1      49.554  26.418  25.729  1.00  0.00     0.134 A 
ATOM     74  C   UNL A   1      49.966  25.844  28.015  1.00  0.00     0.134 A 
ATOM     75  F   UNL A   1      48.744  26.855  24.752  1.00  0.00    -0.206 F 
ATOM     76  C   UNL A   1      50.848  26.028  25.387  1.00  0.00     0.040 A 
ATOM     77  C   UNL A   1      51.272  25.472  27.691  1.00  0.00     0.040 A 
ATOM     78  F   UNL A   1      49.577  25.740  29.294  1.00  0.00    -0.206 F 
ATOM     79  C   UNL A   1      51.714  25.556  26.371  1.00  0.00     0.006 A 
ENDBRANCH  51  72
BRANCH  63  80
ATOM     80  C   UNL A   1      46.164  32.341  28.966  1.00  0.00     0.057 A 
ATOM     81  C   UNL A   1      46.607  32.707  30.243  1.00  0.00     0.134 A 
ATOM     82  C   UNL A   1      46.321  33.272  27.931  1.00  0.00     0.134 A 
ATOM     83  F   UNL A   1      46.472  31.862  31.276  1.00  0.00    -0.206 F 
ATOM     84  C   UNL A   1      47.170  33.960  30.485  1.00  0.00     0.040 A 
ATOM     85  C   UNL A   1      46.905  34.519  28.156  1.00  0.00     0.040 A 
ATOM     86  F   UNL A   1      45.926  32.977  26.684  1.00  0.00    -0.206 F 
ATOM     87  C   UNL A   1      47.327  34.867  29.438  1.00  0.00     0.006 A 
ENDBRANCH  63  80
ENDBRANCH  37  38
ENDBRANCH  29  32
ENDBRANCH  27  28
ENDBRANCH  26  27
ENDBRANCH   1  26
TORSDOF 15
ENDMDL
