MODEL 1
REMARK VINA RESULT:     -11.6      0.000      0.000
REMARK SMILES C#CCNC(=O)[C@H](C)S(=O)(=O)c1ccc(C(=O)NCCCCNC(=O)c2ccc(-c3c4nc(c(-c5c(F)cccc5F)c5ccc([nH]5)c(-c5c(F)cccc5F)c5nc(c(-c6c(F)cccc6F)c6ccc3[nH]6)C=C5)C=C4)cc2)cc1F
REMARK SMILES IDX 19 1 18 2 16 3 17 4 15 6 12 7 13 8 81 9 14 10 80 11 82 12
REMARK SMILES IDX 9 13 10 14 11 15 7 16 8 17 5 18 4 19 6 21 3 22 2 23 1 24
REMARK SMILES IDX 20 25 21 26 22 27 23 28 24 29 25 31 26 32 27 33 79 34 28 35
REMARK SMILES IDX 78 36 29 37 30 38 31 39 72 40 32 41 77 42 71 43 73 44 33 45
REMARK SMILES IDX 76 46 70 47 69 48 34 50 60 51 43 52 59 53 44 54 47 55 58 56
REMARK SMILES IDX 74 57 45 58 46 59 57 61 75 62 48 63 35 64 36 65 41 66 37 67
REMARK SMILES IDX 38 68 40 69 42 70 39 71 61 72 62 73 67 74 63 75 64 76 66 77
REMARK SMILES IDX 68 78 65 79 49 80 50 81 55 82 51 83 52 84 54 85 56 86 53 87
REMARK H PARENT 18 5 4 20 23 30 73 49 47 60
REMARK Flexibility Score: inf
ROOT
ATOM      1  C   UNL A   1      33.010  30.165  26.152  1.00  0.00     0.116 C 
ENDROOT
BRANCH   1   2
ATOM      2  N   UNL A   1      33.283  29.717  24.796  1.00  0.00    -0.352 N 
ATOM      3  C   UNL A   1      33.209  28.486  24.187  1.00  0.00     0.251 C 
ATOM      4  O   UNL A   1      33.416  28.432  22.975  1.00  0.00    -0.269 OA
ATOM      5  H   UNL A   1      33.581  30.438  24.194  1.00  0.00     0.163 HD
BRANCH   3   6
ATOM      6  C   UNL A   1      32.858  27.231  24.909  1.00  0.00     0.042 A 
ATOM      7  C   UNL A   1      32.288  24.776  26.170  1.00  0.00     0.103 A 
ATOM      8  C   UNL A   1      33.615  25.175  25.994  1.00  0.00     0.024 A 
ATOM      9  C   UNL A   1      31.280  25.604  25.720  1.00  0.00     0.142 A 
ATOM     10  C   UNL A   1      33.894  26.393  25.354  1.00  0.00     0.015 A 
ATOM     11  C   UNL A   1      31.553  26.839  25.163  1.00  0.00     0.054 A 
ATOM     12  F   UNL A   1      30.003  25.229  25.716  1.00  0.00    -0.206 F 
BRANCH   7  13
ATOM     13  S   UNL A   1      31.897  23.144  26.700  1.00  0.00     0.192 S 
ATOM     14  O   UNL A   1      30.632  23.254  27.414  1.00  0.00    -0.223 OA
ATOM     15  O   UNL A   1      33.056  22.708  27.458  1.00  0.00    -0.223 OA
BRANCH  13  16
ATOM     16  C   UNL A   1      31.631  22.029  25.334  1.00  0.00     0.199 C 
ATOM     17  C   UNL A   1      31.670  22.794  24.003  1.00  0.00     0.036 C 
BRANCH  16  18
ATOM     18  C   UNL A   1      32.570  20.846  25.234  1.00  0.00     0.239 C 
ATOM     19  N   UNL A   1      33.928  21.009  25.139  1.00  0.00    -0.344 N 
ATOM     20  H   UNL A   1      34.489  20.371  25.637  1.00  0.00     0.164 HD
ATOM     21  O   UNL A   1      32.152  19.688  25.337  1.00  0.00    -0.274 OA
BRANCH  19  22
ATOM     22  C   UNL A   1      34.612  22.024  24.380  1.00  0.00     0.206 C 
BRANCH  22  23
ATOM     23  C   UNL A   1      35.781  22.653  25.119  1.00  0.00    -0.085 C 
ATOM     24  C   UNL A   1      36.783  23.193  25.754  1.00  0.00     0.006 C 
ENDBRANCH  22  23
ENDBRANCH  19  22
ENDBRANCH  16  18
ENDBRANCH  13  16
ENDBRANCH   7  13
ENDBRANCH   3   6
ENDBRANCH   1   2
BRANCH   1  25
ATOM     25  C   UNL A   1      31.560  30.644  26.312  1.00  0.00     0.023 C 
BRANCH  25  26
ATOM     26  C   UNL A   1      31.398  32.147  26.533  1.00  0.00     0.023 C 
BRANCH  26  27
ATOM     27  C   UNL A   1      32.563  32.808  27.254  1.00  0.00     0.116 C 
BRANCH  27  28
ATOM     28  N   UNL A   1      32.299  34.189  27.624  1.00  0.00    -0.352 N 
ATOM     29  C   UNL A   1      32.943  34.949  28.569  1.00  0.00     0.251 C 
ATOM     30  H   UNL A   1      31.567  34.633  27.138  1.00  0.00     0.163 HD
ATOM     31  O   UNL A   1      32.530  36.070  28.849  1.00  0.00    -0.269 OA
BRANCH  29  32
ATOM     32  C   UNL A   1      34.109  34.389  29.284  1.00  0.00     0.039 A 
ATOM     33  C   UNL A   1      33.889  33.675  30.465  1.00  0.00     0.014 A 
ATOM     34  C   UNL A   1      35.407  34.553  28.791  1.00  0.00     0.014 A 
ATOM     35  C   UNL A   1      34.967  33.084  31.125  1.00  0.00     0.010 A 
ATOM     36  C   UNL A   1      36.471  33.908  29.412  1.00  0.00     0.010 A 
ATOM     37  C   UNL A   1      36.262  33.177  30.590  1.00  0.00    -0.014 A 
BRANCH  37  38
ATOM     38  C   UNL A   1      37.413  32.537  31.268  1.00  0.00     0.031 A 
ATOM     39  C   UNL A   1      38.125  31.387  30.615  1.00  0.00     0.074 A 
ATOM     40  C   UNL A   1      37.785  32.961  32.491  1.00  0.00     0.049 A 
ATOM     41  N   UNL A   1      39.129  30.678  31.063  1.00  0.00    -0.248 NA
ATOM     42  C   UNL A   1      37.628  30.963  29.296  1.00  0.00     0.031 C 
ATOM     43  C   UNL A   1      37.139  34.033  33.249  1.00  0.00     0.029 A 
ATOM     44  N   UNL A   1      38.803  32.539  33.308  1.00  0.00    -0.354 N 
ATOM     45  C   UNL A   1      39.369  29.714  30.093  1.00  0.00     0.074 A 
ATOM     46  C   UNL A   1      38.382  29.901  29.053  1.00  0.00     0.031 C 
ATOM     47  C   UNL A   1      37.794  34.204  34.409  1.00  0.00     0.029 A 
ATOM     48  C   UNL A   1      38.890  33.243  34.483  1.00  0.00     0.049 A 
ATOM     49  H   UNL A   1      39.410  31.801  33.075  1.00  0.00     0.167 HD
ATOM     50  C   UNL A   1      40.341  28.772  30.061  1.00  0.00     0.037 A 
ATOM     51  C   UNL A   1      39.766  33.134  35.499  1.00  0.00     0.037 A 
ATOM     52  C   UNL A   1      41.347  28.612  31.075  1.00  0.00     0.049 A 
ATOM     53  C   UNL A   1      40.866  32.115  35.419  1.00  0.00     0.074 A 
ATOM     54  C   UNL A   1      42.404  27.720  31.109  1.00  0.00     0.029 A 
ATOM     55  N   UNL A   1      41.426  29.372  32.232  1.00  0.00    -0.354 N 
ATOM     56  N   UNL A   1      41.111  31.240  34.473  1.00  0.00    -0.248 NA
ATOM     57  C   UNL A   1      41.816  32.074  36.539  1.00  0.00     0.031 C 
ATOM     58  C   UNL A   1      43.112  27.928  32.297  1.00  0.00     0.029 A 
ATOM     59  C   UNL A   1      42.513  28.969  32.988  1.00  0.00     0.049 A 
ATOM     60  H   UNL A   1      40.801  30.092  32.479  1.00  0.00     0.167 HD
ATOM     61  C   UNL A   1      42.254  30.560  34.872  1.00  0.00     0.074 A 
ATOM     62  C   UNL A   1      42.659  31.128  36.141  1.00  0.00     0.031 C 
ATOM     63  C   UNL A   1      42.906  29.555  34.243  1.00  0.00     0.037 A 
BRANCH  50  64
ATOM     64  C   UNL A   1      40.368  27.851  28.879  1.00  0.00     0.057 A 
ATOM     65  C   UNL A   1      39.651  26.648  28.891  1.00  0.00     0.134 A 
ATOM     66  C   UNL A   1      41.129  28.142  27.740  1.00  0.00     0.134 A 
ATOM     67  F   UNL A   1      38.904  26.311  29.953  1.00  0.00    -0.206 F 
ATOM     68  C   UNL A   1      39.693  25.766  27.810  1.00  0.00     0.040 A 
ATOM     69  C   UNL A   1      41.161  27.279  26.645  1.00  0.00     0.040 A 
ATOM     70  F   UNL A   1      41.824  29.287  27.662  1.00  0.00    -0.206 F 
ATOM     71  C   UNL A   1      40.445  26.083  26.680  1.00  0.00     0.006 A 
ENDBRANCH  50  64
BRANCH  51  72
ATOM     72  C   UNL A   1      39.669  34.061  36.652  1.00  0.00     0.057 A 
ATOM     73  C   UNL A   1      40.275  35.322  36.631  1.00  0.00     0.134 A 
ATOM     74  C   UNL A   1      38.985  33.688  37.814  1.00  0.00     0.134 A 
ATOM     75  F   UNL A   1      40.951  35.730  35.547  1.00  0.00    -0.206 F 
ATOM     76  C   UNL A   1      40.214  36.176  37.733  1.00  0.00     0.040 A 
ATOM     77  C   UNL A   1      38.902  34.539  38.917  1.00  0.00     0.040 A 
ATOM     78  F   UNL A   1      38.374  32.497  37.883  1.00  0.00    -0.206 F 
ATOM     79  C   UNL A   1      39.523  35.786  38.878  1.00  0.00     0.006 A 
ENDBRANCH  51  72
BRANCH  63  80
ATOM     80  C   UNL A   1      44.141  29.018  34.899  1.00  0.00     0.057 A 
ATOM     81  C   UNL A   1      45.398  29.559  34.601  1.00  0.00     0.134 A 
ATOM     82  C   UNL A   1      44.091  27.926  35.773  1.00  0.00     0.134 A 
ATOM     83  F   UNL A   1      45.511  30.602  33.764  1.00  0.00    -0.206 F 
ATOM     84  C   UNL A   1      46.566  29.024  35.144  1.00  0.00     0.040 A 
ATOM     85  C   UNL A   1      45.252  27.394  36.336  1.00  0.00     0.040 A 
ATOM     86  F   UNL A   1      42.915  27.372  36.103  1.00  0.00    -0.206 F 
ATOM     87  C   UNL A   1      46.495  27.939  36.016  1.00  0.00     0.006 A 
ENDBRANCH  63  80
ENDBRANCH  37  38
ENDBRANCH  29  32
ENDBRANCH  27  28
ENDBRANCH  26  27
ENDBRANCH  25  26
ENDBRANCH   1  25
TORSDOF 16
ENDMDL
MODEL 2
REMARK VINA RESULT:     -11.5      4.091      9.615
REMARK SMILES C#CCNC(=O)[C@H](C)S(=O)(=O)c1ccc(C(=O)NCCCCNC(=O)c2ccc(-c3c4nc(c(-c5c(F)cccc5F)c5ccc([nH]5)c(-c5c(F)cccc5F)c5nc(c(-c6c(F)cccc6F)c6ccc3[nH]6)C=C5)C=C4)cc2)cc1F
REMARK SMILES IDX 19 1 18 2 16 3 17 4 15 6 12 7 13 8 81 9 14 10 80 11 82 12
REMARK SMILES IDX 9 13 10 14 11 15 7 16 8 17 5 18 4 19 6 21 3 22 2 23 1 24
REMARK SMILES IDX 20 25 21 26 22 27 23 28 24 29 25 31 26 32 27 33 79 34 28 35
REMARK SMILES IDX 78 36 29 37 30 38 31 39 72 40 32 41 77 42 71 43 73 44 33 45
REMARK SMILES IDX 76 46 70 47 69 48 34 50 60 51 43 52 59 53 44 54 47 55 58 56
REMARK SMILES IDX 74 57 45 58 46 59 57 61 75 62 48 63 35 64 36 65 41 66 37 67
REMARK SMILES IDX 38 68 40 69 42 70 39 71 61 72 62 73 67 74 63 75 64 76 66 77
REMARK SMILES IDX 68 78 65 79 49 80 50 81 55 82 51 83 52 84 54 85 56 86 53 87
REMARK H PARENT 18 5 4 20 23 30 73 49 47 60
REMARK Flexibility Score: inf
ROOT
ATOM      1  C   UNL A   1      35.593  20.742  24.947  1.00  0.00     0.116 C 
ENDROOT
BRANCH   1   2
ATOM      2  N   UNL A   1      35.143  21.104  26.281  1.00  0.00    -0.352 N 
ATOM      3  C   UNL A   1      34.367  22.135  26.756  1.00  0.00     0.251 C 
ATOM      4  O   UNL A   1      34.071  22.128  27.950  1.00  0.00    -0.269 OA
ATOM      5  H   UNL A   1      35.457  20.490  26.985  1.00  0.00     0.163 HD
BRANCH   3   6
ATOM      6  C   UNL A   1      33.841  23.232  25.897  1.00  0.00     0.042 A 
ATOM      7  C   UNL A   1      32.901  25.414  24.380  1.00  0.00     0.103 A 
ATOM      8  C   UNL A   1      34.245  25.359  24.758  1.00  0.00     0.024 A 
ATOM      9  C   UNL A   1      32.060  24.388  24.760  1.00  0.00     0.142 A 
ATOM     10  C   UNL A   1      34.706  24.276  25.524  1.00  0.00     0.015 A 
ATOM     11  C   UNL A   1      32.532  23.284  25.445  1.00  0.00     0.054 A 
ATOM     12  F   UNL A   1      30.745  24.441  24.568  1.00  0.00    -0.206 F 
BRANCH   7  13
ATOM     13  S   UNL A   1      32.221  26.876  23.674  1.00  0.00     0.192 S 
ATOM     14  O   UNL A   1      31.275  26.422  22.663  1.00  0.00    -0.223 OA
ATOM     15  O   UNL A   1      33.367  27.643  23.221  1.00  0.00    -0.223 OA
BRANCH  13  16
ATOM     16  C   UNL A   1      31.297  27.838  24.858  1.00  0.00     0.199 C 
ATOM     17  C   UNL A   1      31.684  27.439  26.290  1.00  0.00     0.036 C 
BRANCH  16  18
ATOM     18  C   UNL A   1      31.401  29.343  24.735  1.00  0.00     0.239 C 
ATOM     19  N   UNL A   1      30.481  30.075  24.032  1.00  0.00    -0.344 N 
ATOM     20  H   UNL A   1      30.215  30.943  24.414  1.00  0.00     0.164 HD
ATOM     21  O   UNL A   1      32.265  29.975  25.351  1.00  0.00    -0.274 OA
BRANCH  19  22
ATOM     22  C   UNL A   1      29.864  29.695  22.787  1.00  0.00     0.206 C 
BRANCH  22  23
ATOM     23  C   UNL A   1      28.432  29.210  22.940  1.00  0.00    -0.085 C 
ATOM     24  C   UNL A   1      27.204  28.793  23.071  1.00  0.00     0.006 C 
ENDBRANCH  22  23
ENDBRANCH  19  22
ENDBRANCH  16  18
ENDBRANCH  13  16
ENDBRANCH   7  13
ENDBRANCH   3   6
ENDBRANCH   1   2
BRANCH   1  25
ATOM     25  C   UNL A   1      37.069  21.101  24.726  1.00  0.00     0.023 C 
BRANCH  25  26
ATOM     26  C   UNL A   1      38.040  19.925  24.820  1.00  0.00     0.023 C 
BRANCH  26  27
ATOM     27  C   UNL A   1      38.986  19.982  26.009  1.00  0.00     0.116 C 
BRANCH  27  28
ATOM     28  N   UNL A   1      40.193  19.195  25.820  1.00  0.00    -0.352 N 
ATOM     29  C   UNL A   1      41.496  19.587  26.006  1.00  0.00     0.251 C 
ATOM     30  H   UNL A   1      40.060  18.267  25.519  1.00  0.00     0.163 HD
ATOM     31  O   UNL A   1      42.419  18.840  25.695  1.00  0.00    -0.269 OA
BRANCH  29  32
ATOM     32  C   UNL A   1      41.783  20.936  26.540  1.00  0.00     0.039 A 
ATOM     33  C   UNL A   1      41.767  21.124  27.924  1.00  0.00     0.014 A 
ATOM     34  C   UNL A   1      42.075  22.004  25.687  1.00  0.00     0.014 A 
ATOM     35  C   UNL A   1      42.095  22.372  28.455  1.00  0.00     0.010 A 
ATOM     36  C   UNL A   1      42.466  23.228  26.217  1.00  0.00     0.010 A 
ATOM     37  C   UNL A   1      42.470  23.426  27.606  1.00  0.00    -0.014 A 
BRANCH  37  38
ATOM     38  C   UNL A   1      42.839  24.750  28.155  1.00  0.00     0.031 A 
ATOM     39  C   UNL A   1      41.781  25.792  28.380  1.00  0.00     0.074 A 
ATOM     40  C   UNL A   1      44.132  25.030  28.407  1.00  0.00     0.049 A 
ATOM     41  N   UNL A   1      41.910  27.017  28.821  1.00  0.00    -0.248 NA
ATOM     42  C   UNL A   1      40.399  25.415  28.043  1.00  0.00     0.031 C 
ATOM     43  C   UNL A   1      45.255  24.120  28.180  1.00  0.00     0.029 A 
ATOM     44  N   UNL A   1      44.716  26.164  28.911  1.00  0.00    -0.354 N 
ATOM     45  C   UNL A   1      40.633  27.562  28.794  1.00  0.00     0.074 A 
ATOM     46  C   UNL A   1      39.751  26.551  28.255  1.00  0.00     0.031 C 
ATOM     47  C   UNL A   1      46.391  24.721  28.571  1.00  0.00     0.029 A 
ATOM     48  C   UNL A   1      46.077  26.061  29.057  1.00  0.00     0.049 A 
ATOM     49  H   UNL A   1      44.208  26.974  29.145  1.00  0.00     0.167 HD
ATOM     50  C   UNL A   1      40.230  28.787  29.204  1.00  0.00     0.037 A 
ATOM     51  C   UNL A   1      46.969  26.946  29.540  1.00  0.00     0.037 A 
ATOM     52  C   UNL A   1      41.101  29.777  29.776  1.00  0.00     0.049 A 
ATOM     53  C   UNL A   1      46.491  28.280  30.035  1.00  0.00     0.074 A 
ATOM     54  C   UNL A   1      40.777  31.029  30.268  1.00  0.00     0.029 A 
ATOM     55  N   UNL A   1      42.468  29.620  29.944  1.00  0.00    -0.354 N 
ATOM     56  N   UNL A   1      45.273  28.766  30.048  1.00  0.00    -0.248 NA
ATOM     57  C   UNL A   1      47.506  29.185  30.592  1.00  0.00     0.031 C 
ATOM     58  C   UNL A   1      41.954  31.639  30.716  1.00  0.00     0.029 A 
ATOM     59  C   UNL A   1      43.004  30.753  30.530  1.00  0.00     0.049 A 
ATOM     60  H   UNL A   1      42.981  28.821  29.684  1.00  0.00     0.167 HD
ATOM     61  C   UNL A   1      45.371  30.022  30.632  1.00  0.00     0.074 A 
ATOM     62  C   UNL A   1      46.766  30.220  30.968  1.00  0.00     0.031 C 
ATOM     63  C   UNL A   1      44.393  30.927  30.867  1.00  0.00     0.037 A 
BRANCH  50  64
ATOM     64  C   UNL A   1      38.774  29.116  29.058  1.00  0.00     0.057 A 
ATOM     65  C   UNL A   1      38.257  29.553  27.833  1.00  0.00     0.134 A 
ATOM     66  C   UNL A   1      37.892  29.029  30.142  1.00  0.00     0.134 A 
ATOM     67  F   UNL A   1      39.051  29.659  26.757  1.00  0.00    -0.206 F 
ATOM     68  C   UNL A   1      36.911  29.893  27.691  1.00  0.00     0.040 A 
ATOM     69  C   UNL A   1      36.540  29.346  30.007  1.00  0.00     0.040 A 
ATOM     70  F   UNL A   1      38.324  28.601  31.338  1.00  0.00    -0.206 F 
ATOM     71  C   UNL A   1      36.047  29.785  28.780  1.00  0.00     0.006 A 
ENDBRANCH  50  64
BRANCH  51  72
ATOM     72  C   UNL A   1      48.399  26.566  29.634  1.00  0.00     0.057 A 
ATOM     73  C   UNL A   1      48.907  25.895  30.752  1.00  0.00     0.134 A 
ATOM     74  C   UNL A   1      49.295  26.894  28.611  1.00  0.00     0.134 A 
ATOM     75  F   UNL A   1      48.097  25.562  31.767  1.00  0.00    -0.206 F 
ATOM     76  C   UNL A   1      50.261  25.573  30.853  1.00  0.00     0.040 A 
ATOM     77  C   UNL A   1      50.648  26.564  28.692  1.00  0.00     0.040 A 
ATOM     78  F   UNL A   1      48.860  27.525  27.510  1.00  0.00    -0.206 F 
ATOM     79  C   UNL A   1      51.135  25.905  29.819  1.00  0.00     0.006 A 
ENDBRANCH  51  72
BRANCH  63  80
ATOM     80  C   UNL A   1      44.786  32.206  31.541  1.00  0.00     0.057 A 
ATOM     81  C   UNL A   1      45.204  33.309  30.787  1.00  0.00     0.134 A 
ATOM     82  C   UNL A   1      44.812  32.321  32.935  1.00  0.00     0.134 A 
ATOM     83  F   UNL A   1      45.208  33.256  29.446  1.00  0.00    -0.206 F 
ATOM     84  C   UNL A   1      45.644  34.482  31.398  1.00  0.00     0.040 A 
ATOM     85  C   UNL A   1      45.234  33.497  33.558  1.00  0.00     0.040 A 
ATOM     86  F   UNL A   1      44.414  31.301  33.709  1.00  0.00    -0.206 F 
ATOM     87  C   UNL A   1      45.659  34.580  32.788  1.00  0.00     0.006 A 
ENDBRANCH  63  80
ENDBRANCH  37  38
ENDBRANCH  29  32
ENDBRANCH  27  28
ENDBRANCH  26  27
ENDBRANCH  25  26
ENDBRANCH   1  25
TORSDOF 16
ENDMDL
MODEL 3
REMARK VINA RESULT:     -11.4      1.214      2.091
REMARK SMILES C#CCNC(=O)[C@H](C)S(=O)(=O)c1ccc(C(=O)NCCCCNC(=O)c2ccc(-c3c4nc(c(-c5c(F)cccc5F)c5ccc([nH]5)c(-c5c(F)cccc5F)c5nc(c(-c6c(F)cccc6F)c6ccc3[nH]6)C=C5)C=C4)cc2)cc1F
REMARK SMILES IDX 19 1 18 2 16 3 17 4 15 6 12 7 13 8 81 9 14 10 80 11 82 12
REMARK SMILES IDX 9 13 10 14 11 15 7 16 8 17 5 18 4 19 6 21 3 22 2 23 1 24
REMARK SMILES IDX 20 25 21 26 22 27 23 28 24 29 25 31 26 32 27 33 79 34 28 35
REMARK SMILES IDX 78 36 29 37 30 38 31 39 72 40 32 41 77 42 71 43 73 44 33 45
REMARK SMILES IDX 76 46 70 47 69 48 34 50 60 51 43 52 59 53 44 54 47 55 58 56
REMARK SMILES IDX 74 57 45 58 46 59 57 61 75 62 48 63 35 64 36 65 41 66 37 67
REMARK SMILES IDX 38 68 40 69 42 70 39 71 61 72 62 73 67 74 63 75 64 76 66 77
REMARK SMILES IDX 68 78 65 79 49 80 50 81 55 82 51 83 52 84 54 85 56 86 53 87
REMARK H PARENT 18 5 4 20 23 30 73 49 47 60
REMARK Flexibility Score: inf
ROOT
ATOM      1  C   UNL A   1      31.362  29.634  24.947  1.00  0.00     0.116 C 
ENDROOT
BRANCH   1   2
ATOM      2  N   UNL A   1      32.486  29.518  24.032  1.00  0.00    -0.352 N 
ATOM      3  C   UNL A   1      33.236  28.447  23.608  1.00  0.00     0.251 C 
ATOM      4  O   UNL A   1      34.082  28.647  22.737  1.00  0.00    -0.269 OA
ATOM      5  H   UNL A   1      32.766  30.377  23.639  1.00  0.00     0.163 HD
BRANCH   3   6
ATOM      6  C   UNL A   1      33.053  27.060  24.120  1.00  0.00     0.042 A 
ATOM      7  C   UNL A   1      32.868  24.425  25.102  1.00  0.00     0.103 A 
ATOM      8  C   UNL A   1      33.555  25.393  25.838  1.00  0.00     0.024 A 
ATOM      9  C   UNL A   1      32.288  24.787  23.904  1.00  0.00     0.142 A 
ATOM     10  C   UNL A   1      33.656  26.702  25.338  1.00  0.00     0.015 A 
ATOM     11  C   UNL A   1      32.319  26.093  23.452  1.00  0.00     0.054 A 
ATOM     12  F   UNL A   1      31.748  23.894  23.080  1.00  0.00    -0.206 F 
BRANCH   7  13
ATOM     13  S   UNL A   1      32.960  22.723  25.542  1.00  0.00     0.192 S 
ATOM     14  O   UNL A   1      31.600  22.212  25.429  1.00  0.00    -0.223 OA
ATOM     15  O   UNL A   1      33.573  22.707  26.858  1.00  0.00    -0.223 OA
BRANCH  13  16
ATOM     16  C   UNL A   1      33.966  21.781  24.410  1.00  0.00     0.199 C 
ATOM     17  C   UNL A   1      34.943  22.704  23.667  1.00  0.00     0.036 C 
BRANCH  16  18
ATOM     18  C   UNL A   1      34.751  20.630  25.001  1.00  0.00     0.239 C 
ATOM     19  N   UNL A   1      34.268  19.347  24.993  1.00  0.00    -0.344 N 
ATOM     20  H   UNL A   1      34.916  18.627  24.814  1.00  0.00     0.164 HD
ATOM     21  O   UNL A   1      35.902  20.790  25.421  1.00  0.00    -0.274 OA
BRANCH  19  22
ATOM     22  C   UNL A   1      32.901  18.952  25.221  1.00  0.00     0.206 C 
BRANCH  22  23
ATOM     23  C   UNL A   1      32.720  17.452  25.382  1.00  0.00    -0.085 C 
ATOM     24  C   UNL A   1      32.565  16.165  25.522  1.00  0.00     0.006 C 
ENDBRANCH  22  23
ENDBRANCH  19  22
ENDBRANCH  16  18
ENDBRANCH  13  16
ENDBRANCH   7  13
ENDBRANCH   3   6
ENDBRANCH   1   2
BRANCH   1  25
ATOM     25  C   UNL A   1      31.792  30.193  26.310  1.00  0.00     0.023 C 
BRANCH  25  26
ATOM     26  C   UNL A   1      31.523  31.683  26.511  1.00  0.00     0.023 C 
BRANCH  26  27
ATOM     27  C   UNL A   1      32.727  32.484  26.981  1.00  0.00     0.116 C 
BRANCH  27  28
ATOM     28  N   UNL A   1      32.388  33.828  27.416  1.00  0.00    -0.352 N 
ATOM     29  C   UNL A   1      32.995  34.581  28.392  1.00  0.00     0.251 C 
ATOM     30  H   UNL A   1      31.628  34.252  26.955  1.00  0.00     0.163 HD
ATOM     31  O   UNL A   1      32.521  35.662  28.725  1.00  0.00    -0.269 OA
BRANCH  29  32
ATOM     32  C   UNL A   1      34.198  34.057  29.073  1.00  0.00     0.039 A 
ATOM     33  C   UNL A   1      34.028  33.187  30.153  1.00  0.00     0.014 A 
ATOM     34  C   UNL A   1      35.482  34.408  28.647  1.00  0.00     0.014 A 
ATOM     35  C   UNL A   1      35.147  32.629  30.773  1.00  0.00     0.010 A 
ATOM     36  C   UNL A   1      36.594  33.802  29.222  1.00  0.00     0.010 A 
ATOM     37  C   UNL A   1      36.436  32.915  30.297  1.00  0.00    -0.014 A 
BRANCH  37  38
ATOM     38  C   UNL A   1      37.632  32.316  30.932  1.00  0.00     0.031 A 
ATOM     39  C   UNL A   1      38.292  31.119  30.310  1.00  0.00     0.074 A 
ATOM     40  C   UNL A   1      38.094  32.820  32.091  1.00  0.00     0.049 A 
ATOM     41  N   UNL A   1      39.324  30.434  30.731  1.00  0.00    -0.248 NA
ATOM     42  C   UNL A   1      37.699  30.608  29.063  1.00  0.00     0.031 C 
ATOM     43  C   UNL A   1      37.507  33.946  32.819  1.00  0.00     0.029 A 
ATOM     44  N   UNL A   1      39.167  32.448  32.860  1.00  0.00    -0.354 N 
ATOM     45  C   UNL A   1      39.492  29.404  29.815  1.00  0.00     0.074 A 
ATOM     46  C   UNL A   1      38.431  29.527  28.840  1.00  0.00     0.031 C 
ATOM     47  C   UNL A   1      38.245  34.192  33.914  1.00  0.00     0.029 A 
ATOM     48  C   UNL A   1      39.342  33.231  33.974  1.00  0.00     0.049 A 
ATOM     49  H   UNL A   1      39.755  31.691  32.635  1.00  0.00     0.167 HD
ATOM     50  C   UNL A   1      40.457  28.456  29.778  1.00  0.00     0.037 A 
ATOM     51  C   UNL A   1      40.289  33.185  34.929  1.00  0.00     0.037 A 
ATOM     52  C   UNL A   1      41.533  28.359  30.725  1.00  0.00     0.049 A 
ATOM     53  C   UNL A   1      41.378  32.156  34.839  1.00  0.00     0.074 A 
ATOM     54  C   UNL A   1      42.588  27.464  30.743  1.00  0.00     0.029 A 
ATOM     55  N   UNL A   1      41.698  29.196  31.818  1.00  0.00    -0.354 N 
ATOM     56  N   UNL A   1      41.552  31.216  33.941  1.00  0.00    -0.248 NA
ATOM     57  C   UNL A   1      42.408  32.185  35.887  1.00  0.00     0.031 C 
ATOM     58  C   UNL A   1      43.382  27.748  31.859  1.00  0.00     0.029 A 
ATOM     59  C   UNL A   1      42.837  28.838  32.518  1.00  0.00     0.049 A 
ATOM     60  H   UNL A   1      41.095  29.935  32.059  1.00  0.00     0.167 HD
ATOM     61  C   UNL A   1      42.719  30.557  34.302  1.00  0.00     0.074 A 
ATOM     62  C   UNL A   1      43.217  31.208  35.496  1.00  0.00     0.031 C 
ATOM     63  C   UNL A   1      43.322  29.506  33.698  1.00  0.00     0.037 A 
BRANCH  50  64
ATOM     64  C   UNL A   1      40.395  27.456  28.663  1.00  0.00     0.057 A 
ATOM     65  C   UNL A   1      41.107  27.661  27.475  1.00  0.00     0.134 A 
ATOM     66  C   UNL A   1      39.604  26.304  28.756  1.00  0.00     0.134 A 
ATOM     67  F   UNL A   1      41.880  28.747  27.323  1.00  0.00    -0.206 F 
ATOM     68  C   UNL A   1      41.032  26.755  26.416  1.00  0.00     0.040 A 
ATOM     69  C   UNL A   1      39.539  25.379  27.713  1.00  0.00     0.040 A 
ATOM     70  F   UNL A   1      38.912  26.043  29.875  1.00  0.00    -0.206 F 
ATOM     71  C   UNL A   1      40.250  25.607  26.536  1.00  0.00     0.006 A 
ENDBRANCH  50  64
BRANCH  51  72
ATOM     72  C   UNL A   1      40.278  34.190  36.019  1.00  0.00     0.057 A 
ATOM     73  C   UNL A   1      39.642  33.939  37.239  1.00  0.00     0.134 A 
ATOM     74  C   UNL A   1      40.885  35.439  35.847  1.00  0.00     0.134 A 
ATOM     75  F   UNL A   1      39.036  32.763  37.458  1.00  0.00    -0.206 F 
ATOM     76  C   UNL A   1      39.601  34.902  38.249  1.00  0.00     0.040 A 
ATOM     77  C   UNL A   1      40.866  36.404  36.854  1.00  0.00     0.040 A 
ATOM     78  F   UNL A   1      41.521  35.726  34.702  1.00  0.00    -0.206 F 
ATOM     79  C   UNL A   1      40.218  36.137  38.058  1.00  0.00     0.006 A 
ENDBRANCH  51  72
BRANCH  63  80
ATOM     80  C   UNL A   1      44.601  29.007  34.298  1.00  0.00     0.057 A 
ATOM     81  C   UNL A   1      45.833  29.515  33.871  1.00  0.00     0.134 A 
ATOM     82  C   UNL A   1      44.612  27.980  35.248  1.00  0.00     0.134 A 
ATOM     83  F   UNL A   1      45.887  30.495  32.955  1.00  0.00    -0.206 F 
ATOM     84  C   UNL A   1      47.037  29.011  34.363  1.00  0.00     0.040 A 
ATOM     85  C   UNL A   1      45.810  27.480  35.761  1.00  0.00     0.040 A 
ATOM     86  F   UNL A   1      43.462  27.461  35.702  1.00  0.00    -0.206 F 
ATOM     87  C   UNL A   1      47.027  27.991  35.313  1.00  0.00     0.006 A 
ENDBRANCH  63  80
ENDBRANCH  37  38
ENDBRANCH  29  32
ENDBRANCH  27  28
ENDBRANCH  26  27
ENDBRANCH  25  26
ENDBRANCH   1  25
TORSDOF 16
ENDMDL
