MODEL 1
REMARK VINA RESULT:     -12.4      0.000      0.000
REMARK SMILES COc1ccc([C@@H](C(=O)NCCCCNC(=O)c2ccc(-c3c4nc(c(-c5c(F)cccc5F)c5ccc([nH]5)c(-c5c(F)cccc5F)c5nc(c(-c6c(F)cccc6F)c6ccc3[nH]6)C=C5)C=C4)cc2)[NH+]2CCC(C(N)=O)CC2)c(C)c1
REMARK SMILES IDX 12 1 11 2 10 3 8 4 9 5 7 7 6 8 3 9 4 10 83 11 5 12 81 13
REMARK SMILES IDX 82 14 2 15 1 16 72 17 73 18 80 19 74 21 79 22 75 23 76 24
REMARK SMILES IDX 77 25 78 26 13 29 14 30 15 31 16 32 17 34 18 35 19 36 71 37
REMARK SMILES IDX 20 38 70 39 21 40 22 41 23 42 64 43 24 44 69 45 63 46 65 47
REMARK SMILES IDX 25 48 68 49 62 50 61 51 26 53 52 54 35 55 51 56 36 57 39 58
REMARK SMILES IDX 50 59 66 60 37 61 38 62 49 64 67 65 40 66 27 67 28 68 33 69
REMARK SMILES IDX 29 70 30 71 32 72 34 73 31 74 53 75 54 76 59 77 55 78 56 79
REMARK SMILES IDX 58 80 60 81 57 82 41 83 42 84 47 85 43 86 44 87 46 88 48 89
REMARK SMILES IDX 45 90
REMARK H PARENT 10 6 72 20 77 27 77 28 15 33 65 52 39 63
REMARK Flexibility Score: inf
ROOT
ATOM      1  C   UNL A   1      31.793  28.836  26.450  1.00  0.00     0.023 C 
ENDROOT
BRANCH   1   2
ATOM      2  C   UNL A   1      32.641  27.636  26.895  1.00  0.00     0.116 C 
BRANCH   2   3
ATOM      3  N   UNL A   1      33.548  27.127  25.878  1.00  0.00    -0.351 N 
ATOM      4  C   UNL A   1      33.369  26.174  24.903  1.00  0.00     0.283 C 
ATOM      5  O   UNL A   1      34.311  26.034  24.115  1.00  0.00    -0.268 OA
ATOM      6  H   UNL A   1      34.445  27.534  25.891  1.00  0.00     0.163 HD
BRANCH   4   7
ATOM      7  C   UNL A   1      32.030  25.379  24.811  1.00  0.00     0.305 C 
BRANCH   7   8
ATOM      8  C   UNL A   1      32.200  23.875  24.541  1.00  0.00     0.022 A 
ATOM      9  C   UNL A   1      32.426  21.156  23.758  1.00  0.00     0.119 A 
ATOM     10  C   UNL A   1      32.140  22.126  22.808  1.00  0.00     0.047 A 
ATOM     11  C   UNL A   1      32.586  21.537  25.091  1.00  0.00     0.050 A 
ATOM     12  C   UNL A   1      32.044  23.464  23.194  1.00  0.00     0.014 A 
ATOM     13  C   UNL A   1      32.463  22.879  25.509  1.00  0.00    -0.038 A 
ATOM     14  C   UNL A   1      32.628  23.113  26.987  1.00  0.00     0.045 C 
BRANCH   9  15
ATOM     15  O   UNL A   1      32.538  19.815  23.522  1.00  0.00    -0.497 OA
ATOM     16  C   UNL A   1      32.538  18.976  24.671  1.00  0.00     0.278 C 
ENDBRANCH   9  15
ENDBRANCH   7   8
BRANCH   7  17
ATOM     17  N   UNL A   1      30.975  26.060  23.980  1.00  0.00    -0.321 N 
ATOM     18  C   UNL A   1      29.728  26.345  24.698  1.00  0.00     0.263 C 
ATOM     19  C   UNL A   1      31.509  27.249  23.293  1.00  0.00     0.263 C 
ATOM     20  H   UNL A   1      30.712  25.379  23.267  1.00  0.00     0.349 HD
ATOM     21  C   UNL A   1      28.671  27.012  23.817  1.00  0.00     0.075 C 
ATOM     22  C   UNL A   1      30.476  27.944  22.403  1.00  0.00     0.075 C 
ATOM     23  C   UNL A   1      29.237  28.296  23.218  1.00  0.00     0.089 C 
BRANCH  23  24
ATOM     24  C   UNL A   1      28.193  28.997  22.377  1.00  0.00     0.220 C 
ATOM     25  N   UNL A   1      26.903  28.780  22.771  1.00  0.00    -0.369 N 
ATOM     26  O   UNL A   1      28.441  29.695  21.402  1.00  0.00    -0.275 OA
ATOM     27  H   UNL A   1      26.716  28.217  23.557  1.00  0.00     0.159 HD
ATOM     28  H   UNL A   1      26.159  29.186  22.269  1.00  0.00     0.159 HD
ENDBRANCH  23  24
ENDBRANCH   7  17
ENDBRANCH   4   7
ENDBRANCH   2   3
ENDBRANCH   1   2
BRANCH   1  29
ATOM     29  C   UNL A   1      32.181  30.189  27.045  1.00  0.00     0.023 C 
BRANCH  29  30
ATOM     30  C   UNL A   1      33.651  30.521  26.874  1.00  0.00     0.116 C 
BRANCH  30  31
ATOM     31  N   UNL A   1      34.171  31.483  27.834  1.00  0.00    -0.352 N 
ATOM     32  C   UNL A   1      35.206  31.368  28.749  1.00  0.00     0.251 C 
ATOM     33  H   UNL A   1      33.714  32.356  27.835  1.00  0.00     0.163 HD
ATOM     34  O   UNL A   1      35.414  32.278  29.535  1.00  0.00    -0.269 OA
BRANCH  32  35
ATOM     35  C   UNL A   1      36.157  30.223  28.676  1.00  0.00     0.039 A 
ATOM     36  C   UNL A   1      36.335  29.449  29.833  1.00  0.00     0.014 A 
ATOM     37  C   UNL A   1      37.011  30.039  27.596  1.00  0.00     0.014 A 
ATOM     38  C   UNL A   1      37.511  28.721  30.002  1.00  0.00     0.010 A 
ATOM     39  C   UNL A   1      38.229  29.433  27.805  1.00  0.00     0.010 A 
ATOM     40  C   UNL A   1      38.503  28.831  29.034  1.00  0.00    -0.014 A 
BRANCH  40  41
ATOM     41  C   UNL A   1      39.889  28.446  29.240  1.00  0.00     0.031 A 
ATOM     42  C   UNL A   1      40.392  27.163  28.717  1.00  0.00     0.074 A 
ATOM     43  C   UNL A   1      40.742  29.354  29.765  1.00  0.00     0.049 A 
ATOM     44  N   UNL A   1      41.466  26.585  29.133  1.00  0.00    -0.248 NA
ATOM     45  C   UNL A   1      39.692  26.407  27.685  1.00  0.00     0.031 C 
ATOM     46  C   UNL A   1      42.201  29.323  29.741  1.00  0.00     0.029 A 
ATOM     47  N   UNL A   1      40.431  30.421  30.618  1.00  0.00    -0.354 N 
ATOM     48  C   UNL A   1      41.752  25.561  28.260  1.00  0.00     0.074 A 
ATOM     49  C   UNL A   1      40.589  25.455  27.410  1.00  0.00     0.031 C 
ATOM     50  C   UNL A   1      42.667  30.105  30.729  1.00  0.00     0.029 A 
ATOM     51  C   UNL A   1      41.518  30.527  31.512  1.00  0.00     0.049 A 
ATOM     52  H   UNL A   1      39.621  30.981  30.599  1.00  0.00     0.167 HD
ATOM     53  C   UNL A   1      42.999  25.010  28.264  1.00  0.00     0.037 A 
ATOM     54  C   UNL A   1      41.363  30.294  32.847  1.00  0.00     0.037 A 
ATOM     55  C   UNL A   1      43.835  25.612  29.298  1.00  0.00     0.049 A 
ATOM     56  C   UNL A   1      42.228  29.175  33.376  1.00  0.00     0.074 A 
ATOM     57  C   UNL A   1      44.778  26.628  29.264  1.00  0.00     0.029 A 
ATOM     58  N   UNL A   1      43.526  25.409  30.638  1.00  0.00    -0.354 N 
ATOM     59  N   UNL A   1      42.733  28.231  32.631  1.00  0.00    -0.248 NA
ATOM     60  C   UNL A   1      42.589  29.029  34.782  1.00  0.00     0.031 C 
ATOM     61  C   UNL A   1      45.006  27.062  30.592  1.00  0.00     0.029 A 
ATOM     62  C   UNL A   1      44.217  26.299  31.435  1.00  0.00     0.049 A 
ATOM     63  H   UNL A   1      42.900  24.726  30.972  1.00  0.00     0.167 HD
ATOM     64  C   UNL A   1      43.460  27.366  33.413  1.00  0.00     0.074 A 
ATOM     65  C   UNL A   1      43.352  27.922  34.748  1.00  0.00     0.031 C 
ATOM     66  C   UNL A   1      44.081  26.270  32.883  1.00  0.00     0.037 A 
BRANCH  53  67
ATOM     67  C   UNL A   1      43.533  24.159  27.136  1.00  0.00     0.057 A 
ATOM     68  C   UNL A   1      44.108  24.746  25.991  1.00  0.00     0.134 A 
ATOM     69  C   UNL A   1      43.465  22.757  27.096  1.00  0.00     0.134 A 
ATOM     70  F   UNL A   1      44.349  26.061  25.916  1.00  0.00    -0.206 F 
ATOM     71  C   UNL A   1      44.462  24.010  24.853  1.00  0.00     0.040 A 
ATOM     72  C   UNL A   1      43.765  22.012  25.945  1.00  0.00     0.040 A 
ATOM     73  F   UNL A   1      43.152  22.043  28.185  1.00  0.00    -0.206 F 
ATOM     74  C   UNL A   1      44.251  22.642  24.810  1.00  0.00     0.006 A 
ENDBRANCH  53  67
BRANCH  54  75
ATOM     75  C   UNL A   1      40.003  30.636  33.343  1.00  0.00     0.057 A 
ATOM     76  C   UNL A   1      39.688  31.991  33.557  1.00  0.00     0.134 A 
ATOM     77  C   UNL A   1      38.932  29.747  33.219  1.00  0.00     0.134 A 
ATOM     78  F   UNL A   1      40.671  32.898  33.683  1.00  0.00    -0.206 F 
ATOM     79  C   UNL A   1      38.373  32.459  33.523  1.00  0.00     0.040 A 
ATOM     80  C   UNL A   1      37.608  30.204  33.198  1.00  0.00     0.040 A 
ATOM     81  F   UNL A   1      39.149  28.444  32.992  1.00  0.00    -0.206 F 
ATOM     82  C   UNL A   1      37.328  31.566  33.306  1.00  0.00     0.006 A 
ENDBRANCH  54  75
BRANCH  66  83
ATOM     83  C   UNL A   1      44.703  25.112  33.638  1.00  0.00     0.057 A 
ATOM     84  C   UNL A   1      43.982  24.123  34.320  1.00  0.00     0.134 A 
ATOM     85  C   UNL A   1      46.099  24.878  33.567  1.00  0.00     0.134 A 
ATOM     86  F   UNL A   1      42.646  24.136  34.380  1.00  0.00    -0.206 F 
ATOM     87  C   UNL A   1      44.602  23.020  34.930  1.00  0.00     0.040 A 
ATOM     88  C   UNL A   1      46.720  23.753  34.119  1.00  0.00     0.040 A 
ATOM     89  F   UNL A   1      46.930  25.719  32.932  1.00  0.00    -0.206 F 
ATOM     90  C   UNL A   1      45.972  22.824  34.818  1.00  0.00     0.006 A 
ENDBRANCH  66  83
ENDBRANCH  40  41
ENDBRANCH  32  35
ENDBRANCH  30  31
ENDBRANCH  29  30
ENDBRANCH   1  29
TORSDOF 15
ENDMDL
MODEL 2
REMARK VINA RESULT:     -12.1      1.171      2.139
REMARK SMILES COc1ccc([C@@H](C(=O)NCCCCNC(=O)c2ccc(-c3c4nc(c(-c5c(F)cccc5F)c5ccc([nH]5)c(-c5c(F)cccc5F)c5nc(c(-c6c(F)cccc6F)c6ccc3[nH]6)C=C5)C=C4)cc2)[NH+]2CCC(C(N)=O)CC2)c(C)c1
REMARK SMILES IDX 12 1 11 2 10 3 8 4 9 5 7 7 6 8 3 9 4 10 83 11 5 12 81 13
REMARK SMILES IDX 82 14 2 15 1 16 72 17 73 18 80 19 74 21 79 22 75 23 76 24
REMARK SMILES IDX 77 25 78 26 13 29 14 30 15 31 16 32 17 34 18 35 19 36 71 37
REMARK SMILES IDX 20 38 70 39 21 40 22 41 23 42 64 43 24 44 69 45 63 46 65 47
REMARK SMILES IDX 25 48 68 49 62 50 61 51 26 53 52 54 35 55 51 56 36 57 39 58
REMARK SMILES IDX 50 59 66 60 37 61 38 62 49 64 67 65 40 66 27 67 28 68 33 69
REMARK SMILES IDX 29 70 30 71 32 72 34 73 31 74 53 75 54 76 59 77 55 78 56 79
REMARK SMILES IDX 58 80 60 81 57 82 41 83 42 84 47 85 43 86 44 87 46 88 48 89
REMARK SMILES IDX 45 90
REMARK H PARENT 10 6 72 20 77 27 77 28 15 33 65 52 39 63
REMARK Flexibility Score: inf
ROOT
ATOM      1  C   UNL A   1      32.546  29.562  26.885  1.00  0.00     0.023 C 
ENDROOT
BRANCH   1   2
ATOM      2  C   UNL A   1      33.941  28.951  26.690  1.00  0.00     0.116 C 
BRANCH   2   3
ATOM      3  N   UNL A   1      34.395  28.909  25.309  1.00  0.00    -0.351 N 
ATOM      4  C   UNL A   1      33.944  28.183  24.230  1.00  0.00     0.283 C 
ATOM      5  O   UNL A   1      34.479  28.448  23.149  1.00  0.00    -0.268 OA
ATOM      6  H   UNL A   1      35.156  29.502  25.111  1.00  0.00     0.163 HD
BRANCH   4   7
ATOM      7  C   UNL A   1      32.799  27.137  24.405  1.00  0.00     0.305 C 
BRANCH   7   8
ATOM      8  C   UNL A   1      33.248  25.674  24.266  1.00  0.00     0.022 A 
ATOM      9  C   UNL A   1      34.167  22.988  24.300  1.00  0.00     0.119 A 
ATOM     10  C   UNL A   1      34.157  23.728  25.474  1.00  0.00     0.047 A 
ATOM     11  C   UNL A   1      33.734  23.586  23.116  1.00  0.00     0.050 A 
ATOM     12  C   UNL A   1      33.692  25.044  25.456  1.00  0.00     0.014 A 
ATOM     13  C   UNL A   1      33.287  24.924  23.069  1.00  0.00    -0.038 A 
ATOM     14  C   UNL A   1      32.891  25.425  21.706  1.00  0.00     0.045 C 
BRANCH   9  15
ATOM     15  O   UNL A   1      34.603  21.700  24.172  1.00  0.00    -0.497 OA
ATOM     16  C   UNL A   1      35.076  21.079  25.362  1.00  0.00     0.278 C 
ENDBRANCH   9  15
ENDBRANCH   7   8
BRANCH   7  17
ATOM     17  N   UNL A   1      31.537  27.489  23.663  1.00  0.00    -0.321 N 
ATOM     18  C   UNL A   1      30.309  26.969  24.275  1.00  0.00     0.263 C 
ATOM     19  C   UNL A   1      31.455  28.933  23.386  1.00  0.00     0.263 C 
ATOM     20  H   UNL A   1      31.605  27.003  22.769  1.00  0.00     0.349 HD
ATOM     21  C   UNL A   1      29.050  27.322  23.481  1.00  0.00     0.075 C 
ATOM     22  C   UNL A   1      30.205  29.324  22.594  1.00  0.00     0.075 C 
ATOM     23  C   UNL A   1      28.955  28.836  23.318  1.00  0.00     0.089 C 
BRANCH  23  24
ATOM     24  C   UNL A   1      27.693  29.212  22.572  1.00  0.00     0.220 C 
ATOM     25  N   UNL A   1      26.563  28.578  23.007  1.00  0.00    -0.369 N 
ATOM     26  O   UNL A   1      27.647  30.002  21.638  1.00  0.00    -0.275 OA
ATOM     27  H   UNL A   1      26.613  27.945  23.760  1.00  0.00     0.159 HD
ATOM     28  H   UNL A   1      25.700  28.752  22.567  1.00  0.00     0.159 HD
ENDBRANCH  23  24
ENDBRANCH   7  17
ENDBRANCH   4   7
ENDBRANCH   2   3
ENDBRANCH   1   2
BRANCH   1  29
ATOM     29  C   UNL A   1      32.512  31.014  27.359  1.00  0.00     0.023 C 
BRANCH  29  30
ATOM     30  C   UNL A   1      33.866  31.696  27.306  1.00  0.00     0.116 C 
BRANCH  30  31
ATOM     31  N   UNL A   1      34.294  32.291  28.563  1.00  0.00    -0.352 N 
ATOM     32  C   UNL A   1      35.189  31.829  29.516  1.00  0.00     0.251 C 
ATOM     33  H   UNL A   1      33.881  33.161  28.771  1.00  0.00     0.163 HD
ATOM     34  O   UNL A   1      35.329  32.451  30.557  1.00  0.00    -0.269 OA
BRANCH  32  35
ATOM     35  C   UNL A   1      36.087  30.679  29.217  1.00  0.00     0.039 A 
ATOM     36  C   UNL A   1      36.298  29.735  30.233  1.00  0.00     0.014 A 
ATOM     37  C   UNL A   1      36.872  30.633  28.071  1.00  0.00     0.014 A 
ATOM     38  C   UNL A   1      37.451  28.953  30.220  1.00  0.00     0.010 A 
ATOM     39  C   UNL A   1      38.074  29.965  28.113  1.00  0.00     0.010 A 
ATOM     40  C   UNL A   1      38.392  29.176  29.220  1.00  0.00    -0.014 A 
BRANCH  40  41
ATOM     41  C   UNL A   1      39.771  28.721  29.281  1.00  0.00     0.031 A 
ATOM     42  C   UNL A   1      40.137  27.384  28.783  1.00  0.00     0.074 A 
ATOM     43  C   UNL A   1      40.729  29.605  29.643  1.00  0.00     0.049 A 
ATOM     44  N   UNL A   1      41.222  26.766  29.102  1.00  0.00    -0.248 NA
ATOM     45  C   UNL A   1      39.277  26.615  27.892  1.00  0.00     0.031 C 
ATOM     46  C   UNL A   1      42.170  29.486  29.445  1.00  0.00     0.029 A 
ATOM     47  N   UNL A   1      40.581  30.734  30.459  1.00  0.00    -0.354 N 
ATOM     48  C   UNL A   1      41.345  25.681  28.266  1.00  0.00     0.074 A 
ATOM     49  C   UNL A   1      40.081  25.597  27.570  1.00  0.00     0.031 C 
ATOM     50  C   UNL A   1      42.794  30.291  30.320  1.00  0.00     0.029 A 
ATOM     51  C   UNL A   1      41.775  30.824  31.207  1.00  0.00     0.049 A 
ATOM     52  H   UNL A   1      39.805  31.339  30.502  1.00  0.00     0.167 HD
ATOM     53  C   UNL A   1      42.552  25.057  28.155  1.00  0.00     0.037 A 
ATOM     54  C   UNL A   1      41.773  30.675  32.563  1.00  0.00     0.037 A 
ATOM     55  C   UNL A   1      43.540  25.664  29.041  1.00  0.00     0.049 A 
ATOM     56  C   UNL A   1      42.637  29.537  33.052  1.00  0.00     0.074 A 
ATOM     57  C   UNL A   1      44.523  26.619  28.831  1.00  0.00     0.029 A 
ATOM     58  N   UNL A   1      43.388  25.555  30.418  1.00  0.00    -0.354 N 
ATOM     59  N   UNL A   1      42.997  28.525  32.313  1.00  0.00    -0.248 NA
ATOM     60  C   UNL A   1      43.161  29.448  34.411  1.00  0.00     0.031 C 
ATOM     61  C   UNL A   1      44.936  27.112  30.092  1.00  0.00     0.029 A 
ATOM     62  C   UNL A   1      44.218  26.445  31.069  1.00  0.00     0.049 A 
ATOM     63  H   UNL A   1      42.773  24.930  30.867  1.00  0.00     0.167 HD
ATOM     64  C   UNL A   1      43.768  27.663  33.054  1.00  0.00     0.074 A 
ATOM     65  C   UNL A   1      43.855  28.298  34.355  1.00  0.00     0.031 C 
ATOM     66  C   UNL A   1      44.261  26.504  32.523  1.00  0.00     0.037 A 
BRANCH  53  67
ATOM     67  C   UNL A   1      42.897  24.115  27.026  1.00  0.00     0.057 A 
ATOM     68  C   UNL A   1      42.917  22.720  27.222  1.00  0.00     0.134 A 
ATOM     69  C   UNL A   1      43.268  24.524  25.733  1.00  0.00     0.134 A 
ATOM     70  F   UNL A   1      42.484  22.160  28.358  1.00  0.00    -0.206 F 
ATOM     71  C   UNL A   1      43.390  21.821  26.258  1.00  0.00     0.040 A 
ATOM     72  C   UNL A   1      43.795  23.642  24.777  1.00  0.00     0.040 A 
ATOM     73  F   UNL A   1      43.091  25.786  25.324  1.00  0.00    -0.206 F 
ATOM     74  C   UNL A   1      43.872  22.283  25.045  1.00  0.00     0.006 A 
ENDBRANCH  53  67
BRANCH  54  75
ATOM     75  C   UNL A   1      40.505  31.124  33.197  1.00  0.00     0.057 A 
ATOM     76  C   UNL A   1      39.542  30.154  33.531  1.00  0.00     0.134 A 
ATOM     77  C   UNL A   1      40.401  32.366  33.829  1.00  0.00     0.134 A 
ATOM     78  F   UNL A   1      39.586  28.939  32.960  1.00  0.00    -0.206 F 
ATOM     79  C   UNL A   1      38.597  30.365  34.536  1.00  0.00     0.040 A 
ATOM     80  C   UNL A   1      39.447  32.594  34.830  1.00  0.00     0.040 A 
ATOM     81  F   UNL A   1      41.293  33.335  33.582  1.00  0.00    -0.206 F 
ATOM     82  C   UNL A   1      38.571  31.579  35.216  1.00  0.00     0.006 A 
ENDBRANCH  54  75
BRANCH  66  83
ATOM     83  C   UNL A   1      44.909  25.355  33.268  1.00  0.00     0.057 A 
ATOM     84  C   UNL A   1      46.275  25.043  33.227  1.00  0.00     0.134 A 
ATOM     85  C   UNL A   1      44.159  24.592  34.198  1.00  0.00     0.134 A 
ATOM     86  F   UNL A   1      47.138  25.745  32.485  1.00  0.00    -0.206 F 
ATOM     87  C   UNL A   1      46.840  24.020  34.007  1.00  0.00     0.040 A 
ATOM     88  C   UNL A   1      44.723  23.613  35.022  1.00  0.00     0.040 A 
ATOM     89  F   UNL A   1      42.843  24.780  34.376  1.00  0.00    -0.206 F 
ATOM     90  C   UNL A   1      46.069  23.312  34.918  1.00  0.00     0.006 A 
ENDBRANCH  66  83
ENDBRANCH  40  41
ENDBRANCH  32  35
ENDBRANCH  30  31
ENDBRANCH  29  30
ENDBRANCH   1  29
TORSDOF 15
ENDMDL
MODEL 3
REMARK VINA RESULT:     -11.8      3.762      9.151
REMARK SMILES COc1ccc([C@@H](C(=O)NCCCCNC(=O)c2ccc(-c3c4nc(c(-c5c(F)cccc5F)c5ccc([nH]5)c(-c5c(F)cccc5F)c5nc(c(-c6c(F)cccc6F)c6ccc3[nH]6)C=C5)C=C4)cc2)[NH+]2CCC(C(N)=O)CC2)c(C)c1
REMARK SMILES IDX 12 1 11 2 10 3 8 4 9 5 7 7 6 8 3 9 4 10 83 11 5 12 81 13
REMARK SMILES IDX 82 14 2 15 1 16 72 17 73 18 80 19 74 21 79 22 75 23 76 24
REMARK SMILES IDX 77 25 78 26 13 29 14 30 15 31 16 32 17 34 18 35 19 36 71 37
REMARK SMILES IDX 20 38 70 39 21 40 22 41 23 42 64 43 24 44 69 45 63 46 65 47
REMARK SMILES IDX 25 48 68 49 62 50 61 51 26 53 52 54 35 55 51 56 36 57 39 58
REMARK SMILES IDX 50 59 66 60 37 61 38 62 49 64 67 65 40 66 27 67 28 68 33 69
REMARK SMILES IDX 29 70 30 71 32 72 34 73 31 74 53 75 54 76 59 77 55 78 56 79
REMARK SMILES IDX 58 80 60 81 57 82 41 83 42 84 47 85 43 86 44 87 46 88 48 89
REMARK SMILES IDX 45 90
REMARK H PARENT 10 6 72 20 77 27 77 28 15 33 65 52 39 63
REMARK Flexibility Score: inf
ROOT
ATOM      1  C   UNL A   1      38.158  23.442  26.329  1.00  0.00     0.023 C 
ENDROOT
BRANCH   1   2
ATOM      2  C   UNL A   1      36.716  23.323  25.813  1.00  0.00     0.116 C 
BRANCH   2   3
ATOM      3  N   UNL A   1      35.713  23.168  26.855  1.00  0.00    -0.351 N 
ATOM      4  C   UNL A   1      34.350  22.997  26.780  1.00  0.00     0.283 C 
ATOM      5  O   UNL A   1      33.779  22.789  27.855  1.00  0.00    -0.268 OA
ATOM      6  H   UNL A   1      36.071  23.189  27.772  1.00  0.00     0.163 HD
BRANCH   4   7
ATOM      7  C   UNL A   1      33.625  23.028  25.399  1.00  0.00     0.305 C 
BRANCH   7   8
ATOM      8  C   UNL A   1      32.668  24.217  25.209  1.00  0.00     0.022 A 
ATOM      9  C   UNL A   1      31.138  26.561  24.741  1.00  0.00     0.119 A 
ATOM     10  C   UNL A   1      32.444  26.486  24.279  1.00  0.00     0.047 A 
ATOM     11  C   UNL A   1      30.602  25.481  25.443  1.00  0.00     0.050 A 
ATOM     12  C   UNL A   1      33.189  25.327  24.498  1.00  0.00     0.014 A 
ATOM     13  C   UNL A   1      31.347  24.310  25.703  1.00  0.00    -0.038 A 
ATOM     14  C   UNL A   1      30.633  23.255  26.505  1.00  0.00     0.045 C 
BRANCH   9  15
ATOM     15  O   UNL A   1      30.302  27.634  24.606  1.00  0.00    -0.497 OA
ATOM     16  C   UNL A   1      29.821  27.888  23.291  1.00  0.00     0.278 C 
ENDBRANCH   9  15
ENDBRANCH   7   8
BRANCH   7  17
ATOM     17  N   UNL A   1      33.074  21.694  24.971  1.00  0.00    -0.321 N 
ATOM     18  C   UNL A   1      32.932  21.533  23.520  1.00  0.00     0.263 C 
ATOM     19  C   UNL A   1      33.815  20.579  25.586  1.00  0.00     0.263 C 
ATOM     20  H   UNL A   1      32.119  21.669  25.329  1.00  0.00     0.349 HD
ATOM     21  C   UNL A   1      32.346  20.177  23.123  1.00  0.00     0.075 C 
ATOM     22  C   UNL A   1      33.257  19.205  25.209  1.00  0.00     0.075 C 
ATOM     23  C   UNL A   1      33.212  19.058  23.692  1.00  0.00     0.089 C 
BRANCH  23  24
ATOM     24  C   UNL A   1      32.676  17.706  23.276  1.00  0.00     0.220 C 
ATOM     25  N   UNL A   1      31.754  17.744  22.268  1.00  0.00    -0.369 N 
ATOM     26  O   UNL A   1      33.000  16.642  23.788  1.00  0.00    -0.275 OA
ATOM     27  H   UNL A   1      31.502  18.605  21.864  1.00  0.00     0.159 HD
ATOM     28  H   UNL A   1      31.342  16.909  21.945  1.00  0.00     0.159 HD
ENDBRANCH  23  24
ENDBRANCH   7  17
ENDBRANCH   4   7
ENDBRANCH   2   3
ENDBRANCH   1   2
BRANCH   1  29
ATOM     29  C   UNL A   1      39.046  22.215  26.121  1.00  0.00     0.023 C 
BRANCH  29  30
ATOM     30  C   UNL A   1      40.249  22.182  27.044  1.00  0.00     0.116 C 
BRANCH  30  31
ATOM     31  N   UNL A   1      41.468  22.732  26.471  1.00  0.00    -0.352 N 
ATOM     32  C   UNL A   1      41.848  24.049  26.266  1.00  0.00     0.251 C 
ATOM     33  H   UNL A   1      42.129  22.061  26.181  1.00  0.00     0.163 HD
ATOM     34  O   UNL A   1      42.888  24.286  25.672  1.00  0.00    -0.269 OA
BRANCH  32  35
ATOM     35  C   UNL A   1      41.086  25.164  26.895  1.00  0.00     0.039 A 
ATOM     36  C   UNL A   1      40.891  26.329  26.138  1.00  0.00     0.014 A 
ATOM     37  C   UNL A   1      40.765  25.168  28.246  1.00  0.00     0.014 A 
ATOM     38  C   UNL A   1      40.652  27.540  26.784  1.00  0.00     0.010 A 
ATOM     39  C   UNL A   1      40.661  26.374  28.903  1.00  0.00     0.010 A 
ATOM     40  C   UNL A   1      40.671  27.564  28.174  1.00  0.00    -0.014 A 
BRANCH  40  41
ATOM     41  C   UNL A   1      40.808  28.775  28.967  1.00  0.00     0.031 A 
ATOM     42  C   UNL A   1      39.669  29.696  29.123  1.00  0.00     0.074 A 
ATOM     43  C   UNL A   1      41.937  28.949  29.692  1.00  0.00     0.049 A 
ATOM     44  N   UNL A   1      39.780  30.926  29.494  1.00  0.00    -0.248 NA
ATOM     45  C   UNL A   1      38.294  29.302  28.839  1.00  0.00     0.031 C 
ATOM     46  C   UNL A   1      42.149  29.877  30.798  1.00  0.00     0.029 A 
ATOM     47  N   UNL A   1      43.210  28.429  29.423  1.00  0.00    -0.354 N 
ATOM     48  C   UNL A   1      38.517  31.393  29.771  1.00  0.00     0.074 A 
ATOM     49  C   UNL A   1      37.622  30.364  29.292  1.00  0.00     0.031 C 
ATOM     50  C   UNL A   1      43.468  30.089  30.937  1.00  0.00     0.029 A 
ATOM     51  C   UNL A   1      44.123  29.429  29.821  1.00  0.00     0.049 A 
ATOM     52  H   UNL A   1      43.423  27.549  29.038  1.00  0.00     0.167 HD
ATOM     53  C   UNL A   1      38.373  32.537  30.498  1.00  0.00     0.037 A 
ATOM     54  C   UNL A   1      44.925  30.056  28.912  1.00  0.00     0.037 A 
ATOM     55  C   UNL A   1      39.671  33.118  30.825  1.00  0.00     0.049 A 
ATOM     56  C   UNL A   1      44.729  31.553  28.856  1.00  0.00     0.074 A 
ATOM     57  C   UNL A   1      40.475  33.038  31.952  1.00  0.00     0.029 A 
ATOM     58  N   UNL A   1      40.470  33.630  29.809  1.00  0.00    -0.354 N 
ATOM     59  N   UNL A   1      43.650  32.162  29.262  1.00  0.00    -0.248 NA
ATOM     60  C   UNL A   1      45.729  32.479  28.336  1.00  0.00     0.031 C 
ATOM     61  C   UNL A   1      41.775  33.472  31.598  1.00  0.00     0.029 A 
ATOM     62  C   UNL A   1      41.759  33.832  30.262  1.00  0.00     0.049 A 
ATOM     63  H   UNL A   1      40.160  33.822  28.894  1.00  0.00     0.167 HD
ATOM     64  C   UNL A   1      43.783  33.515  29.066  1.00  0.00     0.074 A 
ATOM     65  C   UNL A   1      45.111  33.661  28.501  1.00  0.00     0.031 C 
ATOM     66  C   UNL A   1      42.782  34.388  29.389  1.00  0.00     0.037 A 
BRANCH  53  67
ATOM     67  C   UNL A   1      37.078  32.938  31.163  1.00  0.00     0.057 A 
ATOM     68  C   UNL A   1      36.785  32.546  32.485  1.00  0.00     0.134 A 
ATOM     69  C   UNL A   1      36.055  33.670  30.536  1.00  0.00     0.134 A 
ATOM     70  F   UNL A   1      37.693  31.941  33.260  1.00  0.00    -0.206 F 
ATOM     71  C   UNL A   1      35.535  32.751  33.082  1.00  0.00     0.040 A 
ATOM     72  C   UNL A   1      34.780  33.835  31.101  1.00  0.00     0.040 A 
ATOM     73  F   UNL A   1      36.260  34.298  29.372  1.00  0.00    -0.206 F 
ATOM     74  C   UNL A   1      34.512  33.359  32.375  1.00  0.00     0.006 A 
ENDBRANCH  53  67
BRANCH  54  75
ATOM     75  C   UNL A   1      45.281  29.192  27.755  1.00  0.00     0.057 A 
ATOM     76  C   UNL A   1      46.368  28.309  27.887  1.00  0.00     0.134 A 
ATOM     77  C   UNL A   1      44.369  28.929  26.730  1.00  0.00     0.134 A 
ATOM     78  F   UNL A   1      47.280  28.504  28.853  1.00  0.00    -0.206 F 
ATOM     79  C   UNL A   1      46.476  27.149  27.117  1.00  0.00     0.040 A 
ATOM     80  C   UNL A   1      44.475  27.775  25.942  1.00  0.00     0.040 A 
ATOM     81  F   UNL A   1      43.294  29.711  26.554  1.00  0.00    -0.206 F 
ATOM     82  C   UNL A   1      45.505  26.860  26.164  1.00  0.00     0.006 A 
ENDBRANCH  54  75
BRANCH  66  83
ATOM     83  C   UNL A   1      42.684  35.853  29.013  1.00  0.00     0.057 A 
ATOM     84  C   UNL A   1      43.319  36.899  29.697  1.00  0.00     0.134 A 
ATOM     85  C   UNL A   1      42.036  36.242  27.814  1.00  0.00     0.134 A 
ATOM     86  F   UNL A   1      44.067  36.680  30.784  1.00  0.00    -0.206 F 
ATOM     87  C   UNL A   1      43.268  38.231  29.256  1.00  0.00     0.040 A 
ATOM     88  C   UNL A   1      42.031  37.556  27.334  1.00  0.00     0.040 A 
ATOM     89  F   UNL A   1      41.399  35.360  27.030  1.00  0.00    -0.206 F 
ATOM     90  C   UNL A   1      42.637  38.562  28.065  1.00  0.00     0.006 A 
ENDBRANCH  66  83
ENDBRANCH  40  41
ENDBRANCH  32  35
ENDBRANCH  30  31
ENDBRANCH  29  30
ENDBRANCH   1  29
TORSDOF 15
ENDMDL
