MODEL 1
REMARK VINA RESULT:     -12.0      0.000      0.000
REMARK SMILES Cc1c(Cl)cccc1-c1cccc(Cl)c1C(=O)NCCCCNC(=O)c1ccc(-c2c3nc(c(-c4c(F)cccc4F)c4ccc([nH]4)c(-c4c(F)cccc4F)c4nc(c(-c5c(F)cccc5F)c5ccc2[nH]5)C=C4)C=C3)cc1
REMARK SMILES IDX 21 1 20 2 19 3 18 4 16 5 17 6 15 8 9 9 10 10 11 11 13 12
REMARK SMILES IDX 12 13 14 14 8 15 1 16 2 17 3 18 4 19 5 20 7 21 6 22 22 23
REMARK SMILES IDX 23 24 24 25 25 27 26 28 27 29 79 30 28 31 78 32 29 33 30 34
REMARK SMILES IDX 31 35 72 36 32 37 77 38 71 39 73 40 33 41 76 42 70 43 69 44
REMARK SMILES IDX 34 46 60 47 43 48 59 49 44 50 47 51 58 52 74 53 45 54 46 55
REMARK SMILES IDX 57 57 75 58 48 59 35 60 36 61 41 62 37 63 38 64 40 65 42 66
REMARK SMILES IDX 39 67 61 68 62 69 67 70 63 71 64 72 66 73 68 74 65 75 49 76
REMARK SMILES IDX 50 77 55 78 51 79 52 80 54 81 56 82 53 83
REMARK H PARENT 18 7 23 26 73 45 47 56
REMARK Flexibility Score: inf
ROOT
ATOM      1  C   UNL A   1      31.393  31.733  26.792  1.00  0.00     0.023 C 
ENDROOT
BRANCH   1   2
ATOM      2  C   UNL A   1      31.356  30.625  25.735  1.00  0.00     0.023 C 
BRANCH   2   3
ATOM      3  C   UNL A   1      32.550  29.679  25.690  1.00  0.00     0.116 C 
BRANCH   3   4
ATOM      4  N   UNL A   1      33.097  29.426  24.380  1.00  0.00    -0.352 N 
ATOM      5  C   UNL A   1      32.502  28.805  23.308  1.00  0.00     0.253 C 
ATOM      6  O   UNL A   1      33.011  28.950  22.196  1.00  0.00    -0.269 OA
ATOM      7  H   UNL A   1      34.018  29.739  24.234  1.00  0.00     0.163 HD
BRANCH   5   8
ATOM      8  C   UNL A   1      31.299  27.938  23.429  1.00  0.00     0.066 A 
ATOM      9  C   UNL A   1      31.321  26.632  23.987  1.00  0.00    -0.004 A 
ATOM     10  C   UNL A   1      30.083  25.977  24.196  1.00  0.00     0.009 A 
ATOM     11  C   UNL A   1      28.866  26.574  23.876  1.00  0.00     0.002 A 
ATOM     12  C   UNL A   1      30.057  28.528  23.102  1.00  0.00     0.054 A 
ATOM     13  C   UNL A   1      28.855  27.848  23.326  1.00  0.00     0.021 A 
ATOM     14  Cl  UNL A   1      29.917  30.094  22.368  1.00  0.00    -0.083 Cl
BRANCH   9  15
ATOM     15  C   UNL A   1      32.540  25.869  24.329  1.00  0.00    -0.013 A 
ATOM     16  C   UNL A   1      32.904  25.018  21.949  1.00  0.00     0.046 C 
ATOM     17  C   UNL A   1      33.271  25.078  23.410  1.00  0.00    -0.025 A 
ATOM     18  C   UNL A   1      34.350  24.305  23.896  1.00  0.00     0.044 A 
ATOM     19  Cl  UNL A   1      35.223  23.217  22.869  1.00  0.00    -0.084 Cl
ATOM     20  C   UNL A   1      34.742  24.357  25.237  1.00  0.00     0.021 A 
ATOM     21  C   UNL A   1      32.984  25.930  25.675  1.00  0.00     0.009 A 
ATOM     22  C   UNL A   1      34.068  25.183  26.126  1.00  0.00     0.002 A 
ENDBRANCH   9  15
ENDBRANCH   5   8
ENDBRANCH   3   4
ENDBRANCH   2   3
ENDBRANCH   1   2
BRANCH   1  23
ATOM     23  C   UNL A   1      32.229  32.979  26.502  1.00  0.00     0.116 C 
BRANCH  23  24
ATOM     24  N   UNL A   1      32.152  34.021  27.515  1.00  0.00    -0.352 N 
ATOM     25  C   UNL A   1      33.028  34.375  28.515  1.00  0.00     0.251 C 
ATOM     26  H   UNL A   1      31.333  34.566  27.477  1.00  0.00     0.163 HD
ATOM     27  O   UNL A   1      32.760  35.322  29.251  1.00  0.00    -0.269 OA
BRANCH  25  28
ATOM     28  C   UNL A   1      34.250  33.576  28.768  1.00  0.00     0.039 A 
ATOM     29  C   UNL A   1      35.490  34.213  28.667  1.00  0.00     0.014 A 
ATOM     30  C   UNL A   1      34.187  32.235  29.152  1.00  0.00     0.014 A 
ATOM     31  C   UNL A   1      36.649  33.555  29.090  1.00  0.00     0.010 A 
ATOM     32  C   UNL A   1      35.330  31.605  29.645  1.00  0.00     0.010 A 
ATOM     33  C   UNL A   1      36.566  32.273  29.657  1.00  0.00    -0.014 A 
BRANCH  33  34
ATOM     34  C   UNL A   1      37.728  31.657  30.351  1.00  0.00     0.031 A 
ATOM     35  C   UNL A   1      38.575  30.623  29.667  1.00  0.00     0.074 A 
ATOM     36  C   UNL A   1      37.954  31.956  31.647  1.00  0.00     0.049 A 
ATOM     37  N   UNL A   1      39.545  29.894  30.160  1.00  0.00    -0.248 NA
ATOM     38  C   UNL A   1      38.276  30.355  28.253  1.00  0.00     0.031 C 
ATOM     39  C   UNL A   1      37.172  32.901  32.449  1.00  0.00     0.029 A 
ATOM     40  N   UNL A   1      38.897  31.481  32.526  1.00  0.00    -0.354 N 
ATOM     41  C   UNL A   1      39.956  29.063  29.126  1.00  0.00     0.074 A 
ATOM     42  C   UNL A   1      39.108  29.356  27.989  1.00  0.00     0.031 C 
ATOM     43  C   UNL A   1      37.676  32.948  33.692  1.00  0.00     0.029 A 
ATOM     44  C   UNL A   1      38.788  32.010  33.790  1.00  0.00     0.049 A 
ATOM     45  H   UNL A   1      39.584  30.824  32.274  1.00  0.00     0.167 HD
ATOM     46  C   UNL A   1      40.956  28.149  29.120  1.00  0.00     0.037 A 
ATOM     47  C   UNL A   1      39.494  31.760  34.909  1.00  0.00     0.037 A 
ATOM     48  C   UNL A   1      41.820  27.877  30.238  1.00  0.00     0.049 A 
ATOM     49  C   UNL A   1      40.606  30.752  34.871  1.00  0.00     0.074 A 
ATOM     50  C   UNL A   1      42.904  27.019  30.301  1.00  0.00     0.029 A 
ATOM     51  N   UNL A   1      41.699  28.459  31.491  1.00  0.00    -0.354 N 
ATOM     52  N   UNL A   1      41.021  30.019  33.868  1.00  0.00    -0.248 NA
ATOM     53  C   UNL A   1      41.349  30.536  36.123  1.00  0.00     0.031 C 
ATOM     54  C   UNL A   1      43.421  27.059  31.601  1.00  0.00     0.029 A 
ATOM     55  C   UNL A   1      42.679  27.967  32.338  1.00  0.00     0.049 A 
ATOM     56  H   UNL A   1      41.017  29.124  31.740  1.00  0.00     0.167 HD
ATOM     57  C   UNL A   1      42.084  29.272  34.358  1.00  0.00     0.074 A 
ATOM     58  C   UNL A   1      42.258  29.647  35.746  1.00  0.00     0.031 C 
ATOM     59  C   UNL A   1      42.845  28.354  33.714  1.00  0.00     0.037 A 
BRANCH  46  60
ATOM     60  C   UNL A   1      41.172  27.376  27.852  1.00  0.00     0.057 A 
ATOM     61  C   UNL A   1      40.556  26.138  27.632  1.00  0.00     0.134 A 
ATOM     62  C   UNL A   1      41.979  27.889  26.830  1.00  0.00     0.134 A 
ATOM     63  F   UNL A   1      39.779  25.588  28.578  1.00  0.00    -0.206 F 
ATOM     64  C   UNL A   1      40.756  25.424  26.450  1.00  0.00     0.040 A 
ATOM     65  C   UNL A   1      42.169  27.196  25.634  1.00  0.00     0.040 A 
ATOM     66  F   UNL A   1      42.592  29.074  26.975  1.00  0.00    -0.206 F 
ATOM     67  C   UNL A   1      41.561  25.956  25.445  1.00  0.00     0.006 A 
ENDBRANCH  46  60
BRANCH  47  68
ATOM     68  C   UNL A   1      39.183  32.492  36.162  1.00  0.00     0.057 A 
ATOM     69  C   UNL A   1      39.738  33.750  36.415  1.00  0.00     0.134 A 
ATOM     70  C   UNL A   1      38.330  31.953  37.132  1.00  0.00     0.134 A 
ATOM     71  F   UNL A   1      40.578  34.306  35.528  1.00  0.00    -0.206 F 
ATOM     72  C   UNL A   1      39.470  34.444  37.594  1.00  0.00     0.040 A 
ATOM     73  C   UNL A   1      38.036  32.645  38.308  1.00  0.00     0.040 A 
ATOM     74  F   UNL A   1      37.762  30.753  36.944  1.00  0.00    -0.206 F 
ATOM     75  C   UNL A   1      38.611  33.892  38.544  1.00  0.00     0.006 A 
ENDBRANCH  47  68
BRANCH  59  76
ATOM     76  C   UNL A   1      43.955  27.716  34.495  1.00  0.00     0.057 A 
ATOM     77  C   UNL A   1      45.222  28.305  34.587  1.00  0.00     0.134 A 
ATOM     78  C   UNL A   1      43.740  26.522  35.192  1.00  0.00     0.134 A 
ATOM     79  F   UNL A   1      45.493  29.441  33.928  1.00  0.00    -0.206 F 
ATOM     80  C   UNL A   1      46.242  27.718  35.336  1.00  0.00     0.040 A 
ATOM     81  C   UNL A   1      44.746  25.937  35.960  1.00  0.00     0.040 A 
ATOM     82  F   UNL A   1      42.546  25.911  35.146  1.00  0.00    -0.206 F 
ATOM     83  C   UNL A   1      46.004  26.533  36.031  1.00  0.00     0.006 A 
ENDBRANCH  59  76
ENDBRANCH  33  34
ENDBRANCH  25  28
ENDBRANCH  23  24
ENDBRANCH   1  23
TORSDOF 12
ENDMDL
MODEL 2
REMARK VINA RESULT:     -12.0      4.036      7.609
REMARK SMILES Cc1c(Cl)cccc1-c1cccc(Cl)c1C(=O)NCCCCNC(=O)c1ccc(-c2c3nc(c(-c4c(F)cccc4F)c4ccc([nH]4)c(-c4c(F)cccc4F)c4nc(c(-c5c(F)cccc5F)c5ccc2[nH]5)C=C4)C=C3)cc1
REMARK SMILES IDX 21 1 20 2 19 3 18 4 16 5 17 6 15 8 9 9 10 10 11 11 13 12
REMARK SMILES IDX 12 13 14 14 8 15 1 16 2 17 3 18 4 19 5 20 7 21 6 22 22 23
REMARK SMILES IDX 23 24 24 25 25 27 26 28 27 29 79 30 28 31 78 32 29 33 30 34
REMARK SMILES IDX 31 35 72 36 32 37 77 38 71 39 73 40 33 41 76 42 70 43 69 44
REMARK SMILES IDX 34 46 60 47 43 48 59 49 44 50 47 51 58 52 74 53 45 54 46 55
REMARK SMILES IDX 57 57 75 58 48 59 35 60 36 61 41 62 37 63 38 64 40 65 42 66
REMARK SMILES IDX 39 67 61 68 62 69 67 70 63 71 64 72 66 73 68 74 65 75 49 76
REMARK SMILES IDX 50 77 55 78 51 79 52 80 54 81 56 82 53 83
REMARK H PARENT 18 7 23 26 73 45 47 56
REMARK Flexibility Score: inf
ROOT
ATOM      1  C   UNL A   1      33.041  29.650  25.764  1.00  0.00     0.023 C 
ENDROOT
BRANCH   1   2
ATOM      2  C   UNL A   1      33.394  28.616  24.690  1.00  0.00     0.023 C 
BRANCH   2   3
ATOM      3  C   UNL A   1      33.680  27.199  25.170  1.00  0.00     0.116 C 
BRANCH   3   4
ATOM      4  N   UNL A   1      34.027  26.250  24.141  1.00  0.00    -0.352 N 
ATOM      5  C   UNL A   1      33.646  24.935  24.023  1.00  0.00     0.253 C 
ATOM      6  O   UNL A   1      33.794  24.382  22.933  1.00  0.00    -0.269 OA
ATOM      7  H   UNL A   1      34.615  26.589  23.428  1.00  0.00     0.163 HD
BRANCH   5   8
ATOM      8  C   UNL A   1      33.098  24.138  25.154  1.00  0.00     0.066 A 
ATOM      9  C   UNL A   1      33.896  23.334  26.011  1.00  0.00    -0.004 A 
ATOM     10  C   UNL A   1      33.279  22.757  27.148  1.00  0.00     0.009 A 
ATOM     11  C   UNL A   1      31.933  22.961  27.442  1.00  0.00     0.002 A 
ATOM     12  C   UNL A   1      31.732  24.329  25.461  1.00  0.00     0.054 A 
ATOM     13  C   UNL A   1      31.160  23.743  26.596  1.00  0.00     0.021 A 
ATOM     14  Cl  UNL A   1      30.655  25.247  24.457  1.00  0.00    -0.083 Cl
BRANCH   9  15
ATOM     15  C   UNL A   1      35.320  23.002  25.791  1.00  0.00    -0.013 A 
ATOM     16  C   UNL A   1      34.833  20.660  24.898  1.00  0.00     0.046 C 
ATOM     17  C   UNL A   1      35.785  21.753  25.313  1.00  0.00    -0.025 A 
ATOM     18  C   UNL A   1      37.180  21.528  25.262  1.00  0.00     0.044 A 
ATOM     19  Cl  UNL A   1      37.836  19.992  24.807  1.00  0.00    -0.084 Cl
ATOM     20  C   UNL A   1      38.095  22.527  25.608  1.00  0.00     0.021 A 
ATOM     21  C   UNL A   1      36.272  24.008  26.099  1.00  0.00     0.009 A 
ATOM     22  C   UNL A   1      37.642  23.775  26.013  1.00  0.00     0.002 A 
ENDBRANCH   9  15
ENDBRANCH   5   8
ENDBRANCH   3   4
ENDBRANCH   2   3
ENDBRANCH   1   2
BRANCH   1  23
ATOM     23  C   UNL A   1      33.532  29.406  27.190  1.00  0.00     0.116 C 
BRANCH  23  24
ATOM     24  N   UNL A   1      33.746  30.608  27.982  1.00  0.00    -0.352 N 
ATOM     25  C   UNL A   1      34.864  31.069  28.639  1.00  0.00     0.251 C 
ATOM     26  H   UNL A   1      32.956  31.190  28.061  1.00  0.00     0.163 HD
ATOM     27  O   UNL A   1      34.819  32.143  29.235  1.00  0.00    -0.269 OA
BRANCH  25  28
ATOM     28  C   UNL A   1      36.095  30.248  28.704  1.00  0.00     0.039 A 
ATOM     29  C   UNL A   1      36.935  30.224  27.586  1.00  0.00     0.014 A 
ATOM     30  C   UNL A   1      36.457  29.553  29.859  1.00  0.00     0.014 A 
ATOM     31  C   UNL A   1      38.197  29.629  27.675  1.00  0.00     0.010 A 
ATOM     32  C   UNL A   1      37.744  29.027  29.972  1.00  0.00     0.010 A 
ATOM     33  C   UNL A   1      38.642  29.096  28.895  1.00  0.00    -0.014 A 
BRANCH  33  34
ATOM     34  C   UNL A   1      40.062  28.698  29.094  1.00  0.00     0.031 A 
ATOM     35  C   UNL A   1      41.070  29.676  29.624  1.00  0.00     0.074 A 
ATOM     36  C   UNL A   1      40.465  27.476  28.692  1.00  0.00     0.049 A 
ATOM     37  N   UNL A   1      42.367  29.542  29.743  1.00  0.00    -0.248 NA
ATOM     38  C   UNL A   1      40.557  30.987  30.051  1.00  0.00     0.031 C 
ATOM     39  C   UNL A   1      39.600  26.446  28.107  1.00  0.00     0.029 A 
ATOM     40  N   UNL A   1      41.710  26.895  28.694  1.00  0.00    -0.354 N 
ATOM     41  C   UNL A   1      42.830  30.756  30.234  1.00  0.00     0.074 A 
ATOM     42  C   UNL A   1      41.678  31.625  30.359  1.00  0.00     0.031 C 
ATOM     43  C   UNL A   1      40.336  25.360  27.824  1.00  0.00     0.029 A 
ATOM     44  C   UNL A   1      41.728  25.626  28.167  1.00  0.00     0.049 A 
ATOM     45  H   UNL A   1      42.513  27.346  29.040  1.00  0.00     0.167 HD
ATOM     46  C   UNL A   1      44.096  31.110  30.563  1.00  0.00     0.037 A 
ATOM     47  C   UNL A   1      42.751  24.774  27.968  1.00  0.00     0.037 A 
ATOM     48  C   UNL A   1      45.238  30.239  30.468  1.00  0.00     0.049 A 
ATOM     49  C   UNL A   1      44.142  25.186  28.353  1.00  0.00     0.074 A 
ATOM     50  C   UNL A   1      46.546  30.488  30.844  1.00  0.00     0.029 A 
ATOM     51  N   UNL A   1      45.207  28.948  29.961  1.00  0.00    -0.354 N 
ATOM     52  N   UNL A   1      44.554  26.316  28.873  1.00  0.00    -0.248 NA
ATOM     53  C   UNL A   1      45.213  24.203  28.123  1.00  0.00     0.031 C 
ATOM     54  C   UNL A   1      47.314  29.360  30.537  1.00  0.00     0.029 A 
ATOM     55  C   UNL A   1      46.477  28.396  30.000  1.00  0.00     0.049 A 
ATOM     56  H   UNL A   1      44.402  28.494  29.623  1.00  0.00     0.167 HD
ATOM     57  C   UNL A   1      45.923  26.175  29.053  1.00  0.00     0.074 A 
ATOM     58  C   UNL A   1      46.272  24.846  28.597  1.00  0.00     0.031 C 
ATOM     59  C   UNL A   1      46.810  27.069  29.550  1.00  0.00     0.037 A 
BRANCH  46  60
ATOM     60  C   UNL A   1      44.310  32.507  31.063  1.00  0.00     0.057 A 
ATOM     61  C   UNL A   1      44.247  32.817  32.428  1.00  0.00     0.134 A 
ATOM     62  C   UNL A   1      44.611  33.547  30.176  1.00  0.00     0.134 A 
ATOM     63  F   UNL A   1      43.953  31.867  33.328  1.00  0.00    -0.206 F 
ATOM     64  C   UNL A   1      44.450  34.119  32.889  1.00  0.00     0.040 A 
ATOM     65  C   UNL A   1      44.839  34.848  30.627  1.00  0.00     0.040 A 
ATOM     66  F   UNL A   1      44.693  33.315  28.857  1.00  0.00    -0.206 F 
ATOM     67  C   UNL A   1      44.753  35.137  31.988  1.00  0.00     0.006 A 
ENDBRANCH  46  60
BRANCH  47  68
ATOM     68  C   UNL A   1      42.496  23.432  27.388  1.00  0.00     0.057 A 
ATOM     69  C   UNL A   1      42.134  22.354  28.204  1.00  0.00     0.134 A 
ATOM     70  C   UNL A   1      42.610  23.194  26.014  1.00  0.00     0.134 A 
ATOM     71  F   UNL A   1      42.029  22.520  29.531  1.00  0.00    -0.206 F 
ATOM     72  C   UNL A   1      41.908  21.083  27.677  1.00  0.00     0.040 A 
ATOM     73  C   UNL A   1      42.367  21.931  25.470  1.00  0.00     0.040 A 
ATOM     74  F   UNL A   1      42.948  24.188  25.179  1.00  0.00    -0.206 F 
ATOM     75  C   UNL A   1      42.019  20.870  26.304  1.00  0.00     0.006 A 
ENDBRANCH  47  68
BRANCH  59  76
ATOM     76  C   UNL A   1      48.239  26.629  29.655  1.00  0.00     0.057 A 
ATOM     77  C   UNL A   1      49.178  26.934  28.661  1.00  0.00     0.134 A 
ATOM     78  C   UNL A   1      48.688  25.927  30.780  1.00  0.00     0.134 A 
ATOM     79  F   UNL A   1      48.804  27.591  27.553  1.00  0.00    -0.206 F 
ATOM     80  C   UNL A   1      50.512  26.543  28.778  1.00  0.00     0.040 A 
ATOM     81  C   UNL A   1      50.024  25.549  30.916  1.00  0.00     0.040 A 
ATOM     82  F   UNL A   1      47.839  25.608  31.768  1.00  0.00    -0.206 F 
ATOM     83  C   UNL A   1      50.940  25.854  29.911  1.00  0.00     0.006 A 
ENDBRANCH  59  76
ENDBRANCH  33  34
ENDBRANCH  25  28
ENDBRANCH  23  24
ENDBRANCH   1  23
TORSDOF 12
ENDMDL
MODEL 3
REMARK VINA RESULT:     -12.0      0.439      6.312
REMARK SMILES Cc1c(Cl)cccc1-c1cccc(Cl)c1C(=O)NCCCCNC(=O)c1ccc(-c2c3nc(c(-c4c(F)cccc4F)c4ccc([nH]4)c(-c4c(F)cccc4F)c4nc(c(-c5c(F)cccc5F)c5ccc2[nH]5)C=C4)C=C3)cc1
REMARK SMILES IDX 21 1 20 2 19 3 18 4 16 5 17 6 15 8 9 9 10 10 11 11 13 12
REMARK SMILES IDX 12 13 14 14 8 15 1 16 2 17 3 18 4 19 5 20 7 21 6 22 22 23
REMARK SMILES IDX 23 24 24 25 25 27 26 28 27 29 79 30 28 31 78 32 29 33 30 34
REMARK SMILES IDX 31 35 72 36 32 37 77 38 71 39 73 40 33 41 76 42 70 43 69 44
REMARK SMILES IDX 34 46 60 47 43 48 59 49 44 50 47 51 58 52 74 53 45 54 46 55
REMARK SMILES IDX 57 57 75 58 48 59 35 60 36 61 41 62 37 63 38 64 40 65 42 66
REMARK SMILES IDX 39 67 61 68 62 69 67 70 63 71 64 72 66 73 68 74 65 75 49 76
REMARK SMILES IDX 50 77 55 78 51 79 52 80 54 81 56 82 53 83
REMARK H PARENT 18 7 23 26 73 45 47 56
REMARK Flexibility Score: inf
ROOT
ATOM      1  C   UNL A   1      31.319  32.062  26.862  1.00  0.00     0.023 C 
ENDROOT
BRANCH   1   2
ATOM      2  C   UNL A   1      31.104  31.016  25.763  1.00  0.00     0.023 C 
BRANCH   2   3
ATOM      3  C   UNL A   1      32.033  29.810  25.773  1.00  0.00     0.116 C 
BRANCH   3   4
ATOM      4  N   UNL A   1      32.686  29.515  24.522  1.00  0.00    -0.352 N 
ATOM      5  C   UNL A   1      32.182  28.861  23.423  1.00  0.00     0.253 C 
ATOM      6  O   UNL A   1      32.782  28.971  22.354  1.00  0.00    -0.269 OA
ATOM      7  H   UNL A   1      33.618  29.823  24.443  1.00  0.00     0.163 HD
BRANCH   5   8
ATOM      8  C   UNL A   1      30.971  27.998  23.470  1.00  0.00     0.066 A 
ATOM      9  C   UNL A   1      30.965  26.674  23.982  1.00  0.00    -0.004 A 
ATOM     10  C   UNL A   1      29.717  26.019  24.123  1.00  0.00     0.009 A 
ATOM     11  C   UNL A   1      28.516  26.636  23.781  1.00  0.00     0.002 A 
ATOM     12  C   UNL A   1      29.744  28.608  23.120  1.00  0.00     0.054 A 
ATOM     13  C   UNL A   1      28.531  27.928  23.277  1.00  0.00     0.021 A 
ATOM     14  Cl  UNL A   1      29.639  30.200  22.438  1.00  0.00    -0.083 Cl
BRANCH   9  15
ATOM     15  C   UNL A   1      32.167  25.890  24.340  1.00  0.00    -0.013 A 
ATOM     16  C   UNL A   1      32.604  25.111  21.948  1.00  0.00     0.046 C 
ATOM     17  C   UNL A   1      32.923  25.123  23.422  1.00  0.00    -0.025 A 
ATOM     18  C   UNL A   1      33.980  24.326  23.918  1.00  0.00     0.044 A 
ATOM     19  Cl  UNL A   1      34.879  23.265  22.888  1.00  0.00    -0.084 Cl
ATOM     20  C   UNL A   1      34.327  24.334  25.273  1.00  0.00     0.021 A 
ATOM     21  C   UNL A   1      32.566  25.906  25.701  1.00  0.00     0.009 A 
ATOM     22  C   UNL A   1      33.629  25.136  26.165  1.00  0.00     0.002 A 
ENDBRANCH   9  15
ENDBRANCH   5   8
ENDBRANCH   3   4
ENDBRANCH   2   3
ENDBRANCH   1   2
BRANCH   1  23
ATOM     23  C   UNL A   1      32.301  33.200  26.591  1.00  0.00     0.116 C 
BRANCH  23  24
ATOM     24  N   UNL A   1      32.338  34.237  27.612  1.00  0.00    -0.352 N 
ATOM     25  C   UNL A   1      33.264  34.504  28.595  1.00  0.00     0.251 C 
ATOM     26  H   UNL A   1      31.570  34.853  27.596  1.00  0.00     0.163 HD
ATOM     27  O   UNL A   1      33.097  35.464  29.343  1.00  0.00    -0.269 OA
BRANCH  25  28
ATOM     28  C   UNL A   1      34.416  33.598  28.814  1.00  0.00     0.039 A 
ATOM     29  C   UNL A   1      35.700  34.151  28.824  1.00  0.00     0.014 A 
ATOM     30  C   UNL A   1      34.245  32.235  29.062  1.00  0.00     0.014 A 
ATOM     31  C   UNL A   1      36.791  33.372  29.225  1.00  0.00     0.010 A 
ATOM     32  C   UNL A   1      35.318  31.480  29.534  1.00  0.00     0.010 A 
ATOM     33  C   UNL A   1      36.595  32.052  29.660  1.00  0.00    -0.014 A 
BRANCH  33  34
ATOM     34  C   UNL A   1      37.679  31.290  30.334  1.00  0.00     0.031 A 
ATOM     35  C   UNL A   1      38.025  31.550  31.773  1.00  0.00     0.074 A 
ATOM     36  C   UNL A   1      38.429  30.434  29.612  1.00  0.00     0.049 A 
ATOM     37  N   UNL A   1      39.016  31.073  32.482  1.00  0.00    -0.248 NA
ATOM     38  C   UNL A   1      37.159  32.490  32.500  1.00  0.00     0.031 C 
ATOM     39  C   UNL A   1      38.239  30.130  28.190  1.00  0.00     0.029 A 
ATOM     40  N   UNL A   1      39.517  29.674  29.967  1.00  0.00    -0.354 N 
ATOM     41  C   UNL A   1      38.909  31.670  33.731  1.00  0.00     0.074 A 
ATOM     42  C   UNL A   1      37.777  32.570  33.671  1.00  0.00     0.031 C 
ATOM     43  C   UNL A   1      39.164  29.239  27.801  1.00  0.00     0.029 A 
ATOM     44  C   UNL A   1      40.038  28.938  28.929  1.00  0.00     0.049 A 
ATOM     45  H   UNL A   1      39.888  29.658  30.878  1.00  0.00     0.167 HD
ATOM     46  C   UNL A   1      39.677  31.478  34.831  1.00  0.00     0.037 A 
ATOM     47  C   UNL A   1      41.108  28.122  28.883  1.00  0.00     0.037 A 
ATOM     48  C   UNL A   1      40.785  30.562  34.904  1.00  0.00     0.049 A 
ATOM     49  C   UNL A   1      41.934  27.916  30.120  1.00  0.00     0.074 A 
ATOM     50  C   UNL A   1      41.575  30.249  35.996  1.00  0.00     0.029 A 
ATOM     51  N   UNL A   1      41.259  29.809  33.840  1.00  0.00    -0.354 N 
ATOM     52  N   UNL A   1      41.783  28.443  31.310  1.00  0.00    -0.248 NA
ATOM     53  C   UNL A   1      43.080  27.000  30.008  1.00  0.00     0.031 C 
ATOM     54  C   UNL A   1      42.547  29.330  35.586  1.00  0.00     0.029 A 
ATOM     55  C   UNL A   1      42.341  29.046  34.246  1.00  0.00     0.049 A 
ATOM     56  H   UNL A   1      40.882  29.818  32.930  1.00  0.00     0.167 HD
ATOM     57  C   UNL A   1      42.798  27.910  32.093  1.00  0.00     0.074 A 
ATOM     58  C   UNL A   1      43.553  27.009  31.247  1.00  0.00     0.031 C 
ATOM     59  C   UNL A   1      43.079  28.148  33.397  1.00  0.00     0.037 A 
BRANCH  46  60
ATOM     60  C   UNL A   1      39.336  32.277  36.054  1.00  0.00     0.057 A 
ATOM     61  C   UNL A   1      38.394  31.827  36.987  1.00  0.00     0.134 A 
ATOM     62  C   UNL A   1      39.979  33.492  36.317  1.00  0.00     0.134 A 
ATOM     63  F   UNL A   1      37.735  30.675  36.788  1.00  0.00    -0.206 F 
ATOM     64  C   UNL A   1      38.082  32.572  38.126  1.00  0.00     0.040 A 
ATOM     65  C   UNL A   1      39.694  34.235  37.463  1.00  0.00     0.040 A 
ATOM     66  F   UNL A   1      40.898  33.975  35.466  1.00  0.00    -0.206 F 
ATOM     67  C   UNL A   1      38.738  33.778  38.368  1.00  0.00     0.006 A 
ENDBRANCH  46  60
BRANCH  47  68
ATOM     68  C   UNL A   1      41.453  27.421  27.622  1.00  0.00     0.057 A 
ATOM     69  C   UNL A   1      40.985  26.127  27.369  1.00  0.00     0.134 A 
ATOM     70  C   UNL A   1      42.255  28.021  26.645  1.00  0.00     0.134 A 
ATOM     71  F   UNL A   1      40.228  25.495  28.279  1.00  0.00    -0.206 F 
ATOM     72  C   UNL A   1      41.314  25.447  26.196  1.00  0.00     0.040 A 
ATOM     73  C   UNL A   1      42.576  27.361  25.458  1.00  0.00     0.040 A 
ATOM     74  F   UNL A   1      42.730  29.263  26.827  1.00  0.00    -0.206 F 
ATOM     75  C   UNL A   1      42.108  26.067  25.234  1.00  0.00     0.006 A 
ENDBRANCH  47  68
BRANCH  59  76
ATOM     76  C   UNL A   1      44.233  27.402  33.996  1.00  0.00     0.057 A 
ATOM     77  C   UNL A   1      44.076  26.124  34.547  1.00  0.00     0.134 A 
ATOM     78  C   UNL A   1      45.520  27.952  33.985  1.00  0.00     0.134 A 
ATOM     79  F   UNL A   1      42.863  25.552  34.600  1.00  0.00    -0.206 F 
ATOM     80  C   UNL A   1      45.159  25.425  35.080  1.00  0.00     0.040 A 
ATOM     81  C   UNL A   1      46.614  27.253  34.496  1.00  0.00     0.040 A 
ATOM     82  F   UNL A   1      45.737  29.171  33.467  1.00  0.00    -0.206 F 
ATOM     83  C   UNL A   1      46.434  25.987  35.050  1.00  0.00     0.006 A 
ENDBRANCH  59  76
ENDBRANCH  33  34
ENDBRANCH  25  28
ENDBRANCH  23  24
ENDBRANCH   1  23
TORSDOF 12
ENDMDL
