MODEL 1
REMARK VINA RESULT:     -10.9      0.000      0.000
REMARK SMILES [NH3+][C@]1(C(=O)NCCCCNC(=O)c2ccc(-c3c4nc(c(-c5c(F)cccc5F)c5ccc([nH]5)c(-c5c(F)cccc5F)c5nc(c(-c6c(F)cccc6F)c6ccc3[nH]6)C=C5)C=C4)cc2)CCC[C@@H]1CCOc1ccc(CO)cc1
REMARK SMILES IDX 3 1 4 2 5 3 2 5 67 6 70 7 68 8 69 9 1 10 71 14 72 15 73 16
REMARK SMILES IDX 74 17 75 18 81 19 76 20 80 21 77 22 78 23 79 24 6 26 7 27
REMARK SMILES IDX 8 28 9 29 10 30 11 31 12 33 13 34 14 35 66 36 15 37 65 38
REMARK SMILES IDX 16 39 17 40 18 41 59 42 19 43 64 44 58 45 60 46 20 47 63 48
REMARK SMILES IDX 57 49 56 50 21 52 47 53 30 54 46 55 31 56 34 57 45 58 61 59
REMARK SMILES IDX 32 60 33 61 44 63 62 64 35 65 22 66 23 67 28 68 24 69 25 70
REMARK SMILES IDX 27 71 29 72 26 73 48 74 49 75 54 76 50 77 51 78 53 79 55 80
REMARK SMILES IDX 52 81 36 82 37 83 42 84 38 85 39 86 41 87 43 88 40 89
REMARK H PARENT 5 4 1 11 1 12 1 13 79 25 10 32 60 51 34 62
REMARK Flexibility Score: inf
ROOT
ATOM      1  C   UNL A   1      34.290  23.132  26.449  1.00  0.00     0.281 C 
ATOM      2  O   UNL A   1      33.689  22.577  27.377  1.00  0.00    -0.268 OA
ATOM      3  N   UNL A   1      35.616  22.803  26.323  1.00  0.00    -0.351 N 
ATOM      4  H   UNL A   1      35.919  22.109  26.952  1.00  0.00     0.163 HD
ENDROOT
BRANCH   1   5
ATOM      5  C   UNL A   1      33.538  24.125  25.500  1.00  0.00     0.176 C 
ATOM      6  C   UNL A   1      34.031  25.571  25.778  1.00  0.00     0.079 C 
ATOM      7  C   UNL A   1      33.913  23.973  23.990  1.00  0.00     0.064 C 
ATOM      8  C   UNL A   1      33.575  26.352  24.549  1.00  0.00     0.008 C 
ATOM      9  C   UNL A   1      33.860  25.406  23.393  1.00  0.00     0.011 C 
BRANCH   5  10
ATOM     10  N   UNL A   1      32.123  24.238  25.781  1.00  0.00    -0.345 N 
ATOM     11  H   UNL A   1      31.989  24.746  26.654  1.00  0.00     0.345 HD
ATOM     12  H   UNL A   1      31.718  23.305  25.864  1.00  0.00     0.345 HD
ATOM     13  H   UNL A   1      31.666  24.741  25.020  1.00  0.00     0.345 HD
ENDBRANCH   5  10
BRANCH   7  14
ATOM     14  C   UNL A   1      33.344  22.923  22.986  1.00  0.00     0.052 C 
BRANCH  14  15
ATOM     15  C   UNL A   1      32.030  22.158  23.189  1.00  0.00     0.230 C 
BRANCH  15  16
ATOM     16  O   UNL A   1      32.072  21.228  24.291  1.00  0.00    -0.494 OA
BRANCH  16  17
ATOM     17  C   UNL A   1      32.808  20.109  24.018  1.00  0.00     0.119 A 
ATOM     18  C   UNL A   1      34.001  19.822  24.683  1.00  0.00     0.047 A 
ATOM     19  C   UNL A   1      32.257  19.194  23.127  1.00  0.00     0.047 A 
ATOM     20  C   UNL A   1      34.511  18.521  24.638  1.00  0.00     0.010 A 
ATOM     21  C   UNL A   1      32.763  17.894  23.082  1.00  0.00     0.010 A 
ATOM     22  C   UNL A   1      33.835  17.525  23.913  1.00  0.00    -0.022 A 
BRANCH  22  23
ATOM     23  C   UNL A   1      34.108  16.064  24.186  1.00  0.00     0.191 C 
BRANCH  23  24
ATOM     24  O   UNL A   1      35.053  15.862  25.218  1.00  0.00    -0.392 OA
ATOM     25  H   UNL A   1      35.140  14.913  25.396  1.00  0.00     0.211 HD
ENDBRANCH  23  24
ENDBRANCH  22  23
ENDBRANCH  16  17
ENDBRANCH  15  16
ENDBRANCH  14  15
ENDBRANCH   7  14
ENDBRANCH   1   5
BRANCH   3  26
ATOM     26  C   UNL A   1      36.655  23.288  25.433  1.00  0.00     0.116 C 
BRANCH  26  27
ATOM     27  C   UNL A   1      37.099  22.283  24.375  1.00  0.00     0.023 C 
BRANCH  27  28
ATOM     28  C   UNL A   1      37.622  20.950  24.900  1.00  0.00     0.023 C 
BRANCH  28  29
ATOM     29  C   UNL A   1      38.863  21.008  25.788  1.00  0.00     0.116 C 
BRANCH  29  30
ATOM     30  N   UNL A   1      39.754  19.859  25.671  1.00  0.00    -0.352 N 
ATOM     31  C   UNL A   1      41.082  19.768  26.032  1.00  0.00     0.251 C 
ATOM     32  H   UNL A   1      39.356  19.045  25.287  1.00  0.00     0.163 HD
ATOM     33  O   UNL A   1      41.712  18.733  25.842  1.00  0.00    -0.269 OA
BRANCH  31  34
ATOM     34  C   UNL A   1      41.756  20.962  26.585  1.00  0.00     0.039 A 
ATOM     35  C   UNL A   1      42.278  21.911  25.704  1.00  0.00     0.014 A 
ATOM     36  C   UNL A   1      41.752  21.197  27.962  1.00  0.00     0.014 A 
ATOM     37  C   UNL A   1      42.687  23.152  26.195  1.00  0.00     0.010 A 
ATOM     38  C   UNL A   1      42.083  22.462  28.437  1.00  0.00     0.010 A 
ATOM     39  C   UNL A   1      42.532  23.459  27.557  1.00  0.00    -0.014 A 
BRANCH  39  40
ATOM     40  C   UNL A   1      42.799  24.825  28.078  1.00  0.00     0.031 A 
ATOM     41  C   UNL A   1      44.186  25.210  28.509  1.00  0.00     0.074 A 
ATOM     42  C   UNL A   1      41.778  25.689  28.251  1.00  0.00     0.049 A 
ATOM     43  N   UNL A   1      44.600  26.314  29.076  1.00  0.00    -0.248 NA
ATOM     44  C   UNL A   1      45.243  24.206  28.308  1.00  0.00     0.031 C 
ATOM     45  C   UNL A   1      40.373  25.419  27.934  1.00  0.00     0.029 A 
ATOM     46  N   UNL A   1      41.762  26.969  28.748  1.00  0.00    -0.354 N 
ATOM     47  C   UNL A   1      45.955  26.129  29.318  1.00  0.00     0.074 A 
ATOM     48  C   UNL A   1      46.281  24.787  28.887  1.00  0.00     0.031 C 
ATOM     49  C   UNL A   1      39.639  26.507  28.219  1.00  0.00     0.029 A 
ATOM     50  C   UNL A   1      40.511  27.539  28.769  1.00  0.00     0.049 A 
ATOM     51  H   UNL A   1      42.571  27.435  29.060  1.00  0.00     0.167 HD
ATOM     52  C   UNL A   1      46.852  27.006  29.827  1.00  0.00     0.037 A 
ATOM     53  C   UNL A   1      40.113  28.756  29.188  1.00  0.00     0.037 A 
ATOM     54  C   UNL A   1      46.537  28.353  30.220  1.00  0.00     0.049 A 
ATOM     55  C   UNL A   1      41.133  29.719  29.730  1.00  0.00     0.074 A 
ATOM     56  C   UNL A   1      47.391  29.339  30.682  1.00  0.00     0.029 A 
ATOM     57  N   UNL A   1      45.265  28.904  30.190  1.00  0.00    -0.354 N 
ATOM     58  N   UNL A   1      42.424  29.553  29.887  1.00  0.00    -0.248 NA
ATOM     59  C   UNL A   1      40.641  31.040  30.148  1.00  0.00     0.031 C 
ATOM     60  C   UNL A   1      46.630  30.478  30.963  1.00  0.00     0.029 A 
ATOM     61  C   UNL A   1      45.309  30.214  30.639  1.00  0.00     0.049 A 
ATOM     62  H   UNL A   1      44.452  28.435  29.895  1.00  0.00     0.167 HD
ATOM     63  C   UNL A   1      42.902  30.754  30.394  1.00  0.00     0.074 A 
ATOM     64  C   UNL A   1      41.765  31.644  30.507  1.00  0.00     0.031 C 
ATOM     65  C   UNL A   1      44.170  31.090  30.734  1.00  0.00     0.037 A 
BRANCH  52  66
ATOM     66  C   UNL A   1      48.268  26.531  29.973  1.00  0.00     0.057 A 
ATOM     67  C   UNL A   1      49.223  26.746  28.971  1.00  0.00     0.134 A 
ATOM     68  C   UNL A   1      48.685  25.868  31.134  1.00  0.00     0.134 A 
ATOM     69  F   UNL A   1      48.882  27.362  27.828  1.00  0.00    -0.206 F 
ATOM     70  C   UNL A   1      50.536  26.292  29.104  1.00  0.00     0.040 A 
ATOM     71  C   UNL A   1      50.003  25.433  31.290  1.00  0.00     0.040 A 
ATOM     72  F   UNL A   1      47.823  25.634  32.134  1.00  0.00    -0.206 F 
ATOM     73  C   UNL A   1      50.930  25.639  30.270  1.00  0.00     0.006 A 
ENDBRANCH  52  66
BRANCH  53  74
ATOM     74  C   UNL A   1      38.686  29.152  29.081  1.00  0.00     0.057 A 
ATOM     75  C   UNL A   1      38.155  29.604  27.867  1.00  0.00     0.134 A 
ATOM     76  C   UNL A   1      37.825  29.103  30.183  1.00  0.00     0.134 A 
ATOM     77  F   UNL A   1      38.937  29.691  26.780  1.00  0.00    -0.206 F 
ATOM     78  C   UNL A   1      36.825  30.013  27.755  1.00  0.00     0.040 A 
ATOM     79  C   UNL A   1      36.486  29.488  30.081  1.00  0.00     0.040 A 
ATOM     80  F   UNL A   1      38.270  28.673  31.372  1.00  0.00    -0.206 F 
ATOM     81  C   UNL A   1      35.985  29.951  28.866  1.00  0.00     0.006 A 
ENDBRANCH  53  74
BRANCH  65  82
ATOM     82  C   UNL A   1      44.401  32.486  31.228  1.00  0.00     0.057 A 
ATOM     83  C   UNL A   1      44.361  32.804  32.591  1.00  0.00     0.134 A 
ATOM     84  C   UNL A   1      44.710  33.516  30.331  1.00  0.00     0.134 A 
ATOM     85  F   UNL A   1      44.059  31.864  33.499  1.00  0.00    -0.206 F 
ATOM     86  C   UNL A   1      44.604  34.101  33.044  1.00  0.00     0.040 A 
ATOM     87  C   UNL A   1      44.977  34.812  30.772  1.00  0.00     0.040 A 
ATOM     88  F   UNL A   1      44.771  33.275  29.012  1.00  0.00    -0.206 F 
ATOM     89  C   UNL A   1      44.920  35.109  32.132  1.00  0.00     0.006 A 
ENDBRANCH  65  82
ENDBRANCH  39  40
ENDBRANCH  31  34
ENDBRANCH  29  30
ENDBRANCH  28  29
ENDBRANCH  27  28
ENDBRANCH  26  27
ENDBRANCH   3  26
TORSDOF 18
ENDMDL
MODEL 2
REMARK VINA RESULT:     -10.9      0.917      6.245
REMARK SMILES [NH3+][C@]1(C(=O)NCCCCNC(=O)c2ccc(-c3c4nc(c(-c5c(F)cccc5F)c5ccc([nH]5)c(-c5c(F)cccc5F)c5nc(c(-c6c(F)cccc6F)c6ccc3[nH]6)C=C5)C=C4)cc2)CCC[C@@H]1CCOc1ccc(CO)cc1
REMARK SMILES IDX 3 1 4 2 5 3 2 5 67 6 70 7 68 8 69 9 1 10 71 14 72 15 73 16
REMARK SMILES IDX 74 17 75 18 81 19 76 20 80 21 77 22 78 23 79 24 6 26 7 27
REMARK SMILES IDX 8 28 9 29 10 30 11 31 12 33 13 34 14 35 66 36 15 37 65 38
REMARK SMILES IDX 16 39 17 40 18 41 59 42 19 43 64 44 58 45 60 46 20 47 63 48
REMARK SMILES IDX 57 49 56 50 21 52 47 53 30 54 46 55 31 56 34 57 45 58 61 59
REMARK SMILES IDX 32 60 33 61 44 63 62 64 35 65 22 66 23 67 28 68 24 69 25 70
REMARK SMILES IDX 27 71 29 72 26 73 48 74 49 75 54 76 50 77 51 78 53 79 55 80
REMARK SMILES IDX 52 81 36 82 37 83 42 84 38 85 39 86 41 87 43 88 40 89
REMARK H PARENT 5 4 1 11 1 12 1 13 79 25 10 32 60 51 34 62
REMARK Flexibility Score: inf
ROOT
ATOM      1  C   UNL A   1      34.608  23.205  26.569  1.00  0.00     0.281 C 
ATOM      2  O   UNL A   1      34.117  22.818  27.637  1.00  0.00    -0.268 OA
ATOM      3  N   UNL A   1      35.976  23.132  26.485  1.00  0.00    -0.351 N 
ATOM      4  H   UNL A   1      36.404  22.715  27.268  1.00  0.00     0.163 HD
ENDROOT
BRANCH   1   5
ATOM      5  C   UNL A   1      33.686  23.723  25.415  1.00  0.00     0.176 C 
ATOM      6  C   UNL A   1      34.151  25.141  24.984  1.00  0.00     0.079 C 
ATOM      7  C   UNL A   1      33.843  22.942  24.071  1.00  0.00     0.064 C 
ATOM      8  C   UNL A   1      33.489  25.342  23.624  1.00  0.00     0.008 C 
ATOM      9  C   UNL A   1      33.643  23.991  22.943  1.00  0.00     0.011 C 
BRANCH   5  10
ATOM     10  N   UNL A   1      32.322  23.976  25.830  1.00  0.00    -0.345 N 
ATOM     11  H   UNL A   1      32.322  24.393  26.761  1.00  0.00     0.345 HD
ATOM     12  H   UNL A   1      31.806  23.096  25.851  1.00  0.00     0.345 HD
ATOM     13  H   UNL A   1      31.879  24.615  25.170  1.00  0.00     0.345 HD
ENDBRANCH   5  10
BRANCH   7  14
ATOM     14  C   UNL A   1      33.180  21.580  23.697  1.00  0.00     0.052 C 
BRANCH  14  15
ATOM     15  C   UNL A   1      32.566  20.610  24.714  1.00  0.00     0.230 C 
BRANCH  15  16
ATOM     16  O   UNL A   1      31.847  19.518  24.105  1.00  0.00    -0.494 OA
BRANCH  16  17
ATOM     17  C   UNL A   1      32.479  18.315  24.252  1.00  0.00     0.119 A 
ATOM     18  C   UNL A   1      33.123  17.677  23.190  1.00  0.00     0.047 A 
ATOM     19  C   UNL A   1      32.559  17.799  25.541  1.00  0.00     0.047 A 
ATOM     20  C   UNL A   1      34.046  16.662  23.463  1.00  0.00     0.010 A 
ATOM     21  C   UNL A   1      33.482  16.788  25.816  1.00  0.00     0.010 A 
ATOM     22  C   UNL A   1      34.300  16.281  24.791  1.00  0.00    -0.022 A 
BRANCH  22  23
ATOM     23  C   UNL A   1      35.558  15.521  25.139  1.00  0.00     0.191 C 
BRANCH  23  24
ATOM     24  O   UNL A   1      36.352  16.178  26.107  1.00  0.00    -0.392 OA
ATOM     25  H   UNL A   1      37.144  15.649  26.290  1.00  0.00     0.211 HD
ENDBRANCH  23  24
ENDBRANCH  22  23
ENDBRANCH  16  17
ENDBRANCH  15  16
ENDBRANCH  14  15
ENDBRANCH   7  14
ENDBRANCH   1   5
BRANCH   3  26
ATOM     26  C   UNL A   1      36.908  23.554  25.457  1.00  0.00     0.116 C 
BRANCH  26  27
ATOM     27  C   UNL A   1      37.305  22.454  24.476  1.00  0.00     0.023 C 
BRANCH  27  28
ATOM     28  C   UNL A   1      37.762  21.139  25.098  1.00  0.00     0.023 C 
BRANCH  28  29
ATOM     29  C   UNL A   1      39.088  21.170  25.856  1.00  0.00     0.116 C 
BRANCH  29  30
ATOM     30  N   UNL A   1      39.898  19.964  25.724  1.00  0.00    -0.352 N 
ATOM     31  C   UNL A   1      41.226  19.788  26.049  1.00  0.00     0.251 C 
ATOM     32  H   UNL A   1      39.437  19.176  25.355  1.00  0.00     0.163 HD
ATOM     33  O   UNL A   1      41.781  18.712  25.850  1.00  0.00    -0.269 OA
BRANCH  31  34
ATOM     34  C   UNL A   1      41.991  20.937  26.577  1.00  0.00     0.039 A 
ATOM     35  C   UNL A   1      42.548  21.848  25.677  1.00  0.00     0.014 A 
ATOM     36  C   UNL A   1      42.043  21.176  27.952  1.00  0.00     0.014 A 
ATOM     37  C   UNL A   1      43.051  23.061  26.150  1.00  0.00     0.010 A 
ATOM     38  C   UNL A   1      42.468  22.418  28.412  1.00  0.00     0.010 A 
ATOM     39  C   UNL A   1      42.955  23.382  27.515  1.00  0.00    -0.014 A 
BRANCH  39  40
ATOM     40  C   UNL A   1      43.325  24.729  28.021  1.00  0.00     0.031 A 
ATOM     41  C   UNL A   1      42.259  25.754  28.287  1.00  0.00     0.074 A 
ATOM     42  C   UNL A   1      44.625  25.062  28.153  1.00  0.00     0.049 A 
ATOM     43  N   UNL A   1      42.385  27.008  28.638  1.00  0.00    -0.248 NA
ATOM     44  C   UNL A   1      40.865  25.320  28.101  1.00  0.00     0.031 C 
ATOM     45  C   UNL A   1      45.762  24.183  27.865  1.00  0.00     0.029 A 
ATOM     46  N   UNL A   1      45.212  26.238  28.552  1.00  0.00    -0.354 N 
ATOM     47  C   UNL A   1      41.094  27.516  28.693  1.00  0.00     0.074 A 
ATOM     48  C   UNL A   1      40.203  26.451  28.286  1.00  0.00     0.031 C 
ATOM     49  C   UNL A   1      46.905  24.841  28.123  1.00  0.00     0.029 A 
ATOM     50  C   UNL A   1      46.586  26.196  28.560  1.00  0.00     0.049 A 
ATOM     51  H   UNL A   1      44.697  27.037  28.809  1.00  0.00     0.167 HD
ATOM     52  C   UNL A   1      40.685  28.749  29.073  1.00  0.00     0.037 A 
ATOM     53  C   UNL A   1      47.487  27.144  28.882  1.00  0.00     0.037 A 
ATOM     54  C   UNL A   1      41.567  29.796  29.515  1.00  0.00     0.049 A 
ATOM     55  C   UNL A   1      47.006  28.499  29.322  1.00  0.00     0.074 A 
ATOM     56  C   UNL A   1      41.241  31.056  29.986  1.00  0.00     0.029 A 
ATOM     57  N   UNL A   1      42.949  29.701  29.544  1.00  0.00    -0.354 N 
ATOM     58  N   UNL A   1      45.777  28.942  29.435  1.00  0.00    -0.248 NA
ATOM     59  C   UNL A   1      48.036  29.484  29.683  1.00  0.00     0.031 C 
ATOM     60  C   UNL A   1      42.430  31.735  30.271  1.00  0.00     0.029 A 
ATOM     61  C   UNL A   1      43.493  30.885  30.013  1.00  0.00     0.049 A 
ATOM     62  H   UNL A   1      43.467  28.909  29.272  1.00  0.00     0.167 HD
ATOM     63  C   UNL A   1      45.886  30.244  29.906  1.00  0.00     0.074 A 
ATOM     64  C   UNL A   1      47.299  30.515  30.069  1.00  0.00     0.031 C 
ATOM     65  C   UNL A   1      44.902  31.135  30.180  1.00  0.00     0.037 A 
BRANCH  52  66
ATOM     66  C   UNL A   1      39.210  29.023  29.039  1.00  0.00     0.057 A 
ATOM     67  C   UNL A   1      38.558  29.392  27.855  1.00  0.00     0.134 A 
ATOM     68  C   UNL A   1      38.431  28.900  30.196  1.00  0.00     0.134 A 
ATOM     69  F   UNL A   1      39.252  29.542  26.716  1.00  0.00    -0.206 F 
ATOM     70  C   UNL A   1      37.189  29.659  27.828  1.00  0.00     0.040 A 
ATOM     71  C   UNL A   1      37.054  29.138  30.175  1.00  0.00     0.040 A 
ATOM     72  F   UNL A   1      38.990  28.545  31.361  1.00  0.00    -0.206 F 
ATOM     73  C   UNL A   1      36.432  29.525  28.990  1.00  0.00     0.006 A 
ENDBRANCH  52  66
BRANCH  53  74
ATOM     74  C   UNL A   1      48.940  26.839  28.835  1.00  0.00     0.057 A 
ATOM     75  C   UNL A   1      49.675  27.027  27.659  1.00  0.00     0.134 A 
ATOM     76  C   UNL A   1      49.624  26.344  29.951  1.00  0.00     0.134 A 
ATOM     77  F   UNL A   1      49.070  27.480  26.551  1.00  0.00    -0.206 F 
ATOM     78  C   UNL A   1      51.033  26.713  27.586  1.00  0.00     0.040 A 
ATOM     79  C   UNL A   1      50.987  26.047  29.900  1.00  0.00     0.040 A 
ATOM     80  F   UNL A   1      48.978  26.150  31.110  1.00  0.00    -0.206 F 
ATOM     81  C   UNL A   1      51.694  26.225  28.712  1.00  0.00     0.006 A 
ENDBRANCH  53  74
BRANCH  65  82
ATOM     82  C   UNL A   1      45.316  32.472  30.716  1.00  0.00     0.057 A 
ATOM     83  C   UNL A   1      45.550  33.565  29.874  1.00  0.00     0.134 A 
ATOM     84  C   UNL A   1      45.440  32.677  32.096  1.00  0.00     0.134 A 
ATOM     85  F   UNL A   1      45.460  33.428  28.542  1.00  0.00    -0.206 F 
ATOM     86  C   UNL A   1      45.910  34.813  30.383  1.00  0.00     0.040 A 
ATOM     87  C   UNL A   1      45.777  33.926  32.620  1.00  0.00     0.040 A 
ATOM     88  F   UNL A   1      45.223  31.672  32.958  1.00  0.00    -0.206 F 
ATOM     89  C   UNL A   1      46.017  34.997  31.762  1.00  0.00     0.006 A 
ENDBRANCH  65  82
ENDBRANCH  39  40
ENDBRANCH  31  34
ENDBRANCH  29  30
ENDBRANCH  28  29
ENDBRANCH  27  28
ENDBRANCH  26  27
ENDBRANCH   3  26
TORSDOF 18
ENDMDL
MODEL 3
REMARK VINA RESULT:     -10.7      4.335      8.811
REMARK SMILES [NH3+][C@]1(C(=O)NCCCCNC(=O)c2ccc(-c3c4nc(c(-c5c(F)cccc5F)c5ccc([nH]5)c(-c5c(F)cccc5F)c5nc(c(-c6c(F)cccc6F)c6ccc3[nH]6)C=C5)C=C4)cc2)CCC[C@@H]1CCOc1ccc(CO)cc1
REMARK SMILES IDX 3 1 4 2 5 3 2 5 67 6 70 7 68 8 69 9 1 10 71 14 72 15 73 16
REMARK SMILES IDX 74 17 75 18 81 19 76 20 80 21 77 22 78 23 79 24 6 26 7 27
REMARK SMILES IDX 8 28 9 29 10 30 11 31 12 33 13 34 14 35 66 36 15 37 65 38
REMARK SMILES IDX 16 39 17 40 18 41 59 42 19 43 64 44 58 45 60 46 20 47 63 48
REMARK SMILES IDX 57 49 56 50 21 52 47 53 30 54 46 55 31 56 34 57 45 58 61 59
REMARK SMILES IDX 32 60 33 61 44 63 62 64 35 65 22 66 23 67 28 68 24 69 25 70
REMARK SMILES IDX 27 71 29 72 26 73 48 74 49 75 54 76 50 77 51 78 53 79 55 80
REMARK SMILES IDX 52 81 36 82 37 83 42 84 38 85 39 86 41 87 43 88 40 89
REMARK H PARENT 5 4 1 11 1 12 1 13 79 25 10 32 60 51 34 62
REMARK Flexibility Score: inf
ROOT
ATOM      1  C   UNL A   1      33.215  28.641  23.787  1.00  0.00     0.281 C 
ATOM      2  O   UNL A   1      33.876  28.773  22.750  1.00  0.00    -0.268 OA
ATOM      3  N   UNL A   1      33.211  29.725  24.628  1.00  0.00    -0.351 N 
ATOM      4  H   UNL A   1      33.687  30.510  24.273  1.00  0.00     0.163 HD
ENDROOT
BRANCH   1   5
ATOM      5  C   UNL A   1      32.441  27.310  24.070  1.00  0.00     0.176 C 
ATOM      6  C   UNL A   1      31.056  27.642  24.688  1.00  0.00     0.079 C 
ATOM      7  C   UNL A   1      32.008  26.537  22.782  1.00  0.00     0.064 C 
ATOM      8  C   UNL A   1      30.261  26.352  24.514  1.00  0.00     0.008 C 
ATOM      9  C   UNL A   1      30.643  25.877  23.120  1.00  0.00     0.011 C 
BRANCH   5  10
ATOM     10  N   UNL A   1      33.039  26.499  25.109  1.00  0.00    -0.345 N 
ATOM     11  H   UNL A   1      33.781  27.027  25.568  1.00  0.00     0.345 HD
ATOM     12  H   UNL A   1      33.430  25.652  24.696  1.00  0.00     0.345 HD
ATOM     13  H   UNL A   1      32.327  26.246  25.794  1.00  0.00     0.345 HD
ENDBRANCH   5  10
BRANCH   7  14
ATOM     14  C   UNL A   1      32.894  25.586  21.919  1.00  0.00     0.052 C 
BRANCH  14  15
ATOM     15  C   UNL A   1      33.015  24.074  22.149  1.00  0.00     0.230 C 
BRANCH  15  16
ATOM     16  O   UNL A   1      33.492  23.729  23.466  1.00  0.00    -0.494 OA
BRANCH  16  17
ATOM     17  C   UNL A   1      33.582  22.380  23.665  1.00  0.00     0.119 A 
ATOM     18  C   UNL A   1      34.563  21.811  24.480  1.00  0.00     0.047 A 
ATOM     19  C   UNL A   1      32.576  21.593  23.115  1.00  0.00     0.047 A 
ATOM     20  C   UNL A   1      34.393  20.500  24.937  1.00  0.00     0.010 A 
ATOM     21  C   UNL A   1      32.403  20.286  23.573  1.00  0.00     0.010 A 
ATOM     22  C   UNL A   1      33.256  19.765  24.561  1.00  0.00    -0.022 A 
BRANCH  22  23
ATOM     23  C   UNL A   1      32.837  18.549  25.354  1.00  0.00     0.191 C 
BRANCH  23  24
ATOM     24  O   UNL A   1      32.851  18.768  26.750  1.00  0.00    -0.392 OA
ATOM     25  H   UNL A   1      32.949  19.716  26.929  1.00  0.00     0.211 HD
ENDBRANCH  23  24
ENDBRANCH  22  23
ENDBRANCH  16  17
ENDBRANCH  15  16
ENDBRANCH  14  15
ENDBRANCH   7  14
ENDBRANCH   1   5
BRANCH   3  26
ATOM     26  C   UNL A   1      32.635  29.930  25.944  1.00  0.00     0.116 C 
BRANCH  26  27
ATOM     27  C   UNL A   1      31.386  30.806  25.958  1.00  0.00     0.023 C 
BRANCH  27  28
ATOM     28  C   UNL A   1      31.398  31.968  26.946  1.00  0.00     0.023 C 
BRANCH  28  29
ATOM     29  C   UNL A   1      32.422  33.071  26.686  1.00  0.00     0.116 C 
BRANCH  29  30
ATOM     30  N   UNL A   1      32.373  34.186  27.626  1.00  0.00    -0.352 N 
ATOM     31  C   UNL A   1      33.273  34.504  28.621  1.00  0.00     0.251 C 
ATOM     32  H   UNL A   1      31.599  34.788  27.537  1.00  0.00     0.163 HD
ATOM     33  O   UNL A   1      33.078  35.466  29.357  1.00  0.00    -0.269 OA
BRANCH  31  34
ATOM     34  C   UNL A   1      34.443  33.625  28.834  1.00  0.00     0.039 A 
ATOM     35  C   UNL A   1      35.723  34.178  28.762  1.00  0.00     0.014 A 
ATOM     36  C   UNL A   1      34.263  32.298  29.228  1.00  0.00     0.014 A 
ATOM     37  C   UNL A   1      36.818  33.432  29.204  1.00  0.00     0.010 A 
ATOM     38  C   UNL A   1      35.343  31.589  29.745  1.00  0.00     0.010 A 
ATOM     39  C   UNL A   1      36.627  32.156  29.759  1.00  0.00    -0.014 A 
BRANCH  39  40
ATOM     40  C   UNL A   1      37.747  31.411  30.391  1.00  0.00     0.031 A 
ATOM     41  C   UNL A   1      38.125  31.686  31.818  1.00  0.00     0.074 A 
ATOM     42  C   UNL A   1      38.483  30.555  29.654  1.00  0.00     0.049 A 
ATOM     43  N   UNL A   1      39.126  31.212  32.516  1.00  0.00    -0.248 NA
ATOM     44  C   UNL A   1      37.285  32.648  32.551  1.00  0.00     0.031 C 
ATOM     45  C   UNL A   1      38.263  30.245  28.239  1.00  0.00     0.029 A 
ATOM     46  N   UNL A   1      39.576  29.794  29.991  1.00  0.00    -0.354 N 
ATOM     47  C   UNL A   1      39.050  31.833  33.755  1.00  0.00     0.074 A 
ATOM     48  C   UNL A   1      37.938  32.758  33.697  1.00  0.00     0.031 C 
ATOM     49  C   UNL A   1      39.173  29.342  27.838  1.00  0.00     0.029 A 
ATOM     50  C   UNL A   1      40.061  29.033  28.954  1.00  0.00     0.049 A 
ATOM     51  H   UNL A   1      39.974  29.793  30.891  1.00  0.00     0.167 HD
ATOM     52  C   UNL A   1      39.817  31.633  34.852  1.00  0.00     0.037 A 
ATOM     53  C   UNL A   1      41.106  28.184  28.908  1.00  0.00     0.037 A 
ATOM     54  C   UNL A   1      40.898  30.686  34.923  1.00  0.00     0.049 A 
ATOM     55  C   UNL A   1      41.930  27.963  30.146  1.00  0.00     0.074 A 
ATOM     56  C   UNL A   1      41.690  30.362  36.011  1.00  0.00     0.029 A 
ATOM     57  N   UNL A   1      41.334  29.908  33.863  1.00  0.00    -0.354 N 
ATOM     58  N   UNL A   1      41.802  28.507  31.332  1.00  0.00    -0.248 NA
ATOM     59  C   UNL A   1      43.042  27.006  30.041  1.00  0.00     0.031 C 
ATOM     60  C   UNL A   1      42.627  29.409  35.599  1.00  0.00     0.029 A 
ATOM     61  C   UNL A   1      42.394  29.113  34.266  1.00  0.00     0.049 A 
ATOM     62  H   UNL A   1      40.948  29.919  32.957  1.00  0.00     0.167 HD
ATOM     63  C   UNL A   1      42.795  27.939  32.119  1.00  0.00     0.074 A 
ATOM     64  C   UNL A   1      43.511  27.000  31.280  1.00  0.00     0.031 C 
ATOM     65  C   UNL A   1      43.087  28.174  33.421  1.00  0.00     0.037 A 
BRANCH  52  66
ATOM     66  C   UNL A   1      39.501  32.450  36.070  1.00  0.00     0.057 A 
ATOM     67  C   UNL A   1      38.563  32.022  37.020  1.00  0.00     0.134 A 
ATOM     68  C   UNL A   1      40.150  33.668  36.305  1.00  0.00     0.134 A 
ATOM     69  F   UNL A   1      37.896  30.871  36.844  1.00  0.00    -0.206 F 
ATOM     70  C   UNL A   1      38.262  32.790  38.145  1.00  0.00     0.040 A 
ATOM     71  C   UNL A   1      39.877  34.432  37.442  1.00  0.00     0.040 A 
ATOM     72  F   UNL A   1      41.062  34.134  35.439  1.00  0.00    -0.206 F 
ATOM     73  C   UNL A   1      38.924  33.996  38.361  1.00  0.00     0.006 A 
ENDBRANCH  52  66
BRANCH  53  74
ATOM     74  C   UNL A   1      41.416  27.449  27.656  1.00  0.00     0.057 A 
ATOM     75  C   UNL A   1      40.909  26.163  27.434  1.00  0.00     0.134 A 
ATOM     76  C   UNL A   1      42.231  28.001  26.661  1.00  0.00     0.134 A 
ATOM     77  F   UNL A   1      40.138  25.573  28.360  1.00  0.00    -0.206 F 
ATOM     78  C   UNL A   1      41.218  25.443  26.279  1.00  0.00     0.040 A 
ATOM     79  C   UNL A   1      42.530  27.302  25.490  1.00  0.00     0.040 A 
ATOM     80  F   UNL A   1      42.741  29.232  26.810  1.00  0.00    -0.206 F 
ATOM     81  C   UNL A   1      42.028  26.016  25.300  1.00  0.00     0.006 A 
ENDBRANCH  53  74
BRANCH  65  82
ATOM     82  C   UNL A   1      44.205  27.381  34.028  1.00  0.00     0.057 A 
ATOM     83  C   UNL A   1      45.523  27.854  34.044  1.00  0.00     0.134 A 
ATOM     84  C   UNL A   1      43.950  26.149  34.643  1.00  0.00     0.134 A 
ATOM     85  F   UNL A   1      45.832  29.022  33.461  1.00  0.00    -0.206 F 
ATOM     86  C   UNL A   1      46.552  27.120  34.634  1.00  0.00     0.040 A 
ATOM     87  C   UNL A   1      44.967  25.416  35.256  1.00  0.00     0.040 A 
ATOM     88  F   UNL A   1      42.708  25.643  34.668  1.00  0.00    -0.206 F 
ATOM     89  C   UNL A   1      46.273  25.900  35.250  1.00  0.00     0.006 A 
ENDBRANCH  65  82
ENDBRANCH  39  40
ENDBRANCH  31  34
ENDBRANCH  29  30
ENDBRANCH  28  29
ENDBRANCH  27  28
ENDBRANCH  26  27
ENDBRANCH   3  26
TORSDOF 18
ENDMDL
