MODEL 1
REMARK VINA RESULT:     -12.7      0.000      0.000
REMARK SMILES O=C(NCCCCNC(=O)c1cn(Cc2ccc(N3CCCC3=O)cc2)c2cc(F)c(F)cc2c1=O)c1ccc(-c2c3nc(c(-c4c(F)cccc4F)c4ccc([nH]4)c(-c4c(F)cccc4F)c4nc(c(-c5c(F)cccc5F)c5ccc2[nH]5)C=C4)C=C3)cc1
REMARK SMILES IDX 6 1 5 2 4 3 3 4 1 5 2 6 37 8 38 9 90 10 39 11 89 12 40 13
REMARK SMILES IDX 41 14 42 15 83 16 43 17 88 18 82 19 84 20 44 21 87 22 81 23
REMARK SMILES IDX 80 24 45 26 71 27 54 28 70 29 55 30 58 31 69 32 85 33 56 34
REMARK SMILES IDX 57 35 68 37 86 38 59 39 46 40 47 41 52 42 48 43 49 44 51 45
REMARK SMILES IDX 53 46 50 47 72 48 73 49 78 50 74 51 75 52 77 53 79 54 76 55
REMARK SMILES IDX 60 56 61 57 66 58 62 59 63 60 65 61 67 62 64 63 7 64 8 65
REMARK SMILES IDX 9 66 10 68 11 69 12 70 35 71 13 72 34 73 36 74 27 75 33 76
REMARK SMILES IDX 28 77 31 78 29 79 32 80 30 81 14 82 15 83 16 84 26 85 17 86
REMARK SMILES IDX 25 87 18 88 19 89 20 90 23 91 21 92 22 93 24 94
REMARK H PARENT 3 7 84 25 58 36 8 67
REMARK Flexibility Score: inf
ROOT
ATOM      1  C   UNL A   1      31.912  27.763  27.031  1.00  0.00     0.023 C 
ENDROOT
BRANCH   1   2
ATOM      2  C   UNL A   1      33.387  27.495  26.730  1.00  0.00     0.023 C 
BRANCH   2   3
ATOM      3  C   UNL A   1      34.183  28.691  26.220  1.00  0.00     0.116 C 
BRANCH   3   4
ATOM      4  N   UNL A   1      33.860  29.921  26.924  1.00  0.00    -0.352 N 
ATOM      5  O   UNL A   1      34.053  31.533  28.482  1.00  0.00    -0.269 OA
ATOM      6  C   UNL A   1      34.568  30.587  27.893  1.00  0.00     0.251 C 
ATOM      7  H   UNL A   1      33.006  30.339  26.668  1.00  0.00     0.163 HD
BRANCH   6   8
ATOM      8  C   UNL A   1      35.944  30.169  28.240  1.00  0.00     0.039 A 
ATOM      9  C   UNL A   1      36.956  30.327  27.288  1.00  0.00     0.014 A 
ATOM     10  C   UNL A   1      36.230  29.576  29.473  1.00  0.00     0.014 A 
ATOM     11  C   UNL A   1      38.259  29.917  27.581  1.00  0.00     0.010 A 
ATOM     12  C   UNL A   1      37.542  29.233  29.791  1.00  0.00     0.010 A 
ATOM     13  C   UNL A   1      38.565  29.378  28.839  1.00  0.00    -0.014 A 
BRANCH  13  14
ATOM     14  C   UNL A   1      39.930  28.893  29.162  1.00  0.00     0.031 A 
ATOM     15  C   UNL A   1      40.900  29.811  29.852  1.00  0.00     0.074 A 
ATOM     16  C   UNL A   1      40.320  27.661  28.788  1.00  0.00     0.049 A 
ATOM     17  N   UNL A   1      42.167  29.632  30.124  1.00  0.00    -0.248 NA
ATOM     18  C   UNL A   1      40.375  31.122  30.269  1.00  0.00     0.031 C 
ATOM     19  C   UNL A   1      39.481  26.682  28.096  1.00  0.00     0.029 A 
ATOM     20  N   UNL A   1      41.531  27.032  28.921  1.00  0.00    -0.354 N 
ATOM     21  C   UNL A   1      42.595  30.810  30.722  1.00  0.00     0.074 A 
ATOM     22  C   UNL A   1      41.467  31.717  30.723  1.00  0.00     0.031 C 
ATOM     23  C   UNL A   1      40.204  25.575  27.865  1.00  0.00     0.029 A 
ATOM     24  C   UNL A   1      41.565  25.783  28.351  1.00  0.00     0.049 A 
ATOM     25  H   UNL A   1      42.302  27.436  29.380  1.00  0.00     0.167 HD
ATOM     26  C   UNL A   1      43.810  31.105  31.244  1.00  0.00     0.037 A 
ATOM     27  C   UNL A   1      42.587  24.917  28.210  1.00  0.00     0.037 A 
ATOM     28  C   UNL A   1      44.928  30.197  31.247  1.00  0.00     0.049 A 
ATOM     29  C   UNL A   1      43.943  25.283  28.744  1.00  0.00     0.074 A 
ATOM     30  C   UNL A   1      46.182  30.370  31.804  1.00  0.00     0.029 A 
ATOM     31  N   UNL A   1      44.928  28.947  30.644  1.00  0.00    -0.354 N 
ATOM     32  N   UNL A   1      44.321  26.373  29.368  1.00  0.00    -0.248 NA
ATOM     33  C   UNL A   1      45.017  24.300  28.548  1.00  0.00     0.031 C 
ATOM     34  C   UNL A   1      46.961  29.251  31.485  1.00  0.00     0.029 A 
ATOM     35  C   UNL A   1      46.175  28.357  30.775  1.00  0.00     0.049 A 
ATOM     36  H   UNL A   1      44.156  28.539  30.191  1.00  0.00     0.167 HD
ATOM     37  C   UNL A   1      45.672  26.208  29.642  1.00  0.00     0.074 A 
ATOM     38  C   UNL A   1      46.040  24.897  29.143  1.00  0.00     0.031 C 
ATOM     39  C   UNL A   1      46.534  27.064  30.245  1.00  0.00     0.037 A 
BRANCH  26  40
ATOM     40  C   UNL A   1      43.987  32.480  31.825  1.00  0.00     0.057 A 
ATOM     41  C   UNL A   1      43.708  32.725  33.176  1.00  0.00     0.134 A 
ATOM     42  C   UNL A   1      44.458  33.557  31.060  1.00  0.00     0.134 A 
ATOM     43  F   UNL A   1      43.246  31.744  33.966  1.00  0.00    -0.206 F 
ATOM     44  C   UNL A   1      43.911  33.982  33.748  1.00  0.00     0.040 A 
ATOM     45  C   UNL A   1      44.697  34.810  31.629  1.00  0.00     0.040 A 
ATOM     46  F   UNL A   1      44.755  33.392  29.762  1.00  0.00    -0.206 F 
ATOM     47  C   UNL A   1      44.420  35.025  32.977  1.00  0.00     0.006 A 
ENDBRANCH  26  40
BRANCH  27  48
ATOM     48  C   UNL A   1      42.363  23.628  27.509  1.00  0.00     0.057 A 
ATOM     49  C   UNL A   1      42.487  23.525  26.117  1.00  0.00     0.134 A 
ATOM     50  C   UNL A   1      42.009  22.472  28.212  1.00  0.00     0.134 A 
ATOM     51  F   UNL A   1      42.821  24.598  25.386  1.00  0.00    -0.206 F 
ATOM     52  C   UNL A   1      42.248  22.324  25.449  1.00  0.00     0.040 A 
ATOM     53  C   UNL A   1      41.791  21.257  27.559  1.00  0.00     0.040 A 
ATOM     54  F   UNL A   1      41.897  22.502  29.549  1.00  0.00    -0.206 F 
ATOM     55  C   UNL A   1      41.903  21.184  26.172  1.00  0.00     0.006 A 
ENDBRANCH  27  48
BRANCH  39  56
ATOM     56  C   UNL A   1      47.960  26.614  30.381  1.00  0.00     0.057 A 
ATOM     57  C   UNL A   1      48.910  26.915  29.397  1.00  0.00     0.134 A 
ATOM     58  C   UNL A   1      48.389  25.860  31.482  1.00  0.00     0.134 A 
ATOM     59  F   UNL A   1      48.565  27.628  28.313  1.00  0.00    -0.206 F 
ATOM     60  C   UNL A   1      50.232  26.481  29.500  1.00  0.00     0.040 A 
ATOM     61  C   UNL A   1      49.715  25.443  31.610  1.00  0.00     0.040 A 
ATOM     62  F   UNL A   1      47.534  25.550  32.468  1.00  0.00    -0.206 F 
ATOM     63  C   UNL A   1      50.640  25.749  30.613  1.00  0.00     0.006 A 
ENDBRANCH  39  56
ENDBRANCH  13  14
ENDBRANCH   6   8
ENDBRANCH   3   4
ENDBRANCH   2   3
ENDBRANCH   1   2
BRANCH   1  64
ATOM     64  C   UNL A   1      30.913  27.027  26.146  1.00  0.00     0.116 C 
BRANCH  64  65
ATOM     65  N   UNL A   1      30.425  25.788  26.729  1.00  0.00    -0.352 N 
ATOM     66  C   UNL A   1      30.912  24.512  26.637  1.00  0.00     0.256 C 
ATOM     67  H   UNL A   1      29.612  25.882  27.276  1.00  0.00     0.163 HD
ATOM     68  O   UNL A   1      30.337  23.610  27.242  1.00  0.00    -0.269 OA
BRANCH  66  69
ATOM     69  C   UNL A   1      32.113  24.250  25.817  1.00  0.00     0.104 A 
ATOM     70  C   UNL A   1      32.317  24.902  24.660  1.00  0.00     0.104 A 
ATOM     71  C   UNL A   1      33.161  23.306  26.257  1.00  0.00     0.202 A 
ATOM     72  N   UNL A   1      33.339  24.666  23.746  1.00  0.00    -0.342 N 
ATOM     73  C   UNL A   1      34.338  23.135  25.372  1.00  0.00     0.050 A 
ATOM     74  O   UNL A   1      33.057  22.624  27.270  1.00  0.00    -0.288 OA
ATOM     75  C   UNL A   1      34.320  23.703  24.078  1.00  0.00     0.055 A 
ATOM     76  C   UNL A   1      35.415  22.360  25.828  1.00  0.00     0.056 A 
ATOM     77  C   UNL A   1      35.315  23.267  23.197  1.00  0.00     0.069 A 
ATOM     78  C   UNL A   1      36.466  22.095  24.967  1.00  0.00     0.159 A 
ATOM     79  C   UNL A   1      36.398  22.514  23.649  1.00  0.00     0.160 A 
ATOM     80  F   UNL A   1      37.530  21.409  25.404  1.00  0.00    -0.204 F 
ATOM     81  F   UNL A   1      37.383  22.218  22.792  1.00  0.00    -0.204 F 
BRANCH  72  82
ATOM     82  C   UNL A   1      33.468  25.486  22.512  1.00  0.00     0.157 C 
BRANCH  82  83
ATOM     83  C   UNL A   1      32.537  26.686  22.495  1.00  0.00    -0.028 A 
ATOM     84  C   UNL A   1      33.016  27.979  22.733  1.00  0.00     0.008 A 
ATOM     85  C   UNL A   1      31.166  26.544  22.251  1.00  0.00     0.008 A 
ATOM     86  C   UNL A   1      32.157  29.076  22.818  1.00  0.00     0.027 A 
ATOM     87  C   UNL A   1      30.304  27.651  22.326  1.00  0.00     0.027 A 
ATOM     88  C   UNL A   1      30.782  28.928  22.647  1.00  0.00     0.044 A 
BRANCH  88  89
ATOM     89  N   UNL A   1      29.918  30.037  22.828  1.00  0.00    -0.312 N 
ATOM     90  C   UNL A   1      29.929  30.868  24.009  1.00  0.00     0.126 C 
ATOM     91  C   UNL A   1      28.972  30.492  21.902  1.00  0.00     0.227 C 
ATOM     92  C   UNL A   1      28.581  31.553  23.996  1.00  0.00     0.032 C 
ATOM     93  C   UNL A   1      28.249  31.666  22.521  1.00  0.00     0.102 C 
ATOM     94  O   UNL A   1      28.721  30.066  20.783  1.00  0.00    -0.275 OA
ENDBRANCH  88  89
ENDBRANCH  82  83
ENDBRANCH  72  82
ENDBRANCH  66  69
ENDBRANCH  64  65
ENDBRANCH   1  64
TORSDOF 14
ENDMDL
MODEL 2
REMARK VINA RESULT:     -12.5      2.331      3.084
REMARK SMILES O=C(NCCCCNC(=O)c1cn(Cc2ccc(N3CCCC3=O)cc2)c2cc(F)c(F)cc2c1=O)c1ccc(-c2c3nc(c(-c4c(F)cccc4F)c4ccc([nH]4)c(-c4c(F)cccc4F)c4nc(c(-c5c(F)cccc5F)c5ccc2[nH]5)C=C4)C=C3)cc1
REMARK SMILES IDX 6 1 5 2 4 3 3 4 1 5 2 6 37 8 38 9 90 10 39 11 89 12 40 13
REMARK SMILES IDX 41 14 42 15 83 16 43 17 88 18 82 19 84 20 44 21 87 22 81 23
REMARK SMILES IDX 80 24 45 26 71 27 54 28 70 29 55 30 58 31 69 32 85 33 56 34
REMARK SMILES IDX 57 35 68 37 86 38 59 39 46 40 47 41 52 42 48 43 49 44 51 45
REMARK SMILES IDX 53 46 50 47 72 48 73 49 78 50 74 51 75 52 77 53 79 54 76 55
REMARK SMILES IDX 60 56 61 57 66 58 62 59 63 60 65 61 67 62 64 63 7 64 8 65
REMARK SMILES IDX 9 66 10 68 11 69 12 70 35 71 13 72 34 73 36 74 27 75 33 76
REMARK SMILES IDX 28 77 31 78 29 79 32 80 30 81 14 82 15 83 16 84 26 85 17 86
REMARK SMILES IDX 25 87 18 88 19 89 20 90 23 91 21 92 22 93 24 94
REMARK H PARENT 3 7 84 25 58 36 8 67
REMARK Flexibility Score: inf
ROOT
ATOM      1  C   UNL A   1      32.887  26.435  26.187  1.00  0.00     0.023 C 
ENDROOT
BRANCH   1   2
ATOM      2  C   UNL A   1      33.139  27.775  26.878  1.00  0.00     0.023 C 
BRANCH   2   3
ATOM      3  C   UNL A   1      33.987  28.771  26.095  1.00  0.00     0.116 C 
BRANCH   3   4
ATOM      4  N   UNL A   1      33.784  30.143  26.529  1.00  0.00    -0.352 N 
ATOM      5  O   UNL A   1      34.052  31.977  27.805  1.00  0.00    -0.269 OA
ATOM      6  C   UNL A   1      34.475  30.877  27.461  1.00  0.00     0.251 C 
ATOM      7  H   UNL A   1      33.041  30.617  26.091  1.00  0.00     0.163 HD
BRANCH   6   8
ATOM      8  C   UNL A   1      35.719  30.350  28.062  1.00  0.00     0.039 A 
ATOM      9  C   UNL A   1      36.916  30.473  27.348  1.00  0.00     0.014 A 
ATOM     10  C   UNL A   1      35.705  29.692  29.295  1.00  0.00     0.014 A 
ATOM     11  C   UNL A   1      38.101  29.962  27.881  1.00  0.00     0.010 A 
ATOM     12  C   UNL A   1      36.899  29.245  29.857  1.00  0.00     0.010 A 
ATOM     13  C   UNL A   1      38.104  29.354  29.145  1.00  0.00    -0.014 A 
BRANCH  13  14
ATOM     14  C   UNL A   1      39.340  28.763  29.716  1.00  0.00     0.031 A 
ATOM     15  C   UNL A   1      39.969  29.387  30.931  1.00  0.00     0.074 A 
ATOM     16  C   UNL A   1      39.929  27.711  29.119  1.00  0.00     0.049 A 
ATOM     17  N   UNL A   1      41.102  29.102  31.521  1.00  0.00    -0.248 NA
ATOM     18  C   UNL A   1      39.232  30.501  31.549  1.00  0.00     0.031 C 
ATOM     19  C   UNL A   1      39.430  27.027  27.926  1.00  0.00     0.029 A 
ATOM     20  N   UNL A   1      41.090  27.047  29.426  1.00  0.00    -0.354 N 
ATOM     21  C   UNL A   1      41.223  30.013  32.563  1.00  0.00     0.074 A 
ATOM     22  C   UNL A   1      40.077  30.893  32.489  1.00  0.00     0.031 C 
ATOM     23  C   UNL A   1      40.280  26.040  27.601  1.00  0.00     0.029 A 
ATOM     24  C   UNL A   1      41.402  26.051  28.535  1.00  0.00     0.049 A 
ATOM     25  H   UNL A   1      41.644  27.265  30.210  1.00  0.00     0.167 HD
ATOM     26  C   UNL A   1      42.189  30.097  33.509  1.00  0.00     0.037 A 
ATOM     27  C   UNL A   1      42.487  25.256  28.462  1.00  0.00     0.037 A 
ATOM     28  C   UNL A   1      43.324  29.214  33.582  1.00  0.00     0.049 A 
ATOM     29  C   UNL A   1      43.578  25.401  29.487  1.00  0.00     0.074 A 
ATOM     30  C   UNL A   1      44.327  29.171  34.535  1.00  0.00     0.029 A 
ATOM     31  N   UNL A   1      43.616  28.228  32.651  1.00  0.00    -0.354 N 
ATOM     32  N   UNL A   1      43.651  26.220  30.508  1.00  0.00    -0.248 NA
ATOM     33  C   UNL A   1      44.739  24.512  29.345  1.00  0.00     0.031 C 
ATOM     34  C   UNL A   1      45.258  28.200  34.146  1.00  0.00     0.029 A 
ATOM     35  C   UNL A   1      44.808  27.602  32.980  1.00  0.00     0.049 A 
ATOM     36  H   UNL A   1      43.058  28.005  31.871  1.00  0.00     0.167 HD
ATOM     37  C   UNL A   1      44.862  25.947  31.131  1.00  0.00     0.074 A 
ATOM     38  C   UNL A   1      45.475  24.862  30.390  1.00  0.00     0.031 C 
ATOM     39  C   UNL A   1      45.420  26.544  32.214  1.00  0.00     0.037 A 
BRANCH  26  40
ATOM     40  C   UNL A   1      42.061  31.205  34.517  1.00  0.00     0.057 A 
ATOM     41  C   UNL A   1      41.319  31.020  35.691  1.00  0.00     0.134 A 
ATOM     42  C   UNL A   1      42.692  32.446  34.344  1.00  0.00     0.134 A 
ATOM     43  F   UNL A   1      40.681  29.862  35.918  1.00  0.00    -0.206 F 
ATOM     44  C   UNL A   1      41.227  32.018  36.662  1.00  0.00     0.040 A 
ATOM     45  C   UNL A   1      42.635  33.439  35.325  1.00  0.00     0.040 A 
ATOM     46  F   UNL A   1      43.429  32.688  33.249  1.00  0.00    -0.206 F 
ATOM     47  C   UNL A   1      41.898  33.226  36.487  1.00  0.00     0.006 A 
ENDBRANCH  26  40
BRANCH  27  48
ATOM     48  C   UNL A   1      42.601  24.269  27.359  1.00  0.00     0.057 A 
ATOM     49  C   UNL A   1      42.146  22.953  27.510  1.00  0.00     0.134 A 
ATOM     50  C   UNL A   1      43.178  24.616  26.133  1.00  0.00     0.134 A 
ATOM     51  F   UNL A   1      41.586  22.558  28.662  1.00  0.00    -0.206 F 
ATOM     52  C   UNL A   1      42.278  22.012  26.488  1.00  0.00     0.040 A 
ATOM     53  C   UNL A   1      43.294  23.692  25.093  1.00  0.00     0.040 A 
ATOM     54  F   UNL A   1      43.611  25.867  25.920  1.00  0.00    -0.206 F 
ATOM     55  C   UNL A   1      42.850  22.383  25.273  1.00  0.00     0.006 A 
ENDBRANCH  27  48
BRANCH  39  56
ATOM     56  C   UNL A   1      46.768  26.044  32.648  1.00  0.00     0.057 A 
ATOM     57  C   UNL A   1      46.886  24.992  33.566  1.00  0.00     0.134 A 
ATOM     58  C   UNL A   1      47.953  26.620  32.170  1.00  0.00     0.134 A 
ATOM     59  F   UNL A   1      45.792  24.400  34.068  1.00  0.00    -0.206 F 
ATOM     60  C   UNL A   1      48.133  24.535  33.996  1.00  0.00     0.040 A 
ATOM     61  C   UNL A   1      49.206  26.153  32.572  1.00  0.00     0.040 A 
ATOM     62  F   UNL A   1      47.911  27.620  31.277  1.00  0.00    -0.206 F 
ATOM     63  C   UNL A   1      49.298  25.110  33.492  1.00  0.00     0.006 A 
ENDBRANCH  39  56
ENDBRANCH  13  14
ENDBRANCH   6   8
ENDBRANCH   3   4
ENDBRANCH   2   3
ENDBRANCH   1   2
BRANCH   1  64
ATOM     64  C   UNL A   1      33.880  26.059  25.092  1.00  0.00     0.116 C 
BRANCH  64  65
ATOM     65  N   UNL A   1      35.141  25.550  25.604  1.00  0.00    -0.352 N 
ATOM     66  C   UNL A   1      35.657  24.282  25.591  1.00  0.00     0.256 C 
ATOM     67  H   UNL A   1      35.716  26.226  26.031  1.00  0.00     0.163 HD
ATOM     68  O   UNL A   1      36.771  24.087  26.073  1.00  0.00    -0.269 OA
BRANCH  66  69
ATOM     69  C   UNL A   1      34.866  23.182  25.001  1.00  0.00     0.104 A 
ATOM     70  C   UNL A   1      33.876  23.431  24.129  1.00  0.00     0.104 A 
ATOM     71  C   UNL A   1      35.163  21.765  25.303  1.00  0.00     0.202 A 
ATOM     72  N   UNL A   1      32.989  22.502  23.595  1.00  0.00    -0.342 N 
ATOM     73  C   UNL A   1      34.327  20.739  24.638  1.00  0.00     0.050 A 
ATOM     74  O   UNL A   1      36.013  21.425  26.118  1.00  0.00    -0.288 OA
ATOM     75  C   UNL A   1      33.174  21.139  23.926  1.00  0.00     0.055 A 
ATOM     76  C   UNL A   1      34.675  19.387  24.788  1.00  0.00     0.056 A 
ATOM     77  C   UNL A   1      32.278  20.123  23.577  1.00  0.00     0.069 A 
ATOM     78  C   UNL A   1      33.836  18.415  24.272  1.00  0.00     0.159 A 
ATOM     79  C   UNL A   1      32.626  18.780  23.705  1.00  0.00     0.160 A 
ATOM     80  F   UNL A   1      34.183  17.124  24.353  1.00  0.00    -0.204 F 
ATOM     81  F   UNL A   1      31.781  17.845  23.252  1.00  0.00    -0.204 F 
BRANCH  72  82
ATOM     82  C   UNL A   1      31.953  22.909  22.609  1.00  0.00     0.157 C 
BRANCH  82  83
ATOM     83  C   UNL A   1      31.450  24.326  22.826  1.00  0.00    -0.028 A 
ATOM     84  C   UNL A   1      30.489  24.612  23.802  1.00  0.00     0.008 A 
ATOM     85  C   UNL A   1      31.917  25.395  22.053  1.00  0.00     0.008 A 
ATOM     86  C   UNL A   1      29.946  25.890  23.947  1.00  0.00     0.027 A 
ATOM     87  C   UNL A   1      31.377  26.683  22.207  1.00  0.00     0.027 A 
ATOM     88  C   UNL A   1      30.357  26.942  23.131  1.00  0.00     0.044 A 
BRANCH  88  89
ATOM     89  N   UNL A   1      29.728  28.208  23.230  1.00  0.00    -0.312 N 
ATOM     90  C   UNL A   1      28.370  28.456  22.808  1.00  0.00     0.126 C 
ATOM     91  C   UNL A   1      30.308  29.366  23.762  1.00  0.00     0.227 C 
ATOM     92  C   UNL A   1      28.304  29.955  22.623  1.00  0.00     0.032 C 
ATOM     93  C   UNL A   1      29.303  30.486  23.632  1.00  0.00     0.102 C 
ATOM     94  O   UNL A   1      31.417  29.516  24.256  1.00  0.00    -0.275 OA
ENDBRANCH  88  89
ENDBRANCH  82  83
ENDBRANCH  72  82
ENDBRANCH  66  69
ENDBRANCH  64  65
ENDBRANCH   1  64
TORSDOF 14
ENDMDL
MODEL 3
REMARK VINA RESULT:     -12.4      2.650      6.314
REMARK SMILES O=C(NCCCCNC(=O)c1cn(Cc2ccc(N3CCCC3=O)cc2)c2cc(F)c(F)cc2c1=O)c1ccc(-c2c3nc(c(-c4c(F)cccc4F)c4ccc([nH]4)c(-c4c(F)cccc4F)c4nc(c(-c5c(F)cccc5F)c5ccc2[nH]5)C=C4)C=C3)cc1
REMARK SMILES IDX 6 1 5 2 4 3 3 4 1 5 2 6 37 8 38 9 90 10 39 11 89 12 40 13
REMARK SMILES IDX 41 14 42 15 83 16 43 17 88 18 82 19 84 20 44 21 87 22 81 23
REMARK SMILES IDX 80 24 45 26 71 27 54 28 70 29 55 30 58 31 69 32 85 33 56 34
REMARK SMILES IDX 57 35 68 37 86 38 59 39 46 40 47 41 52 42 48 43 49 44 51 45
REMARK SMILES IDX 53 46 50 47 72 48 73 49 78 50 74 51 75 52 77 53 79 54 76 55
REMARK SMILES IDX 60 56 61 57 66 58 62 59 63 60 65 61 67 62 64 63 7 64 8 65
REMARK SMILES IDX 9 66 10 68 11 69 12 70 35 71 13 72 34 73 36 74 27 75 33 76
REMARK SMILES IDX 28 77 31 78 29 79 32 80 30 81 14 82 15 83 16 84 26 85 17 86
REMARK SMILES IDX 25 87 18 88 19 89 20 90 23 91 21 92 22 93 24 94
REMARK H PARENT 3 7 84 25 58 36 8 67
REMARK Flexibility Score: inf
ROOT
ATOM      1  C   UNL A   1      31.623  27.685  26.842  1.00  0.00     0.023 C 
ENDROOT
BRANCH   1   2
ATOM      2  C   UNL A   1      33.123  27.563  26.572  1.00  0.00     0.023 C 
BRANCH   2   3
ATOM      3  C   UNL A   1      33.757  28.737  25.834  1.00  0.00     0.116 C 
BRANCH   3   4
ATOM      4  N   UNL A   1      33.102  30.001  26.125  1.00  0.00    -0.352 N 
ATOM      5  O   UNL A   1      32.651  31.893  27.257  1.00  0.00    -0.269 OA
ATOM      6  C   UNL A   1      33.422  30.959  27.055  1.00  0.00     0.251 C 
ATOM      7  H   UNL A   1      32.312  30.201  25.573  1.00  0.00     0.163 HD
BRANCH   6   8
ATOM      8  C   UNL A   1      34.682  30.870  27.823  1.00  0.00     0.039 A 
ATOM      9  C   UNL A   1      35.557  31.961  27.809  1.00  0.00     0.014 A 
ATOM     10  C   UNL A   1      35.030  29.704  28.511  1.00  0.00     0.014 A 
ATOM     11  C   UNL A   1      36.766  31.895  28.506  1.00  0.00     0.010 A 
ATOM     12  C   UNL A   1      36.202  29.665  29.263  1.00  0.00     0.010 A 
ATOM     13  C   UNL A   1      37.092  30.750  29.248  1.00  0.00    -0.014 A 
BRANCH  13  14
ATOM     14  C   UNL A   1      38.389  30.634  29.961  1.00  0.00     0.031 A 
ATOM     15  C   UNL A   1      39.513  29.856  29.335  1.00  0.00     0.074 A 
ATOM     16  C   UNL A   1      38.543  31.171  31.185  1.00  0.00     0.049 A 
ATOM     17  N   UNL A   1      40.681  29.536  29.830  1.00  0.00    -0.248 NA
ATOM     18  C   UNL A   1      39.276  29.346  27.974  1.00  0.00     0.031 C 
ATOM     19  C   UNL A   1      37.525  31.932  31.908  1.00  0.00     0.029 A 
ATOM     20  N   UNL A   1      39.611  31.137  32.044  1.00  0.00    -0.354 N 
ATOM     21  C   UNL A   1      41.308  28.772  28.853  1.00  0.00     0.074 A 
ATOM     22  C   UNL A   1      40.369  28.630  27.761  1.00  0.00     0.031 C 
ATOM     23  C   UNL A   1      38.018  32.294  33.103  1.00  0.00     0.029 A 
ATOM     24  C   UNL A   1      39.367  31.753  33.246  1.00  0.00     0.049 A 
ATOM     25  H   UNL A   1      40.470  30.712  31.820  1.00  0.00     0.167 HD
ATOM     26  C   UNL A   1      42.559  28.253  28.854  1.00  0.00     0.037 A 
ATOM     27  C   UNL A   1      40.132  31.844  34.351  1.00  0.00     0.037 A 
ATOM     28  C   UNL A   1      43.492  28.402  29.941  1.00  0.00     0.049 A 
ATOM     29  C   UNL A   1      41.497  31.213  34.356  1.00  0.00     0.074 A 
ATOM     30  C   UNL A   1      44.805  27.972  30.020  1.00  0.00     0.029 A 
ATOM     31  N   UNL A   1      43.201  29.018  31.150  1.00  0.00    -0.354 N 
ATOM     32  N   UNL A   1      42.106  30.551  33.403  1.00  0.00    -0.248 NA
ATOM     33  C   UNL A   1      42.277  31.339  35.595  1.00  0.00     0.031 C 
ATOM     34  C   UNL A   1      45.287  28.272  31.300  1.00  0.00     0.029 A 
ATOM     35  C   UNL A   1      44.294  28.938  31.999  1.00  0.00     0.049 A 
ATOM     36  H   UNL A   1      42.345  29.449  31.372  1.00  0.00     0.167 HD
ATOM     37  C   UNL A   1      43.340  30.182  33.923  1.00  0.00     0.074 A 
ATOM     38  C   UNL A   1      43.404  30.723  35.266  1.00  0.00     0.031 C 
ATOM     39  C   UNL A   1      44.329  29.455  33.345  1.00  0.00     0.037 A 
BRANCH  26  40
ATOM     40  C   UNL A   1      42.966  27.452  27.649  1.00  0.00     0.057 A 
ATOM     41  C   UNL A   1      43.569  28.076  26.549  1.00  0.00     0.134 A 
ATOM     42  C   UNL A   1      42.790  26.062  27.583  1.00  0.00     0.134 A 
ATOM     43  F   UNL A   1      43.761  29.404  26.538  1.00  0.00    -0.206 F 
ATOM     44  C   UNL A   1      43.999  27.346  25.439  1.00  0.00     0.040 A 
ATOM     45  C   UNL A   1      43.247  25.317  26.494  1.00  0.00     0.040 A 
ATOM     46  F   UNL A   1      42.230  25.398  28.606  1.00  0.00    -0.206 F 
ATOM     47  C   UNL A   1      43.851  25.961  25.416  1.00  0.00     0.006 A 
ENDBRANCH  26  40
BRANCH  27  48
ATOM     48  C   UNL A   1      39.608  32.543  35.551  1.00  0.00     0.057 A 
ATOM     49  C   UNL A   1      38.804  31.880  36.487  1.00  0.00     0.134 A 
ATOM     50  C   UNL A   1      39.888  33.894  35.783  1.00  0.00     0.134 A 
ATOM     51  F   UNL A   1      38.497  30.585  36.320  1.00  0.00    -0.206 F 
ATOM     52  C   UNL A   1      38.283  32.539  37.600  1.00  0.00     0.040 A 
ATOM     53  C   UNL A   1      39.393  34.560  36.906  1.00  0.00     0.040 A 
ATOM     54  F   UNL A   1      40.670  34.577  34.934  1.00  0.00    -0.206 F 
ATOM     55  C   UNL A   1      38.581  33.884  37.814  1.00  0.00     0.006 A 
ENDBRANCH  27  48
BRANCH  39  56
ATOM     56  C   UNL A   1      45.554  29.193  34.173  1.00  0.00     0.057 A 
ATOM     57  C   UNL A   1      45.654  28.047  34.973  1.00  0.00     0.134 A 
ATOM     58  C   UNL A   1      46.632  30.090  34.193  1.00  0.00     0.134 A 
ATOM     59  F   UNL A   1      44.656  27.150  35.006  1.00  0.00    -0.206 F 
ATOM     60  C   UNL A   1      46.777  27.805  35.765  1.00  0.00     0.040 A 
ATOM     61  C   UNL A   1      47.772  29.844  34.960  1.00  0.00     0.040 A 
ATOM     62  F   UNL A   1      46.607  31.198  33.438  1.00  0.00    -0.206 F 
ATOM     63  C   UNL A   1      47.844  28.701  35.754  1.00  0.00     0.006 A 
ENDBRANCH  39  56
ENDBRANCH  13  14
ENDBRANCH   6   8
ENDBRANCH   3   4
ENDBRANCH   2   3
ENDBRANCH   1   2
BRANCH   1  64
ATOM     64  C   UNL A   1      30.722  26.814  25.974  1.00  0.00     0.116 C 
BRANCH  64  65
ATOM     65  N   UNL A   1      30.276  25.600  26.636  1.00  0.00    -0.352 N 
ATOM     66  C   UNL A   1      30.821  24.345  26.648  1.00  0.00     0.256 C 
ATOM     67  H   UNL A   1      29.447  25.696  27.159  1.00  0.00     0.163 HD
ATOM     68  O   UNL A   1      30.273  23.463  27.306  1.00  0.00    -0.269 OA
BRANCH  66  69
ATOM     69  C   UNL A   1      32.051  24.079  25.872  1.00  0.00     0.104 A 
ATOM     70  C   UNL A   1      32.270  24.685  24.694  1.00  0.00     0.104 A 
ATOM     71  C   UNL A   1      33.110  23.182  26.381  1.00  0.00     0.202 A 
ATOM     72  N   UNL A   1      33.323  24.438  23.818  1.00  0.00    -0.342 N 
ATOM     73  C   UNL A   1      34.314  23.005  25.536  1.00  0.00     0.050 A 
ATOM     74  O   UNL A   1      32.994  22.542  27.420  1.00  0.00    -0.288 OA
ATOM     75  C   UNL A   1      34.318  23.516  24.219  1.00  0.00     0.055 A 
ATOM     76  C   UNL A   1      35.397  22.278  26.054  1.00  0.00     0.056 A 
ATOM     77  C   UNL A   1      35.348  23.069  23.384  1.00  0.00     0.069 A 
ATOM     78  C   UNL A   1      36.478  22.004  25.234  1.00  0.00     0.159 A 
ATOM     79  C   UNL A   1      36.436  22.364  23.897  1.00  0.00     0.160 A 
ATOM     80  F   UNL A   1      37.546  21.365  25.729  1.00  0.00    -0.204 F 
ATOM     81  F   UNL A   1      37.452  22.057  23.080  1.00  0.00    -0.204 F 
BRANCH  72  82
ATOM     82  C   UNL A   1      33.466  25.207  22.554  1.00  0.00     0.157 C 
BRANCH  82  83
ATOM     83  C   UNL A   1      32.550  26.417  22.487  1.00  0.00    -0.028 A 
ATOM     84  C   UNL A   1      33.061  27.718  22.562  1.00  0.00     0.008 A 
ATOM     85  C   UNL A   1      31.164  26.279  22.358  1.00  0.00     0.008 A 
ATOM     86  C   UNL A   1      32.224  28.835  22.601  1.00  0.00     0.027 A 
ATOM     87  C   UNL A   1      30.323  27.404  22.387  1.00  0.00     0.027 A 
ATOM     88  C   UNL A   1      30.839  28.697  22.546  1.00  0.00     0.044 A 
BRANCH  88  89
ATOM     89  N   UNL A   1      30.004  29.834  22.680  1.00  0.00    -0.312 N 
ATOM     90  C   UNL A   1      29.129  30.305  21.632  1.00  0.00     0.126 C 
ATOM     91  C   UNL A   1      29.889  30.630  23.826  1.00  0.00     0.227 C 
ATOM     92  C   UNL A   1      28.847  31.745  21.999  1.00  0.00     0.032 C 
ATOM     93  C   UNL A   1      28.924  31.750  23.514  1.00  0.00     0.102 C 
ATOM     94  O   UNL A   1      30.438  30.503  24.911  1.00  0.00    -0.275 OA
ENDBRANCH  88  89
ENDBRANCH  82  83
ENDBRANCH  72  82
ENDBRANCH  66  69
ENDBRANCH  64  65
ENDBRANCH   1  64
TORSDOF 14
ENDMDL
