MODEL 1
REMARK VINA RESULT:     -11.3      0.000      0.000
REMARK SMILES CCC(CC)(CC(=O)Nc1cccc(C#N)c1)C(=O)NCCCCNC(=O)c1ccc(-c2c3nc(c(-c4c(F)cccc4F)c4ccc([nH]4)c(-c4c(F)cccc4F)c4nc(c(-c5c(F)cccc5F)c5ccc2[nH]5)C=C4)C=C3)cc1
REMARK SMILES IDX 21 1 20 2 18 3 19 4 3 6 2 7 1 8 4 9 5 10 6 11 7 12 8 13 9 14
REMARK SMILES IDX 10 16 11 17 17 18 12 19 14 20 13 21 15 22 16 23 22 24 23 25
REMARK SMILES IDX 24 26 25 27 26 28 27 30 28 31 29 32 81 33 30 34 80 35 31 36
REMARK SMILES IDX 32 37 33 38 74 39 34 40 79 41 73 42 75 43 35 44 78 45 72 46
REMARK SMILES IDX 71 47 36 49 62 50 45 51 61 52 46 53 49 54 60 55 76 56 47 57
REMARK SMILES IDX 48 58 59 60 77 61 50 62 37 63 38 64 43 65 39 66 40 67 42 68
REMARK SMILES IDX 44 69 41 70 63 71 64 72 69 73 65 74 66 75 68 76 70 77 67 78
REMARK SMILES IDX 51 79 52 80 57 81 53 82 54 83 56 84 58 85 55 86
REMARK H PARENT 20 5 9 15 25 29 75 48 49 59
REMARK Flexibility Score: inf
ROOT
ATOM      1  C   UNL A   1      35.515  20.669  24.969  1.00  0.00     0.116 C 
ENDROOT
BRANCH   1   2
ATOM      2  N   UNL A   1      35.040  21.077  26.271  1.00  0.00    -0.356 N 
ATOM      3  C   UNL A   1      34.218  22.073  26.664  1.00  0.00     0.226 C 
ATOM      4  O   UNL A   1      34.166  22.260  27.885  1.00  0.00    -0.274 OA
ATOM      5  H   UNL A   1      35.379  20.523  27.011  1.00  0.00     0.163 HD
BRANCH   3   6
ATOM      6  C   UNL A   1      33.395  22.923  25.671  1.00  0.00     0.057 C 
BRANCH   6   7
ATOM      7  C   UNL A   1      32.673  21.936  24.731  1.00  0.00     0.014 C 
ATOM      8  C   UNL A   1      32.813  22.055  23.224  1.00  0.00     0.005 C 
ENDBRANCH   6   7
BRANCH   6   9
ATOM      9  C   UNL A   1      34.308  23.832  24.787  1.00  0.00     0.014 C 
ATOM     10  C   UNL A   1      34.300  25.316  25.139  1.00  0.00     0.005 C 
ENDBRANCH   6   9
BRANCH   6  11
ATOM     11  C   UNL A   1      32.279  23.718  26.426  1.00  0.00     0.117 C 
BRANCH  11  12
ATOM     12  C   UNL A   1      30.802  23.512  26.037  1.00  0.00     0.225 C 
ATOM     13  O   UNL A   1      30.152  22.603  26.563  1.00  0.00    -0.275 OA
ATOM     14  N   UNL A   1      30.122  24.443  25.274  1.00  0.00    -0.326 N 
ATOM     15  H   UNL A   1      29.141  24.417  25.357  1.00  0.00     0.169 HD
BRANCH  14  16
ATOM     16  C   UNL A   1      30.621  25.418  24.397  1.00  0.00     0.042 A 
ATOM     17  C   UNL A   1      30.652  26.757  24.772  1.00  0.00     0.026 A 
ATOM     18  C   UNL A   1      31.229  25.063  23.197  1.00  0.00     0.045 A 
ATOM     19  C   UNL A   1      30.916  27.764  23.845  1.00  0.00     0.004 A 
ATOM     20  C   UNL A   1      31.618  26.070  22.296  1.00  0.00     0.054 A 
ATOM     21  C   UNL A   1      31.362  27.416  22.581  1.00  0.00     0.019 A 
BRANCH  20  22
ATOM     22  C   UNL A   1      32.336  25.746  21.097  1.00  0.00     0.099 C 
ATOM     23  N   UNL A   1      32.937  25.435  20.159  1.00  0.00    -0.192 NA
ENDBRANCH  20  22
ENDBRANCH  14  16
ENDBRANCH  11  12
ENDBRANCH   6  11
ENDBRANCH   3   6
ENDBRANCH   1   2
BRANCH   1  24
ATOM     24  C   UNL A   1      36.982  21.023  24.781  1.00  0.00     0.023 C 
BRANCH  24  25
ATOM     25  C   UNL A   1      37.951  19.873  25.042  1.00  0.00     0.023 C 
BRANCH  25  26
ATOM     26  C   UNL A   1      39.150  20.231  25.908  1.00  0.00     0.116 C 
BRANCH  26  27
ATOM     27  N   UNL A   1      40.161  19.184  25.924  1.00  0.00    -0.352 N 
ATOM     28  C   UNL A   1      41.516  19.297  26.104  1.00  0.00     0.251 C 
ATOM     29  H   UNL A   1      39.827  18.268  25.788  1.00  0.00     0.163 HD
ATOM     30  O   UNL A   1      42.255  18.338  25.919  1.00  0.00    -0.269 OA
BRANCH  28  31
ATOM     31  C   UNL A   1      42.074  20.606  26.492  1.00  0.00     0.039 A 
ATOM     32  C   UNL A   1      42.541  21.464  25.497  1.00  0.00     0.014 A 
ATOM     33  C   UNL A   1      42.075  20.999  27.834  1.00  0.00     0.014 A 
ATOM     34  C   UNL A   1      42.952  22.750  25.843  1.00  0.00     0.010 A 
ATOM     35  C   UNL A   1      42.392  22.311  28.161  1.00  0.00     0.010 A 
ATOM     36  C   UNL A   1      42.840  23.198  27.170  1.00  0.00    -0.014 A 
BRANCH  36  37
ATOM     37  C   UNL A   1      43.192  24.592  27.540  1.00  0.00     0.031 A 
ATOM     38  C   UNL A   1      44.630  25.028  27.549  1.00  0.00     0.074 A 
ATOM     39  C   UNL A   1      42.220  25.446  27.915  1.00  0.00     0.049 A 
ATOM     40  N   UNL A   1      45.139  26.188  27.880  1.00  0.00    -0.248 NA
ATOM     41  C   UNL A   1      45.633  24.023  27.162  1.00  0.00     0.031 C 
ATOM     42  C   UNL A   1      40.793  25.127  27.990  1.00  0.00     0.029 A 
ATOM     43  N   UNL A   1      42.286  26.759  28.308  1.00  0.00    -0.354 N 
ATOM     44  C   UNL A   1      46.514  26.047  27.750  1.00  0.00     0.074 A 
ATOM     45  C   UNL A   1      46.766  24.674  27.373  1.00  0.00     0.031 C 
ATOM     46  C   UNL A   1      40.116  26.224  28.365  1.00  0.00     0.029 A 
ATOM     47  C   UNL A   1      41.062  27.307  28.609  1.00  0.00     0.049 A 
ATOM     48  H   UNL A   1      43.130  27.262  28.368  1.00  0.00     0.167 HD
ATOM     49  C   UNL A   1      47.479  26.983  27.907  1.00  0.00     0.037 A 
ATOM     50  C   UNL A   1      40.741  28.540  29.043  1.00  0.00     0.037 A 
ATOM     51  C   UNL A   1      47.219  28.351  28.273  1.00  0.00     0.049 A 
ATOM     52  C   UNL A   1      41.837  29.551  29.245  1.00  0.00     0.074 A 
ATOM     53  C   UNL A   1      48.122  29.391  28.403  1.00  0.00     0.029 A 
ATOM     54  N   UNL A   1      45.968  28.866  28.579  1.00  0.00    -0.354 N 
ATOM     55  N   UNL A   1      43.127  29.427  29.044  1.00  0.00    -0.248 NA
ATOM     56  C   UNL A   1      41.432  30.877  29.732  1.00  0.00     0.031 C 
ATOM     57  C   UNL A   1      47.428  30.517  28.858  1.00  0.00     0.029 A 
ATOM     58  C   UNL A   1      46.082  30.200  28.934  1.00  0.00     0.049 A 
ATOM     59  H   UNL A   1      45.126  28.358  28.548  1.00  0.00     0.167 HD
ATOM     60  C   UNL A   1      43.680  30.665  29.343  1.00  0.00     0.074 A 
ATOM     61  C   UNL A   1      42.584  31.531  29.725  1.00  0.00     0.031 C 
ATOM     62  C   UNL A   1      44.980  31.053  29.305  1.00  0.00     0.037 A 
BRANCH  49  63
ATOM     63  C   UNL A   1      48.904  26.558  27.697  1.00  0.00     0.057 A 
ATOM     64  C   UNL A   1      49.695  26.059  28.742  1.00  0.00     0.134 A 
ATOM     65  C   UNL A   1      49.483  26.613  26.422  1.00  0.00     0.134 A 
ATOM     66  F   UNL A   1      49.208  25.990  29.991  1.00  0.00    -0.206 F 
ATOM     67  C   UNL A   1      51.015  25.657  28.533  1.00  0.00     0.040 A 
ATOM     68  C   UNL A   1      50.791  26.181  26.195  1.00  0.00     0.040 A 
ATOM     69  F   UNL A   1      48.784  27.073  25.375  1.00  0.00    -0.206 F 
ATOM     70  C   UNL A   1      51.564  25.710  27.254  1.00  0.00     0.006 A 
ENDBRANCH  49  63
BRANCH  50  71
ATOM     71  C   UNL A   1      39.322  28.898  29.306  1.00  0.00     0.057 A 
ATOM     72  C   UNL A   1      38.750  28.711  30.569  1.00  0.00     0.134 A 
ATOM     73  C   UNL A   1      38.498  29.410  28.297  1.00  0.00     0.134 A 
ATOM     74  F   UNL A   1      39.483  28.208  31.575  1.00  0.00    -0.206 F 
ATOM     75  C   UNL A   1      37.405  28.990  30.814  1.00  0.00     0.040 A 
ATOM     76  C   UNL A   1      37.158  29.726  28.535  1.00  0.00     0.040 A 
ATOM     77  F   UNL A   1      38.984  29.623  27.065  1.00  0.00    -0.206 F 
ATOM     78  C   UNL A   1      36.605  29.503  29.795  1.00  0.00     0.006 A 
ENDBRANCH  50  71
BRANCH  62  79
ATOM     79  C   UNL A   1      45.284  32.487  29.635  1.00  0.00     0.057 A 
ATOM     80  C   UNL A   1      45.624  32.899  30.929  1.00  0.00     0.134 A 
ATOM     81  C   UNL A   1      45.274  33.463  28.629  1.00  0.00     0.134 A 
ATOM     82  F   UNL A   1      45.642  32.019  31.942  1.00  0.00    -0.206 F 
ATOM     83  C   UNL A   1      45.913  34.235  31.217  1.00  0.00     0.040 A 
ATOM     84  C   UNL A   1      45.597  34.793  28.897  1.00  0.00     0.040 A 
ATOM     85  F   UNL A   1      44.970  33.137  27.364  1.00  0.00    -0.206 F 
ATOM     86  C   UNL A   1      45.909  35.185  30.197  1.00  0.00     0.006 A 
ENDBRANCH  62  79
ENDBRANCH  36  37
ENDBRANCH  28  31
ENDBRANCH  26  27
ENDBRANCH  25  26
ENDBRANCH  24  25
ENDBRANCH   1  24
TORSDOF 17
ENDMDL
MODEL 2
REMARK VINA RESULT:     -11.2      2.046      3.752
REMARK SMILES CCC(CC)(CC(=O)Nc1cccc(C#N)c1)C(=O)NCCCCNC(=O)c1ccc(-c2c3nc(c(-c4c(F)cccc4F)c4ccc([nH]4)c(-c4c(F)cccc4F)c4nc(c(-c5c(F)cccc5F)c5ccc2[nH]5)C=C4)C=C3)cc1
REMARK SMILES IDX 21 1 20 2 18 3 19 4 3 6 2 7 1 8 4 9 5 10 6 11 7 12 8 13 9 14
REMARK SMILES IDX 10 16 11 17 17 18 12 19 14 20 13 21 15 22 16 23 22 24 23 25
REMARK SMILES IDX 24 26 25 27 26 28 27 30 28 31 29 32 81 33 30 34 80 35 31 36
REMARK SMILES IDX 32 37 33 38 74 39 34 40 79 41 73 42 75 43 35 44 78 45 72 46
REMARK SMILES IDX 71 47 36 49 62 50 45 51 61 52 46 53 49 54 60 55 76 56 47 57
REMARK SMILES IDX 48 58 59 60 77 61 50 62 37 63 38 64 43 65 39 66 40 67 42 68
REMARK SMILES IDX 44 69 41 70 63 71 64 72 69 73 65 74 66 75 68 76 70 77 67 78
REMARK SMILES IDX 51 79 52 80 57 81 53 82 54 83 56 84 58 85 55 86
REMARK H PARENT 20 5 9 15 25 29 75 48 49 59
REMARK Flexibility Score: inf
ROOT
ATOM      1  C   UNL A   1      37.591  23.488  25.937  1.00  0.00     0.116 C 
ENDROOT
BRANCH   1   2
ATOM      2  N   UNL A   1      37.333  23.456  24.517  1.00  0.00    -0.356 N 
ATOM      3  C   UNL A   1      36.218  23.184  23.804  1.00  0.00     0.226 C 
ATOM      4  O   UNL A   1      36.390  23.061  22.587  1.00  0.00    -0.274 OA
ATOM      5  H   UNL A   1      38.117  23.673  23.963  1.00  0.00     0.163 HD
BRANCH   3   6
ATOM      6  C   UNL A   1      34.824  23.037  24.452  1.00  0.00     0.057 C 
BRANCH   6   7
ATOM      7  C   UNL A   1      33.827  22.759  23.308  1.00  0.00     0.014 C 
ATOM      8  C   UNL A   1      32.366  23.149  23.438  1.00  0.00     0.005 C 
ENDBRANCH   6   7
BRANCH   6   9
ATOM      9  C   UNL A   1      34.369  24.352  25.162  1.00  0.00     0.014 C 
ATOM     10  C   UNL A   1      34.331  25.598  24.282  1.00  0.00     0.005 C 
ENDBRANCH   6   9
BRANCH   6  11
ATOM     11  C   UNL A   1      34.787  21.785  25.390  1.00  0.00     0.117 C 
BRANCH  11  12
ATOM     12  C   UNL A   1      33.500  21.459  26.173  1.00  0.00     0.225 C 
ATOM     13  O   UNL A   1      33.135  22.203  27.089  1.00  0.00    -0.275 OA
ATOM     14  N   UNL A   1      32.626  20.477  25.744  1.00  0.00    -0.326 N 
ATOM     15  H   UNL A   1      31.704  20.561  26.078  1.00  0.00     0.169 HD
BRANCH  14  16
ATOM     16  C   UNL A   1      32.859  19.376  24.905  1.00  0.00     0.042 A 
ATOM     17  C   UNL A   1      32.461  19.406  23.573  1.00  0.00     0.026 A 
ATOM     18  C   UNL A   1      33.617  18.291  25.334  1.00  0.00     0.045 A 
ATOM     19  C   UNL A   1      32.463  18.254  22.788  1.00  0.00     0.004 A 
ATOM     20  C   UNL A   1      33.736  17.162  24.506  1.00  0.00     0.054 A 
ATOM     21  C   UNL A   1      33.069  17.108  23.277  1.00  0.00     0.019 A 
BRANCH  20  22
ATOM     22  C   UNL A   1      34.589  16.069  24.872  1.00  0.00     0.099 C 
ATOM     23  N   UNL A   1      35.324  15.227  25.172  1.00  0.00    -0.192 NA
ENDBRANCH  20  22
ENDBRANCH  14  16
ENDBRANCH  11  12
ENDBRANCH   6  11
ENDBRANCH   3   6
ENDBRANCH   1   2
BRANCH   1  24
ATOM     24  C   UNL A   1      38.844  22.701  26.288  1.00  0.00     0.023 C 
BRANCH  24  25
ATOM     25  C   UNL A   1      38.973  21.361  25.570  1.00  0.00     0.023 C 
BRANCH  25  26
ATOM     26  C   UNL A   1      39.344  20.189  26.468  1.00  0.00     0.116 C 
BRANCH  26  27
ATOM     27  N   UNL A   1      40.467  19.420  25.950  1.00  0.00    -0.352 N 
ATOM     28  C   UNL A   1      41.781  19.794  25.822  1.00  0.00     0.251 C 
ATOM     29  H   UNL A   1      40.254  18.507  25.649  1.00  0.00     0.163 HD
ATOM     30  O   UNL A   1      42.574  19.092  25.207  1.00  0.00    -0.269 OA
BRANCH  28  31
ATOM     31  C   UNL A   1      42.216  21.073  26.413  1.00  0.00     0.039 A 
ATOM     32  C   UNL A   1      42.597  22.113  25.566  1.00  0.00     0.014 A 
ATOM     33  C   UNL A   1      42.186  21.254  27.799  1.00  0.00     0.014 A 
ATOM     34  C   UNL A   1      42.888  23.363  26.110  1.00  0.00     0.010 A 
ATOM     35  C   UNL A   1      42.381  22.523  28.327  1.00  0.00     0.010 A 
ATOM     36  C   UNL A   1      42.741  23.589  27.489  1.00  0.00    -0.014 A 
BRANCH  36  37
ATOM     37  C   UNL A   1      42.962  24.936  28.072  1.00  0.00     0.031 A 
ATOM     38  C   UNL A   1      44.336  25.341  28.530  1.00  0.00     0.074 A 
ATOM     39  C   UNL A   1      41.919  25.772  28.233  1.00  0.00     0.049 A 
ATOM     40  N   UNL A   1      44.722  26.456  29.098  1.00  0.00    -0.248 NA
ATOM     41  C   UNL A   1      45.415  24.356  28.351  1.00  0.00     0.031 C 
ATOM     42  C   UNL A   1      40.531  25.475  27.870  1.00  0.00     0.029 A 
ATOM     43  N   UNL A   1      41.860  27.042  28.750  1.00  0.00    -0.354 N 
ATOM     44  C   UNL A   1      46.077  26.299  29.351  1.00  0.00     0.074 A 
ATOM     45  C   UNL A   1      46.436  24.963  28.935  1.00  0.00     0.031 C 
ATOM     46  C   UNL A   1      39.768  26.546  28.138  1.00  0.00     0.029 A 
ATOM     47  C   UNL A   1      40.598  27.583  28.741  1.00  0.00     0.049 A 
ATOM     48  H   UNL A   1      42.649  27.520  29.094  1.00  0.00     0.167 HD
ATOM     49  C   UNL A   1      46.951  27.198  29.863  1.00  0.00     0.037 A 
ATOM     50  C   UNL A   1      40.158  28.778  29.180  1.00  0.00     0.037 A 
ATOM     51  C   UNL A   1      46.588  28.532  30.266  1.00  0.00     0.049 A 
ATOM     52  C   UNL A   1      41.144  29.744  29.778  1.00  0.00     0.074 A 
ATOM     53  C   UNL A   1      47.409  29.538  30.744  1.00  0.00     0.029 A 
ATOM     54  N   UNL A   1      45.299  29.041  30.251  1.00  0.00    -0.354 N 
ATOM     55  N   UNL A   1      42.438  29.613  29.941  1.00  0.00    -0.248 NA
ATOM     56  C   UNL A   1      40.607  31.027  30.252  1.00  0.00     0.031 C 
ATOM     57  C   UNL A   1      46.606  30.630  31.086  1.00  0.00     0.029 A 
ATOM     58  C   UNL A   1      45.297  30.334  30.747  1.00  0.00     0.049 A 
ATOM     59  H   UNL A   1      44.503  28.555  29.934  1.00  0.00     0.167 HD
ATOM     60  C   UNL A   1      42.875  30.808  30.499  1.00  0.00     0.074 A 
ATOM     61  C   UNL A   1      41.709  31.656  30.633  1.00  0.00     0.031 C 
ATOM     62  C   UNL A   1      44.129  31.171  30.867  1.00  0.00     0.037 A 
BRANCH  49  63
ATOM     63  C   UNL A   1      48.380  26.766  30.027  1.00  0.00     0.057 A 
ATOM     64  C   UNL A   1      48.829  26.096  31.174  1.00  0.00     0.134 A 
ATOM     65  C   UNL A   1      49.314  26.989  29.006  1.00  0.00     0.134 A 
ATOM     66  F   UNL A   1      47.991  25.860  32.196  1.00  0.00    -0.206 F 
ATOM     67  C   UNL A   1      50.157  25.690  31.312  1.00  0.00     0.040 A 
ATOM     68  C   UNL A   1      50.636  26.556  29.118  1.00  0.00     0.040 A 
ATOM     69  F   UNL A   1      48.953  27.618  27.878  1.00  0.00    -0.206 F 
ATOM     70  C   UNL A   1      51.064  25.912  30.277  1.00  0.00     0.006 A 
ENDBRANCH  49  63
BRANCH  50  71
ATOM     71  C   UNL A   1      38.720  29.138  29.061  1.00  0.00     0.057 A 
ATOM     72  C   UNL A   1      38.183  29.581  27.847  1.00  0.00     0.134 A 
ATOM     73  C   UNL A   1      37.856  29.074  30.160  1.00  0.00     0.134 A 
ATOM     74  F   UNL A   1      38.963  29.681  26.759  1.00  0.00    -0.206 F 
ATOM     75  C   UNL A   1      36.849  29.976  27.736  1.00  0.00     0.040 A 
ATOM     76  C   UNL A   1      36.511  29.434  30.057  1.00  0.00     0.040 A 
ATOM     77  F   UNL A   1      38.303  28.650  31.351  1.00  0.00    -0.206 F 
ATOM     78  C   UNL A   1      36.007  29.898  28.843  1.00  0.00     0.006 A 
ENDBRANCH  50  71
BRANCH  62  79
ATOM     79  C   UNL A   1      44.316  32.563  31.403  1.00  0.00     0.057 A 
ATOM     80  C   UNL A   1      44.571  33.657  30.567  1.00  0.00     0.134 A 
ATOM     81  C   UNL A   1      44.201  32.815  32.777  1.00  0.00     0.134 A 
ATOM     82  F   UNL A   1      44.704  33.486  29.243  1.00  0.00    -0.206 F 
ATOM     83  C   UNL A   1      44.734  34.946  31.080  1.00  0.00     0.040 A 
ATOM     84  C   UNL A   1      44.324  34.102  33.298  1.00  0.00     0.040 A 
ATOM     85  F   UNL A   1      43.946  31.815  33.635  1.00  0.00    -0.206 F 
ATOM     86  C   UNL A   1      44.602  35.172  32.449  1.00  0.00     0.006 A 
ENDBRANCH  62  79
ENDBRANCH  36  37
ENDBRANCH  28  31
ENDBRANCH  26  27
ENDBRANCH  25  26
ENDBRANCH  24  25
ENDBRANCH   1  24
TORSDOF 17
ENDMDL
MODEL 3
REMARK VINA RESULT:     -11.2      0.753      6.212
REMARK SMILES CCC(CC)(CC(=O)Nc1cccc(C#N)c1)C(=O)NCCCCNC(=O)c1ccc(-c2c3nc(c(-c4c(F)cccc4F)c4ccc([nH]4)c(-c4c(F)cccc4F)c4nc(c(-c5c(F)cccc5F)c5ccc2[nH]5)C=C4)C=C3)cc1
REMARK SMILES IDX 21 1 20 2 18 3 19 4 3 6 2 7 1 8 4 9 5 10 6 11 7 12 8 13 9 14
REMARK SMILES IDX 10 16 11 17 17 18 12 19 14 20 13 21 15 22 16 23 22 24 23 25
REMARK SMILES IDX 24 26 25 27 26 28 27 30 28 31 29 32 81 33 30 34 80 35 31 36
REMARK SMILES IDX 32 37 33 38 74 39 34 40 79 41 73 42 75 43 35 44 78 45 72 46
REMARK SMILES IDX 71 47 36 49 62 50 45 51 61 52 46 53 49 54 60 55 76 56 47 57
REMARK SMILES IDX 48 58 59 60 77 61 50 62 37 63 38 64 43 65 39 66 40 67 42 68
REMARK SMILES IDX 44 69 41 70 63 71 64 72 69 73 65 74 66 75 68 76 70 77 67 78
REMARK SMILES IDX 51 79 52 80 57 81 53 82 54 83 56 84 58 85 55 86
REMARK H PARENT 20 5 9 15 25 29 75 48 49 59
REMARK Flexibility Score: inf
ROOT
ATOM      1  C   UNL A   1      35.549  20.713  25.068  1.00  0.00     0.116 C 
ENDROOT
BRANCH   1   2
ATOM      2  N   UNL A   1      35.059  21.078  26.376  1.00  0.00    -0.356 N 
ATOM      3  C   UNL A   1      34.144  21.985  26.781  1.00  0.00     0.226 C 
ATOM      4  O   UNL A   1      34.096  22.175  28.001  1.00  0.00    -0.274 OA
ATOM      5  H   UNL A   1      35.468  20.568  27.113  1.00  0.00     0.163 HD
BRANCH   3   6
ATOM      6  C   UNL A   1      33.218  22.737  25.800  1.00  0.00     0.057 C 
BRANCH   6   7
ATOM      7  C   UNL A   1      32.436  21.665  25.013  1.00  0.00     0.014 C 
ATOM      8  C   UNL A   1      32.491  21.619  23.497  1.00  0.00     0.005 C 
ENDBRANCH   6   7
BRANCH   6   9
ATOM      9  C   UNL A   1      34.028  23.582  24.765  1.00  0.00     0.014 C 
ATOM     10  C   UNL A   1      34.653  24.864  25.305  1.00  0.00     0.005 C 
ENDBRANCH   6   9
BRANCH   6  11
ATOM     11  C   UNL A   1      32.156  23.577  26.585  1.00  0.00     0.117 C 
BRANCH  11  12
ATOM     12  C   UNL A   1      30.685  23.564  26.125  1.00  0.00     0.225 C 
ATOM     13  O   UNL A   1      29.899  22.745  26.613  1.00  0.00    -0.275 OA
ATOM     14  N   UNL A   1      30.168  24.577  25.340  1.00  0.00    -0.326 N 
ATOM     15  H   UNL A   1      29.189  24.679  25.378  1.00  0.00     0.169 HD
BRANCH  14  16
ATOM     16  C   UNL A   1      30.830  25.483  24.497  1.00  0.00     0.042 A 
ATOM     17  C   UNL A   1      31.184  26.747  24.956  1.00  0.00     0.026 A 
ATOM     18  C   UNL A   1      31.277  25.098  23.237  1.00  0.00     0.045 A 
ATOM     19  C   UNL A   1      31.622  27.740  24.081  1.00  0.00     0.004 A 
ATOM     20  C   UNL A   1      31.838  26.060  22.379  1.00  0.00     0.054 A 
ATOM     21  C   UNL A   1      31.911  27.402  22.769  1.00  0.00     0.019 A 
BRANCH  20  22
ATOM     22  C   UNL A   1      32.400  25.680  21.116  1.00  0.00     0.099 C 
ATOM     23  N   UNL A   1      32.903  25.354  20.126  1.00  0.00    -0.192 NA
ENDBRANCH  20  22
ENDBRANCH  14  16
ENDBRANCH  11  12
ENDBRANCH   6  11
ENDBRANCH   3   6
ENDBRANCH   1   2
BRANCH   1  24
ATOM     24  C   UNL A   1      36.999  21.133  24.885  1.00  0.00     0.023 C 
BRANCH  24  25
ATOM     25  C   UNL A   1      38.009  19.995  25.001  1.00  0.00     0.023 C 
BRANCH  25  26
ATOM     26  C   UNL A   1      39.267  20.335  25.789  1.00  0.00     0.116 C 
BRANCH  26  27
ATOM     27  N   UNL A   1      40.177  19.205  25.904  1.00  0.00    -0.352 N 
ATOM     28  C   UNL A   1      41.533  19.209  26.110  1.00  0.00     0.251 C 
ATOM     29  H   UNL A   1      39.763  18.316  25.823  1.00  0.00     0.163 HD
ATOM     30  O   UNL A   1      42.184  18.176  26.012  1.00  0.00    -0.269 OA
BRANCH  28  31
ATOM     31  C   UNL A   1      42.201  20.486  26.421  1.00  0.00     0.039 A 
ATOM     32  C   UNL A   1      42.713  21.253  25.376  1.00  0.00     0.014 A 
ATOM     33  C   UNL A   1      42.261  20.945  27.740  1.00  0.00     0.014 A 
ATOM     34  C   UNL A   1      43.232  22.517  25.647  1.00  0.00     0.010 A 
ATOM     35  C   UNL A   1      42.687  22.242  27.994  1.00  0.00     0.010 A 
ATOM     36  C   UNL A   1      43.184  23.039  26.951  1.00  0.00    -0.014 A 
BRANCH  36  37
ATOM     37  C   UNL A   1      43.652  24.417  27.242  1.00  0.00     0.031 A 
ATOM     38  C   UNL A   1      42.671  25.469  27.681  1.00  0.00     0.074 A 
ATOM     39  C   UNL A   1      44.949  24.732  27.063  1.00  0.00     0.049 A 
ATOM     40  N   UNL A   1      42.879  26.734  27.944  1.00  0.00    -0.248 NA
ATOM     41  C   UNL A   1      41.266  25.052  27.817  1.00  0.00     0.031 C 
ATOM     42  C   UNL A   1      45.989  23.810  26.598  1.00  0.00     0.029 A 
ATOM     43  N   UNL A   1      45.617  25.916  27.247  1.00  0.00    -0.354 N 
ATOM     44  C   UNL A   1      41.636  27.261  28.264  1.00  0.00     0.074 A 
ATOM     45  C   UNL A   1      40.669  26.199  28.102  1.00  0.00     0.031 C 
ATOM     46  C   UNL A   1      47.167  24.453  26.571  1.00  0.00     0.029 A 
ATOM     47  C   UNL A   1      46.959  25.843  26.964  1.00  0.00     0.049 A 
ATOM     48  H   UNL A   1      45.175  26.741  27.554  1.00  0.00     0.167 HD
ATOM     49  C   UNL A   1      41.329  28.513  28.680  1.00  0.00     0.037 A 
ATOM     50  C   UNL A   1      47.913  26.792  27.006  1.00  0.00     0.037 A 
ATOM     51  C   UNL A   1      42.299  29.563  28.849  1.00  0.00     0.049 A 
ATOM     52  C   UNL A   1      47.539  28.184  27.436  1.00  0.00     0.074 A 
ATOM     53  C   UNL A   1      42.099  30.849  29.318  1.00  0.00     0.029 A 
ATOM     54  N   UNL A   1      43.647  29.453  28.543  1.00  0.00    -0.354 N 
ATOM     55  N   UNL A   1      46.372  28.651  27.811  1.00  0.00    -0.248 NA
ATOM     56  C   UNL A   1      48.616  29.183  27.451  1.00  0.00     0.031 C 
ATOM     57  C   UNL A   1      43.312  31.539  29.228  1.00  0.00     0.029 A 
ATOM     58  C   UNL A   1      44.284  30.661  28.778  1.00  0.00     0.049 A 
ATOM     59  H   UNL A   1      44.086  28.638  28.208  1.00  0.00     0.167 HD
ATOM     60  C   UNL A   1      46.583  29.983  28.142  1.00  0.00     0.074 A 
ATOM     61  C   UNL A   1      47.992  30.246  27.938  1.00  0.00     0.031 C 
ATOM     62  C   UNL A   1      45.690  30.907  28.577  1.00  0.00     0.037 A 
BRANCH  49  63
ATOM     63  C   UNL A   1      39.887  28.818  28.969  1.00  0.00     0.057 A 
ATOM     64  C   UNL A   1      38.994  29.216  27.964  1.00  0.00     0.134 A 
ATOM     65  C   UNL A   1      39.375  28.676  30.265  1.00  0.00     0.134 A 
ATOM     66  F   UNL A   1      39.420  29.383  26.702  1.00  0.00    -0.206 F 
ATOM     67  C   UNL A   1      37.654  29.488  28.242  1.00  0.00     0.040 A 
ATOM     68  C   UNL A   1      38.028  28.911  30.548  1.00  0.00     0.040 A 
ATOM     69  F   UNL A   1      40.170  28.293  31.275  1.00  0.00    -0.206 F 
ATOM     70  C   UNL A   1      37.165  29.327  29.537  1.00  0.00     0.006 A 
ENDBRANCH  49  63
BRANCH  50  71
ATOM     71  C   UNL A   1      49.317  26.462  26.644  1.00  0.00     0.057 A 
ATOM     72  C   UNL A   1      50.225  26.006  27.607  1.00  0.00     0.134 A 
ATOM     73  C   UNL A   1      49.792  26.618  25.337  1.00  0.00     0.134 A 
ATOM     74  F   UNL A   1      49.836  25.852  28.882  1.00  0.00    -0.206 F 
ATOM     75  C   UNL A   1      51.560  25.748  27.293  1.00  0.00     0.040 A 
ATOM     76  C   UNL A   1      51.117  26.331  24.999  1.00  0.00     0.040 A 
ATOM     77  F   UNL A   1      48.974  27.043  24.363  1.00  0.00    -0.206 F 
ATOM     78  C   UNL A   1      52.008  25.906  25.983  1.00  0.00     0.006 A 
ENDBRANCH  50  71
BRANCH  62  79
ATOM     79  C   UNL A   1      46.217  32.274  28.911  1.00  0.00     0.057 A 
ATOM     80  C   UNL A   1      46.660  32.611  30.196  1.00  0.00     0.134 A 
ATOM     81  C   UNL A   1      46.318  33.257  27.917  1.00  0.00     0.134 A 
ATOM     82  F   UNL A   1      46.582  31.722  31.198  1.00  0.00    -0.206 F 
ATOM     83  C   UNL A   1      47.156  33.884  30.488  1.00  0.00     0.040 A 
ATOM     84  C   UNL A   1      46.845  34.520  28.187  1.00  0.00     0.040 A 
ATOM     85  F   UNL A   1      45.923  33.000  26.660  1.00  0.00    -0.206 F 
ATOM     86  C   UNL A   1      47.257  34.840  29.478  1.00  0.00     0.006 A 
ENDBRANCH  62  79
ENDBRANCH  36  37
ENDBRANCH  28  31
ENDBRANCH  26  27
ENDBRANCH  25  26
ENDBRANCH  24  25
ENDBRANCH   1  24
TORSDOF 17
ENDMDL
