MODEL 1
REMARK VINA RESULT:     -13.7      0.000      0.000
REMARK SMILES Cc1ccccc1[C@@H]1[NH2+][C@@H](C(=O)NCCCCNC(=O)c2ccc(-c3c4nc(c(-c5c(F)cccc5F)c5ccc([nH]5)c(-c5c(F)cccc5F)c5nc(c(-c6c(F)cccc6F)c6ccc3[nH]6)C=C5)C=C4)cc2)CC2=c3ccccc3=N[C@@H]21
REMARK SMILES IDX 16 1 15 2 14 3 13 4 11 5 12 6 10 8 8 9 9 10 84 11 76 14
REMARK SMILES IDX 83 15 75 16 77 17 82 18 78 19 81 20 79 21 80 22 7 23 1 24
REMARK SMILES IDX 2 25 3 26 4 27 6 28 5 29 17 30 18 31 19 32 20 34 21 35 22 36
REMARK SMILES IDX 74 37 23 38 73 39 24 40 25 41 26 42 67 43 27 44 72 45 66 46
REMARK SMILES IDX 68 47 28 48 71 49 65 50 64 51 29 53 55 54 38 55 54 56 39 57
REMARK SMILES IDX 42 58 53 59 69 60 40 61 41 62 52 64 70 65 43 66 30 67 31 68
REMARK SMILES IDX 36 69 32 70 33 71 35 72 37 73 34 74 56 75 57 76 62 77 58 78
REMARK SMILES IDX 59 79 61 80 63 81 60 82 44 83 45 84 50 85 46 86 47 87 49 88
REMARK SMILES IDX 51 89 48 90
REMARK H PARENT 13 7 9 12 9 13 18 33 68 52 42 63
REMARK Flexibility Score: inf
ROOT
ATOM      1  C   UNL A   1      33.669  31.345  27.623  1.00  0.00     0.023 C 
ENDROOT
BRANCH   1   2
ATOM      2  C   UNL A   1      32.452  30.564  27.059  1.00  0.00     0.023 C 
BRANCH   2   3
ATOM      3  C   UNL A   1      32.434  29.914  25.639  1.00  0.00     0.116 C 
BRANCH   3   4
ATOM      4  N   UNL A   1      33.559  29.692  24.700  1.00  0.00    -0.351 N 
ATOM      5  C   UNL A   1      33.872  28.678  23.803  1.00  0.00     0.278 C 
ATOM      6  O   UNL A   1      34.620  28.879  22.850  1.00  0.00    -0.268 OA
ATOM      7  H   UNL A   1      34.225  30.417  24.715  1.00  0.00     0.163 HD
BRANCH   5   8
ATOM      8  C   UNL A   1      33.297  27.322  24.141  1.00  0.00     0.277 C 
ATOM      9  C   UNL A   1      30.812  27.262  24.180  1.00  0.00     0.243 C 
ATOM     10  N   UNL A   1      32.042  27.294  23.377  1.00  0.00    -0.327 N 
ATOM     11  C   UNL A   1      30.858  25.745  24.696  1.00  0.00     0.196 C 
ATOM     12  H   UNL A   1      32.012  28.127  22.791  1.00  0.00     0.347 HD
ATOM     13  H   UNL A   1      32.055  26.420  22.851  1.00  0.00     0.347 HD
ATOM     14  C   UNL A   1      32.265  25.524  25.336  1.00  0.00    -0.024 C 
ATOM     15  N   UNL A   1      30.875  24.755  23.552  1.00  0.00    -0.270 NA
ATOM     16  C   UNL A   1      33.094  26.796  25.579  1.00  0.00     0.109 C 
ATOM     17  C   UNL A   1      32.880  24.442  24.828  1.00  0.00     0.002 A 
ATOM     18  C   UNL A   1      31.999  24.107  23.685  1.00  0.00     0.066 A 
ATOM     19  C   UNL A   1      34.281  24.101  24.794  1.00  0.00     0.010 A 
ATOM     20  C   UNL A   1      32.585  23.188  22.667  1.00  0.00     0.028 A 
ATOM     21  C   UNL A   1      34.769  23.384  23.770  1.00  0.00     0.001 A 
ATOM     22  C   UNL A   1      33.895  22.887  22.725  1.00  0.00     0.002 A 
BRANCH   9  23
ATOM     23  C   UNL A   1      29.737  28.037  23.381  1.00  0.00     0.015 A 
ATOM     24  C   UNL A   1      27.749  26.617  24.131  1.00  0.00     0.045 C 
ATOM     25  C   UNL A   1      28.357  27.774  23.399  1.00  0.00    -0.042 A 
ATOM     26  C   UNL A   1      27.453  28.720  22.839  1.00  0.00     0.004 A 
ATOM     27  C   UNL A   1      27.881  29.915  22.260  1.00  0.00     0.000 A 
ATOM     28  C   UNL A   1      30.115  29.295  22.809  1.00  0.00     0.010 A 
ATOM     29  C   UNL A   1      29.225  30.206  22.243  1.00  0.00     0.001 A 
ENDBRANCH   9  23
ENDBRANCH   5   8
ENDBRANCH   3   4
ENDBRANCH   2   3
ENDBRANCH   1   2
BRANCH   1  30
ATOM     30  C   UNL A   1      34.640  30.514  28.440  1.00  0.00     0.116 C 
BRANCH  30  31
ATOM     31  N   UNL A   1      35.519  31.277  29.307  1.00  0.00    -0.352 N 
ATOM     32  C   UNL A   1      36.742  30.845  29.875  1.00  0.00     0.251 C 
ATOM     33  H   UNL A   1      35.233  32.193  29.526  1.00  0.00     0.163 HD
ATOM     34  O   UNL A   1      37.396  31.555  30.594  1.00  0.00    -0.269 OA
BRANCH  32  35
ATOM     35  C   UNL A   1      37.228  29.528  29.426  1.00  0.00     0.039 A 
ATOM     36  C   UNL A   1      37.764  28.702  30.420  1.00  0.00     0.014 A 
ATOM     37  C   UNL A   1      37.552  29.347  28.082  1.00  0.00     0.014 A 
ATOM     38  C   UNL A   1      38.848  27.892  30.101  1.00  0.00     0.010 A 
ATOM     39  C   UNL A   1      38.687  28.609  27.781  1.00  0.00     0.010 A 
ATOM     40  C   UNL A   1      39.380  27.954  28.807  1.00  0.00    -0.014 A 
BRANCH  40  41
ATOM     41  C   UNL A   1      40.715  27.436  28.512  1.00  0.00     0.031 A 
ATOM     42  C   UNL A   1      40.865  26.013  28.177  1.00  0.00     0.074 A 
ATOM     43  C   UNL A   1      41.841  28.163  28.693  1.00  0.00     0.049 A 
ATOM     44  N   UNL A   1      41.760  25.246  28.708  1.00  0.00    -0.248 NA
ATOM     45  C   UNL A   1      39.969  25.336  27.254  1.00  0.00     0.031 C 
ATOM     46  C   UNL A   1      43.211  27.753  28.389  1.00  0.00     0.029 A 
ATOM     47  N   UNL A   1      41.994  29.344  29.412  1.00  0.00    -0.354 N 
ATOM     48  C   UNL A   1      41.727  24.061  28.018  1.00  0.00     0.074 A 
ATOM     49  C   UNL A   1      40.547  24.135  27.181  1.00  0.00     0.031 C 
ATOM     50  C   UNL A   1      44.051  28.467  29.156  1.00  0.00     0.029 A 
ATOM     51  C   UNL A   1      43.251  29.309  30.030  1.00  0.00     0.049 A 
ATOM     52  H   UNL A   1      41.335  30.074  29.476  1.00  0.00     0.167 HD
ATOM     53  C   UNL A   1      42.770  23.186  28.090  1.00  0.00     0.037 A 
ATOM     54  C   UNL A   1      43.468  29.543  31.354  1.00  0.00     0.037 A 
ATOM     55  C   UNL A   1      43.866  23.703  28.900  1.00  0.00     0.049 A 
ATOM     56  C   UNL A   1      44.135  28.381  32.047  1.00  0.00     0.074 A 
ATOM     57  C   UNL A   1      45.031  24.370  28.550  1.00  0.00     0.029 A 
ATOM     58  N   UNL A   1      43.728  23.855  30.276  1.00  0.00    -0.354 N 
ATOM     59  N   UNL A   1      44.282  27.206  31.504  1.00  0.00    -0.248 NA
ATOM     60  C   UNL A   1      44.586  28.415  33.437  1.00  0.00     0.031 C 
ATOM     61  C   UNL A   1      45.581  24.945  29.716  1.00  0.00     0.029 A 
ATOM     62  C   UNL A   1      44.754  24.635  30.779  1.00  0.00     0.049 A 
ATOM     63  H   UNL A   1      43.003  23.465  30.814  1.00  0.00     0.167 HD
ATOM     64  C   UNL A   1      44.727  26.322  32.452  1.00  0.00     0.074 A 
ATOM     65  C   UNL A   1      44.947  27.136  33.632  1.00  0.00     0.031 C 
ATOM     66  C   UNL A   1      44.826  24.987  32.190  1.00  0.00     0.037 A 
BRANCH  53  67
ATOM     67  C   UNL A   1      42.889  22.050  27.107  1.00  0.00     0.057 A 
ATOM     68  C   UNL A   1      42.132  20.873  27.243  1.00  0.00     0.134 A 
ATOM     69  C   UNL A   1      43.804  22.043  26.041  1.00  0.00     0.134 A 
ATOM     70  F   UNL A   1      41.135  20.771  28.129  1.00  0.00    -0.206 F 
ATOM     71  C   UNL A   1      42.376  19.726  26.478  1.00  0.00     0.040 A 
ATOM     72  C   UNL A   1      44.098  20.888  25.304  1.00  0.00     0.040 A 
ATOM     73  F   UNL A   1      44.447  23.162  25.675  1.00  0.00    -0.206 F 
ATOM     74  C   UNL A   1      43.394  19.715  25.537  1.00  0.00     0.006 A 
ENDBRANCH  53  67
BRANCH  54  75
ATOM     75  C   UNL A   1      42.443  30.407  31.988  1.00  0.00     0.057 A 
ATOM     76  C   UNL A   1      42.534  31.797  31.810  1.00  0.00     0.134 A 
ATOM     77  C   UNL A   1      41.206  29.886  32.378  1.00  0.00     0.134 A 
ATOM     78  F   UNL A   1      43.694  32.359  31.432  1.00  0.00    -0.206 F 
ATOM     79  C   UNL A   1      41.405  32.615  31.876  1.00  0.00     0.040 A 
ATOM     80  C   UNL A   1      40.071  30.700  32.451  1.00  0.00     0.040 A 
ATOM     81  F   UNL A   1      41.042  28.567  32.538  1.00  0.00    -0.206 F 
ATOM     82  C   UNL A   1      40.160  32.058  32.151  1.00  0.00     0.006 A 
ENDBRANCH  54  75
BRANCH  66  83
ATOM     83  C   UNL A   1      45.098  23.920  33.216  1.00  0.00     0.057 A 
ATOM     84  C   UNL A   1      46.315  23.779  33.898  1.00  0.00     0.134 A 
ATOM     85  C   UNL A   1      44.065  23.056  33.639  1.00  0.00     0.134 A 
ATOM     86  F   UNL A   1      47.341  24.612  33.680  1.00  0.00    -0.206 F 
ATOM     87  C   UNL A   1      46.516  22.798  34.880  1.00  0.00     0.040 A 
ATOM     88  C   UNL A   1      44.238  22.108  34.651  1.00  0.00     0.040 A 
ATOM     89  F   UNL A   1      42.839  23.112  33.097  1.00  0.00    -0.206 F 
ATOM     90  C   UNL A   1      45.474  21.964  35.264  1.00  0.00     0.006 A 
ENDBRANCH  66  83
ENDBRANCH  40  41
ENDBRANCH  32  35
ENDBRANCH  30  31
ENDBRANCH   1  30
TORSDOF 12
ENDMDL
MODEL 2
REMARK VINA RESULT:     -13.7      2.579      3.831
REMARK SMILES Cc1ccccc1[C@@H]1[NH2+][C@@H](C(=O)NCCCCNC(=O)c2ccc(-c3c4nc(c(-c5c(F)cccc5F)c5ccc([nH]5)c(-c5c(F)cccc5F)c5nc(c(-c6c(F)cccc6F)c6ccc3[nH]6)C=C5)C=C4)cc2)CC2=c3ccccc3=N[C@@H]21
REMARK SMILES IDX 16 1 15 2 14 3 13 4 11 5 12 6 10 8 8 9 9 10 84 11 76 14
REMARK SMILES IDX 83 15 75 16 77 17 82 18 78 19 81 20 79 21 80 22 7 23 1 24
REMARK SMILES IDX 2 25 3 26 4 27 6 28 5 29 17 30 18 31 19 32 20 34 21 35 22 36
REMARK SMILES IDX 74 37 23 38 73 39 24 40 25 41 26 42 67 43 27 44 72 45 66 46
REMARK SMILES IDX 68 47 28 48 71 49 65 50 64 51 29 53 55 54 38 55 54 56 39 57
REMARK SMILES IDX 42 58 53 59 69 60 40 61 41 62 52 64 70 65 43 66 30 67 31 68
REMARK SMILES IDX 36 69 32 70 33 71 35 72 37 73 34 74 56 75 57 76 62 77 58 78
REMARK SMILES IDX 59 79 61 80 63 81 60 82 44 83 45 84 50 85 46 86 47 87 49 88
REMARK SMILES IDX 51 89 48 90
REMARK H PARENT 13 7 9 12 9 13 18 33 68 52 42 63
REMARK Flexibility Score: inf
ROOT
ATOM      1  C   UNL A   1      32.093  29.205  26.733  1.00  0.00     0.023 C 
ENDROOT
BRANCH   1   2
ATOM      2  C   UNL A   1      32.424  27.803  27.312  1.00  0.00     0.023 C 
BRANCH   2   3
ATOM      3  C   UNL A   1      32.144  26.471  26.545  1.00  0.00     0.116 C 
BRANCH   3   4
ATOM      4  N   UNL A   1      31.131  25.427  26.828  1.00  0.00    -0.351 N 
ATOM      5  C   UNL A   1      31.073  24.059  26.589  1.00  0.00     0.278 C 
ATOM      6  O   UNL A   1      30.342  23.327  27.251  1.00  0.00    -0.268 OA
ATOM      7  H   UNL A   1      30.330  25.776  27.280  1.00  0.00     0.163 HD
BRANCH   5   8
ATOM      8  C   UNL A   1      31.900  23.576  25.420  1.00  0.00     0.277 C 
ATOM      9  C   UNL A   1      31.587  24.909  23.344  1.00  0.00     0.243 C 
ATOM     10  N   UNL A   1      32.187  24.814  24.682  1.00  0.00    -0.327 N 
ATOM     11  C   UNL A   1      32.527  23.885  22.547  1.00  0.00     0.196 C 
ATOM     12  H   UNL A   1      31.843  25.597  25.237  1.00  0.00     0.347 HD
ATOM     13  H   UNL A   1      33.197  24.824  24.537  1.00  0.00     0.347 HD
ATOM     14  C   UNL A   1      32.534  22.548  23.354  1.00  0.00    -0.024 C 
ATOM     15  N   UNL A   1      33.984  24.290  22.600  1.00  0.00    -0.270 NA
ATOM     16  C   UNL A   1      31.478  22.436  24.466  1.00  0.00     0.109 C 
ATOM     17  C   UNL A   1      33.783  22.124  23.607  1.00  0.00     0.002 A 
ATOM     18  C   UNL A   1      34.587  23.300  23.198  1.00  0.00     0.066 A 
ATOM     19  C   UNL A   1      34.269  21.226  24.626  1.00  0.00     0.010 A 
ATOM     20  C   UNL A   1      35.992  23.326  23.697  1.00  0.00     0.028 A 
ATOM     21  C   UNL A   1      35.501  21.395  25.131  1.00  0.00     0.001 A 
ATOM     22  C   UNL A   1      36.381  22.429  24.622  1.00  0.00     0.002 A 
BRANCH   9  23
ATOM     23  C   UNL A   1      31.269  26.404  23.102  1.00  0.00     0.015 A 
ATOM     24  C   UNL A   1      28.870  26.328  23.980  1.00  0.00     0.045 C 
ATOM     25  C   UNL A   1      30.065  27.048  23.433  1.00  0.00    -0.042 A 
ATOM     26  C   UNL A   1      29.998  28.469  23.409  1.00  0.00     0.004 A 
ATOM     27  C   UNL A   1      31.089  29.267  23.064  1.00  0.00     0.000 A 
ATOM     28  C   UNL A   1      32.366  27.273  22.794  1.00  0.00     0.010 A 
ATOM     29  C   UNL A   1      32.285  28.664  22.751  1.00  0.00     0.001 A 
ENDBRANCH   9  23
ENDBRANCH   5   8
ENDBRANCH   3   4
ENDBRANCH   2   3
ENDBRANCH   1   2
BRANCH   1  30
ATOM     30  C   UNL A   1      33.299  30.086  26.464  1.00  0.00     0.116 C 
BRANCH  30  31
ATOM     31  N   UNL A   1      33.486  31.170  27.411  1.00  0.00    -0.352 N 
ATOM     32  C   UNL A   1      34.491  31.272  28.403  1.00  0.00     0.251 C 
ATOM     33  H   UNL A   1      32.845  31.916  27.357  1.00  0.00     0.163 HD
ATOM     34  O   UNL A   1      34.554  32.213  29.151  1.00  0.00    -0.269 OA
BRANCH  32  35
ATOM     35  C   UNL A   1      35.526  30.223  28.378  1.00  0.00     0.039 A 
ATOM     36  C   UNL A   1      35.900  29.702  29.621  1.00  0.00     0.014 A 
ATOM     37  C   UNL A   1      36.369  30.129  27.271  1.00  0.00     0.014 A 
ATOM     38  C   UNL A   1      37.231  29.354  29.826  1.00  0.00     0.010 A 
ATOM     39  C   UNL A   1      37.711  29.868  27.496  1.00  0.00     0.010 A 
ATOM     40  C   UNL A   1      38.151  29.566  28.791  1.00  0.00    -0.014 A 
BRANCH  40  41
ATOM     41  C   UNL A   1      39.589  29.585  29.051  1.00  0.00     0.031 A 
ATOM     42  C   UNL A   1      40.370  28.364  28.806  1.00  0.00     0.074 A 
ATOM     43  C   UNL A   1      40.212  30.619  29.662  1.00  0.00     0.049 A 
ATOM     44  N   UNL A   1      41.222  27.881  29.649  1.00  0.00    -0.248 NA
ATOM     45  C   UNL A   1      40.199  27.564  27.604  1.00  0.00     0.031 C 
ATOM     46  C   UNL A   1      41.643  30.751  29.926  1.00  0.00     0.029 A 
ATOM     47  N   UNL A   1      39.637  31.662  30.380  1.00  0.00    -0.354 N 
ATOM     48  C   UNL A   1      41.889  26.870  29.005  1.00  0.00     0.074 A 
ATOM     49  C   UNL A   1      41.165  26.657  27.768  1.00  0.00     0.031 C 
ATOM     50  C   UNL A   1      41.811  31.589  30.962  1.00  0.00     0.029 A 
ATOM     51  C   UNL A   1      40.494  31.970  31.446  1.00  0.00     0.049 A 
ATOM     52  H   UNL A   1      38.781  32.106  30.177  1.00  0.00     0.167 HD
ATOM     53  C   UNL A   1      43.076  26.405  29.486  1.00  0.00     0.037 A 
ATOM     54  C   UNL A   1      40.104  32.068  32.747  1.00  0.00     0.037 A 
ATOM     55  C   UNL A   1      43.520  27.142  30.663  1.00  0.00     0.049 A 
ATOM     56  C   UNL A   1      40.849  31.116  33.651  1.00  0.00     0.074 A 
ATOM     57  C   UNL A   1      44.393  28.210  30.802  1.00  0.00     0.029 A 
ATOM     58  N   UNL A   1      42.838  27.035  31.871  1.00  0.00    -0.354 N 
ATOM     59  N   UNL A   1      41.612  30.156  33.212  1.00  0.00    -0.248 NA
ATOM     60  C   UNL A   1      40.708  31.100  35.105  1.00  0.00     0.031 C 
ATOM     61  C   UNL A   1      44.218  28.763  32.089  1.00  0.00     0.029 A 
ATOM     62  C   UNL A   1      43.237  28.036  32.739  1.00  0.00     0.049 A 
ATOM     63  H   UNL A   1      42.167  26.346  32.078  1.00  0.00     0.167 HD
ATOM     64  C   UNL A   1      41.970  29.349  34.260  1.00  0.00     0.074 A 
ATOM     65  C   UNL A   1      41.420  30.008  35.430  1.00  0.00     0.031 C 
ATOM     66  C   UNL A   1      42.648  28.182  34.062  1.00  0.00     0.037 A 
BRANCH  53  67
ATOM     67  C   UNL A   1      43.963  25.534  28.633  1.00  0.00     0.057 A 
ATOM     68  C   UNL A   1      43.988  24.136  28.781  1.00  0.00     0.134 A 
ATOM     69  C   UNL A   1      44.875  26.045  27.693  1.00  0.00     0.134 A 
ATOM     70  F   UNL A   1      43.099  23.489  29.542  1.00  0.00    -0.206 F 
ATOM     71  C   UNL A   1      44.948  23.329  28.159  1.00  0.00     0.040 A 
ATOM     72  C   UNL A   1      45.875  25.259  27.106  1.00  0.00     0.040 A 
ATOM     73  F   UNL A   1      44.825  27.329  27.310  1.00  0.00    -0.206 F 
ATOM     74  C   UNL A   1      45.927  23.895  27.356  1.00  0.00     0.006 A 
ENDBRANCH  53  67
BRANCH  54  75
ATOM     75  C   UNL A   1      38.675  32.427  32.921  1.00  0.00     0.057 A 
ATOM     76  C   UNL A   1      38.287  33.760  32.706  1.00  0.00     0.134 A 
ATOM     77  C   UNL A   1      37.678  31.449  32.875  1.00  0.00     0.134 A 
ATOM     78  F   UNL A   1      39.198  34.745  32.733  1.00  0.00    -0.206 F 
ATOM     79  C   UNL A   1      36.987  34.084  32.316  1.00  0.00     0.040 A 
ATOM     80  C   UNL A   1      36.372  31.767  32.491  1.00  0.00     0.040 A 
ATOM     81  F   UNL A   1      37.983  30.156  33.044  1.00  0.00    -0.206 F 
ATOM     82  C   UNL A   1      36.037  33.079  32.161  1.00  0.00     0.006 A 
ENDBRANCH  54  75
BRANCH  66  83
ATOM     83  C   UNL A   1      42.898  27.135  35.113  1.00  0.00     0.057 A 
ATOM     84  C   UNL A   1      44.041  27.094  35.925  1.00  0.00     0.134 A 
ATOM     85  C   UNL A   1      41.904  26.182  35.423  1.00  0.00     0.134 A 
ATOM     86  F   UNL A   1      45.008  28.015  35.818  1.00  0.00    -0.206 F 
ATOM     87  C   UNL A   1      44.218  26.128  36.924  1.00  0.00     0.040 A 
ATOM     88  C   UNL A   1      42.048  25.245  36.449  1.00  0.00     0.040 A 
ATOM     89  F   UNL A   1      40.744  26.135  34.751  1.00  0.00    -0.206 F 
ATOM     90  C   UNL A   1      43.217  25.203  37.194  1.00  0.00     0.006 A 
ENDBRANCH  66  83
ENDBRANCH  40  41
ENDBRANCH  32  35
ENDBRANCH  30  31
ENDBRANCH   1  30
TORSDOF 12
ENDMDL
MODEL 3
REMARK VINA RESULT:     -13.6      1.174      2.043
REMARK SMILES Cc1ccccc1[C@@H]1[NH2+][C@@H](C(=O)NCCCCNC(=O)c2ccc(-c3c4nc(c(-c5c(F)cccc5F)c5ccc([nH]5)c(-c5c(F)cccc5F)c5nc(c(-c6c(F)cccc6F)c6ccc3[nH]6)C=C5)C=C4)cc2)CC2=c3ccccc3=N[C@@H]21
REMARK SMILES IDX 16 1 15 2 14 3 13 4 11 5 12 6 10 8 8 9 9 10 84 11 76 14
REMARK SMILES IDX 83 15 75 16 77 17 82 18 78 19 81 20 79 21 80 22 7 23 1 24
REMARK SMILES IDX 2 25 3 26 4 27 6 28 5 29 17 30 18 31 19 32 20 34 21 35 22 36
REMARK SMILES IDX 74 37 23 38 73 39 24 40 25 41 26 42 67 43 27 44 72 45 66 46
REMARK SMILES IDX 68 47 28 48 71 49 65 50 64 51 29 53 55 54 38 55 54 56 39 57
REMARK SMILES IDX 42 58 53 59 69 60 40 61 41 62 52 64 70 65 43 66 30 67 31 68
REMARK SMILES IDX 36 69 32 70 33 71 35 72 37 73 34 74 56 75 57 76 62 77 58 78
REMARK SMILES IDX 59 79 61 80 63 81 60 82 44 83 45 84 50 85 46 86 47 87 49 88
REMARK SMILES IDX 51 89 48 90
REMARK H PARENT 13 7 9 12 9 13 18 33 68 52 42 63
REMARK Flexibility Score: inf
ROOT
ATOM      1  C   UNL A   1      33.190  31.780  27.320  1.00  0.00     0.023 C 
ENDROOT
BRANCH   1   2
ATOM      2  C   UNL A   1      32.060  30.852  26.800  1.00  0.00     0.023 C 
BRANCH   2   3
ATOM      3  C   UNL A   1      32.235  29.888  25.584  1.00  0.00     0.116 C 
BRANCH   3   4
ATOM      4  N   UNL A   1      33.408  29.708  24.697  1.00  0.00    -0.351 N 
ATOM      5  C   UNL A   1      33.799  28.707  23.816  1.00  0.00     0.278 C 
ATOM      6  O   UNL A   1      34.582  28.935  22.898  1.00  0.00    -0.268 OA
ATOM      7  H   UNL A   1      34.047  30.455  24.742  1.00  0.00     0.163 HD
BRANCH   5   8
ATOM      8  C   UNL A   1      33.258  27.330  24.128  1.00  0.00     0.277 C 
ATOM      9  C   UNL A   1      30.775  27.200  24.136  1.00  0.00     0.243 C 
ATOM     10  N   UNL A   1      32.013  27.278  23.349  1.00  0.00    -0.327 N 
ATOM     11  C   UNL A   1      30.858  25.678  24.631  1.00  0.00     0.196 C 
ATOM     12  H   UNL A   1      31.967  28.118  22.773  1.00  0.00     0.347 HD
ATOM     13  H   UNL A   1      32.057  26.412  22.811  1.00  0.00     0.347 HD
ATOM     14  C   UNL A   1      32.262  25.487  25.285  1.00  0.00    -0.024 C 
ATOM     15  N   UNL A   1      30.916  24.705  23.475  1.00  0.00    -0.270 NA
ATOM     16  C   UNL A   1      33.052  26.778  25.556  1.00  0.00     0.109 C 
ATOM     17  C   UNL A   1      32.913  24.430  24.770  1.00  0.00     0.002 A 
ATOM     18  C   UNL A   1      32.056  24.087  23.612  1.00  0.00     0.066 A 
ATOM     19  C   UNL A   1      34.324  24.129  24.750  1.00  0.00     0.010 A 
ATOM     20  C   UNL A   1      32.680  23.199  22.589  1.00  0.00     0.028 A 
ATOM     21  C   UNL A   1      34.844  23.440  23.722  1.00  0.00     0.001 A 
ATOM     22  C   UNL A   1      33.997  22.934  22.659  1.00  0.00     0.002 A 
BRANCH   9  23
ATOM     23  C   UNL A   1      29.688  27.956  23.334  1.00  0.00     0.015 A 
ATOM     24  C   UNL A   1      27.704  26.598  24.200  1.00  0.00     0.045 C 
ATOM     25  C   UNL A   1      28.306  27.715  23.401  1.00  0.00    -0.042 A 
ATOM     26  C   UNL A   1      27.399  28.648  22.827  1.00  0.00     0.004 A 
ATOM     27  C   UNL A   1      27.827  29.812  22.185  1.00  0.00     0.000 A 
ATOM     28  C   UNL A   1      30.067  29.183  22.699  1.00  0.00     0.010 A 
ATOM     29  C   UNL A   1      29.174  30.082  22.118  1.00  0.00     0.001 A 
ENDBRANCH   9  23
ENDBRANCH   5   8
ENDBRANCH   3   4
ENDBRANCH   2   3
ENDBRANCH   1   2
BRANCH   1  30
ATOM     30  C   UNL A   1      34.388  31.060  27.911  1.00  0.00     0.116 C 
BRANCH  30  31
ATOM     31  N   UNL A   1      34.893  31.626  29.148  1.00  0.00    -0.352 N 
ATOM     32  C   UNL A   1      35.965  31.137  29.935  1.00  0.00     0.251 C 
ATOM     33  H   UNL A   1      34.442  32.437  29.477  1.00  0.00     0.163 HD
ATOM     34  O   UNL A   1      36.301  31.677  30.957  1.00  0.00    -0.269 OA
BRANCH  32  35
ATOM     35  C   UNL A   1      36.721  30.012  29.359  1.00  0.00     0.039 A 
ATOM     36  C   UNL A   1      37.186  29.057  30.270  1.00  0.00     0.014 A 
ATOM     37  C   UNL A   1      37.311  30.161  28.104  1.00  0.00     0.014 A 
ATOM     38  C   UNL A   1      38.423  28.462  30.041  1.00  0.00     0.010 A 
ATOM     39  C   UNL A   1      38.581  29.639  27.917  1.00  0.00     0.010 A 
ATOM     40  C   UNL A   1      39.167  28.862  28.924  1.00  0.00    -0.014 A 
BRANCH  40  41
ATOM     41  C   UNL A   1      40.597  28.574  28.826  1.00  0.00     0.031 A 
ATOM     42  C   UNL A   1      41.023  27.264  28.314  1.00  0.00     0.074 A 
ATOM     43  C   UNL A   1      41.547  29.389  29.338  1.00  0.00     0.049 A 
ATOM     44  N   UNL A   1      41.918  26.530  28.889  1.00  0.00    -0.248 NA
ATOM     45  C   UNL A   1      40.419  26.659  27.137  1.00  0.00     0.031 C 
ATOM     46  C   UNL A   1      42.996  29.212  29.255  1.00  0.00     0.029 A 
ATOM     47  N   UNL A   1      41.385  30.431  30.246  1.00  0.00    -0.354 N 
ATOM     48  C   UNL A   1      42.191  25.493  28.032  1.00  0.00     0.074 A 
ATOM     49  C   UNL A   1      41.180  25.571  26.998  1.00  0.00     0.031 C 
ATOM     50  C   UNL A   1      43.566  29.874  30.274  1.00  0.00     0.029 A 
ATOM     51  C   UNL A   1      42.504  30.440  31.089  1.00  0.00     0.049 A 
ATOM     52  H   UNL A   1      40.621  31.051  30.288  1.00  0.00     0.167 HD
ATOM     53  C   UNL A   1      43.328  24.756  28.176  1.00  0.00     0.037 A 
ATOM     54  C   UNL A   1      42.446  30.456  32.450  1.00  0.00     0.037 A 
ATOM     55  C   UNL A   1      44.171  25.249  29.258  1.00  0.00     0.049 A 
ATOM     56  C   UNL A   1      43.152  29.279  33.076  1.00  0.00     0.074 A 
ATOM     57  C   UNL A   1      45.261  26.106  29.255  1.00  0.00     0.029 A 
ATOM     58  N   UNL A   1      43.771  25.133  30.585  1.00  0.00    -0.354 N 
ATOM     59  N   UNL A   1      43.573  28.249  32.399  1.00  0.00    -0.248 NA
ATOM     60  C   UNL A   1      43.340  29.118  34.517  1.00  0.00     0.031 C 
ATOM     61  C   UNL A   1      45.502  26.525  30.581  1.00  0.00     0.029 A 
ATOM     62  C   UNL A   1      44.559  25.929  31.397  1.00  0.00     0.049 A 
ATOM     63  H   UNL A   1      43.032  24.565  30.901  1.00  0.00     0.167 HD
ATOM     64  C   UNL A   1      43.976  27.270  33.270  1.00  0.00     0.074 A 
ATOM     65  C   UNL A   1      43.856  27.879  34.581  1.00  0.00     0.031 C 
ATOM     66  C   UNL A   1      44.326  26.027  32.831  1.00  0.00     0.037 A 
BRANCH  53  67
ATOM     67  C   UNL A   1      43.794  23.838  27.074  1.00  0.00     0.057 A 
ATOM     68  C   UNL A   1      44.579  24.306  26.006  1.00  0.00     0.134 A 
ATOM     69  C   UNL A   1      43.423  22.485  26.986  1.00  0.00     0.134 A 
ATOM     70  F   UNL A   1      45.114  25.532  26.004  1.00  0.00    -0.206 F 
ATOM     71  C   UNL A   1      44.843  23.534  24.869  1.00  0.00     0.040 A 
ATOM     72  C   UNL A   1      43.631  21.718  25.833  1.00  0.00     0.040 A 
ATOM     73  F   UNL A   1      42.844  21.860  28.022  1.00  0.00    -0.206 F 
ATOM     74  C   UNL A   1      44.328  22.251  24.758  1.00  0.00     0.006 A 
ENDBRANCH  53  67
BRANCH  54  75
ATOM     75  C   UNL A   1      41.203  31.059  32.991  1.00  0.00     0.057 A 
ATOM     76  C   UNL A   1      40.141  30.209  33.339  1.00  0.00     0.134 A 
ATOM     77  C   UNL A   1      41.210  32.343  33.544  1.00  0.00     0.134 A 
ATOM     78  F   UNL A   1      40.079  28.963  32.845  1.00  0.00    -0.206 F 
ATOM     79  C   UNL A   1      39.207  30.573  34.310  1.00  0.00     0.040 A 
ATOM     80  C   UNL A   1      40.274  32.717  34.512  1.00  0.00     0.040 A 
ATOM     81  F   UNL A   1      42.208  33.196  33.276  1.00  0.00    -0.206 F 
ATOM     82  C   UNL A   1      39.301  31.813  34.934  1.00  0.00     0.006 A 
ENDBRANCH  54  75
BRANCH  66  83
ATOM     83  C   UNL A   1      44.575  24.835  33.714  1.00  0.00     0.057 A 
ATOM     84  C   UNL A   1      43.578  24.188  34.461  1.00  0.00     0.134 A 
ATOM     85  C   UNL A   1      45.844  24.217  33.741  1.00  0.00     0.134 A 
ATOM     86  F   UNL A   1      42.303  24.598  34.428  1.00  0.00    -0.206 F 
ATOM     87  C   UNL A   1      43.841  23.052  35.238  1.00  0.00     0.040 A 
ATOM     88  C   UNL A   1      46.106  23.056  34.473  1.00  0.00     0.040 A 
ATOM     89  F   UNL A   1      46.877  24.709  33.041  1.00  0.00    -0.206 F 
ATOM     90  C   UNL A   1      45.106  22.478  35.241  1.00  0.00     0.006 A 
ENDBRANCH  66  83
ENDBRANCH  40  41
ENDBRANCH  32  35
ENDBRANCH  30  31
ENDBRANCH   1  30
TORSDOF 12
ENDMDL
