MODEL 1
REMARK VINA RESULT:     -11.7      0.000      0.000
REMARK SMILES CC[C@@](C)([NH3+])C(=O)Nc1cc(C(=O)NCCCCNC(=O)c2ccc(-c3c4nc(c(-c5c(F)cccc5F)c5ccc([nH]5)c(-c5c(F)cccc5F)c5nc(c(-c6c(F)cccc6F)c6ccc3[nH]6)C=C5)C=C4)cc2)cc(C(F)(F)F)c1
REMARK SMILES IDX 16 1 15 2 14 3 12 4 13 5 11 7 9 8 10 9 82 10 77 11 76 12
REMARK SMILES IDX 8 13 6 14 7 15 3 17 4 18 2 19 1 20 5 21 78 25 79 26 80 27
REMARK SMILES IDX 81 28 17 29 18 30 19 31 20 32 21 34 22 35 23 36 75 37 24 38
REMARK SMILES IDX 74 39 25 40 26 41 27 42 68 43 28 44 73 45 67 46 69 47 29 48
REMARK SMILES IDX 72 49 66 50 65 51 30 53 56 54 39 55 55 56 40 57 43 58 54 59
REMARK SMILES IDX 70 60 41 61 42 62 53 64 71 65 44 66 31 67 32 68 37 69 33 70
REMARK SMILES IDX 34 71 36 72 38 73 35 74 57 75 58 76 63 77 59 78 60 79 62 80
REMARK SMILES IDX 64 81 61 82 45 83 46 84 51 85 47 86 48 87 50 88 52 89 49 90
REMARK H PARENT 14 6 8 16 5 22 5 23 5 24 19 33 69 52 43 63
REMARK Flexibility Score: inf
ROOT
ATOM      1  C   UNL A   1      37.191  21.135  24.639  1.00  0.00     0.023 C 
ENDROOT
BRANCH   1   2
ATOM      2  C   UNL A   1      35.876  21.071  25.394  1.00  0.00     0.116 C 
BRANCH   2   3
ATOM      3  N   UNL A   1      34.980  19.981  25.027  1.00  0.00    -0.352 N 
ATOM      4  C   UNL A   1      33.664  20.002  24.601  1.00  0.00     0.251 C 
ATOM      5  O   UNL A   1      33.099  18.946  24.327  1.00  0.00    -0.269 OA
ATOM      6  H   UNL A   1      35.376  19.082  25.092  1.00  0.00     0.163 HD
BRANCH   4   7
ATOM      7  C   UNL A   1      32.898  21.277  24.540  1.00  0.00     0.042 A 
ATOM      8  C   UNL A   1      31.920  23.063  23.262  1.00  0.00     0.042 A 
ATOM      9  C   UNL A   1      32.776  21.966  23.325  1.00  0.00     0.040 A 
ATOM     10  C   UNL A   1      31.004  23.259  24.288  1.00  0.00     0.039 A 
ATOM     11  C   UNL A   1      31.201  22.673  25.533  1.00  0.00     0.058 A 
ATOM     12  C   UNL A   1      32.264  21.787  25.673  1.00  0.00     0.027 A 
BRANCH   8  13
ATOM     13  N   UNL A   1      31.969  23.947  22.180  1.00  0.00    -0.321 N 
ATOM     14  C   UNL A   1      32.208  25.310  22.180  1.00  0.00     0.285 C 
ATOM     15  O   UNL A   1      31.952  25.913  21.129  1.00  0.00    -0.267 OA
ATOM     16  H   UNL A   1      31.810  23.544  21.295  1.00  0.00     0.170 HD
BRANCH  14  17
ATOM     17  C   UNL A   1      32.925  26.051  23.396  1.00  0.00     0.171 C 
ATOM     18  C   UNL A   1      31.906  26.417  24.491  1.00  0.00     0.090 C 
BRANCH  17  19
ATOM     19  C   UNL A   1      34.050  25.160  23.997  1.00  0.00     0.075 C 
ATOM     20  C   UNL A   1      34.212  25.213  25.511  1.00  0.00     0.011 C 
ENDBRANCH  17  19
BRANCH  17  21
ATOM     21  N   UNL A   1      33.624  27.275  22.932  1.00  0.00    -0.345 N 
ATOM     22  H   UNL A   1      34.214  27.636  23.683  1.00  0.00     0.345 HD
ATOM     23  H   UNL A   1      32.937  27.982  22.671  1.00  0.00     0.345 HD
ATOM     24  H   UNL A   1      34.204  27.050  22.123  1.00  0.00     0.345 HD
ENDBRANCH  17  21
ENDBRANCH  14  17
ENDBRANCH   8  13
BRANCH  11  25
ATOM     25  C   UNL A   1      30.266  22.923  26.682  1.00  0.00     0.416 C 
ATOM     26  F   UNL A   1      30.904  22.819  27.880  1.00  0.00    -0.166 F 
ATOM     27  F   UNL A   1      29.736  24.177  26.651  1.00  0.00    -0.166 F 
ATOM     28  F   UNL A   1      29.210  22.070  26.738  1.00  0.00    -0.166 F 
ENDBRANCH  11  25
ENDBRANCH   4   7
ENDBRANCH   2   3
ENDBRANCH   1   2
BRANCH   1  29
ATOM     29  C   UNL A   1      38.135  19.964  24.832  1.00  0.00     0.023 C 
BRANCH  29  30
ATOM     30  C   UNL A   1      39.271  20.184  25.822  1.00  0.00     0.116 C 
BRANCH  30  31
ATOM     31  N   UNL A   1      40.243  19.100  25.869  1.00  0.00    -0.352 N 
ATOM     32  C   UNL A   1      41.586  19.143  26.167  1.00  0.00     0.251 C 
ATOM     33  H   UNL A   1      39.888  18.206  25.657  1.00  0.00     0.163 HD
ATOM     34  O   UNL A   1      42.269  18.125  26.104  1.00  0.00    -0.269 OA
BRANCH  32  35
ATOM     35  C   UNL A   1      42.214  20.435  26.512  1.00  0.00     0.039 A 
ATOM     36  C   UNL A   1      42.717  21.235  25.484  1.00  0.00     0.014 A 
ATOM     37  C   UNL A   1      42.244  20.883  27.835  1.00  0.00     0.014 A 
ATOM     38  C   UNL A   1      43.153  22.530  25.770  1.00  0.00     0.010 A 
ATOM     39  C   UNL A   1      42.591  22.202  28.103  1.00  0.00     0.010 A 
ATOM     40  C   UNL A   1      43.042  23.042  27.074  1.00  0.00    -0.014 A 
BRANCH  40  41
ATOM     41  C   UNL A   1      43.375  24.455  27.383  1.00  0.00     0.031 A 
ATOM     42  C   UNL A   1      44.806  24.912  27.357  1.00  0.00     0.074 A 
ATOM     43  C   UNL A   1      42.403  25.302  27.775  1.00  0.00     0.049 A 
ATOM     44  N   UNL A   1      45.310  26.074  27.690  1.00  0.00    -0.248 NA
ATOM     45  C   UNL A   1      45.808  23.922  26.935  1.00  0.00     0.031 C 
ATOM     46  C   UNL A   1      40.983  24.966  27.902  1.00  0.00     0.029 A 
ATOM     47  N   UNL A   1      42.465  26.620  28.154  1.00  0.00    -0.354 N 
ATOM     48  C   UNL A   1      46.684  25.944  27.541  1.00  0.00     0.074 A 
ATOM     49  C   UNL A   1      46.940  24.579  27.140  1.00  0.00     0.031 C 
ATOM     50  C   UNL A   1      40.307  26.053  28.307  1.00  0.00     0.029 A 
ATOM     51  C   UNL A   1      41.247  27.151  28.504  1.00  0.00     0.049 A 
ATOM     52  H   UNL A   1      43.303  27.136  28.175  1.00  0.00     0.167 HD
ATOM     53  C   UNL A   1      47.645  26.885  27.701  1.00  0.00     0.037 A 
ATOM     54  C   UNL A   1      40.925  28.384  28.941  1.00  0.00     0.037 A 
ATOM     55  C   UNL A   1      47.385  28.253  28.063  1.00  0.00     0.049 A 
ATOM     56  C   UNL A   1      42.007  29.418  29.089  1.00  0.00     0.074 A 
ATOM     57  C   UNL A   1      48.282  29.300  28.176  1.00  0.00     0.029 A 
ATOM     58  N   UNL A   1      46.133  28.762  28.372  1.00  0.00    -0.354 N 
ATOM     59  N   UNL A   1      43.294  29.302  28.874  1.00  0.00    -0.248 NA
ATOM     60  C   UNL A   1      41.589  30.754  29.537  1.00  0.00     0.031 C 
ATOM     61  C   UNL A   1      47.579  30.436  28.591  1.00  0.00     0.029 A 
ATOM     62  C   UNL A   1      46.236  30.105  28.694  1.00  0.00     0.049 A 
ATOM     63  H   UNL A   1      45.294  28.246  28.365  1.00  0.00     0.167 HD
ATOM     64  C   UNL A   1      43.837  30.554  29.132  1.00  0.00     0.074 A 
ATOM     65  C   UNL A   1      42.737  31.416  29.510  1.00  0.00     0.031 C 
ATOM     66  C   UNL A   1      45.131  30.953  29.060  1.00  0.00     0.037 A 
BRANCH  53  67
ATOM     67  C   UNL A   1      49.067  26.461  27.474  1.00  0.00     0.057 A 
ATOM     68  C   UNL A   1      49.871  25.985  28.517  1.00  0.00     0.134 A 
ATOM     69  C   UNL A   1      49.632  26.512  26.194  1.00  0.00     0.134 A 
ATOM     70  F   UNL A   1      49.395  25.924  29.770  1.00  0.00    -0.206 F 
ATOM     71  C   UNL A   1      51.196  25.603  28.302  1.00  0.00     0.040 A 
ATOM     72  C   UNL A   1      50.947  26.107  25.961  1.00  0.00     0.040 A 
ATOM     73  F   UNL A   1      48.916  26.954  25.149  1.00  0.00    -0.206 F 
ATOM     74  C   UNL A   1      51.736  25.658  27.018  1.00  0.00     0.006 A 
ENDBRANCH  53  67
BRANCH  54  75
ATOM     75  C   UNL A   1      39.510  28.718  29.238  1.00  0.00     0.057 A 
ATOM     76  C   UNL A   1      38.665  29.223  28.242  1.00  0.00     0.134 A 
ATOM     77  C   UNL A   1      38.967  28.539  30.516  1.00  0.00     0.134 A 
ATOM     78  F   UNL A   1      39.134  29.433  27.004  1.00  0.00    -0.206 F 
ATOM     79  C   UNL A   1      37.337  29.554  28.510  1.00  0.00     0.040 A 
ATOM     80  C   UNL A   1      37.634  28.845  30.792  1.00  0.00     0.040 A 
ATOM     81  F   UNL A   1      39.723  28.051  31.510  1.00  0.00    -0.206 F 
ATOM     82  C   UNL A   1      36.815  29.360  29.788  1.00  0.00     0.006 A 
ENDBRANCH  54  75
BRANCH  66  83
ATOM     83  C   UNL A   1      45.423  32.392  29.363  1.00  0.00     0.057 A 
ATOM     84  C   UNL A   1      45.347  33.385  28.379  1.00  0.00     0.134 A 
ATOM     85  C   UNL A   1      45.742  32.793  30.666  1.00  0.00     0.134 A 
ATOM     86  F   UNL A   1      45.059  33.064  27.109  1.00  0.00    -0.206 F 
ATOM     87  C   UNL A   1      45.594  34.726  28.678  1.00  0.00     0.040 A 
ATOM     88  C   UNL A   1      45.968  34.133  30.983  1.00  0.00     0.040 A 
ATOM     89  F   UNL A   1      45.824  31.890  31.656  1.00  0.00    -0.206 F 
ATOM     90  C   UNL A   1      45.900  35.103  29.985  1.00  0.00     0.006 A 
ENDBRANCH  66  83
ENDBRANCH  40  41
ENDBRANCH  32  35
ENDBRANCH  30  31
ENDBRANCH  29  30
ENDBRANCH   1  29
TORSDOF 16
ENDMDL
MODEL 2
REMARK VINA RESULT:     -11.7      5.246     10.103
REMARK SMILES CC[C@@](C)([NH3+])C(=O)Nc1cc(C(=O)NCCCCNC(=O)c2ccc(-c3c4nc(c(-c5c(F)cccc5F)c5ccc([nH]5)c(-c5c(F)cccc5F)c5nc(c(-c6c(F)cccc6F)c6ccc3[nH]6)C=C5)C=C4)cc2)cc(C(F)(F)F)c1
REMARK SMILES IDX 16 1 15 2 14 3 12 4 13 5 11 7 9 8 10 9 82 10 77 11 76 12
REMARK SMILES IDX 8 13 6 14 7 15 3 17 4 18 2 19 1 20 5 21 78 25 79 26 80 27
REMARK SMILES IDX 81 28 17 29 18 30 19 31 20 32 21 34 22 35 23 36 75 37 24 38
REMARK SMILES IDX 74 39 25 40 26 41 27 42 68 43 28 44 73 45 67 46 69 47 29 48
REMARK SMILES IDX 72 49 66 50 65 51 30 53 56 54 39 55 55 56 40 57 43 58 54 59
REMARK SMILES IDX 70 60 41 61 42 62 53 64 71 65 44 66 31 67 32 68 37 69 33 70
REMARK SMILES IDX 34 71 36 72 38 73 35 74 57 75 58 76 63 77 59 78 60 79 62 80
REMARK SMILES IDX 64 81 61 82 45 83 46 84 51 85 47 86 48 87 50 88 52 89 49 90
REMARK H PARENT 14 6 8 16 5 22 5 23 5 24 19 33 69 52 43 63
REMARK Flexibility Score: inf
ROOT
ATOM      1  C   UNL A   1      31.648  30.650  25.753  1.00  0.00     0.023 C 
ENDROOT
BRANCH   1   2
ATOM      2  C   UNL A   1      32.810  29.681  25.871  1.00  0.00     0.116 C 
BRANCH   2   3
ATOM      3  N   UNL A   1      33.653  29.547  24.689  1.00  0.00    -0.352 N 
ATOM      4  C   UNL A   1      33.402  28.946  23.467  1.00  0.00     0.251 C 
ATOM      5  O   UNL A   1      34.266  28.964  22.595  1.00  0.00    -0.269 OA
ATOM      6  H   UNL A   1      34.548  29.950  24.772  1.00  0.00     0.163 HD
BRANCH   4   7
ATOM      7  C   UNL A   1      32.130  28.213  23.221  1.00  0.00     0.042 A 
ATOM      8  C   UNL A   1      30.806  26.215  23.409  1.00  0.00     0.042 A 
ATOM      9  C   UNL A   1      32.049  26.839  23.490  1.00  0.00     0.040 A 
ATOM     10  C   UNL A   1      29.662  27.002  23.362  1.00  0.00     0.039 A 
ATOM     11  C   UNL A   1      29.735  28.333  22.971  1.00  0.00     0.058 A 
ATOM     12  C   UNL A   1      30.996  28.880  22.758  1.00  0.00     0.027 A 
BRANCH   8  13
ATOM     13  N   UNL A   1      30.706  24.820  23.387  1.00  0.00    -0.321 N 
ATOM     14  C   UNL A   1      30.820  23.923  24.434  1.00  0.00     0.285 C 
ATOM     15  O   UNL A   1      30.943  22.730  24.125  1.00  0.00    -0.267 OA
ATOM     16  H   UNL A   1      30.530  24.422  22.504  1.00  0.00     0.170 HD
BRANCH  14  17
ATOM     17  C   UNL A   1      30.642  24.361  25.957  1.00  0.00     0.171 C 
ATOM     18  C   UNL A   1      30.554  23.127  26.874  1.00  0.00     0.090 C 
BRANCH  17  19
ATOM     19  C   UNL A   1      31.818  25.274  26.409  1.00  0.00     0.075 C 
ATOM     20  C   UNL A   1      31.439  26.671  26.883  1.00  0.00     0.011 C 
ENDBRANCH  17  19
BRANCH  17  21
ATOM     21  N   UNL A   1      29.429  25.200  26.128  1.00  0.00    -0.345 N 
ATOM     22  H   UNL A   1      28.597  24.616  26.048  1.00  0.00     0.345 HD
ATOM     23  H   UNL A   1      29.409  25.921  25.406  1.00  0.00     0.345 HD
ATOM     24  H   UNL A   1      29.448  25.641  27.048  1.00  0.00     0.345 HD
ENDBRANCH  17  21
ENDBRANCH  14  17
ENDBRANCH   8  13
BRANCH  11  25
ATOM     25  C   UNL A   1      28.507  29.189  22.844  1.00  0.00     0.416 C 
ATOM     26  F   UNL A   1      28.351  29.658  21.576  1.00  0.00    -0.166 F 
ATOM     27  F   UNL A   1      27.367  28.500  23.128  1.00  0.00    -0.166 F 
ATOM     28  F   UNL A   1      28.499  30.279  23.656  1.00  0.00    -0.166 F 
ENDBRANCH  11  25
ENDBRANCH   4   7
ENDBRANCH   2   3
ENDBRANCH   1   2
BRANCH   1  29
ATOM     29  C   UNL A   1      31.497  31.660  26.875  1.00  0.00     0.023 C 
BRANCH  29  30
ATOM     30  C   UNL A   1      32.754  32.436  27.243  1.00  0.00     0.116 C 
BRANCH  30  31
ATOM     31  N   UNL A   1      32.519  33.835  27.575  1.00  0.00    -0.352 N 
ATOM     32  C   UNL A   1      33.175  34.640  28.478  1.00  0.00     0.251 C 
ATOM     33  H   UNL A   1      31.785  34.267  27.081  1.00  0.00     0.163 HD
ATOM     34  O   UNL A   1      32.801  35.795  28.666  1.00  0.00    -0.269 OA
BRANCH  32  35
ATOM     35  C   UNL A   1      34.300  34.091  29.260  1.00  0.00     0.039 A 
ATOM     36  C   UNL A   1      34.027  33.192  30.294  1.00  0.00     0.014 A 
ATOM     37  C   UNL A   1      35.620  34.408  28.931  1.00  0.00     0.014 A 
ATOM     38  C   UNL A   1      35.081  32.530  30.928  1.00  0.00     0.010 A 
ATOM     39  C   UNL A   1      36.661  33.681  29.498  1.00  0.00     0.010 A 
ATOM     40  C   UNL A   1      36.403  32.729  30.496  1.00  0.00    -0.014 A 
BRANCH  40  41
ATOM     41  C   UNL A   1      37.529  31.946  31.060  1.00  0.00     0.031 A 
ATOM     42  C   UNL A   1      38.024  32.235  32.449  1.00  0.00     0.074 A 
ATOM     43  C   UNL A   1      38.165  31.038  30.293  1.00  0.00     0.049 A 
ATOM     44  N   UNL A   1      39.053  31.731  33.083  1.00  0.00    -0.248 NA
ATOM     45  C   UNL A   1      37.287  33.251  33.215  1.00  0.00     0.031 C 
ATOM     46  C   UNL A   1      37.822  30.708  28.908  1.00  0.00     0.029 A 
ATOM     47  N   UNL A   1      39.244  30.235  30.566  1.00  0.00    -0.354 N 
ATOM     48  C   UNL A   1      39.099  32.385  34.306  1.00  0.00     0.074 A 
ATOM     49  C   UNL A   1      38.029  33.359  34.306  1.00  0.00     0.031 C 
ATOM     50  C   UNL A   1      38.659  29.757  28.461  1.00  0.00     0.029 A 
ATOM     51  C   UNL A   1      39.619  29.438  29.512  1.00  0.00     0.049 A 
ATOM     52  H   UNL A   1      39.707  30.232  31.435  1.00  0.00     0.167 HD
ATOM     53  C   UNL A   1      39.941  32.177  35.347  1.00  0.00     0.037 A 
ATOM     54  C   UNL A   1      40.628  28.552  29.404  1.00  0.00     0.037 A 
ATOM     55  C   UNL A   1      40.980  31.182  35.359  1.00  0.00     0.049 A 
ATOM     56  C   UNL A   1      41.536  28.322  30.579  1.00  0.00     0.074 A 
ATOM     57  C   UNL A   1      41.836  30.843  36.392  1.00  0.00     0.029 A 
ATOM     58  N   UNL A   1      41.304  30.367  34.285  1.00  0.00    -0.354 N 
ATOM     59  N   UNL A   1      41.522  28.896  31.757  1.00  0.00    -0.248 NA
ATOM     60  C   UNL A   1      42.597  27.319  30.411  1.00  0.00     0.031 C 
ATOM     61  C   UNL A   1      42.704  29.847  35.931  1.00  0.00     0.029 A 
ATOM     62  C   UNL A   1      42.359  29.537  34.624  1.00  0.00     0.049 A 
ATOM     63  H   UNL A   1      40.851  30.377  33.410  1.00  0.00     0.167 HD
ATOM     64  C   UNL A   1      42.550  28.306  32.480  1.00  0.00     0.074 A 
ATOM     65  C   UNL A   1      43.161  27.323  31.611  1.00  0.00     0.031 C 
ATOM     66  C   UNL A   1      42.951  28.557  33.751  1.00  0.00     0.037 A 
BRANCH  53  67
ATOM     67  C   UNL A   1      39.762  33.042  36.560  1.00  0.00     0.057 A 
ATOM     68  C   UNL A   1      40.495  34.222  36.741  1.00  0.00     0.134 A 
ATOM     69  C   UNL A   1      38.831  32.701  37.549  1.00  0.00     0.134 A 
ATOM     70  F   UNL A   1      41.412  34.598  35.837  1.00  0.00    -0.206 F 
ATOM     71  C   UNL A   1      40.332  35.016  37.877  1.00  0.00     0.040 A 
ATOM     72  C   UNL A   1      38.639  33.501  38.676  1.00  0.00     0.040 A 
ATOM     73  F   UNL A   1      38.092  31.587  37.436  1.00  0.00    -0.206 F 
ATOM     74  C   UNL A   1      39.396  34.659  38.847  1.00  0.00     0.006 A 
ENDBRANCH  53  67
BRANCH  54  75
ATOM     75  C   UNL A   1      40.812  27.790  28.142  1.00  0.00     0.057 A 
ATOM     76  C   UNL A   1      40.209  26.540  27.962  1.00  0.00     0.134 A 
ATOM     77  C   UNL A   1      41.587  28.291  27.090  1.00  0.00     0.134 A 
ATOM     78  F   UNL A   1      39.469  26.001  28.941  1.00  0.00    -0.206 F 
ATOM     79  C   UNL A   1      40.384  25.807  26.788  1.00  0.00     0.040 A 
ATOM     80  C   UNL A   1      41.752  27.579  25.901  1.00  0.00     0.040 A 
ATOM     81  F   UNL A   1      42.184  29.487  27.199  1.00  0.00    -0.206 F 
ATOM     82  C   UNL A   1      41.153  26.330  25.750  1.00  0.00     0.006 A 
ENDBRANCH  54  75
BRANCH  66  83
ATOM     83  C   UNL A   1      44.081  27.731  34.290  1.00  0.00     0.057 A 
ATOM     84  C   UNL A   1      45.408  28.174  34.243  1.00  0.00     0.134 A 
ATOM     85  C   UNL A   1      43.830  26.497  34.904  1.00  0.00     0.134 A 
ATOM     86  F   UNL A   1      45.715  29.341  33.657  1.00  0.00    -0.206 F 
ATOM     87  C   UNL A   1      46.449  27.410  34.772  1.00  0.00     0.040 A 
ATOM     88  C   UNL A   1      44.859  25.735  35.458  1.00  0.00     0.040 A 
ATOM     89  F   UNL A   1      42.578  26.020  34.987  1.00  0.00    -0.206 F 
ATOM     90  C   UNL A   1      46.174  26.190  35.388  1.00  0.00     0.006 A 
ENDBRANCH  66  83
ENDBRANCH  40  41
ENDBRANCH  32  35
ENDBRANCH  30  31
ENDBRANCH  29  30
ENDBRANCH   1  29
TORSDOF 16
ENDMDL
MODEL 3
REMARK VINA RESULT:     -11.6      2.414      7.660
REMARK SMILES CC[C@@](C)([NH3+])C(=O)Nc1cc(C(=O)NCCCCNC(=O)c2ccc(-c3c4nc(c(-c5c(F)cccc5F)c5ccc([nH]5)c(-c5c(F)cccc5F)c5nc(c(-c6c(F)cccc6F)c6ccc3[nH]6)C=C5)C=C4)cc2)cc(C(F)(F)F)c1
REMARK SMILES IDX 16 1 15 2 14 3 12 4 13 5 11 7 9 8 10 9 82 10 77 11 76 12
REMARK SMILES IDX 8 13 6 14 7 15 3 17 4 18 2 19 1 20 5 21 78 25 79 26 80 27
REMARK SMILES IDX 81 28 17 29 18 30 19 31 20 32 21 34 22 35 23 36 75 37 24 38
REMARK SMILES IDX 74 39 25 40 26 41 27 42 68 43 28 44 73 45 67 46 69 47 29 48
REMARK SMILES IDX 72 49 66 50 65 51 30 53 56 54 39 55 55 56 40 57 43 58 54 59
REMARK SMILES IDX 70 60 41 61 42 62 53 64 71 65 44 66 31 67 32 68 37 69 33 70
REMARK SMILES IDX 34 71 36 72 38 73 35 74 57 75 58 76 63 77 59 78 60 79 62 80
REMARK SMILES IDX 64 81 61 82 45 83 46 84 51 85 47 86 48 87 50 88 52 89 49 90
REMARK H PARENT 14 6 8 16 5 22 5 23 5 24 19 33 69 52 43 63
REMARK Flexibility Score: inf
ROOT
ATOM      1  C   UNL A   1      33.644  28.857  24.414  1.00  0.00     0.023 C 
ENDROOT
BRANCH   1   2
ATOM      2  C   UNL A   1      32.849  28.924  23.124  1.00  0.00     0.116 C 
BRANCH   2   3
ATOM      3  N   UNL A   1      33.245  27.988  22.079  1.00  0.00    -0.352 N 
ATOM      4  C   UNL A   1      33.289  26.605  22.079  1.00  0.00     0.251 C 
ATOM      5  O   UNL A   1      33.647  26.010  21.065  1.00  0.00    -0.269 OA
ATOM      6  H   UNL A   1      33.528  28.408  21.234  1.00  0.00     0.163 HD
BRANCH   4   7
ATOM      7  C   UNL A   1      32.982  25.829  23.311  1.00  0.00     0.042 A 
ATOM      8  C   UNL A   1      33.723  24.569  25.220  1.00  0.00     0.042 A 
ATOM      9  C   UNL A   1      34.005  25.146  23.984  1.00  0.00     0.040 A 
ATOM     10  C   UNL A   1      32.553  24.929  25.878  1.00  0.00     0.039 A 
ATOM     11  C   UNL A   1      31.493  25.490  25.177  1.00  0.00     0.058 A 
ATOM     12  C   UNL A   1      31.689  25.795  23.834  1.00  0.00     0.027 A 
BRANCH   8  13
ATOM     13  N   UNL A   1      34.604  23.650  25.799  1.00  0.00    -0.321 N 
ATOM     14  C   UNL A   1      34.447  22.287  25.975  1.00  0.00     0.285 C 
ATOM     15  O   UNL A   1      35.254  21.735  26.735  1.00  0.00    -0.267 OA
ATOM     16  H   UNL A   1      35.454  24.025  26.126  1.00  0.00     0.170 HD
BRANCH  14  17
ATOM     17  C   UNL A   1      33.399  21.431  25.132  1.00  0.00     0.171 C 
ATOM     18  C   UNL A   1      31.966  21.663  25.644  1.00  0.00     0.090 C 
BRANCH  17  19
ATOM     19  C   UNL A   1      33.486  21.790  23.620  1.00  0.00     0.075 C 
ATOM     20  C   UNL A   1      32.159  22.008  22.905  1.00  0.00     0.011 C 
ENDBRANCH  17  19
BRANCH  17  21
ATOM     21  N   UNL A   1      33.726  19.984  25.192  1.00  0.00    -0.345 N 
ATOM     22  H   UNL A   1      34.215  19.782  26.065  1.00  0.00     0.345 HD
ATOM     23  H   UNL A   1      34.322  19.736  24.403  1.00  0.00     0.345 HD
ATOM     24  H   UNL A   1      32.864  19.439  25.151  1.00  0.00     0.345 HD
ENDBRANCH  17  21
ENDBRANCH  14  17
ENDBRANCH   8  13
BRANCH  11  25
ATOM     25  C   UNL A   1      30.190  25.826  25.847  1.00  0.00     0.416 C 
ATOM     26  F   UNL A   1      29.248  26.218  24.946  1.00  0.00    -0.166 F 
ATOM     27  F   UNL A   1      29.657  24.757  26.501  1.00  0.00    -0.166 F 
ATOM     28  F   UNL A   1      30.276  26.824  26.766  1.00  0.00    -0.166 F 
ENDBRANCH  11  25
ENDBRANCH   4   7
ENDBRANCH   2   3
ENDBRANCH   1   2
BRANCH   1  29
ATOM     29  C   UNL A   1      32.842  28.886  25.701  1.00  0.00     0.023 C 
BRANCH  29  30
ATOM     30  C   UNL A   1      33.654  28.909  26.989  1.00  0.00     0.116 C 
BRANCH  30  31
ATOM     31  N   UNL A   1      33.697  30.209  27.647  1.00  0.00    -0.352 N 
ATOM     32  C   UNL A   1      34.736  30.816  28.313  1.00  0.00     0.251 C 
ATOM     33  H   UNL A   1      32.861  30.728  27.608  1.00  0.00     0.163 HD
ATOM     34  O   UNL A   1      34.573  31.905  28.858  1.00  0.00    -0.269 OA
BRANCH  32  35
ATOM     35  C   UNL A   1      36.038  30.127  28.416  1.00  0.00     0.039 A 
ATOM     36  C   UNL A   1      36.920  30.188  27.335  1.00  0.00     0.014 A 
ATOM     37  C   UNL A   1      36.412  29.481  29.596  1.00  0.00     0.014 A 
ATOM     38  C   UNL A   1      38.219  29.694  27.476  1.00  0.00     0.010 A 
ATOM     39  C   UNL A   1      37.731  29.075  29.766  1.00  0.00     0.010 A 
ATOM     40  C   UNL A   1      38.650  29.184  28.712  1.00  0.00    -0.014 A 
BRANCH  40  41
ATOM     41  C   UNL A   1      40.059  28.772  28.931  1.00  0.00     0.031 A 
ATOM     42  C   UNL A   1      41.045  29.746  29.511  1.00  0.00     0.074 A 
ATOM     43  C   UNL A   1      40.472  27.554  28.527  1.00  0.00     0.049 A 
ATOM     44  N   UNL A   1      42.335  29.611  29.689  1.00  0.00    -0.248 NA
ATOM     45  C   UNL A   1      40.519  31.060  29.912  1.00  0.00     0.031 C 
ATOM     46  C   UNL A   1      39.628  26.538  27.893  1.00  0.00     0.029 A 
ATOM     47  N   UNL A   1      41.713  26.969  28.576  1.00  0.00    -0.354 N 
ATOM     48  C   UNL A   1      42.774  30.827  30.196  1.00  0.00     0.074 A 
ATOM     49  C   UNL A   1      41.625  31.703  30.249  1.00  0.00     0.031 C 
ATOM     50  C   UNL A   1      40.369  25.449  27.633  1.00  0.00     0.029 A 
ATOM     51  C   UNL A   1      41.746  25.702  28.046  1.00  0.00     0.049 A 
ATOM     52  H   UNL A   1      42.504  27.416  28.953  1.00  0.00     0.167 HD
ATOM     53  C   UNL A   1      44.018  31.173  30.605  1.00  0.00     0.037 A 
ATOM     54  C   UNL A   1      42.772  24.842  27.904  1.00  0.00     0.037 A 
ATOM     55  C   UNL A   1      45.151  30.287  30.587  1.00  0.00     0.049 A 
ATOM     56  C   UNL A   1      44.139  25.241  28.385  1.00  0.00     0.074 A 
ATOM     57  C   UNL A   1      46.434  30.520  31.050  1.00  0.00     0.029 A 
ATOM     58  N   UNL A   1      45.135  28.997  30.079  1.00  0.00    -0.354 N 
ATOM     59  N   UNL A   1      44.525  26.368  28.931  1.00  0.00    -0.248 NA
ATOM     60  C   UNL A   1      45.212  24.247  28.234  1.00  0.00     0.031 C 
ATOM     61  C   UNL A   1      47.206  29.383  30.787  1.00  0.00     0.029 A 
ATOM     62  C   UNL A   1      46.392  28.428  30.199  1.00  0.00     0.049 A 
ATOM     63  H   UNL A   1      44.348  28.552  29.688  1.00  0.00     0.167 HD
ATOM     64  C   UNL A   1      45.875  26.211  29.214  1.00  0.00     0.074 A 
ATOM     65  C   UNL A   1      46.239  24.876  28.789  1.00  0.00     0.031 C 
ATOM     66  C   UNL A   1      46.736  27.094  29.779  1.00  0.00     0.037 A 
BRANCH  53  67
ATOM     67  C   UNL A   1      44.209  32.572  31.113  1.00  0.00     0.057 A 
ATOM     68  C   UNL A   1      44.072  32.891  32.471  1.00  0.00     0.134 A 
ATOM     69  C   UNL A   1      44.554  33.609  30.238  1.00  0.00     0.134 A 
ATOM     70  F   UNL A   1      43.731  31.946  33.360  1.00  0.00    -0.206 F 
ATOM     71  C   UNL A   1      44.241  34.196  32.935  1.00  0.00     0.040 A 
ATOM     72  C   UNL A   1      44.752  34.913  30.694  1.00  0.00     0.040 A 
ATOM     73  F   UNL A   1      44.705  33.373  28.926  1.00  0.00    -0.206 F 
ATOM     74  C   UNL A   1      44.588  35.211  32.046  1.00  0.00     0.006 A 
ENDBRANCH  53  67
BRANCH  54  75
ATOM     75  C   UNL A   1      42.539  23.502  27.307  1.00  0.00     0.057 A 
ATOM     76  C   UNL A   1      42.137  22.421  28.101  1.00  0.00     0.134 A 
ATOM     77  C   UNL A   1      42.707  23.271  25.937  1.00  0.00     0.134 A 
ATOM     78  F   UNL A   1      41.978  22.578  29.422  1.00  0.00    -0.206 F 
ATOM     79  C   UNL A   1      41.927  21.154  27.556  1.00  0.00     0.040 A 
ATOM     80  C   UNL A   1      42.479  22.013  25.376  1.00  0.00     0.040 A 
ATOM     81  F   UNL A   1      43.083  24.268  25.123  1.00  0.00    -0.206 F 
ATOM     82  C   UNL A   1      42.092  20.949  26.188  1.00  0.00     0.006 A 
ENDBRANCH  54  75
BRANCH  66  83
ATOM     83  C   UNL A   1      48.145  26.633  30.000  1.00  0.00     0.057 A 
ATOM     84  C   UNL A   1      48.526  25.947  31.159  1.00  0.00     0.134 A 
ATOM     85  C   UNL A   1      49.123  26.839  29.018  1.00  0.00     0.134 A 
ATOM     86  F   UNL A   1      47.640  25.729  32.143  1.00  0.00    -0.206 F 
ATOM     87  C   UNL A   1      49.834  25.498  31.343  1.00  0.00     0.040 A 
ATOM     88  C   UNL A   1      50.429  26.374  29.180  1.00  0.00     0.040 A 
ATOM     89  F   UNL A   1      48.821  27.483  27.880  1.00  0.00    -0.206 F 
ATOM     90  C   UNL A   1      50.788  25.706  30.348  1.00  0.00     0.006 A 
ENDBRANCH  66  83
ENDBRANCH  40  41
ENDBRANCH  32  35
ENDBRANCH  30  31
ENDBRANCH  29  30
ENDBRANCH   1  29
TORSDOF 16
ENDMDL
