MODEL 1
REMARK VINA RESULT:     -11.9      0.000      0.000
REMARK SMILES O=C(NCCCCNC(=O)c1ccc(-c2c3nc(c(-c4c(F)cccc4F)c4ccc([nH]4)c(-c4c(F)cccc4F)c4nc(c(-c5c(F)cccc5F)c5ccc2[nH]5)C=C4)C=C3)cc1)C1=Cc2c(ccc(Cl)c2Cl)O[C@H]1C(F)(F)F
REMARK SMILES IDX 6 1 5 2 4 3 3 4 1 5 2 6 65 8 66 9 76 10 67 11 75 12 68 13
REMARK SMILES IDX 73 14 69 15 71 16 74 17 70 18 72 19 77 20 78 21 79 22 80 23
REMARK SMILES IDX 7 24 8 25 9 26 10 28 11 29 12 30 64 31 13 32 63 33 14 34
REMARK SMILES IDX 15 35 16 36 57 37 17 38 62 39 56 40 58 41 18 42 61 43 55 44
REMARK SMILES IDX 54 45 19 47 45 48 28 49 44 50 29 51 32 52 43 53 59 54 30 55
REMARK SMILES IDX 31 56 42 58 60 59 33 60 20 61 21 62 26 63 22 64 23 65 25 66
REMARK SMILES IDX 27 67 24 68 46 69 47 70 52 71 48 72 49 73 51 74 53 75 50 76
REMARK SMILES IDX 34 77 35 78 40 79 36 80 37 81 39 82 41 83 38 84
REMARK H PARENT 3 7 8 27 58 46 32 57
REMARK Flexibility Score: inf
ROOT
ATOM      1  C   UNL A   1      32.192  29.415  26.350  1.00  0.00     0.023 C 
ENDROOT
BRANCH   1   2
ATOM      2  C   UNL A   1      32.378  28.845  24.947  1.00  0.00     0.023 C 
BRANCH   2   3
ATOM      3  C   UNL A   1      33.764  28.301  24.628  1.00  0.00     0.116 C 
BRANCH   3   4
ATOM      4  N   UNL A   1      33.830  27.383  23.506  1.00  0.00    -0.352 N 
ATOM      5  O   UNL A   1      33.876  25.371  22.479  1.00  0.00    -0.270 OA
ATOM      6  C   UNL A   1      33.761  26.011  23.517  1.00  0.00     0.251 C 
ATOM      7  H   UNL A   1      33.939  27.798  22.620  1.00  0.00     0.163 HD
BRANCH   6   8
ATOM      8  C   UNL A   1      33.563  25.291  24.807  1.00  0.00     0.067 C 
ATOM      9  C   UNL A   1      34.699  24.858  25.377  1.00  0.00     0.027 C 
ATOM     10  C   UNL A   1      32.261  24.549  24.945  1.00  0.00     0.314 C 
ATOM     11  C   UNL A   1      34.835  23.390  25.404  1.00  0.00     0.037 A 
ATOM     12  O   UNL A   1      32.414  23.130  25.243  1.00  0.00    -0.475 OA
ATOM     13  C   UNL A   1      33.680  22.609  25.263  1.00  0.00     0.129 A 
ATOM     14  C   UNL A   1      36.106  22.780  25.355  1.00  0.00     0.070 A 
ATOM     15  C   UNL A   1      33.783  21.238  25.045  1.00  0.00     0.049 A 
ATOM     16  C   UNL A   1      36.199  21.406  25.103  1.00  0.00     0.060 A 
ATOM     17  Cl  UNL A   1      37.538  23.754  25.509  1.00  0.00    -0.082 Cl
ATOM     18  C   UNL A   1      35.040  20.642  24.937  1.00  0.00     0.026 A 
ATOM     19  Cl  UNL A   1      37.718  20.601  24.917  1.00  0.00    -0.083 Cl
BRANCH  10  20
ATOM     20  C   UNL A   1      31.338  25.222  25.984  1.00  0.00     0.429 C 
ATOM     21  F   UNL A   1      31.992  26.081  26.799  1.00  0.00    -0.167 F 
ATOM     22  F   UNL A   1      30.352  25.921  25.370  1.00  0.00    -0.167 F 
ATOM     23  F   UNL A   1      30.732  24.314  26.788  1.00  0.00    -0.167 F 
ENDBRANCH  10  20
ENDBRANCH   6   8
ENDBRANCH   3   4
ENDBRANCH   2   3
ENDBRANCH   1   2
BRANCH   1  24
ATOM     24  C   UNL A   1      33.422  29.430  27.258  1.00  0.00     0.116 C 
BRANCH  24  25
ATOM     25  N   UNL A   1      33.668  30.695  27.935  1.00  0.00    -0.352 N 
ATOM     26  C   UNL A   1      34.816  31.164  28.550  1.00  0.00     0.251 C 
ATOM     27  H   UNL A   1      32.902  31.313  27.959  1.00  0.00     0.163 HD
ATOM     28  O   UNL A   1      34.818  32.254  29.088  1.00  0.00    -0.269 OA
BRANCH  26  29
ATOM     29  C   UNL A   1      36.016  30.292  28.624  1.00  0.00     0.039 A 
ATOM     30  C   UNL A   1      36.880  30.261  27.524  1.00  0.00     0.014 A 
ATOM     31  C   UNL A   1      36.338  29.591  29.787  1.00  0.00     0.014 A 
ATOM     32  C   UNL A   1      38.132  29.654  27.645  1.00  0.00     0.010 A 
ATOM     33  C   UNL A   1      37.614  29.049  29.932  1.00  0.00     0.010 A 
ATOM     34  C   UNL A   1      38.539  29.117  28.878  1.00  0.00    -0.014 A 
BRANCH  34  35
ATOM     35  C   UNL A   1      39.956  28.742  29.120  1.00  0.00     0.031 A 
ATOM     36  C   UNL A   1      40.935  29.724  29.693  1.00  0.00     0.074 A 
ATOM     37  C   UNL A   1      40.389  27.531  28.712  1.00  0.00     0.049 A 
ATOM     38  N   UNL A   1      42.222  29.587  29.887  1.00  0.00    -0.248 NA
ATOM     39  C   UNL A   1      40.404  31.041  30.070  1.00  0.00     0.031 C 
ATOM     40  C   UNL A   1      39.559  26.508  28.069  1.00  0.00     0.029 A 
ATOM     41  N   UNL A   1      41.638  26.962  28.757  1.00  0.00    -0.354 N 
ATOM     42  C   UNL A   1      42.659  30.801  30.397  1.00  0.00     0.074 A 
ATOM     43  C   UNL A   1      41.506  31.677  30.443  1.00  0.00     0.031 C 
ATOM     44  C   UNL A   1      40.316  25.436  27.793  1.00  0.00     0.029 A 
ATOM     45  C   UNL A   1      41.689  25.704  28.207  1.00  0.00     0.049 A 
ATOM     46  H   UNL A   1      42.422  27.413  29.145  1.00  0.00     0.167 HD
ATOM     47  C   UNL A   1      43.902  31.150  30.806  1.00  0.00     0.037 A 
ATOM     48  C   UNL A   1      42.724  24.860  28.044  1.00  0.00     0.037 A 
ATOM     49  C   UNL A   1      45.046  30.277  30.780  1.00  0.00     0.049 A 
ATOM     50  C   UNL A   1      44.091  25.264  28.514  1.00  0.00     0.074 A 
ATOM     51  C   UNL A   1      46.324  30.514  31.259  1.00  0.00     0.029 A 
ATOM     52  N   UNL A   1      45.054  29.001  30.237  1.00  0.00    -0.354 N 
ATOM     53  N   UNL A   1      44.470  26.385  29.074  1.00  0.00    -0.248 NA
ATOM     54  C   UNL A   1      45.172  24.286  28.328  1.00  0.00     0.031 C 
ATOM     55  C   UNL A   1      47.115  29.394  30.972  1.00  0.00     0.029 A 
ATOM     56  C   UNL A   1      46.321  28.449  30.343  1.00  0.00     0.049 A 
ATOM     57  H   UNL A   1      44.275  28.554  29.834  1.00  0.00     0.167 HD
ATOM     58  C   UNL A   1      45.829  26.248  29.314  1.00  0.00     0.074 A 
ATOM     59  C   UNL A   1      46.206  24.926  28.857  1.00  0.00     0.031 C 
ATOM     60  C   UNL A   1      46.688  27.140  29.866  1.00  0.00     0.037 A 
BRANCH  47  61
ATOM     61  C   UNL A   1      44.083  32.545  31.325  1.00  0.00     0.057 A 
ATOM     62  C   UNL A   1      43.938  32.846  32.685  1.00  0.00     0.134 A 
ATOM     63  C   UNL A   1      44.415  33.594  30.460  1.00  0.00     0.134 A 
ATOM     64  F   UNL A   1      43.609  31.887  33.563  1.00  0.00    -0.206 F 
ATOM     65  C   UNL A   1      44.089  34.149  33.164  1.00  0.00     0.040 A 
ATOM     66  C   UNL A   1      44.589  34.897  30.930  1.00  0.00     0.040 A 
ATOM     67  F   UNL A   1      44.573  33.371  29.147  1.00  0.00    -0.206 F 
ATOM     68  C   UNL A   1      44.419  35.178  32.284  1.00  0.00     0.006 A 
ENDBRANCH  47  61
BRANCH  48  69
ATOM     69  C   UNL A   1      42.498  23.537  27.415  1.00  0.00     0.057 A 
ATOM     70  C   UNL A   1      42.625  23.368  26.033  1.00  0.00     0.134 A 
ATOM     71  C   UNL A   1      42.173  22.412  28.180  1.00  0.00     0.134 A 
ATOM     72  F   UNL A   1      42.918  24.415  25.249  1.00  0.00    -0.206 F 
ATOM     73  C   UNL A   1      42.434  22.124  25.430  1.00  0.00     0.040 A 
ATOM     74  C   UNL A   1      41.997  21.157  27.593  1.00  0.00     0.040 A 
ATOM     75  F   UNL A   1      42.045  22.511  29.511  1.00  0.00    -0.206 F 
ATOM     76  C   UNL A   1      42.124  21.013  26.213  1.00  0.00     0.006 A 
ENDBRANCH  48  69
BRANCH  60  77
ATOM     77  C   UNL A   1      48.119  26.715  29.998  1.00  0.00     0.057 A 
ATOM     78  C   UNL A   1      49.070  27.041  29.023  1.00  0.00     0.134 A 
ATOM     79  C   UNL A   1      48.557  26.001  31.119  1.00  0.00     0.134 A 
ATOM     80  F   UNL A   1      48.709  27.708  27.916  1.00  0.00    -0.206 F 
ATOM     81  C   UNL A   1      50.406  26.659  29.153  1.00  0.00     0.040 A 
ATOM     82  C   UNL A   1      49.893  25.630  31.271  1.00  0.00     0.040 A 
ATOM     83  F   UNL A   1      47.694  25.662  32.089  1.00  0.00    -0.206 F 
ATOM     84  C   UNL A   1      50.822  25.957  30.283  1.00  0.00     0.006 A 
ENDBRANCH  60  77
ENDBRANCH  34  35
ENDBRANCH  26  29
ENDBRANCH  24  25
ENDBRANCH   1  24
TORSDOF 12
ENDMDL
MODEL 2
REMARK VINA RESULT:     -11.7      2.596      7.495
REMARK SMILES O=C(NCCCCNC(=O)c1ccc(-c2c3nc(c(-c4c(F)cccc4F)c4ccc([nH]4)c(-c4c(F)cccc4F)c4nc(c(-c5c(F)cccc5F)c5ccc2[nH]5)C=C4)C=C3)cc1)C1=Cc2c(ccc(Cl)c2Cl)O[C@H]1C(F)(F)F
REMARK SMILES IDX 6 1 5 2 4 3 3 4 1 5 2 6 65 8 66 9 76 10 67 11 75 12 68 13
REMARK SMILES IDX 73 14 69 15 71 16 74 17 70 18 72 19 77 20 78 21 79 22 80 23
REMARK SMILES IDX 7 24 8 25 9 26 10 28 11 29 12 30 64 31 13 32 63 33 14 34
REMARK SMILES IDX 15 35 16 36 57 37 17 38 62 39 56 40 58 41 18 42 61 43 55 44
REMARK SMILES IDX 54 45 19 47 45 48 28 49 44 50 29 51 32 52 43 53 59 54 30 55
REMARK SMILES IDX 31 56 42 58 60 59 33 60 20 61 21 62 26 63 22 64 23 65 25 66
REMARK SMILES IDX 27 67 24 68 46 69 47 70 52 71 48 72 49 73 51 74 53 75 50 76
REMARK SMILES IDX 34 77 35 78 40 79 36 80 37 81 39 82 41 83 38 84
REMARK H PARENT 3 7 8 27 58 46 32 57
REMARK Flexibility Score: inf
ROOT
ATOM      1  C   UNL A   1      37.276  21.388  24.835  1.00  0.00     0.023 C 
ENDROOT
BRANCH   1   2
ATOM      2  C   UNL A   1      35.944  21.556  25.561  1.00  0.00     0.023 C 
BRANCH   2   3
ATOM      3  C   UNL A   1      35.720  22.901  26.238  1.00  0.00     0.116 C 
BRANCH   3   4
ATOM      4  N   UNL A   1      34.390  23.112  26.779  1.00  0.00    -0.352 N 
ATOM      5  O   UNL A   1      32.286  23.932  26.837  1.00  0.00    -0.270 OA
ATOM      6  C   UNL A   1      33.343  23.809  26.229  1.00  0.00     0.251 C 
ATOM      7  H   UNL A   1      34.215  22.701  27.657  1.00  0.00     0.163 HD
BRANCH   6   8
ATOM      8  C   UNL A   1      33.497  24.440  24.888  1.00  0.00     0.067 C 
ATOM      9  C   UNL A   1      33.864  25.731  24.924  1.00  0.00     0.027 C 
ATOM     10  C   UNL A   1      32.613  23.887  23.803  1.00  0.00     0.314 C 
ATOM     11  C   UNL A   1      32.826  26.664  24.450  1.00  0.00     0.037 A 
ATOM     12  O   UNL A   1      31.776  24.885  23.151  1.00  0.00    -0.475 OA
ATOM     13  C   UNL A   1      31.797  26.164  23.641  1.00  0.00     0.129 A 
ATOM     14  C   UNL A   1      32.742  27.975  24.963  1.00  0.00     0.070 A 
ATOM     15  C   UNL A   1      30.676  26.944  23.368  1.00  0.00     0.049 A 
ATOM     16  C   UNL A   1      31.597  28.740  24.709  1.00  0.00     0.060 A 
ATOM     17  Cl  UNL A   1      34.010  28.587  25.982  1.00  0.00    -0.082 Cl
ATOM     18  C   UNL A   1      30.564  28.219  23.924  1.00  0.00     0.026 A 
ATOM     19  Cl  UNL A   1      31.365  30.311  25.392  1.00  0.00    -0.083 Cl
BRANCH  10  20
ATOM     20  C   UNL A   1      33.434  23.103  22.754  1.00  0.00     0.429 C 
ATOM     21  F   UNL A   1      34.770  23.248  22.910  1.00  0.00    -0.167 F 
ATOM     22  F   UNL A   1      33.162  21.777  22.825  1.00  0.00    -0.167 F 
ATOM     23  F   UNL A   1      33.147  23.496  21.489  1.00  0.00    -0.167 F 
ENDBRANCH  10  20
ENDBRANCH   6   8
ENDBRANCH   3   4
ENDBRANCH   2   3
ENDBRANCH   1   2
BRANCH   1  24
ATOM     24  C   UNL A   1      38.537  21.375  25.700  1.00  0.00     0.116 C 
BRANCH  24  25
ATOM     25  N   UNL A   1      39.346  20.170  25.586  1.00  0.00    -0.352 N 
ATOM     26  C   UNL A   1      40.651  19.937  25.983  1.00  0.00     0.251 C 
ATOM     27  H   UNL A   1      38.897  19.404  25.163  1.00  0.00     0.163 HD
ATOM     28  O   UNL A   1      41.167  18.855  25.778  1.00  0.00    -0.269 OA
BRANCH  26  29
ATOM     29  C   UNL A   1      41.444  21.040  26.583  1.00  0.00     0.039 A 
ATOM     30  C   UNL A   1      42.143  21.896  25.725  1.00  0.00     0.014 A 
ATOM     31  C   UNL A   1      41.426  21.288  27.957  1.00  0.00     0.014 A 
ATOM     32  C   UNL A   1      42.693  23.078  26.225  1.00  0.00     0.010 A 
ATOM     33  C   UNL A   1      41.911  22.501  28.443  1.00  0.00     0.010 A 
ATOM     34  C   UNL A   1      42.507  23.428  27.573  1.00  0.00    -0.014 A 
BRANCH  34  35
ATOM     35  C   UNL A   1      42.813  24.798  28.058  1.00  0.00     0.031 A 
ATOM     36  C   UNL A   1      44.195  25.177  28.503  1.00  0.00     0.074 A 
ATOM     37  C   UNL A   1      41.801  25.679  28.204  1.00  0.00     0.049 A 
ATOM     38  N   UNL A   1      44.611  26.300  29.032  1.00  0.00    -0.248 NA
ATOM     39  C   UNL A   1      45.238  24.152  28.362  1.00  0.00     0.031 C 
ATOM     40  C   UNL A   1      40.396  25.414  27.882  1.00  0.00     0.029 A 
ATOM     41  N   UNL A   1      41.793  26.967  28.679  1.00  0.00    -0.354 N 
ATOM     42  C   UNL A   1      45.960  26.114  29.298  1.00  0.00     0.074 A 
ATOM     43  C   UNL A   1      46.282  24.755  28.911  1.00  0.00     0.031 C 
ATOM     44  C   UNL A   1      39.668  26.507  28.155  1.00  0.00     0.029 A 
ATOM     45  C   UNL A   1      40.544  27.537  28.701  1.00  0.00     0.049 A 
ATOM     46  H   UNL A   1      42.606  27.436  28.976  1.00  0.00     0.167 HD
ATOM     47  C   UNL A   1      46.853  26.998  29.803  1.00  0.00     0.037 A 
ATOM     48  C   UNL A   1      40.141  28.750  29.123  1.00  0.00     0.037 A 
ATOM     49  C   UNL A   1      46.541  28.355  30.172  1.00  0.00     0.049 A 
ATOM     50  C   UNL A   1      41.150  29.718  29.669  1.00  0.00     0.074 A 
ATOM     51  C   UNL A   1      47.401  29.351  30.605  1.00  0.00     0.029 A 
ATOM     52  N   UNL A   1      45.268  28.904  30.159  1.00  0.00    -0.354 N 
ATOM     53  N   UNL A   1      42.439  29.557  29.834  1.00  0.00    -0.248 NA
ATOM     54  C   UNL A   1      40.647  31.034  30.088  1.00  0.00     0.031 C 
ATOM     55  C   UNL A   1      46.641  30.492  30.890  1.00  0.00     0.029 A 
ATOM     56  C   UNL A   1      45.314  30.216  30.604  1.00  0.00     0.049 A 
ATOM     57  H   UNL A   1      44.452  28.432  29.877  1.00  0.00     0.167 HD
ATOM     58  C   UNL A   1      42.905  30.749  30.368  1.00  0.00     0.074 A 
ATOM     59  C   UNL A   1      41.763  31.633  30.482  1.00  0.00     0.031 C 
ATOM     60  C   UNL A   1      44.168  31.080  30.731  1.00  0.00     0.037 A 
BRANCH  47  61
ATOM     61  C   UNL A   1      48.262  26.519  29.980  1.00  0.00     0.057 A 
ATOM     62  C   UNL A   1      48.672  25.858  31.145  1.00  0.00     0.134 A 
ATOM     63  C   UNL A   1      49.216  26.710  28.973  1.00  0.00     0.134 A 
ATOM     64  F   UNL A   1      47.808  25.656  32.151  1.00  0.00    -0.206 F 
ATOM     65  C   UNL A   1      49.989  25.429  31.315  1.00  0.00     0.040 A 
ATOM     66  C   UNL A   1      50.531  26.266  29.123  1.00  0.00     0.040 A 
ATOM     67  F   UNL A   1      48.887  27.331  27.831  1.00  0.00    -0.206 F 
ATOM     68  C   UNL A   1      50.923  25.630  30.300  1.00  0.00     0.006 A 
ENDBRANCH  47  61
BRANCH  48  69
ATOM     69  C   UNL A   1      38.709  29.119  29.028  1.00  0.00     0.057 A 
ATOM     70  C   UNL A   1      37.871  29.039  30.144  1.00  0.00     0.134 A 
ATOM     71  C   UNL A   1      38.153  29.583  27.830  1.00  0.00     0.134 A 
ATOM     72  F   UNL A   1      38.346  28.586  31.313  1.00  0.00    -0.206 F 
ATOM     73  C   UNL A   1      36.525  29.402  30.074  1.00  0.00     0.040 A 
ATOM     74  C   UNL A   1      36.813  29.967  27.749  1.00  0.00     0.040 A 
ATOM     75  F   UNL A   1      38.909  29.689  26.728  1.00  0.00    -0.206 F 
ATOM     76  C   UNL A   1      35.995  29.873  28.874  1.00  0.00     0.006 A 
ENDBRANCH  48  69
BRANCH  60  77
ATOM     77  C   UNL A   1      44.377  32.454  31.292  1.00  0.00     0.057 A 
ATOM     78  C   UNL A   1      44.639  33.549  30.461  1.00  0.00     0.134 A 
ATOM     79  C   UNL A   1      44.289  32.689  32.669  1.00  0.00     0.134 A 
ATOM     80  F   UNL A   1      44.753  33.385  29.134  1.00  0.00    -0.206 F 
ATOM     81  C   UNL A   1      44.819  34.831  30.982  1.00  0.00     0.040 A 
ATOM     82  C   UNL A   1      44.447  33.970  33.201  1.00  0.00     0.040 A 
ATOM     83  F   UNL A   1      44.037  31.681  33.517  1.00  0.00    -0.206 F 
ATOM     84  C   UNL A   1      44.717  35.046  32.355  1.00  0.00     0.006 A 
ENDBRANCH  60  77
ENDBRANCH  34  35
ENDBRANCH  26  29
ENDBRANCH  24  25
ENDBRANCH   1  24
TORSDOF 12
ENDMDL
MODEL 3
REMARK VINA RESULT:     -11.7      3.553      4.844
REMARK SMILES O=C(NCCCCNC(=O)c1ccc(-c2c3nc(c(-c4c(F)cccc4F)c4ccc([nH]4)c(-c4c(F)cccc4F)c4nc(c(-c5c(F)cccc5F)c5ccc2[nH]5)C=C4)C=C3)cc1)C1=Cc2c(ccc(Cl)c2Cl)O[C@H]1C(F)(F)F
REMARK SMILES IDX 6 1 5 2 4 3 3 4 1 5 2 6 65 8 66 9 76 10 67 11 75 12 68 13
REMARK SMILES IDX 73 14 69 15 71 16 74 17 70 18 72 19 77 20 78 21 79 22 80 23
REMARK SMILES IDX 7 24 8 25 9 26 10 28 11 29 12 30 64 31 13 32 63 33 14 34
REMARK SMILES IDX 15 35 16 36 57 37 17 38 62 39 56 40 58 41 18 42 61 43 55 44
REMARK SMILES IDX 54 45 19 47 45 48 28 49 44 50 29 51 32 52 43 53 59 54 30 55
REMARK SMILES IDX 31 56 42 58 60 59 33 60 20 61 21 62 26 63 22 64 23 65 25 66
REMARK SMILES IDX 27 67 24 68 46 69 47 70 52 71 48 72 49 73 51 74 53 75 50 76
REMARK SMILES IDX 34 77 35 78 40 79 36 80 37 81 39 82 41 83 38 84
REMARK H PARENT 3 7 8 27 58 46 32 57
REMARK Flexibility Score: inf
ROOT
ATOM      1  C   UNL A   1      31.365  31.692  26.866  1.00  0.00     0.023 C 
ENDROOT
BRANCH   1   2
ATOM      2  C   UNL A   1      31.592  30.430  26.040  1.00  0.00     0.023 C 
BRANCH   2   3
ATOM      3  C   UNL A   1      32.956  29.771  26.192  1.00  0.00     0.116 C 
BRANCH   3   4
ATOM      4  N   UNL A   1      33.674  29.529  24.953  1.00  0.00    -0.352 N 
ATOM      5  O   UNL A   1      34.431  28.316  23.205  1.00  0.00    -0.270 OA
ATOM      6  C   UNL A   1      33.742  28.372  24.216  1.00  0.00     0.251 C 
ATOM      7  H   UNL A   1      34.178  30.295  24.595  1.00  0.00     0.163 HD
BRANCH   6   8
ATOM      8  C   UNL A   1      32.987  27.167  24.659  1.00  0.00     0.067 C 
ATOM      9  C   UNL A   1      33.742  26.232  25.258  1.00  0.00     0.027 C 
ATOM     10  C   UNL A   1      31.778  26.816  23.834  1.00  0.00     0.314 C 
ATOM     11  C   UNL A   1      33.874  24.982  24.486  1.00  0.00     0.037 A 
ATOM     12  O   UNL A   1      31.799  25.463  23.293  1.00  0.00    -0.475 OA
ATOM     13  C   UNL A   1      32.923  24.706  23.493  1.00  0.00     0.129 A 
ATOM     14  C   UNL A   1      35.035  24.188  24.587  1.00  0.00     0.070 A 
ATOM     15  C   UNL A   1      33.136  23.671  22.586  1.00  0.00     0.049 A 
ATOM     16  C   UNL A   1      35.255  23.170  23.650  1.00  0.00     0.060 A 
ATOM     17  Cl  UNL A   1      36.221  24.544  25.806  1.00  0.00    -0.082 Cl
ATOM     18  C   UNL A   1      34.312  22.923  22.647  1.00  0.00     0.026 A 
ATOM     19  Cl  UNL A   1      36.702  22.226  23.635  1.00  0.00    -0.083 Cl
BRANCH  10  20
ATOM     20  C   UNL A   1      30.470  27.062  24.619  1.00  0.00     0.429 C 
ATOM     21  F   UNL A   1      30.674  27.259  25.942  1.00  0.00    -0.167 F 
ATOM     22  F   UNL A   1      29.824  28.155  24.145  1.00  0.00    -0.167 F 
ATOM     23  F   UNL A   1      29.610  26.020  24.511  1.00  0.00    -0.167 F 
ENDBRANCH  10  20
ENDBRANCH   6   8
ENDBRANCH   3   4
ENDBRANCH   2   3
ENDBRANCH   1   2
BRANCH   1  24
ATOM     24  C   UNL A   1      32.162  32.934  26.464  1.00  0.00     0.116 C 
BRANCH  24  25
ATOM     25  N   UNL A   1      32.161  34.008  27.446  1.00  0.00    -0.352 N 
ATOM     26  C   UNL A   1      33.096  34.324  28.417  1.00  0.00     0.251 C 
ATOM     27  H   UNL A   1      31.376  34.601  27.416  1.00  0.00     0.163 HD
ATOM     28  O   UNL A   1      32.902  35.259  29.168  1.00  0.00    -0.269 OA
BRANCH  26  29
ATOM     29  C   UNL A   1      34.294  33.462  28.589  1.00  0.00     0.039 A 
ATOM     30  C   UNL A   1      35.548  34.077  28.648  1.00  0.00     0.014 A 
ATOM     31  C   UNL A   1      34.179  32.085  28.785  1.00  0.00     0.014 A 
ATOM     32  C   UNL A   1      36.663  33.337  29.050  1.00  0.00     0.010 A 
ATOM     33  C   UNL A   1      35.275  31.364  29.256  1.00  0.00     0.010 A 
ATOM     34  C   UNL A   1      36.516  31.995  29.438  1.00  0.00    -0.014 A 
BRANCH  34  35
ATOM     35  C   UNL A   1      37.606  31.279  30.149  1.00  0.00     0.031 A 
ATOM     36  C   UNL A   1      37.928  31.577  31.584  1.00  0.00     0.074 A 
ATOM     37  C   UNL A   1      38.388  30.427  29.453  1.00  0.00     0.049 A 
ATOM     38  N   UNL A   1      38.898  31.105  32.325  1.00  0.00    -0.248 NA
ATOM     39  C   UNL A   1      37.064  32.551  32.265  1.00  0.00     0.031 C 
ATOM     40  C   UNL A   1      38.234  30.106  28.032  1.00  0.00     0.029 A 
ATOM     41  N   UNL A   1      39.482  29.693  29.841  1.00  0.00    -0.354 N 
ATOM     42  C   UNL A   1      38.772  31.733  33.556  1.00  0.00     0.074 A 
ATOM     43  C   UNL A   1      37.655  32.650  33.447  1.00  0.00     0.031 C 
ATOM     44  C   UNL A   1      39.185  29.231  27.672  1.00  0.00     0.029 A 
ATOM     45  C   UNL A   1      40.036  28.956  28.823  1.00  0.00     0.049 A 
ATOM     46  H   UNL A   1      39.835  29.696  30.759  1.00  0.00     0.167 HD
ATOM     47  C   UNL A   1      39.506  31.551  34.679  1.00  0.00     0.037 A 
ATOM     48  C   UNL A   1      41.116  28.152  28.812  1.00  0.00     0.037 A 
ATOM     49  C   UNL A   1      40.605  30.628  34.797  1.00  0.00     0.049 A 
ATOM     50  C   UNL A   1      41.910  27.957  30.070  1.00  0.00     0.074 A 
ATOM     51  C   UNL A   1      41.348  30.309  35.921  1.00  0.00     0.029 A 
ATOM     52  N   UNL A   1      41.124  29.880  33.751  1.00  0.00    -0.354 N 
ATOM     53  N   UNL A   1      41.724  28.492  31.251  1.00  0.00    -0.248 NA
ATOM     54  C   UNL A   1      43.061  27.047  29.994  1.00  0.00     0.031 C 
ATOM     55  C   UNL A   1      42.341  29.396  35.546  1.00  0.00     0.029 A 
ATOM     56  C   UNL A   1      42.195  29.123  34.195  1.00  0.00     0.049 A 
ATOM     57  H   UNL A   1      40.782  29.888  32.828  1.00  0.00     0.167 HD
ATOM     58  C   UNL A   1      42.728  27.983  32.061  1.00  0.00     0.074 A 
ATOM     59  C   UNL A   1      43.510  27.079  31.242  1.00  0.00     0.031 C 
ATOM     60  C   UNL A   1      42.978  28.242  33.367  1.00  0.00     0.037 A 
BRANCH  47  61
ATOM     61  C   UNL A   1      39.135  32.371  35.878  1.00  0.00     0.057 A 
ATOM     62  C   UNL A   1      39.646  33.661  36.071  1.00  0.00     0.134 A 
ATOM     63  C   UNL A   1      38.252  31.872  36.842  1.00  0.00     0.134 A 
ATOM     64  F   UNL A   1      40.506  34.191  35.188  1.00  0.00    -0.206 F 
ATOM     65  C   UNL A   1      39.312  34.416  37.197  1.00  0.00     0.040 A 
ATOM     66  C   UNL A   1      37.895  32.626  37.962  1.00  0.00     0.040 A 
ATOM     67  F   UNL A   1      37.723  30.646  36.714  1.00  0.00    -0.206 F 
ATOM     68  C   UNL A   1      38.432  33.899  38.145  1.00  0.00     0.006 A 
ENDBRANCH  47  61
BRANCH  48  69
ATOM     69  C   UNL A   1      41.498  27.459  27.558  1.00  0.00     0.057 A 
ATOM     70  C   UNL A   1      41.041  26.166  27.284  1.00  0.00     0.134 A 
ATOM     71  C   UNL A   1      42.306  28.079  26.598  1.00  0.00     0.134 A 
ATOM     72  F   UNL A   1      40.278  25.517  28.176  1.00  0.00    -0.206 F 
ATOM     73  C   UNL A   1      41.377  25.509  26.100  1.00  0.00     0.040 A 
ATOM     74  C   UNL A   1      42.636  27.441  25.401  1.00  0.00     0.040 A 
ATOM     75  F   UNL A   1      42.768  29.321  26.802  1.00  0.00    -0.206 F 
ATOM     76  C   UNL A   1      42.172  26.151  25.152  1.00  0.00     0.006 A 
ENDBRANCH  48  69
BRANCH  60  77
ATOM     77  C   UNL A   1      44.149  27.542  33.988  1.00  0.00     0.057 A 
ATOM     78  C   UNL A   1      44.020  26.271  34.561  1.00  0.00     0.134 A 
ATOM     79  C   UNL A   1      45.420  28.130  33.988  1.00  0.00     0.134 A 
ATOM     80  F   UNL A   1      42.825  25.663  34.607  1.00  0.00    -0.206 F 
ATOM     81  C   UNL A   1      45.114  25.614  35.125  1.00  0.00     0.040 A 
ATOM     82  C   UNL A   1      46.525  27.474  34.531  1.00  0.00     0.040 A 
ATOM     83  F   UNL A   1      45.607  29.345  33.451  1.00  0.00    -0.206 F 
ATOM     84  C   UNL A   1      46.373  26.212  35.106  1.00  0.00     0.006 A 
ENDBRANCH  60  77
ENDBRANCH  34  35
ENDBRANCH  26  29
ENDBRANCH  24  25
ENDBRANCH   1  24
TORSDOF 12
ENDMDL
