MODEL 1
REMARK VINA RESULT:     -13.5      0.000      0.000
REMARK SMILES Cc1cnn(C2(C(=O)NCCCCNC(=O)c3ccc(-c4c5nc(c(-c6c(F)cccc6F)c6ccc([nH]6)c(-c6c(F)cccc6F)c6nc(c(-c7c(F)cccc7F)c7ccc4[nH]7)C=C6)C=C5)cc3)CCN(C(=O)c3cc4ccccc4[nH]3)CC2)c1
REMARK SMILES IDX 12 1 11 2 10 3 9 4 7 5 8 6 6 8 71 9 86 10 72 11 85 12 73 13
REMARK SMILES IDX 74 14 75 15 5 16 1 17 2 18 3 19 87 20 4 21 76 22 77 23 84 24
REMARK SMILES IDX 78 25 83 26 79 28 82 29 80 30 81 31 13 32 14 33 15 34 16 36
REMARK SMILES IDX 17 37 18 38 70 39 19 40 69 41 20 42 21 43 22 44 63 45 23 46
REMARK SMILES IDX 68 47 62 48 64 49 24 50 67 51 61 52 60 53 25 55 51 56 34 57
REMARK SMILES IDX 50 58 35 59 38 60 49 61 65 62 36 63 37 64 48 66 66 67 39 68
REMARK SMILES IDX 26 69 27 70 32 71 28 72 29 73 31 74 33 75 30 76 52 77 53 78
REMARK SMILES IDX 58 79 54 80 55 81 57 82 59 83 56 84 40 85 41 86 46 87 42 88
REMARK SMILES IDX 43 89 45 90 47 91 44 92
REMARK H PARENT 9 7 84 27 14 35 64 54 38 65
REMARK Flexibility Score: inf
ROOT
ATOM      1  C   UNL A   1      33.768  29.330  26.667  1.00  0.00     0.023 C 
ENDROOT
BRANCH   1   2
ATOM      2  C   UNL A   1      32.589  28.488  27.168  1.00  0.00     0.023 C 
BRANCH   2   3
ATOM      3  C   UNL A   1      31.486  28.190  26.143  1.00  0.00     0.116 C 
BRANCH   3   4
ATOM      4  N   UNL A   1      30.697  27.017  26.498  1.00  0.00    -0.354 N 
ATOM      5  C   UNL A   1      30.792  25.675  26.188  1.00  0.00     0.248 C 
ATOM      6  O   UNL A   1      29.895  25.005  26.704  1.00  0.00    -0.272 OA
ATOM      7  H   UNL A   1      29.934  27.225  27.085  1.00  0.00     0.163 HD
BRANCH   5   8
ATOM      8  C   UNL A   1      31.963  25.112  25.307  1.00  0.00     0.144 C 
ATOM      9  C   UNL A   1      33.248  25.137  26.177  1.00  0.00     0.062 C 
ATOM     10  C   UNL A   1      31.495  23.714  24.838  1.00  0.00     0.062 C 
ATOM     11  C   UNL A   1      34.244  24.015  25.925  1.00  0.00     0.123 C 
ATOM     12  C   UNL A   1      32.607  22.714  24.592  1.00  0.00     0.123 C 
ATOM     13  N   UNL A   1      33.615  22.734  25.648  1.00  0.00    -0.337 N 
ATOM     14  C   UNL A   1      34.085  21.598  26.311  1.00  0.00     0.270 C 
ATOM     15  O   UNL A   1      34.697  21.687  27.382  1.00  0.00    -0.267 OA
BRANCH   8  16
ATOM     16  N   UNL A   1      32.265  25.902  24.066  1.00  0.00    -0.257 N 
ATOM     17  C   UNL A   1      34.166  28.235  21.970  1.00  0.00     0.048 C 
ATOM     18  C   UNL A   1      33.247  27.274  22.615  1.00  0.00    -0.013 A 
ATOM     19  C   UNL A   1      32.050  26.730  22.120  1.00  0.00     0.138 A 
ATOM     20  C   UNL A   1      33.369  26.702  23.860  1.00  0.00     0.113 A 
ATOM     21  N   UNL A   1      31.474  25.891  22.980  1.00  0.00    -0.180 NA
ENDBRANCH   8  16
BRANCH  14  22
ATOM     22  C   UNL A   1      33.798  20.309  25.730  1.00  0.00     0.105 A 
ATOM     23  C   UNL A   1      32.705  19.470  25.884  1.00  0.00     0.042 A 
ATOM     24  N   UNL A   1      34.629  19.691  24.824  1.00  0.00    -0.351 N 
ATOM     25  C   UNL A   1      33.017  18.226  25.281  1.00  0.00     0.000 A 
ATOM     26  C   UNL A   1      34.224  18.395  24.605  1.00  0.00     0.046 A 
ATOM     27  H   UNL A   1      35.405  20.117  24.392  1.00  0.00     0.167 HD
ATOM     28  C   UNL A   1      32.391  16.968  25.266  1.00  0.00     0.010 A 
ATOM     29  C   UNL A   1      34.826  17.365  23.876  1.00  0.00     0.026 A 
ATOM     30  C   UNL A   1      33.000  15.915  24.575  1.00  0.00     0.001 A 
ATOM     31  C   UNL A   1      34.192  16.117  23.882  1.00  0.00     0.002 A 
ENDBRANCH  14  22
ENDBRANCH   5   8
ENDBRANCH   3   4
ENDBRANCH   2   3
ENDBRANCH   1   2
BRANCH   1  32
ATOM     32  C   UNL A   1      35.063  29.118  27.434  1.00  0.00     0.116 C 
BRANCH  32  33
ATOM     33  N   UNL A   1      35.240  30.066  28.535  1.00  0.00    -0.352 N 
ATOM     34  C   UNL A   1      36.270  30.106  29.456  1.00  0.00     0.251 C 
ATOM     35  H   UNL A   1      34.545  30.756  28.631  1.00  0.00     0.163 HD
ATOM     36  O   UNL A   1      36.144  30.686  30.531  1.00  0.00    -0.269 OA
BRANCH  34  37
ATOM     37  C   UNL A   1      37.542  29.454  29.112  1.00  0.00     0.039 A 
ATOM     38  C   UNL A   1      38.285  29.820  27.984  1.00  0.00     0.014 A 
ATOM     39  C   UNL A   1      38.001  28.473  29.984  1.00  0.00     0.014 A 
ATOM     40  C   UNL A   1      39.535  29.236  27.786  1.00  0.00     0.010 A 
ATOM     41  C   UNL A   1      39.291  28.033  29.885  1.00  0.00     0.010 A 
ATOM     42  C   UNL A   1      40.036  28.354  28.755  1.00  0.00    -0.014 A 
BRANCH  42  43
ATOM     43  C   UNL A   1      41.408  27.858  28.712  1.00  0.00     0.031 A 
ATOM     44  C   UNL A   1      41.546  26.586  27.947  1.00  0.00     0.074 A 
ATOM     45  C   UNL A   1      42.446  28.650  29.070  1.00  0.00     0.049 A 
ATOM     46  N   UNL A   1      41.915  25.428  28.386  1.00  0.00    -0.248 NA
ATOM     47  C   UNL A   1      41.040  26.549  26.560  1.00  0.00     0.031 C 
ATOM     48  C   UNL A   1      42.377  30.047  29.535  1.00  0.00     0.029 A 
ATOM     49  N   UNL A   1      43.790  28.446  28.970  1.00  0.00    -0.354 N 
ATOM     50  C   UNL A   1      41.939  24.590  27.269  1.00  0.00     0.074 A 
ATOM     51  C   UNL A   1      41.170  25.257  26.257  1.00  0.00     0.031 C 
ATOM     52  C   UNL A   1      43.592  30.628  29.432  1.00  0.00     0.029 A 
ATOM     53  C   UNL A   1      44.558  29.611  29.068  1.00  0.00     0.049 A 
ATOM     54  H   UNL A   1      44.187  27.555  28.839  1.00  0.00     0.167 HD
ATOM     55  C   UNL A   1      42.876  23.605  27.170  1.00  0.00     0.037 A 
ATOM     56  C   UNL A   1      45.891  29.727  28.843  1.00  0.00     0.037 A 
ATOM     57  C   UNL A   1      43.476  23.372  28.462  1.00  0.00     0.049 A 
ATOM     58  C   UNL A   1      46.456  28.365  28.926  1.00  0.00     0.074 A 
ATOM     59  C   UNL A   1      43.080  22.868  29.681  1.00  0.00     0.029 A 
ATOM     60  N   UNL A   1      44.613  24.107  28.677  1.00  0.00    -0.354 N 
ATOM     61  N   UNL A   1      46.503  27.668  30.028  1.00  0.00    -0.248 NA
ATOM     62  C   UNL A   1      46.615  27.602  27.696  1.00  0.00     0.031 C 
ATOM     63  C   UNL A   1      43.866  23.556  30.656  1.00  0.00     0.029 A 
ATOM     64  C   UNL A   1      44.760  24.402  30.000  1.00  0.00     0.049 A 
ATOM     65  H   UNL A   1      45.239  24.383  27.970  1.00  0.00     0.167 HD
ATOM     66  C   UNL A   1      46.249  26.370  29.626  1.00  0.00     0.074 A 
ATOM     67  C   UNL A   1      46.493  26.366  28.185  1.00  0.00     0.031 C 
ATOM     68  C   UNL A   1      45.560  25.522  30.445  1.00  0.00     0.037 A 
BRANCH  55  69
ATOM     69  C   UNL A   1      43.652  23.271  25.897  1.00  0.00     0.057 A 
ATOM     70  C   UNL A   1      43.759  21.914  25.518  1.00  0.00     0.134 A 
ATOM     71  C   UNL A   1      44.560  24.129  25.240  1.00  0.00     0.134 A 
ATOM     72  F   UNL A   1      42.944  20.986  26.044  1.00  0.00    -0.206 F 
ATOM     73  C   UNL A   1      44.763  21.439  24.664  1.00  0.00     0.040 A 
ATOM     74  C   UNL A   1      45.541  23.668  24.354  1.00  0.00     0.040 A 
ATOM     75  F   UNL A   1      44.622  25.442  25.470  1.00  0.00    -0.206 F 
ATOM     76  C   UNL A   1      45.673  22.316  24.093  1.00  0.00     0.006 A 
ENDBRANCH  55  69
BRANCH  56  77
ATOM     77  C   UNL A   1      46.676  30.862  28.305  1.00  0.00     0.057 A 
ATOM     78  C   UNL A   1      46.469  31.337  27.000  1.00  0.00     0.134 A 
ATOM     79  C   UNL A   1      47.425  31.698  29.151  1.00  0.00     0.134 A 
ATOM     80  F   UNL A   1      45.739  30.629  26.126  1.00  0.00    -0.206 F 
ATOM     81  C   UNL A   1      46.940  32.588  26.575  1.00  0.00     0.040 A 
ATOM     82  C   UNL A   1      47.902  32.948  28.739  1.00  0.00     0.040 A 
ATOM     83  F   UNL A   1      47.632  31.369  30.435  1.00  0.00    -0.206 F 
ATOM     84  C   UNL A   1      47.645  33.406  27.452  1.00  0.00     0.006 A 
ENDBRANCH  56  77
BRANCH  68  85
ATOM     85  C   UNL A   1      45.488  25.877  31.901  1.00  0.00     0.057 A 
ATOM     86  C   UNL A   1      46.528  25.700  32.824  1.00  0.00     0.134 A 
ATOM     87  C   UNL A   1      44.339  26.531  32.358  1.00  0.00     0.134 A 
ATOM     88  F   UNL A   1      47.696  25.156  32.460  1.00  0.00    -0.206 F 
ATOM     89  C   UNL A   1      46.414  26.127  34.151  1.00  0.00     0.040 A 
ATOM     90  C   UNL A   1      44.224  26.992  33.669  1.00  0.00     0.040 A 
ATOM     91  F   UNL A   1      43.322  26.773  31.516  1.00  0.00    -0.206 F 
ATOM     92  C   UNL A   1      45.260  26.781  34.575  1.00  0.00     0.006 A 
ENDBRANCH  68  85
ENDBRANCH  42  43
ENDBRANCH  34  37
ENDBRANCH  32  33
ENDBRANCH   1  32
TORSDOF 13
ENDMDL
MODEL 2
REMARK VINA RESULT:     -13.5      2.713      8.122
REMARK SMILES Cc1cnn(C2(C(=O)NCCCCNC(=O)c3ccc(-c4c5nc(c(-c6c(F)cccc6F)c6ccc([nH]6)c(-c6c(F)cccc6F)c6nc(c(-c7c(F)cccc7F)c7ccc4[nH]7)C=C6)C=C5)cc3)CCN(C(=O)c3cc4ccccc4[nH]3)CC2)c1
REMARK SMILES IDX 12 1 11 2 10 3 9 4 7 5 8 6 6 8 71 9 86 10 72 11 85 12 73 13
REMARK SMILES IDX 74 14 75 15 5 16 1 17 2 18 3 19 87 20 4 21 76 22 77 23 84 24
REMARK SMILES IDX 78 25 83 26 79 28 82 29 80 30 81 31 13 32 14 33 15 34 16 36
REMARK SMILES IDX 17 37 18 38 70 39 19 40 69 41 20 42 21 43 22 44 63 45 23 46
REMARK SMILES IDX 68 47 62 48 64 49 24 50 67 51 61 52 60 53 25 55 51 56 34 57
REMARK SMILES IDX 50 58 35 59 38 60 49 61 65 62 36 63 37 64 48 66 66 67 39 68
REMARK SMILES IDX 26 69 27 70 32 71 28 72 29 73 31 74 33 75 30 76 52 77 53 78
REMARK SMILES IDX 58 79 54 80 55 81 57 82 59 83 56 84 40 85 41 86 46 87 42 88
REMARK SMILES IDX 43 89 45 90 47 91 44 92
REMARK H PARENT 9 7 84 27 14 35 64 54 38 65
REMARK Flexibility Score: inf
ROOT
ATOM      1  C   UNL A   1      38.421  19.074  25.534  1.00  0.00     0.023 C 
ENDROOT
BRANCH   1   2
ATOM      2  C   UNL A   1      37.312  19.939  24.925  1.00  0.00     0.023 C 
BRANCH   2   3
ATOM      3  C   UNL A   1      37.350  21.433  25.273  1.00  0.00     0.116 C 
BRANCH   3   4
ATOM      4  N   UNL A   1      37.230  22.284  24.096  1.00  0.00    -0.354 N 
ATOM      5  C   UNL A   1      36.219  23.076  23.592  1.00  0.00     0.248 C 
ATOM      6  O   UNL A   1      36.535  23.639  22.542  1.00  0.00    -0.272 OA
ATOM      7  H   UNL A   1      38.044  22.297  23.542  1.00  0.00     0.163 HD
BRANCH   5   8
ATOM      8  C   UNL A   1      34.849  23.243  24.342  1.00  0.00     0.144 C 
ATOM      9  C   UNL A   1      35.122  24.080  25.620  1.00  0.00     0.062 C 
ATOM     10  C   UNL A   1      33.887  23.882  23.312  1.00  0.00     0.062 C 
ATOM     11  C   UNL A   1      34.000  25.009  26.059  1.00  0.00     0.123 C 
ATOM     12  C   UNL A   1      32.797  24.752  23.906  1.00  0.00     0.123 C 
ATOM     13  N   UNL A   1      33.302  25.639  24.950  1.00  0.00    -0.337 N 
ATOM     14  C   UNL A   1      33.057  27.013  25.004  1.00  0.00     0.270 C 
ATOM     15  O   UNL A   1      33.740  27.760  25.715  1.00  0.00    -0.267 OA
BRANCH   8  16
ATOM     16  N   UNL A   1      34.208  21.963  24.792  1.00  0.00    -0.257 N 
ATOM     17  C   UNL A   1      32.531  18.730  24.355  1.00  0.00     0.048 C 
ATOM     18  C   UNL A   1      33.192  19.982  24.778  1.00  0.00    -0.013 A 
ATOM     19  C   UNL A   1      33.414  20.467  26.078  1.00  0.00     0.138 A 
ATOM     20  C   UNL A   1      33.736  20.957  23.975  1.00  0.00     0.113 A 
ATOM     21  N   UNL A   1      34.042  21.642  26.087  1.00  0.00    -0.180 NA
ENDBRANCH   8  16
BRANCH  14  22
ATOM     22  C   UNL A   1      32.007  27.545  24.170  1.00  0.00     0.105 A 
ATOM     23  C   UNL A   1      32.052  28.468  23.136  1.00  0.00     0.042 A 
ATOM     24  N   UNL A   1      30.695  27.143  24.267  1.00  0.00    -0.351 N 
ATOM     25  C   UNL A   1      30.721  28.819  22.802  1.00  0.00     0.000 A 
ATOM     26  C   UNL A   1      29.884  27.961  23.512  1.00  0.00     0.046 A 
ATOM     27  H   UNL A   1      30.379  26.378  24.800  1.00  0.00     0.167 HD
ATOM     28  C   UNL A   1      30.152  29.803  21.974  1.00  0.00     0.010 A 
ATOM     29  C   UNL A   1      28.491  28.014  23.408  1.00  0.00     0.026 A 
ATOM     30  C   UNL A   1      28.760  29.897  21.889  1.00  0.00     0.001 A 
ATOM     31  C   UNL A   1      27.945  29.007  22.587  1.00  0.00     0.002 A 
ENDBRANCH  14  22
ENDBRANCH   5   8
ENDBRANCH   3   4
ENDBRANCH   2   3
ENDBRANCH   1   2
BRANCH   1  32
ATOM     32  C   UNL A   1      39.694  19.831  25.876  1.00  0.00     0.116 C 
BRANCH  32  33
ATOM     33  N   UNL A   1      40.898  19.004  25.780  1.00  0.00    -0.352 N 
ATOM     34  C   UNL A   1      42.215  19.422  25.831  1.00  0.00     0.251 C 
ATOM     35  H   UNL A   1      40.754  18.037  25.666  1.00  0.00     0.163 HD
ATOM     36  O   UNL A   1      43.123  18.728  25.384  1.00  0.00    -0.269 OA
BRANCH  34  37
ATOM     37  C   UNL A   1      42.513  20.718  26.458  1.00  0.00     0.039 A 
ATOM     38  C   UNL A   1      42.994  21.808  25.724  1.00  0.00     0.014 A 
ATOM     39  C   UNL A   1      42.261  20.829  27.821  1.00  0.00     0.014 A 
ATOM     40  C   UNL A   1      43.144  23.035  26.366  1.00  0.00     0.010 A 
ATOM     41  C   UNL A   1      42.242  22.065  28.405  1.00  0.00     0.010 A 
ATOM     42  C   UNL A   1      42.749  23.156  27.706  1.00  0.00    -0.014 A 
BRANCH  42  43
ATOM     43  C   UNL A   1      42.697  24.449  28.384  1.00  0.00     0.031 A 
ATOM     44  C   UNL A   1      41.470  25.230  28.057  1.00  0.00     0.074 A 
ATOM     45  C   UNL A   1      43.529  24.727  29.414  1.00  0.00     0.049 A 
ATOM     46  N   UNL A   1      41.389  26.368  27.450  1.00  0.00    -0.248 NA
ATOM     47  C   UNL A   1      40.158  24.589  28.272  1.00  0.00     0.031 C 
ATOM     48  C   UNL A   1      44.558  23.843  29.988  1.00  0.00     0.029 A 
ATOM     49  N   UNL A   1      43.555  25.790  30.267  1.00  0.00    -0.354 N 
ATOM     50  C   UNL A   1      40.032  26.699  27.447  1.00  0.00     0.074 A 
ATOM     51  C   UNL A   1      39.327  25.483  27.733  1.00  0.00     0.031 C 
ATOM     52  C   UNL A   1      44.918  24.286  31.212  1.00  0.00     0.029 A 
ATOM     53  C   UNL A   1      44.286  25.570  31.439  1.00  0.00     0.049 A 
ATOM     54  H   UNL A   1      43.098  26.640  30.075  1.00  0.00     0.167 HD
ATOM     55  C   UNL A   1      39.643  28.001  27.560  1.00  0.00     0.037 A 
ATOM     56  C   UNL A   1      44.346  26.382  32.524  1.00  0.00     0.037 A 
ATOM     57  C   UNL A   1      40.766  28.870  27.294  1.00  0.00     0.049 A 
ATOM     58  C   UNL A   1      43.889  27.716  32.083  1.00  0.00     0.074 A 
ATOM     59  C   UNL A   1      41.548  29.202  26.210  1.00  0.00     0.029 A 
ATOM     60  N   UNL A   1      41.461  29.225  28.420  1.00  0.00    -0.354 N 
ATOM     61  N   UNL A   1      44.549  28.463  31.243  1.00  0.00    -0.248 NA
ATOM     62  C   UNL A   1      42.488  28.067  32.266  1.00  0.00     0.031 C 
ATOM     63  C   UNL A   1      42.836  29.510  26.744  1.00  0.00     0.029 A 
ATOM     64  C   UNL A   1      42.779  29.425  28.136  1.00  0.00     0.049 A 
ATOM     65  H   UNL A   1      41.061  29.323  29.313  1.00  0.00     0.167 HD
ATOM     66  C   UNL A   1      43.570  29.068  30.476  1.00  0.00     0.074 A 
ATOM     67  C   UNL A   1      42.339  28.922  31.252  1.00  0.00     0.031 C 
ATOM     68  C   UNL A   1      43.800  29.335  29.157  1.00  0.00     0.037 A 
BRANCH  55  69
ATOM     69  C   UNL A   1      38.493  28.489  28.440  1.00  0.00     0.057 A 
ATOM     70  C   UNL A   1      37.689  29.546  27.959  1.00  0.00     0.134 A 
ATOM     71  C   UNL A   1      38.350  28.234  29.820  1.00  0.00     0.134 A 
ATOM     72  F   UNL A   1      37.704  29.887  26.661  1.00  0.00    -0.206 F 
ATOM     73  C   UNL A   1      36.915  30.357  28.800  1.00  0.00     0.040 A 
ATOM     74  C   UNL A   1      37.547  29.015  30.662  1.00  0.00     0.040 A 
ATOM     75  F   UNL A   1      39.033  27.284  30.463  1.00  0.00    -0.206 F 
ATOM     76  C   UNL A   1      36.858  30.105  30.162  1.00  0.00     0.006 A 
ENDBRANCH  55  69
BRANCH  56  77
ATOM     77  C   UNL A   1      44.507  26.053  33.960  1.00  0.00     0.057 A 
ATOM     78  C   UNL A   1      43.440  25.534  34.712  1.00  0.00     0.134 A 
ATOM     79  C   UNL A   1      45.779  25.949  34.546  1.00  0.00     0.134 A 
ATOM     80  F   UNL A   1      42.191  25.555  34.225  1.00  0.00    -0.206 F 
ATOM     81  C   UNL A   1      43.633  24.911  35.953  1.00  0.00     0.040 A 
ATOM     82  C   UNL A   1      45.985  25.330  35.785  1.00  0.00     0.040 A 
ATOM     83  F   UNL A   1      46.875  26.358  33.890  1.00  0.00    -0.206 F 
ATOM     84  C   UNL A   1      44.913  24.792  36.486  1.00  0.00     0.006 A 
ENDBRANCH  56  77
BRANCH  68  85
ATOM     85  C   UNL A   1      45.229  29.370  28.700  1.00  0.00     0.057 A 
ATOM     86  C   UNL A   1      45.920  28.288  28.137  1.00  0.00     0.134 A 
ATOM     87  C   UNL A   1      45.896  30.599  28.737  1.00  0.00     0.134 A 
ATOM     88  F   UNL A   1      45.337  27.092  27.987  1.00  0.00    -0.206 F 
ATOM     89  C   UNL A   1      47.230  28.419  27.664  1.00  0.00     0.040 A 
ATOM     90  C   UNL A   1      47.189  30.752  28.237  1.00  0.00     0.040 A 
ATOM     91  F   UNL A   1      45.276  31.687  29.222  1.00  0.00    -0.206 F 
ATOM     92  C   UNL A   1      47.865  29.658  27.708  1.00  0.00     0.006 A 
ENDBRANCH  68  85
ENDBRANCH  42  43
ENDBRANCH  34  37
ENDBRANCH  32  33
ENDBRANCH   1  32
TORSDOF 13
ENDMDL
MODEL 3
REMARK VINA RESULT:     -13.2      2.671      7.915
REMARK SMILES Cc1cnn(C2(C(=O)NCCCCNC(=O)c3ccc(-c4c5nc(c(-c6c(F)cccc6F)c6ccc([nH]6)c(-c6c(F)cccc6F)c6nc(c(-c7c(F)cccc7F)c7ccc4[nH]7)C=C6)C=C5)cc3)CCN(C(=O)c3cc4ccccc4[nH]3)CC2)c1
REMARK SMILES IDX 12 1 11 2 10 3 9 4 7 5 8 6 6 8 71 9 86 10 72 11 85 12 73 13
REMARK SMILES IDX 74 14 75 15 5 16 1 17 2 18 3 19 87 20 4 21 76 22 77 23 84 24
REMARK SMILES IDX 78 25 83 26 79 28 82 29 80 30 81 31 13 32 14 33 15 34 16 36
REMARK SMILES IDX 17 37 18 38 70 39 19 40 69 41 20 42 21 43 22 44 63 45 23 46
REMARK SMILES IDX 68 47 62 48 64 49 24 50 67 51 61 52 60 53 25 55 51 56 34 57
REMARK SMILES IDX 50 58 35 59 38 60 49 61 65 62 36 63 37 64 48 66 66 67 39 68
REMARK SMILES IDX 26 69 27 70 32 71 28 72 29 73 31 74 33 75 30 76 52 77 53 78
REMARK SMILES IDX 58 79 54 80 55 81 57 82 59 83 56 84 40 85 41 86 46 87 42 88
REMARK SMILES IDX 43 89 45 90 47 91 44 92
REMARK H PARENT 9 7 84 27 14 35 64 54 38 65
REMARK Flexibility Score: inf
ROOT
ATOM      1  C   UNL A   1      39.849  20.346  26.064  1.00  0.00     0.023 C 
ENDROOT
BRANCH   1   2
ATOM      2  C   UNL A   1      39.061  21.660  25.993  1.00  0.00     0.023 C 
BRANCH   2   3
ATOM      3  C   UNL A   1      37.609  21.553  25.511  1.00  0.00     0.116 C 
BRANCH   3   4
ATOM      4  N   UNL A   1      37.401  22.193  24.218  1.00  0.00    -0.354 N 
ATOM      5  C   UNL A   1      36.325  22.824  23.629  1.00  0.00     0.248 C 
ATOM      6  O   UNL A   1      36.576  23.231  22.493  1.00  0.00    -0.272 OA
ATOM      7  H   UNL A   1      38.199  22.172  23.642  1.00  0.00     0.163 HD
BRANCH   5   8
ATOM      8  C   UNL A   1      34.964  23.017  24.389  1.00  0.00     0.144 C 
ATOM      9  C   UNL A   1      35.261  23.853  25.662  1.00  0.00     0.062 C 
ATOM     10  C   UNL A   1      34.005  23.669  23.364  1.00  0.00     0.062 C 
ATOM     11  C   UNL A   1      34.159  24.803  26.107  1.00  0.00     0.123 C 
ATOM     12  C   UNL A   1      32.935  24.560  23.964  1.00  0.00     0.123 C 
ATOM     13  N   UNL A   1      33.463  25.441  25.001  1.00  0.00    -0.337 N 
ATOM     14  C   UNL A   1      33.242  26.819  25.053  1.00  0.00     0.270 C 
ATOM     15  O   UNL A   1      33.944  27.556  25.756  1.00  0.00    -0.267 OA
BRANCH   8  16
ATOM     16  N   UNL A   1      34.304  21.749  24.848  1.00  0.00    -0.257 N 
ATOM     17  C   UNL A   1      32.592  18.532  24.432  1.00  0.00     0.048 C 
ATOM     18  C   UNL A   1      33.265  19.781  24.847  1.00  0.00    -0.013 A 
ATOM     19  C   UNL A   1      33.482  20.277  26.144  1.00  0.00     0.138 A 
ATOM     20  C   UNL A   1      33.826  20.741  24.038  1.00  0.00     0.113 A 
ATOM     21  N   UNL A   1      34.124  21.445  26.145  1.00  0.00    -0.180 NA
ENDBRANCH   8  16
BRANCH  14  22
ATOM     22  C   UNL A   1      32.196  27.367  24.225  1.00  0.00     0.105 A 
ATOM     23  C   UNL A   1      32.246  28.303  23.203  1.00  0.00     0.042 A 
ATOM     24  N   UNL A   1      30.881  26.970  24.315  1.00  0.00    -0.351 N 
ATOM     25  C   UNL A   1      30.916  28.664  22.872  1.00  0.00     0.000 A 
ATOM     26  C   UNL A   1      30.075  27.801  23.571  1.00  0.00     0.046 A 
ATOM     27  H   UNL A   1      30.561  26.200  24.839  1.00  0.00     0.167 HD
ATOM     28  C   UNL A   1      30.353  29.661  22.056  1.00  0.00     0.010 A 
ATOM     29  C   UNL A   1      28.682  27.862  23.466  1.00  0.00     0.026 A 
ATOM     30  C   UNL A   1      28.961  29.764  21.972  1.00  0.00     0.001 A 
ATOM     31  C   UNL A   1      28.141  28.868  22.658  1.00  0.00     0.002 A 
ENDBRANCH  14  22
ENDBRANCH   5   8
ENDBRANCH   3   4
ENDBRANCH   2   3
ENDBRANCH   1   2
BRANCH   1  32
ATOM     32  C   UNL A   1      41.093  20.405  26.936  1.00  0.00     0.116 C 
BRANCH  32  33
ATOM     33  N   UNL A   1      42.307  19.986  26.234  1.00  0.00    -0.352 N 
ATOM     34  C   UNL A   1      43.240  20.790  25.607  1.00  0.00     0.251 C 
ATOM     35  H   UNL A   1      42.481  19.017  26.206  1.00  0.00     0.163 HD
ATOM     36  O   UNL A   1      44.002  20.341  24.756  1.00  0.00    -0.269 OA
BRANCH  34  37
ATOM     37  C   UNL A   1      43.319  22.205  25.999  1.00  0.00     0.039 A 
ATOM     38  C   UNL A   1      42.660  23.213  25.286  1.00  0.00     0.014 A 
ATOM     39  C   UNL A   1      44.054  22.500  27.142  1.00  0.00     0.014 A 
ATOM     40  C   UNL A   1      42.689  24.515  25.784  1.00  0.00     0.010 A 
ATOM     41  C   UNL A   1      43.937  23.733  27.720  1.00  0.00     0.010 A 
ATOM     42  C   UNL A   1      43.318  24.760  27.014  1.00  0.00    -0.014 A 
BRANCH  42  43
ATOM     43  C   UNL A   1      43.221  26.052  27.687  1.00  0.00     0.031 A 
ATOM     44  C   UNL A   1      44.267  27.019  27.248  1.00  0.00     0.074 A 
ATOM     45  C   UNL A   1      42.112  26.390  28.386  1.00  0.00     0.049 A 
ATOM     46  N   UNL A   1      45.213  27.545  27.955  1.00  0.00    -0.248 NA
ATOM     47  C   UNL A   1      44.391  27.304  25.805  1.00  0.00     0.031 C 
ATOM     48  C   UNL A   1      40.901  25.574  28.579  1.00  0.00     0.029 A 
ATOM     49  N   UNL A   1      41.756  27.575  28.959  1.00  0.00    -0.354 N 
ATOM     50  C   UNL A   1      45.880  28.425  27.099  1.00  0.00     0.074 A 
ATOM     51  C   UNL A   1      45.496  28.050  25.768  1.00  0.00     0.031 C 
ATOM     52  C   UNL A   1      39.878  26.355  28.987  1.00  0.00     0.029 A 
ATOM     53  C   UNL A   1      40.393  27.683  29.256  1.00  0.00     0.049 A 
ATOM     54  H   UNL A   1      42.401  28.294  29.146  1.00  0.00     0.167 HD
ATOM     55  C   UNL A   1      46.399  29.589  27.582  1.00  0.00     0.037 A 
ATOM     56  C   UNL A   1      39.738  28.795  29.673  1.00  0.00     0.037 A 
ATOM     57  C   UNL A   1      46.476  29.528  29.023  1.00  0.00     0.049 A 
ATOM     58  C   UNL A   1      40.764  29.726  30.187  1.00  0.00     0.074 A 
ATOM     59  C   UNL A   1      47.192  28.824  29.965  1.00  0.00     0.029 A 
ATOM     60  N   UNL A   1      45.369  30.036  29.650  1.00  0.00    -0.354 N 
ATOM     61  N   UNL A   1      41.470  29.500  31.260  1.00  0.00    -0.248 NA
ATOM     62  C   UNL A   1      41.299  30.737  29.288  1.00  0.00     0.031 C 
ATOM     63  C   UNL A   1      46.329  28.707  31.096  1.00  0.00     0.029 A 
ATOM     64  C   UNL A   1      45.147  29.401  30.836  1.00  0.00     0.049 A 
ATOM     65  H   UNL A   1      44.811  30.763  29.293  1.00  0.00     0.167 HD
ATOM     66  C   UNL A   1      42.725  29.994  30.958  1.00  0.00     0.074 A 
ATOM     67  C   UNL A   1      42.516  30.883  29.816  1.00  0.00     0.031 C 
ATOM     68  C   UNL A   1      43.840  29.383  31.457  1.00  0.00     0.037 A 
BRANCH  55  69
ATOM     69  C   UNL A   1      46.293  30.942  26.880  1.00  0.00     0.057 A 
ATOM     70  C   UNL A   1      47.440  31.766  26.844  1.00  0.00     0.134 A 
ATOM     71  C   UNL A   1      45.091  31.608  26.559  1.00  0.00     0.134 A 
ATOM     72  F   UNL A   1      48.657  31.264  27.106  1.00  0.00    -0.206 F 
ATOM     73  C   UNL A   1      47.376  33.151  26.637  1.00  0.00     0.040 A 
ATOM     74  C   UNL A   1      45.023  32.985  26.311  1.00  0.00     0.040 A 
ATOM     75  F   UNL A   1      43.900  31.005  26.549  1.00  0.00    -0.206 F 
ATOM     76  C   UNL A   1      46.161  33.769  26.388  1.00  0.00     0.006 A 
ENDBRANCH  55  69
BRANCH  56  77
ATOM     77  C   UNL A   1      38.345  29.236  29.427  1.00  0.00     0.057 A 
ATOM     78  C   UNL A   1      37.463  29.490  30.491  1.00  0.00     0.134 A 
ATOM     79  C   UNL A   1      37.941  29.711  28.168  1.00  0.00     0.134 A 
ATOM     80  F   UNL A   1      37.773  29.106  31.738  1.00  0.00    -0.206 F 
ATOM     81  C   UNL A   1      36.272  30.211  30.320  1.00  0.00     0.040 A 
ATOM     82  C   UNL A   1      36.755  30.430  27.984  1.00  0.00     0.040 A 
ATOM     83  F   UNL A   1      38.734  29.575  27.095  1.00  0.00    -0.206 F 
ATOM     84  C   UNL A   1      35.923  30.699  29.065  1.00  0.00     0.006 A 
ENDBRANCH  56  77
BRANCH  68  85
ATOM     85  C   UNL A   1      43.661  28.488  32.648  1.00  0.00     0.057 A 
ATOM     86  C   UNL A   1      43.518  27.095  32.592  1.00  0.00     0.134 A 
ATOM     87  C   UNL A   1      43.747  29.067  33.918  1.00  0.00     0.134 A 
ATOM     88  F   UNL A   1      43.505  26.443  31.422  1.00  0.00    -0.206 F 
ATOM     89  C   UNL A   1      43.433  26.318  33.752  1.00  0.00     0.040 A 
ATOM     90  C   UNL A   1      43.698  28.301  35.083  1.00  0.00     0.040 A 
ATOM     91  F   UNL A   1      43.929  30.391  34.044  1.00  0.00    -0.206 F 
ATOM     92  C   UNL A   1      43.529  26.922  35.003  1.00  0.00     0.006 A 
ENDBRANCH  68  85
ENDBRANCH  42  43
ENDBRANCH  34  37
ENDBRANCH  32  33
ENDBRANCH   1  32
TORSDOF 13
ENDMDL
