MODEL 1
REMARK VINA RESULT:     -12.1      0.000      0.000
REMARK SMILES O=C(CC(=O)c1ccccc1)Nc1cccc(C(=O)NCCCCNC(=O)c2ccc(-c3c4nc(c(-c5c(F)cccc5F)c5ccc([nH]5)c(-c5c(F)cccc5F)c5nc(c(-c6c(F)cccc6F)c6ccc3[nH]6)C=C5)C=C4)cc2)c1
REMARK SMILES IDX 21 1 20 2 18 3 19 4 17 6 13 7 14 8 82 9 15 10 16 11 12 12
REMARK SMILES IDX 1 13 2 14 3 16 4 17 5 18 6 19 7 20 11 21 8 22 10 23 9 24
REMARK SMILES IDX 22 25 23 26 24 27 25 28 26 29 27 31 28 32 29 33 81 34 30 35
REMARK SMILES IDX 80 36 31 37 32 38 33 39 74 40 34 41 79 42 73 43 75 44 35 45
REMARK SMILES IDX 78 46 72 47 71 48 36 50 62 51 45 52 61 53 46 54 49 55 60 56
REMARK SMILES IDX 76 57 47 58 48 59 59 61 77 62 50 63 37 64 38 65 43 66 39 67
REMARK SMILES IDX 40 68 42 69 44 70 41 71 63 72 64 73 69 74 65 75 66 76 68 77
REMARK SMILES IDX 70 78 67 79 51 80 52 81 57 82 53 83 54 84 56 85 58 86 55 87
REMARK H PARENT 20 5 12 15 25 30 75 49 49 60
REMARK Flexibility Score: inf
ROOT
ATOM      1  C   UNL A   1      32.951  30.011  26.414  1.00  0.00     0.116 C 
ENDROOT
BRANCH   1   2
ATOM      2  N   UNL A   1      33.556  29.738  25.113  1.00  0.00    -0.352 N 
ATOM      3  C   UNL A   1      33.164  28.846  24.129  1.00  0.00     0.251 C 
ATOM      4  O   UNL A   1      33.808  28.768  23.086  1.00  0.00    -0.269 OA
ATOM      5  H   UNL A   1      34.360  30.266  24.906  1.00  0.00     0.163 HD
BRANCH   3   6
ATOM      6  C   UNL A   1      32.024  27.920  24.359  1.00  0.00     0.041 A 
ATOM      7  C   UNL A   1      31.314  25.653  24.771  1.00  0.00     0.041 A 
ATOM      8  C   UNL A   1      30.053  25.961  24.255  1.00  0.00     0.026 A 
ATOM      9  C   UNL A   1      32.226  26.684  24.968  1.00  0.00     0.040 A 
ATOM     10  C   UNL A   1      29.763  27.266  23.839  1.00  0.00     0.003 A 
ATOM     11  C   UNL A   1      30.766  28.238  23.846  1.00  0.00     0.014 A 
BRANCH   7  12
ATOM     12  N   UNL A   1      31.660  24.292  24.946  1.00  0.00    -0.326 N 
ATOM     13  O   UNL A   1      31.376  24.057  27.252  1.00  0.00    -0.274 OA
ATOM     14  C   UNL A   1      31.693  23.604  26.152  1.00  0.00     0.232 C 
ATOM     15  H   UNL A   1      31.900  23.784  24.136  1.00  0.00     0.169 HD
BRANCH  14  16
ATOM     16  C   UNL A   1      32.233  22.207  26.078  1.00  0.00     0.181 C 
BRANCH  16  17
ATOM     17  C   UNL A   1      32.820  21.755  24.775  1.00  0.00     0.172 C 
ATOM     18  O   UNL A   1      32.084  21.380  23.861  1.00  0.00    -0.294 OA
BRANCH  17  19
ATOM     19  C   UNL A   1      34.291  21.791  24.539  1.00  0.00     0.018 A 
ATOM     20  C   UNL A   1      35.051  20.755  25.095  1.00  0.00     0.012 A 
ATOM     21  C   UNL A   1      34.943  22.835  23.871  1.00  0.00     0.012 A 
ATOM     22  C   UNL A   1      36.443  20.770  25.001  1.00  0.00     0.001 A 
ATOM     23  C   UNL A   1      36.337  22.860  23.802  1.00  0.00     0.001 A 
ATOM     24  C   UNL A   1      37.086  21.831  24.367  1.00  0.00     0.000 A 
ENDBRANCH  17  19
ENDBRANCH  16  17
ENDBRANCH  14  16
ENDBRANCH   7  12
ENDBRANCH   3   6
ENDBRANCH   1   2
BRANCH   1  25
ATOM     25  C   UNL A   1      31.549  30.599  26.377  1.00  0.00     0.023 C 
BRANCH  25  26
ATOM     26  C   UNL A   1      31.445  32.110  26.509  1.00  0.00     0.023 C 
BRANCH  26  27
ATOM     27  C   UNL A   1      32.580  32.793  27.260  1.00  0.00     0.116 C 
BRANCH  27  28
ATOM     28  N   UNL A   1      32.307  34.177  27.623  1.00  0.00    -0.352 N 
ATOM     29  C   UNL A   1      32.942  34.989  28.538  1.00  0.00     0.251 C 
ATOM     30  H   UNL A   1      31.556  34.595  27.142  1.00  0.00     0.163 HD
ATOM     31  O   UNL A   1      32.522  36.113  28.770  1.00  0.00    -0.269 OA
BRANCH  29  32
ATOM     32  C   UNL A   1      34.117  34.476  29.280  1.00  0.00     0.039 A 
ATOM     33  C   UNL A   1      33.918  33.853  30.516  1.00  0.00     0.014 A 
ATOM     34  C   UNL A   1      35.402  34.571  28.741  1.00  0.00     0.014 A 
ATOM     35  C   UNL A   1      34.994  33.234  31.159  1.00  0.00     0.010 A 
ATOM     36  C   UNL A   1      36.451  33.880  29.338  1.00  0.00     0.010 A 
ATOM     37  C   UNL A   1      36.257  33.197  30.549  1.00  0.00    -0.014 A 
BRANCH  37  38
ATOM     38  C   UNL A   1      37.392  32.447  31.145  1.00  0.00     0.031 A 
ATOM     39  C   UNL A   1      38.011  32.918  32.432  1.00  0.00     0.074 A 
ATOM     40  C   UNL A   1      37.931  31.402  30.483  1.00  0.00     0.049 A 
ATOM     41  N   UNL A   1      39.086  32.488  33.042  1.00  0.00    -0.248 NA
ATOM     42  C   UNL A   1      37.349  34.047  33.105  1.00  0.00     0.031 C 
ATOM     43  C   UNL A   1      37.460  30.874  29.201  1.00  0.00     0.029 A 
ATOM     44  N   UNL A   1      39.009  30.610  30.790  1.00  0.00    -0.354 N 
ATOM     45  C   UNL A   1      39.245  33.310  34.149  1.00  0.00     0.074 A 
ATOM     46  C   UNL A   1      38.184  34.293  34.103  1.00  0.00     0.031 C 
ATOM     47  C   UNL A   1      38.232  29.836  28.843  1.00  0.00     0.029 A 
ATOM     48  C   UNL A   1      39.276  29.649  29.845  1.00  0.00     0.049 A 
ATOM     49  H   UNL A   1      39.541  30.719  31.612  1.00  0.00     0.167 HD
ATOM     50  C   UNL A   1      40.178  33.242  35.128  1.00  0.00     0.037 A 
ATOM     51  C   UNL A   1      40.258  28.730  29.786  1.00  0.00     0.037 A 
ATOM     52  C   UNL A   1      41.208  32.241  35.195  1.00  0.00     0.049 A 
ATOM     53  C   UNL A   1      41.272  28.663  30.894  1.00  0.00     0.074 A 
ATOM     54  C   UNL A   1      42.160  32.048  36.182  1.00  0.00     0.029 A 
ATOM     55  N   UNL A   1      41.418  31.258  34.239  1.00  0.00    -0.354 N 
ATOM     56  N   UNL A   1      41.376  29.411  31.965  1.00  0.00    -0.248 NA
ATOM     57  C   UNL A   1      42.304  27.621  30.787  1.00  0.00     0.031 C 
ATOM     58  C   UNL A   1      42.966  30.968  35.806  1.00  0.00     0.029 A 
ATOM     59  C   UNL A   1      42.491  30.465  34.606  1.00  0.00     0.049 A 
ATOM     60  H   UNL A   1      40.883  31.144  33.421  1.00  0.00     0.167 HD
ATOM     61  C   UNL A   1      42.463  28.912  32.673  1.00  0.00     0.074 A 
ATOM     62  C   UNL A   1      42.980  27.793  31.914  1.00  0.00     0.031 C 
ATOM     63  C   UNL A   1      42.982  29.343  33.848  1.00  0.00     0.037 A 
BRANCH  50  64
ATOM     64  C   UNL A   1      40.116  34.277  36.212  1.00  0.00     0.057 A 
ATOM     65  C   UNL A   1      39.342  34.093  37.365  1.00  0.00     0.134 A 
ATOM     66  C   UNL A   1      40.858  35.460  36.113  1.00  0.00     0.134 A 
ATOM     67  F   UNL A   1      38.598  32.987  37.514  1.00  0.00    -0.206 F 
ATOM     68  C   UNL A   1      39.284  35.062  38.367  1.00  0.00     0.040 A 
ATOM     69  C   UNL A   1      40.830  36.425  37.122  1.00  0.00     0.040 A 
ATOM     70  F   UNL A   1      41.626  35.698  35.038  1.00  0.00    -0.206 F 
ATOM     71  C   UNL A   1      40.036  36.230  38.249  1.00  0.00     0.006 A 
ENDBRANCH  50  64
BRANCH  51  72
ATOM     72  C   UNL A   1      40.318  27.776  28.650  1.00  0.00     0.057 A 
ATOM     73  C   UNL A   1      39.645  26.549  28.706  1.00  0.00     0.134 A 
ATOM     74  C   UNL A   1      41.051  28.058  27.492  1.00  0.00     0.134 A 
ATOM     75  F   UNL A   1      38.943  26.215  29.798  1.00  0.00    -0.206 F 
ATOM     76  C   UNL A   1      39.714  25.629  27.659  1.00  0.00     0.040 A 
ATOM     77  C   UNL A   1      41.110  27.157  26.428  1.00  0.00     0.040 A 
ATOM     78  F   UNL A   1      41.713  29.220  27.375  1.00  0.00    -0.206 F 
ATOM     79  C   UNL A   1      40.446  25.935  26.513  1.00  0.00     0.006 A 
ENDBRANCH  51  72
BRANCH  63  80
ATOM     80  C   UNL A   1      44.143  28.576  34.409  1.00  0.00     0.057 A 
ATOM     81  C   UNL A   1      45.468  28.944  34.149  1.00  0.00     0.134 A 
ATOM     82  C   UNL A   1      43.927  27.486  35.260  1.00  0.00     0.134 A 
ATOM     83  F   UNL A   1      45.740  29.973  33.331  1.00  0.00    -0.206 F 
ATOM     84  C   UNL A   1      46.539  28.244  34.704  1.00  0.00     0.040 A 
ATOM     85  C   UNL A   1      44.989  26.792  35.839  1.00  0.00     0.040 A 
ATOM     86  F   UNL A   1      42.680  27.088  35.555  1.00  0.00    -0.206 F 
ATOM     87  C   UNL A   1      46.301  27.169  35.559  1.00  0.00     0.006 A 
ENDBRANCH  63  80
ENDBRANCH  37  38
ENDBRANCH  29  32
ENDBRANCH  27  28
ENDBRANCH  26  27
ENDBRANCH  25  26
ENDBRANCH   1  25
TORSDOF 15
ENDMDL
MODEL 2
REMARK VINA RESULT:     -12.1      1.165      6.312
REMARK SMILES O=C(CC(=O)c1ccccc1)Nc1cccc(C(=O)NCCCCNC(=O)c2ccc(-c3c4nc(c(-c5c(F)cccc5F)c5ccc([nH]5)c(-c5c(F)cccc5F)c5nc(c(-c6c(F)cccc6F)c6ccc3[nH]6)C=C5)C=C4)cc2)c1
REMARK SMILES IDX 21 1 20 2 18 3 19 4 17 6 13 7 14 8 82 9 15 10 16 11 12 12
REMARK SMILES IDX 1 13 2 14 3 16 4 17 5 18 6 19 7 20 11 21 8 22 10 23 9 24
REMARK SMILES IDX 22 25 23 26 24 27 25 28 26 29 27 31 28 32 29 33 81 34 30 35
REMARK SMILES IDX 80 36 31 37 32 38 33 39 74 40 34 41 79 42 73 43 75 44 35 45
REMARK SMILES IDX 78 46 72 47 71 48 36 50 62 51 45 52 61 53 46 54 49 55 60 56
REMARK SMILES IDX 76 57 47 58 48 59 59 61 77 62 50 63 37 64 38 65 43 66 39 67
REMARK SMILES IDX 40 68 42 69 44 70 41 71 63 72 64 73 69 74 65 75 66 76 68 77
REMARK SMILES IDX 70 78 67 79 51 80 52 81 57 82 53 83 54 84 56 85 58 86 55 87
REMARK H PARENT 20 5 12 15 25 30 75 49 49 60
REMARK Flexibility Score: inf
ROOT
ATOM      1  C   UNL A   1      33.212  29.685  26.163  1.00  0.00     0.116 C 
ENDROOT
BRANCH   1   2
ATOM      2  N   UNL A   1      33.215  29.682  24.703  1.00  0.00    -0.352 N 
ATOM      3  C   UNL A   1      32.555  28.842  23.822  1.00  0.00     0.251 C 
ATOM      4  O   UNL A   1      32.679  29.008  22.612  1.00  0.00    -0.269 OA
ATOM      5  H   UNL A   1      33.768  30.379  24.284  1.00  0.00     0.163 HD
BRANCH   3   6
ATOM      6  C   UNL A   1      31.766  27.687  24.327  1.00  0.00     0.041 A 
ATOM      7  C   UNL A   1      31.781  25.374  25.010  1.00  0.00     0.041 A 
ATOM      8  C   UNL A   1      30.415  25.291  24.732  1.00  0.00     0.026 A 
ATOM      9  C   UNL A   1      32.398  26.620  24.961  1.00  0.00     0.040 A 
ATOM     10  C   UNL A   1      29.714  26.423  24.299  1.00  0.00     0.003 A 
ATOM     11  C   UNL A   1      30.401  27.613  24.050  1.00  0.00     0.014 A 
BRANCH   7  12
ATOM     12  N   UNL A   1      32.509  24.175  25.199  1.00  0.00    -0.326 N 
ATOM     13  O   UNL A   1      33.002  23.607  22.989  1.00  0.00    -0.274 OA
ATOM     14  C   UNL A   1      33.037  23.373  24.196  1.00  0.00     0.232 C 
ATOM     15  H   UNL A   1      32.653  23.882  26.128  1.00  0.00     0.169 HD
BRANCH  14  16
ATOM     16  C   UNL A   1      33.640  22.080  24.661  1.00  0.00     0.181 C 
BRANCH  16  17
ATOM     17  C   UNL A   1      32.744  20.880  24.729  1.00  0.00     0.172 C 
ATOM     18  O   UNL A   1      31.623  20.972  25.230  1.00  0.00    -0.294 OA
BRANCH  17  19
ATOM     19  C   UNL A   1      33.166  19.570  24.159  1.00  0.00     0.018 A 
ATOM     20  C   UNL A   1      32.359  19.025  23.152  1.00  0.00     0.012 A 
ATOM     21  C   UNL A   1      34.261  18.836  24.630  1.00  0.00     0.012 A 
ATOM     22  C   UNL A   1      32.632  17.757  22.637  1.00  0.00     0.001 A 
ATOM     23  C   UNL A   1      34.515  17.557  24.130  1.00  0.00     0.001 A 
ATOM     24  C   UNL A   1      33.701  17.018  23.137  1.00  0.00     0.000 A 
ENDBRANCH  17  19
ENDBRANCH  16  17
ENDBRANCH  14  16
ENDBRANCH   7  12
ENDBRANCH   3   6
ENDBRANCH   1   2
BRANCH   1  25
ATOM     25  C   UNL A   1      31.951  30.230  26.817  1.00  0.00     0.023 C 
BRANCH  25  26
ATOM     26  C   UNL A   1      31.732  31.731  26.718  1.00  0.00     0.023 C 
BRANCH  26  27
ATOM     27  C   UNL A   1      32.829  32.606  27.310  1.00  0.00     0.116 C 
BRANCH  27  28
ATOM     28  N   UNL A   1      32.407  33.965  27.618  1.00  0.00    -0.352 N 
ATOM     29  C   UNL A   1      32.941  34.874  28.507  1.00  0.00     0.251 C 
ATOM     30  H   UNL A   1      31.622  34.284  27.114  1.00  0.00     0.163 HD
ATOM     31  O   UNL A   1      32.401  35.955  28.691  1.00  0.00    -0.269 OA
BRANCH  29  32
ATOM     32  C   UNL A   1      34.153  34.516  29.279  1.00  0.00     0.039 A 
ATOM     33  C   UNL A   1      34.007  34.027  30.581  1.00  0.00     0.014 A 
ATOM     34  C   UNL A   1      35.423  34.622  28.708  1.00  0.00     0.014 A 
ATOM     35  C   UNL A   1      35.124  33.548  31.269  1.00  0.00     0.010 A 
ATOM     36  C   UNL A   1      36.518  34.064  29.359  1.00  0.00     0.010 A 
ATOM     37  C   UNL A   1      36.380  33.513  30.642  1.00  0.00    -0.014 A 
BRANCH  37  38
ATOM     38  C   UNL A   1      37.565  32.901  31.297  1.00  0.00     0.031 A 
ATOM     39  C   UNL A   1      38.237  31.711  30.671  1.00  0.00     0.074 A 
ATOM     40  C   UNL A   1      37.977  33.351  32.499  1.00  0.00     0.049 A 
ATOM     41  N   UNL A   1      39.192  30.952  31.147  1.00  0.00    -0.248 NA
ATOM     42  C   UNL A   1      37.745  31.297  29.347  1.00  0.00     0.031 C 
ATOM     43  C   UNL A   1      37.382  34.465  33.240  1.00  0.00     0.029 A 
ATOM     44  N   UNL A   1      38.984  32.909  33.321  1.00  0.00    -0.354 N 
ATOM     45  C   UNL A   1      39.393  29.960  30.198  1.00  0.00     0.074 A 
ATOM     46  C   UNL A   1      38.430  30.184  29.140  1.00  0.00     0.031 C 
ATOM     47  C   UNL A   1      38.046  34.631  34.395  1.00  0.00     0.029 A 
ATOM     48  C   UNL A   1      39.086  33.612  34.497  1.00  0.00     0.049 A 
ATOM     49  H   UNL A   1      39.579  32.160  33.089  1.00  0.00     0.167 HD
ATOM     50  C   UNL A   1      40.309  28.962  30.195  1.00  0.00     0.037 A 
ATOM     51  C   UNL A   1      39.915  33.447  35.546  1.00  0.00     0.037 A 
ATOM     52  C   UNL A   1      41.292  28.764  31.226  1.00  0.00     0.049 A 
ATOM     53  C   UNL A   1      40.935  32.343  35.511  1.00  0.00     0.074 A 
ATOM     54  C   UNL A   1      42.305  27.822  31.282  1.00  0.00     0.029 A 
ATOM     55  N   UNL A   1      41.388  29.525  32.382  1.00  0.00    -0.354 N 
ATOM     56  N   UNL A   1      41.151  31.447  34.580  1.00  0.00    -0.248 NA
ATOM     57  C   UNL A   1      41.829  32.230  36.673  1.00  0.00     0.031 C 
ATOM     58  C   UNL A   1      42.994  27.994  32.487  1.00  0.00     0.029 A 
ATOM     59  C   UNL A   1      42.435  29.066  33.162  1.00  0.00     0.049 A 
ATOM     60  H   UNL A   1      40.798  30.278  32.612  1.00  0.00     0.167 HD
ATOM     61  C   UNL A   1      42.224  30.685  35.028  1.00  0.00     0.074 A 
ATOM     62  C   UNL A   1      42.618  31.229  36.311  1.00  0.00     0.031 C 
ATOM     63  C   UNL A   1      42.827  29.630  34.428  1.00  0.00     0.037 A 
BRANCH  50  64
ATOM     64  C   UNL A   1      40.294  28.016  29.031  1.00  0.00     0.057 A 
ATOM     65  C   UNL A   1      41.034  28.266  27.868  1.00  0.00     0.134 A 
ATOM     66  C   UNL A   1      39.552  26.830  29.083  1.00  0.00     0.134 A 
ATOM     67  F   UNL A   1      41.755  29.390  27.749  1.00  0.00    -0.206 F 
ATOM     68  C   UNL A   1      41.012  27.385  26.786  1.00  0.00     0.040 A 
ATOM     69  C   UNL A   1      39.543  25.928  28.018  1.00  0.00     0.040 A 
ATOM     70  F   UNL A   1      38.826  26.526  30.169  1.00  0.00    -0.206 F 
ATOM     71  C   UNL A   1      40.269  26.208  26.863  1.00  0.00     0.006 A 
ENDBRANCH  50  64
BRANCH  51  72
ATOM     72  C   UNL A   1      39.836  34.366  36.709  1.00  0.00     0.057 A 
ATOM     73  C   UNL A   1      39.068  34.037  37.833  1.00  0.00     0.134 A 
ATOM     74  C   UNL A   1      40.512  35.591  36.725  1.00  0.00     0.134 A 
ATOM     75  F   UNL A   1      38.381  32.886  37.866  1.00  0.00    -0.206 F 
ATOM     76  C   UNL A   1      38.959  34.902  38.923  1.00  0.00     0.040 A 
ATOM     77  C   UNL A   1      40.432  36.455  37.818  1.00  0.00     0.040 A 
ATOM     78  F   UNL A   1      41.270  35.960  35.681  1.00  0.00    -0.206 F 
ATOM     79  C   UNL A   1      39.647  36.115  38.918  1.00  0.00     0.006 A 
ENDBRANCH  51  72
BRANCH  63  80
ATOM     80  C   UNL A   1      44.005  29.022  35.128  1.00  0.00     0.057 A 
ATOM     81  C   UNL A   1      45.313  29.466  34.897  1.00  0.00     0.134 A 
ATOM     82  C   UNL A   1      43.821  28.013  36.081  1.00  0.00     0.134 A 
ATOM     83  F   UNL A   1      45.556  30.421  33.986  1.00  0.00    -0.206 F 
ATOM     84  C   UNL A   1      46.398  28.916  35.579  1.00  0.00     0.040 A 
ATOM     85  C   UNL A   1      44.896  27.472  36.786  1.00  0.00     0.040 A 
ATOM     86  F   UNL A   1      42.592  27.549  36.354  1.00  0.00    -0.206 F 
ATOM     87  C   UNL A   1      46.190  27.921  36.533  1.00  0.00     0.006 A 
ENDBRANCH  63  80
ENDBRANCH  37  38
ENDBRANCH  29  32
ENDBRANCH  27  28
ENDBRANCH  26  27
ENDBRANCH  25  26
ENDBRANCH   1  25
TORSDOF 15
ENDMDL
MODEL 3
REMARK VINA RESULT:     -12.0      1.302      1.899
REMARK SMILES O=C(CC(=O)c1ccccc1)Nc1cccc(C(=O)NCCCCNC(=O)c2ccc(-c3c4nc(c(-c5c(F)cccc5F)c5ccc([nH]5)c(-c5c(F)cccc5F)c5nc(c(-c6c(F)cccc6F)c6ccc3[nH]6)C=C5)C=C4)cc2)c1
REMARK SMILES IDX 21 1 20 2 18 3 19 4 17 6 13 7 14 8 82 9 15 10 16 11 12 12
REMARK SMILES IDX 1 13 2 14 3 16 4 17 5 18 6 19 7 20 11 21 8 22 10 23 9 24
REMARK SMILES IDX 22 25 23 26 24 27 25 28 26 29 27 31 28 32 29 33 81 34 30 35
REMARK SMILES IDX 80 36 31 37 32 38 33 39 74 40 34 41 79 42 73 43 75 44 35 45
REMARK SMILES IDX 78 46 72 47 71 48 36 50 62 51 45 52 61 53 46 54 49 55 60 56
REMARK SMILES IDX 76 57 47 58 48 59 59 61 77 62 50 63 37 64 38 65 43 66 39 67
REMARK SMILES IDX 40 68 42 69 44 70 41 71 63 72 64 73 69 74 65 75 66 76 68 77
REMARK SMILES IDX 70 78 67 79 51 80 52 81 57 82 53 83 54 84 56 85 58 86 55 87
REMARK H PARENT 20 5 12 15 25 30 75 49 49 60
REMARK Flexibility Score: inf
ROOT
ATOM      1  C   UNL A   1      32.924  30.007  26.089  1.00  0.00     0.116 C 
ENDROOT
BRANCH   1   2
ATOM      2  N   UNL A   1      33.406  29.729  24.740  1.00  0.00    -0.352 N 
ATOM      3  C   UNL A   1      33.124  28.659  23.906  1.00  0.00     0.251 C 
ATOM      4  O   UNL A   1      33.628  28.610  22.787  1.00  0.00    -0.269 OA
ATOM      5  H   UNL A   1      34.021  30.401  24.368  1.00  0.00     0.163 HD
BRANCH   3   6
ATOM      6  C   UNL A   1      32.288  27.528  24.385  1.00  0.00     0.041 A 
ATOM      7  C   UNL A   1      32.184  25.183  24.936  1.00  0.00     0.041 A 
ATOM      8  C   UNL A   1      30.804  25.201  24.724  1.00  0.00     0.026 A 
ATOM      9  C   UNL A   1      32.877  26.388  24.925  1.00  0.00     0.040 A 
ATOM     10  C   UNL A   1      30.158  26.398  24.393  1.00  0.00     0.003 A 
ATOM     11  C   UNL A   1      30.908  27.556  24.176  1.00  0.00     0.014 A 
BRANCH   7  12
ATOM     12  N   UNL A   1      32.840  23.931  25.018  1.00  0.00    -0.326 N 
ATOM     13  O   UNL A   1      33.858  23.828  22.919  1.00  0.00    -0.274 OA
ATOM     14  C   UNL A   1      33.596  23.336  24.017  1.00  0.00     0.232 C 
ATOM     15  H   UNL A   1      32.752  23.436  25.865  1.00  0.00     0.169 HD
BRANCH  14  16
ATOM     16  C   UNL A   1      34.063  21.941  24.310  1.00  0.00     0.181 C 
BRANCH  16  17
ATOM     17  C   UNL A   1      33.018  20.891  24.537  1.00  0.00     0.172 C 
ATOM     18  O   UNL A   1      31.933  21.195  25.035  1.00  0.00    -0.294 OA
BRANCH  17  19
ATOM     19  C   UNL A   1      33.245  19.476  24.129  1.00  0.00     0.018 A 
ATOM     20  C   UNL A   1      34.369  18.832  24.662  1.00  0.00     0.012 A 
ATOM     21  C   UNL A   1      32.450  18.802  23.194  1.00  0.00     0.012 A 
ATOM     22  C   UNL A   1      34.704  17.541  24.253  1.00  0.00     0.001 A 
ATOM     23  C   UNL A   1      32.804  17.520  22.768  1.00  0.00     0.001 A 
ATOM     24  C   UNL A   1      33.929  16.892  23.294  1.00  0.00     0.000 A 
ENDBRANCH  17  19
ENDBRANCH  16  17
ENDBRANCH  14  16
ENDBRANCH   7  12
ENDBRANCH   3   6
ENDBRANCH   1   2
BRANCH   1  25
ATOM     25  C   UNL A   1      31.527  30.603  26.180  1.00  0.00     0.023 C 
BRANCH  25  26
ATOM     26  C   UNL A   1      31.418  31.978  26.818  1.00  0.00     0.023 C 
BRANCH  26  27
ATOM     27  C   UNL A   1      32.729  32.612  27.265  1.00  0.00     0.116 C 
BRANCH  27  28
ATOM     28  N   UNL A   1      32.632  34.033  27.567  1.00  0.00    -0.352 N 
ATOM     29  C   UNL A   1      33.356  34.795  28.460  1.00  0.00     0.251 C 
ATOM     30  H   UNL A   1      31.947  34.524  27.057  1.00  0.00     0.163 HD
ATOM     31  O   UNL A   1      33.081  35.972  28.639  1.00  0.00    -0.269 OA
BRANCH  29  32
ATOM     32  C   UNL A   1      34.446  34.167  29.242  1.00  0.00     0.039 A 
ATOM     33  C   UNL A   1      34.122  33.207  30.205  1.00  0.00     0.014 A 
ATOM     34  C   UNL A   1      35.782  34.492  28.997  1.00  0.00     0.014 A 
ATOM     35  C   UNL A   1      35.142  32.500  30.848  1.00  0.00     0.010 A 
ATOM     36  C   UNL A   1      36.792  33.727  29.572  1.00  0.00     0.010 A 
ATOM     37  C   UNL A   1      36.483  32.717  30.496  1.00  0.00    -0.014 A 
BRANCH  37  38
ATOM     38  C   UNL A   1      37.585  31.901  31.069  1.00  0.00     0.031 A 
ATOM     39  C   UNL A   1      38.080  32.181  32.460  1.00  0.00     0.074 A 
ATOM     40  C   UNL A   1      38.204  30.976  30.308  1.00  0.00     0.049 A 
ATOM     41  N   UNL A   1      39.112  31.679  33.090  1.00  0.00    -0.248 NA
ATOM     42  C   UNL A   1      37.335  33.186  33.235  1.00  0.00     0.031 C 
ATOM     43  C   UNL A   1      37.856  30.641  28.925  1.00  0.00     0.029 A 
ATOM     44  N   UNL A   1      39.274  30.162  30.585  1.00  0.00    -0.354 N 
ATOM     45  C   UNL A   1      39.156  32.326  34.317  1.00  0.00     0.074 A 
ATOM     46  C   UNL A   1      38.076  33.290  34.327  1.00  0.00     0.031 C 
ATOM     47  C   UNL A   1      38.683  29.680  28.484  1.00  0.00     0.029 A 
ATOM     48  C   UNL A   1      39.644  29.359  29.533  1.00  0.00     0.049 A 
ATOM     49  H   UNL A   1      39.733  30.153  31.457  1.00  0.00     0.167 HD
ATOM     50  C   UNL A   1      40.005  32.123  35.352  1.00  0.00     0.037 A 
ATOM     51  C   UNL A   1      40.653  28.473  29.423  1.00  0.00     0.037 A 
ATOM     52  C   UNL A   1      41.053  31.138  35.358  1.00  0.00     0.049 A 
ATOM     53  C   UNL A   1      41.572  28.254  30.592  1.00  0.00     0.074 A 
ATOM     54  C   UNL A   1      41.924  30.812  36.383  1.00  0.00     0.029 A 
ATOM     55  N   UNL A   1      41.368  30.315  34.287  1.00  0.00    -0.354 N 
ATOM     56  N   UNL A   1      41.566  28.832  31.768  1.00  0.00    -0.248 NA
ATOM     57  C   UNL A   1      42.637  27.254  30.420  1.00  0.00     0.031 C 
ATOM     58  C   UNL A   1      42.788  29.812  35.921  1.00  0.00     0.029 A 
ATOM     59  C   UNL A   1      42.428  29.490  34.623  1.00  0.00     0.049 A 
ATOM     60  H   UNL A   1      40.907  30.318  33.418  1.00  0.00     0.167 HD
ATOM     61  C   UNL A   1      42.603  28.247  32.485  1.00  0.00     0.074 A 
ATOM     62  C   UNL A   1      43.211  27.263  31.614  1.00  0.00     0.031 C 
ATOM     63  C   UNL A   1      43.011  28.503  33.751  1.00  0.00     0.037 A 
BRANCH  50  64
ATOM     64  C   UNL A   1      39.826  32.982  36.569  1.00  0.00     0.057 A 
ATOM     65  C   UNL A   1      38.886  32.670  37.560  1.00  0.00     0.134 A 
ATOM     66  C   UNL A   1      40.618  34.120  36.764  1.00  0.00     0.134 A 
ATOM     67  F   UNL A   1      38.087  31.601  37.426  1.00  0.00    -0.206 F 
ATOM     68  C   UNL A   1      38.720  33.476  38.687  1.00  0.00     0.040 A 
ATOM     69  C   UNL A   1      40.480  34.918  37.901  1.00  0.00     0.040 A 
ATOM     70  F   UNL A   1      41.542  34.473  35.858  1.00  0.00    -0.206 F 
ATOM     71  C   UNL A   1      39.523  34.600  38.863  1.00  0.00     0.006 A 
ENDBRANCH  50  64
BRANCH  51  72
ATOM     72  C   UNL A   1      40.833  27.703  28.166  1.00  0.00     0.057 A 
ATOM     73  C   UNL A   1      41.606  28.215  27.116  1.00  0.00     0.134 A 
ATOM     74  C   UNL A   1      40.236  26.453  27.979  1.00  0.00     0.134 A 
ATOM     75  F   UNL A   1      42.186  29.418  27.230  1.00  0.00    -0.206 F 
ATOM     76  C   UNL A   1      41.762  27.518  25.917  1.00  0.00     0.040 A 
ATOM     77  C   UNL A   1      40.402  25.734  26.793  1.00  0.00     0.040 A 
ATOM     78  F   UNL A   1      39.488  25.906  28.950  1.00  0.00    -0.206 F 
ATOM     79  C   UNL A   1      41.162  26.270  25.755  1.00  0.00     0.006 A 
ENDBRANCH  51  72
BRANCH  63  80
ATOM     80  C   UNL A   1      44.140  27.676  34.290  1.00  0.00     0.057 A 
ATOM     81  C   UNL A   1      45.469  28.115  34.237  1.00  0.00     0.134 A 
ATOM     82  C   UNL A   1      43.886  26.448  34.913  1.00  0.00     0.134 A 
ATOM     83  F   UNL A   1      45.779  29.277  33.641  1.00  0.00    -0.206 F 
ATOM     84  C   UNL A   1      46.508  27.353  34.771  1.00  0.00     0.040 A 
ATOM     85  C   UNL A   1      44.914  25.688  35.471  1.00  0.00     0.040 A 
ATOM     86  F   UNL A   1      42.634  25.976  35.003  1.00  0.00    -0.206 F 
ATOM     87  C   UNL A   1      46.231  26.139  35.398  1.00  0.00     0.006 A 
ENDBRANCH  63  80
ENDBRANCH  37  38
ENDBRANCH  29  32
ENDBRANCH  27  28
ENDBRANCH  26  27
ENDBRANCH  25  26
ENDBRANCH   1  25
TORSDOF 15
ENDMDL
