MODEL 1
REMARK VINA RESULT:     -10.2      0.000      0.000
REMARK SMILES CC(C)[C@](C)(CC(=O)NC#N)C(=O)NCCCCNC(=O)c1ccc(-c2c3nc(c(-c4c(F)cccc4F)c4ccc([nH]4)c(-c4c(F)cccc4F)c4nc(c(-c5c(F)cccc5F)c5ccc2[nH]5)C=C4)C=C3)cc1
REMARK SMILES IDX 16 1 15 2 14 3 12 4 13 5 4 7 5 8 2 9 1 10 3 11 6 12 7 13
REMARK SMILES IDX 8 14 9 15 10 17 11 18 17 19 18 20 19 21 20 22 21 24 22 25
REMARK SMILES IDX 23 26 75 27 24 28 74 29 25 30 26 31 27 32 68 33 28 34 73 35
REMARK SMILES IDX 67 36 69 37 29 38 72 39 66 40 65 41 30 43 56 44 39 45 55 46
REMARK SMILES IDX 40 47 43 48 54 49 70 50 41 51 42 52 53 54 71 55 44 56 31 57
REMARK SMILES IDX 32 58 37 59 33 60 34 61 36 62 38 63 35 64 57 65 58 66 63 67
REMARK SMILES IDX 59 68 60 69 62 70 64 71 61 72 45 73 46 74 51 75 47 76 48 77
REMARK SMILES IDX 50 78 52 79 49 80
REMARK H PARENT 14 6 9 16 19 23 69 42 43 53
REMARK Flexibility Score: inf
ROOT
ATOM      1  C   UNL A   1      36.398  19.917  25.010  1.00  0.00     0.023 C 
ENDROOT
BRANCH   1   2
ATOM      2  C   UNL A   1      35.444  20.964  25.564  1.00  0.00     0.116 C 
BRANCH   2   3
ATOM      3  N   UNL A   1      34.068  20.536  25.575  1.00  0.00    -0.356 N 
ATOM      4  C   UNL A   1      32.932  21.174  25.195  1.00  0.00     0.226 C 
ATOM      5  O   UNL A   1      31.886  20.528  25.310  1.00  0.00    -0.274 OA
ATOM      6  H   UNL A   1      33.927  19.624  25.916  1.00  0.00     0.163 HD
BRANCH   4   7
ATOM      7  C   UNL A   1      32.924  22.629  24.653  1.00  0.00     0.057 C 
ATOM      8  C   UNL A   1      31.462  22.901  24.165  1.00  0.00     0.022 C 
BRANCH   7   9
ATOM      9  C   UNL A   1      33.819  22.839  23.360  1.00  0.00    -0.002 C 
ATOM     10  C   UNL A   1      33.149  23.171  22.021  1.00  0.00     0.008 C 
ATOM     11  C   UNL A   1      34.968  23.840  23.584  1.00  0.00     0.008 C 
ENDBRANCH   7   9
BRANCH   7  12
ATOM     12  C   UNL A   1      33.195  23.648  25.799  1.00  0.00     0.118 C 
BRANCH  12  13
ATOM     13  C   UNL A   1      32.067  23.759  26.821  1.00  0.00     0.234 C 
ATOM     14  O   UNL A   1      31.841  22.866  27.637  1.00  0.00    -0.274 OA
ATOM     15  N   UNL A   1      31.308  24.889  26.837  1.00  0.00    -0.263 N 
ATOM     16  H   UNL A   1      30.582  24.864  27.501  1.00  0.00     0.182 HD
BRANCH  15  17
ATOM     17  C   UNL A   1      31.347  26.028  26.132  1.00  0.00     0.183 C 
ATOM     18  N   UNL A   1      31.378  27.012  25.529  1.00  0.00    -0.172 NA
ENDBRANCH  15  17
ENDBRANCH  12  13
ENDBRANCH   7  12
ENDBRANCH   4   7
ENDBRANCH   2   3
ENDBRANCH   1   2
BRANCH   1  19
ATOM     19  C   UNL A   1      37.779  20.447  24.646  1.00  0.00     0.023 C 
BRANCH  19  20
ATOM     20  C   UNL A   1      38.755  20.524  25.812  1.00  0.00     0.116 C 
BRANCH  20  21
ATOM     21  N   UNL A   1      39.773  19.483  25.772  1.00  0.00    -0.352 N 
ATOM     22  C   UNL A   1      41.119  19.580  26.038  1.00  0.00     0.251 C 
ATOM     23  H   UNL A   1      39.454  18.586  25.519  1.00  0.00     0.163 HD
ATOM     24  O   UNL A   1      41.872  18.642  25.804  1.00  0.00    -0.269 OA
BRANCH  22  25
ATOM     25  C   UNL A   1      41.651  20.846  26.579  1.00  0.00     0.039 A 
ATOM     26  C   UNL A   1      42.178  21.792  25.699  1.00  0.00     0.014 A 
ATOM     27  C   UNL A   1      41.571  21.116  27.948  1.00  0.00     0.014 A 
ATOM     28  C   UNL A   1      42.551  23.045  26.186  1.00  0.00     0.010 A 
ATOM     29  C   UNL A   1      41.848  22.396  28.411  1.00  0.00     0.010 A 
ATOM     30  C   UNL A   1      42.345  23.374  27.537  1.00  0.00    -0.014 A 
BRANCH  30  31
ATOM     31  C   UNL A   1      42.640  24.734  28.052  1.00  0.00     0.031 A 
ATOM     32  C   UNL A   1      44.042  25.101  28.453  1.00  0.00     0.074 A 
ATOM     33  C   UNL A   1      41.638  25.621  28.214  1.00  0.00     0.049 A 
ATOM     34  N   UNL A   1      44.489  26.216  28.973  1.00  0.00    -0.248 NA
ATOM     35  C   UNL A   1      45.076  24.068  28.273  1.00  0.00     0.031 C 
ATOM     36  C   UNL A   1      40.228  25.372  27.908  1.00  0.00     0.029 A 
ATOM     37  N   UNL A   1      41.651  26.911  28.683  1.00  0.00    -0.354 N 
ATOM     38  C   UNL A   1      45.848  26.015  29.185  1.00  0.00     0.074 A 
ATOM     39  C   UNL A   1      46.139  24.651  28.805  1.00  0.00     0.031 C 
ATOM     40  C   UNL A   1      39.519  26.482  28.164  1.00  0.00     0.029 A 
ATOM     41  C   UNL A   1      40.412  27.504  28.700  1.00  0.00     0.049 A 
ATOM     42  H   UNL A   1      42.471  27.368  28.980  1.00  0.00     0.167 HD
ATOM     43  C   UNL A   1      46.773  26.896  29.633  1.00  0.00     0.037 A 
ATOM     44  C   UNL A   1      40.034  28.730  29.112  1.00  0.00     0.037 A 
ATOM     45  C   UNL A   1      46.480  28.256  30.003  1.00  0.00     0.049 A 
ATOM     46  C   UNL A   1      41.077  29.676  29.642  1.00  0.00     0.074 A 
ATOM     47  C   UNL A   1      47.356  29.240  30.422  1.00  0.00     0.029 A 
ATOM     48  N   UNL A   1      45.212  28.818  30.010  1.00  0.00    -0.354 N 
ATOM     49  N   UNL A   1      42.370  29.498  29.769  1.00  0.00    -0.248 NA
ATOM     50  C   UNL A   1      40.609  30.998  30.080  1.00  0.00     0.031 C 
ATOM     51  C   UNL A   1      46.611  30.378  30.747  1.00  0.00     0.029 A 
ATOM     52  C   UNL A   1      45.279  30.127  30.459  1.00  0.00     0.049 A 
ATOM     53  H   UNL A   1      44.387  28.355  29.737  1.00  0.00     0.167 HD
ATOM     54  C   UNL A   1      42.873  30.693  30.268  1.00  0.00     0.074 A 
ATOM     55  C   UNL A   1      41.748  31.594  30.405  1.00  0.00     0.031 C 
ATOM     56  C   UNL A   1      44.151  31.017  30.583  1.00  0.00     0.037 A 
BRANCH  43  57
ATOM     57  C   UNL A   1      48.191  26.412  29.751  1.00  0.00     0.057 A 
ATOM     58  C   UNL A   1      49.116  26.560  28.708  1.00  0.00     0.134 A 
ATOM     59  C   UNL A   1      48.648  25.821  30.936  1.00  0.00     0.134 A 
ATOM     60  F   UNL A   1      48.744  27.108  27.541  1.00  0.00    -0.206 F 
ATOM     61  C   UNL A   1      50.433  26.112  28.828  1.00  0.00     0.040 A 
ATOM     62  C   UNL A   1      49.971  25.401  31.081  1.00  0.00     0.040 A 
ATOM     63  F   UNL A   1      47.820  25.653  31.978  1.00  0.00    -0.206 F 
ATOM     64  C   UNL A   1      50.865  25.538  30.021  1.00  0.00     0.006 A 
ENDBRANCH  43  57
BRANCH  44  65
ATOM     65  C   UNL A   1      38.609  29.141  29.032  1.00  0.00     0.057 A 
ATOM     66  C   UNL A   1      38.064  29.643  27.844  1.00  0.00     0.134 A 
ATOM     67  C   UNL A   1      37.760  29.063  30.144  1.00  0.00     0.134 A 
ATOM     68  F   UNL A   1      38.828  29.761  26.748  1.00  0.00    -0.206 F 
ATOM     69  C   UNL A   1      36.740  30.080  27.771  1.00  0.00     0.040 A 
ATOM     70  C   UNL A   1      36.425  29.465  30.077  1.00  0.00     0.040 A 
ATOM     71  F   UNL A   1      38.215  28.583  31.311  1.00  0.00    -0.206 F 
ATOM     72  C   UNL A   1      35.915  29.986  28.890  1.00  0.00     0.006 A 
ENDBRANCH  44  65
BRANCH  56  73
ATOM     73  C   UNL A   1      44.413  32.417  31.062  1.00  0.00     0.057 A 
ATOM     74  C   UNL A   1      44.659  33.475  30.179  1.00  0.00     0.134 A 
ATOM     75  C   UNL A   1      44.375  32.716  32.432  1.00  0.00     0.134 A 
ATOM     76  F   UNL A   1      44.720  33.258  28.856  1.00  0.00    -0.206 F 
ATOM     77  C   UNL A   1      44.889  34.773  30.641  1.00  0.00     0.040 A 
ATOM     78  C   UNL A   1      44.568  34.015  32.903  1.00  0.00     0.040 A 
ATOM     79  F   UNL A   1      44.131  31.752  33.334  1.00  0.00    -0.206 F 
ATOM     80  C   UNL A   1      44.834  35.046  32.006  1.00  0.00     0.006 A 
ENDBRANCH  56  73
ENDBRANCH  30  31
ENDBRANCH  22  25
ENDBRANCH  20  21
ENDBRANCH  19  20
ENDBRANCH   1  19
TORSDOF 15
ENDMDL
MODEL 2
REMARK VINA RESULT:     -10.2      4.861      9.381
REMARK SMILES CC(C)[C@](C)(CC(=O)NC#N)C(=O)NCCCCNC(=O)c1ccc(-c2c3nc(c(-c4c(F)cccc4F)c4ccc([nH]4)c(-c4c(F)cccc4F)c4nc(c(-c5c(F)cccc5F)c5ccc2[nH]5)C=C4)C=C3)cc1
REMARK SMILES IDX 16 1 15 2 14 3 12 4 13 5 4 7 5 8 2 9 1 10 3 11 6 12 7 13
REMARK SMILES IDX 8 14 9 15 10 17 11 18 17 19 18 20 19 21 20 22 21 24 22 25
REMARK SMILES IDX 23 26 75 27 24 28 74 29 25 30 26 31 27 32 68 33 28 34 73 35
REMARK SMILES IDX 67 36 69 37 29 38 72 39 66 40 65 41 30 43 56 44 39 45 55 46
REMARK SMILES IDX 40 47 43 48 54 49 70 50 41 51 42 52 53 54 71 55 44 56 31 57
REMARK SMILES IDX 32 58 37 59 33 60 34 61 36 62 38 63 35 64 57 65 58 66 63 67
REMARK SMILES IDX 59 68 60 69 62 70 64 71 61 72 45 73 46 74 51 75 47 76 48 77
REMARK SMILES IDX 50 78 52 79 49 80
REMARK H PARENT 14 6 9 16 19 23 69 42 43 53
REMARK Flexibility Score: inf
ROOT
ATOM      1  C   UNL A   1      31.859  30.426  26.533  1.00  0.00     0.023 C 
ENDROOT
BRANCH   1   2
ATOM      2  C   UNL A   1      31.490  29.856  25.172  1.00  0.00     0.116 C 
BRANCH   2   3
ATOM      3  N   UNL A   1      32.620  29.703  24.290  1.00  0.00    -0.356 N 
ATOM      4  C   UNL A   1      33.073  28.627  23.598  1.00  0.00     0.226 C 
ATOM      5  O   UNL A   1      34.076  28.816  22.902  1.00  0.00    -0.274 OA
ATOM      6  H   UNL A   1      33.155  30.520  24.167  1.00  0.00     0.163 HD
BRANCH   4   7
ATOM      7  C   UNL A   1      32.393  27.233  23.669  1.00  0.00     0.057 C 
ATOM      8  C   UNL A   1      31.263  27.248  22.586  1.00  0.00     0.022 C 
BRANCH   7   9
ATOM      9  C   UNL A   1      31.631  26.958  25.034  1.00  0.00    -0.002 C 
ATOM     10  C   UNL A   1      30.233  26.329  25.006  1.00  0.00     0.008 C 
ATOM     11  C   UNL A   1      32.488  26.182  26.051  1.00  0.00     0.008 C 
ENDBRANCH   7   9
BRANCH   7  12
ATOM     12  C   UNL A   1      33.385  26.111  23.245  1.00  0.00     0.118 C 
BRANCH  12  13
ATOM     13  C   UNL A   1      32.962  25.335  22.001  1.00  0.00     0.234 C 
ATOM     14  O   UNL A   1      33.278  25.701  20.870  1.00  0.00    -0.274 OA
ATOM     15  N   UNL A   1      32.232  24.196  22.157  1.00  0.00    -0.263 N 
ATOM     16  H   UNL A   1      31.972  23.778  21.305  1.00  0.00     0.182 HD
BRANCH  15  17
ATOM     17  C   UNL A   1      31.796  23.529  23.234  1.00  0.00     0.183 C 
ATOM     18  N   UNL A   1      31.414  22.952  24.159  1.00  0.00    -0.172 NA
ENDBRANCH  15  17
ENDBRANCH  12  13
ENDBRANCH   7  12
ENDBRANCH   4   7
ENDBRANCH   2   3
ENDBRANCH   1   2
BRANCH   1  19
ATOM     19  C   UNL A   1      31.643  31.927  26.671  1.00  0.00     0.023 C 
BRANCH  19  20
ATOM     20  C   UNL A   1      32.774  32.669  27.369  1.00  0.00     0.116 C 
BRANCH  20  21
ATOM     21  N   UNL A   1      32.466  34.070  27.623  1.00  0.00    -0.352 N 
ATOM     22  C   UNL A   1      33.011  34.919  28.557  1.00  0.00     0.251 C 
ATOM     23  H   UNL A   1      31.770  34.463  27.047  1.00  0.00     0.163 HD
ATOM     24  O   UNL A   1      32.528  36.028  28.751  1.00  0.00    -0.269 OA
BRANCH  22  25
ATOM     25  C   UNL A   1      34.168  34.460  29.351  1.00  0.00     0.039 A 
ATOM     26  C   UNL A   1      33.946  33.857  30.589  1.00  0.00     0.014 A 
ATOM     27  C   UNL A   1      35.463  34.574  28.838  1.00  0.00     0.014 A 
ATOM     28  C   UNL A   1      35.021  33.295  31.278  1.00  0.00     0.010 A 
ATOM     29  C   UNL A   1      36.512  33.926  29.478  1.00  0.00     0.010 A 
ATOM     30  C   UNL A   1      36.304  33.283  30.706  1.00  0.00    -0.014 A 
BRANCH  30  31
ATOM     31  C   UNL A   1      37.440  32.601  31.376  1.00  0.00     0.031 A 
ATOM     32  C   UNL A   1      38.133  31.449  30.702  1.00  0.00     0.074 A 
ATOM     33  C   UNL A   1      37.811  32.980  32.616  1.00  0.00     0.049 A 
ATOM     34  N   UNL A   1      39.105  30.695  31.147  1.00  0.00    -0.248 NA
ATOM     35  C   UNL A   1      37.650  31.077  29.362  1.00  0.00     0.031 C 
ATOM     36  C   UNL A   1      37.188  34.051  33.396  1.00  0.00     0.029 A 
ATOM     37  N   UNL A   1      38.799  32.503  33.440  1.00  0.00    -0.354 N 
ATOM     38  C   UNL A   1      39.344  29.760  30.147  1.00  0.00     0.074 A 
ATOM     39  C   UNL A   1      38.371  29.997  29.104  1.00  0.00     0.031 C 
ATOM     40  C   UNL A   1      37.830  34.171  34.569  1.00  0.00     0.029 A 
ATOM     41  C   UNL A   1      38.874  33.156  34.647  1.00  0.00     0.049 A 
ATOM     42  H   UNL A   1      39.398  31.762  33.191  1.00  0.00     0.167 HD
ATOM     43  C   UNL A   1      40.304  28.806  30.091  1.00  0.00     0.037 A 
ATOM     44  C   UNL A   1      39.685  32.951  35.703  1.00  0.00     0.037 A 
ATOM     45  C   UNL A   1      41.276  28.580  31.128  1.00  0.00     0.049 A 
ATOM     46  C   UNL A   1      40.718  31.859  35.630  1.00  0.00     0.074 A 
ATOM     47  C   UNL A   1      42.319  27.671  31.145  1.00  0.00     0.029 A 
ATOM     48  N   UNL A   1      41.317  29.259  32.337  1.00  0.00    -0.354 N 
ATOM     49  N   UNL A   1      40.981  31.030  34.649  1.00  0.00    -0.248 NA
ATOM     50  C   UNL A   1      41.573  31.678  36.812  1.00  0.00     0.031 C 
ATOM     51  C   UNL A   1      42.950  27.754  32.390  1.00  0.00     0.029 A 
ATOM     52  C   UNL A   1      42.347  28.765  33.120  1.00  0.00     0.049 A 
ATOM     53  H   UNL A   1      40.704  29.983  32.599  1.00  0.00     0.167 HD
ATOM     54  C   UNL A   1      42.050  30.255  35.080  1.00  0.00     0.074 A 
ATOM     55  C   UNL A   1      42.397  30.724  36.405  1.00  0.00     0.031 C 
ATOM     56  C   UNL A   1      42.689  29.247  34.436  1.00  0.00     0.037 A 
BRANCH  43  57
ATOM     57  C   UNL A   1      40.345  27.934  28.868  1.00  0.00     0.057 A 
ATOM     58  C   UNL A   1      41.105  28.272  27.739  1.00  0.00     0.134 A 
ATOM     59  C   UNL A   1      39.645  26.722  28.831  1.00  0.00     0.134 A 
ATOM     60  F   UNL A   1      41.792  29.424  27.702  1.00  0.00    -0.206 F 
ATOM     61  C   UNL A   1      41.141  27.454  26.609  1.00  0.00     0.040 A 
ATOM     62  C   UNL A   1      39.701  25.878  27.721  1.00  0.00     0.040 A 
ATOM     63  F   UNL A   1      38.903  26.330  29.878  1.00  0.00    -0.206 F 
ATOM     64  C   UNL A   1      40.444  26.248  26.602  1.00  0.00     0.006 A 
ENDBRANCH  43  57
BRANCH  44  65
ATOM     65  C   UNL A   1      39.565  33.801  36.915  1.00  0.00     0.057 A 
ATOM     66  C   UNL A   1      38.770  33.410  37.999  1.00  0.00     0.134 A 
ATOM     67  C   UNL A   1      40.221  35.035  37.013  1.00  0.00     0.134 A 
ATOM     68  F   UNL A   1      38.100  32.248  37.961  1.00  0.00    -0.206 F 
ATOM     69  C   UNL A   1      38.609  34.223  39.123  1.00  0.00     0.040 A 
ATOM     70  C   UNL A   1      40.097  35.844  38.144  1.00  0.00     0.040 A 
ATOM     71  F   UNL A   1      41.006  35.467  36.014  1.00  0.00    -0.206 F 
ATOM     72  C   UNL A   1      39.279  35.443  39.198  1.00  0.00     0.006 A 
ENDBRANCH  44  65
BRANCH  56  73
ATOM     73  C   UNL A   1      43.858  28.612  35.133  1.00  0.00     0.057 A 
ATOM     74  C   UNL A   1      45.165  29.095  34.992  1.00  0.00     0.134 A 
ATOM     75  C   UNL A   1      43.664  27.522  35.994  1.00  0.00     0.134 A 
ATOM     76  F   UNL A   1      45.424  30.128  34.176  1.00  0.00    -0.206 F 
ATOM     77  C   UNL A   1      46.239  28.500  35.657  1.00  0.00     0.040 A 
ATOM     78  C   UNL A   1      44.724  26.941  36.691  1.00  0.00     0.040 A 
ATOM     79  F   UNL A   1      42.436  27.015  36.186  1.00  0.00    -0.206 F 
ATOM     80  C   UNL A   1      46.018  27.426  36.516  1.00  0.00     0.006 A 
ENDBRANCH  56  73
ENDBRANCH  30  31
ENDBRANCH  22  25
ENDBRANCH  20  21
ENDBRANCH  19  20
ENDBRANCH   1  19
TORSDOF 15
ENDMDL
MODEL 3
REMARK VINA RESULT:     -10.1      4.642      9.583
REMARK SMILES CC(C)[C@](C)(CC(=O)NC#N)C(=O)NCCCCNC(=O)c1ccc(-c2c3nc(c(-c4c(F)cccc4F)c4ccc([nH]4)c(-c4c(F)cccc4F)c4nc(c(-c5c(F)cccc5F)c5ccc2[nH]5)C=C4)C=C3)cc1
REMARK SMILES IDX 16 1 15 2 14 3 12 4 13 5 4 7 5 8 2 9 1 10 3 11 6 12 7 13
REMARK SMILES IDX 8 14 9 15 10 17 11 18 17 19 18 20 19 21 20 22 21 24 22 25
REMARK SMILES IDX 23 26 75 27 24 28 74 29 25 30 26 31 27 32 68 33 28 34 73 35
REMARK SMILES IDX 67 36 69 37 29 38 72 39 66 40 65 41 30 43 56 44 39 45 55 46
REMARK SMILES IDX 40 47 43 48 54 49 70 50 41 51 42 52 53 54 71 55 44 56 31 57
REMARK SMILES IDX 32 58 37 59 33 60 34 61 36 62 38 63 35 64 57 65 58 66 63 67
REMARK SMILES IDX 59 68 60 69 62 70 64 71 61 72 45 73 46 74 51 75 47 76 48 77
REMARK SMILES IDX 50 78 52 79 49 80
REMARK H PARENT 14 6 9 16 19 23 69 42 43 53
REMARK Flexibility Score: inf
ROOT
ATOM      1  C   UNL A   1      31.781  30.422  26.711  1.00  0.00     0.023 C 
ENDROOT
BRANCH   1   2
ATOM      2  C   UNL A   1      31.488  29.835  25.338  1.00  0.00     0.116 C 
BRANCH   2   3
ATOM      3  N   UNL A   1      32.660  29.704  24.509  1.00  0.00    -0.356 N 
ATOM      4  C   UNL A   1      33.118  28.662  23.770  1.00  0.00     0.226 C 
ATOM      5  O   UNL A   1      34.163  28.865  23.143  1.00  0.00    -0.274 OA
ATOM      6  H   UNL A   1      33.225  30.509  24.472  1.00  0.00     0.163 HD
BRANCH   4   7
ATOM      7  C   UNL A   1      32.394  27.291  23.709  1.00  0.00     0.057 C 
ATOM      8  C   UNL A   1      31.326  27.416  22.571  1.00  0.00     0.022 C 
BRANCH   7   9
ATOM      9  C   UNL A   1      31.550  26.950  25.008  1.00  0.00    -0.002 C 
ATOM     10  C   UNL A   1      30.140  26.362  24.863  1.00  0.00     0.008 C 
ATOM     11  C   UNL A   1      32.329  26.088  26.019  1.00  0.00     0.008 C 
ENDBRANCH   7   9
BRANCH   7  12
ATOM     12  C   UNL A   1      33.373  26.167  23.261  1.00  0.00     0.118 C 
BRANCH  12  13
ATOM     13  C   UNL A   1      32.957  25.440  21.985  1.00  0.00     0.234 C 
ATOM     14  O   UNL A   1      33.278  25.851  20.871  1.00  0.00    -0.274 OA
ATOM     15  N   UNL A   1      32.227  24.296  22.093  1.00  0.00    -0.263 N 
ATOM     16  H   UNL A   1      31.971  23.912  21.224  1.00  0.00     0.182 HD
BRANCH  15  17
ATOM     17  C   UNL A   1      31.785  23.588  23.141  1.00  0.00     0.183 C 
ATOM     18  N   UNL A   1      31.407  22.972  24.041  1.00  0.00    -0.172 NA
ENDBRANCH  15  17
ENDBRANCH  12  13
ENDBRANCH   7  12
ENDBRANCH   4   7
ENDBRANCH   2   3
ENDBRANCH   1   2
BRANCH   1  19
ATOM     19  C   UNL A   1      31.582  31.928  26.812  1.00  0.00     0.023 C 
BRANCH  19  20
ATOM     20  C   UNL A   1      32.821  32.705  27.232  1.00  0.00     0.116 C 
BRANCH  20  21
ATOM     21  N   UNL A   1      32.528  34.076  27.626  1.00  0.00    -0.352 N 
ATOM     22  C   UNL A   1      33.088  34.824  28.635  1.00  0.00     0.251 C 
ATOM     23  H   UNL A   1      31.832  34.530  27.098  1.00  0.00     0.163 HD
ATOM     24  O   UNL A   1      32.617  35.913  28.942  1.00  0.00    -0.269 OA
BRANCH  22  25
ATOM     25  C   UNL A   1      34.246  34.279  29.370  1.00  0.00     0.039 A 
ATOM     26  C   UNL A   1      34.025  33.499  30.505  1.00  0.00     0.014 A 
ATOM     27  C   UNL A   1      35.544  34.492  28.896  1.00  0.00     0.014 A 
ATOM     28  C   UNL A   1      35.106  32.865  31.120  1.00  0.00     0.010 A 
ATOM     29  C   UNL A   1      36.601  33.779  29.449  1.00  0.00     0.010 A 
ATOM     30  C   UNL A   1      36.395  32.962  30.569  1.00  0.00    -0.014 A 
BRANCH  30  31
ATOM     31  C   UNL A   1      37.538  32.213  31.149  1.00  0.00     0.031 A 
ATOM     32  C   UNL A   1      38.075  32.587  32.503  1.00  0.00     0.074 A 
ATOM     33  C   UNL A   1      38.130  31.236  30.434  1.00  0.00     0.049 A 
ATOM     34  N   UNL A   1      39.096  32.089  33.154  1.00  0.00    -0.248 NA
ATOM     35  C   UNL A   1      37.392  33.684  33.209  1.00  0.00     0.031 C 
ATOM     36  C   UNL A   1      37.734  30.811  29.090  1.00  0.00     0.029 A 
ATOM     37  N   UNL A   1      39.196  30.426  30.736  1.00  0.00    -0.354 N 
ATOM     38  C   UNL A   1      39.180  32.815  34.336  1.00  0.00     0.074 A 
ATOM     39  C   UNL A   1      38.152  33.831  34.283  1.00  0.00     0.031 C 
ATOM     40  C   UNL A   1      38.523  29.798  28.699  1.00  0.00     0.029 A 
ATOM     41  C   UNL A   1      39.512  29.535  29.739  1.00  0.00     0.049 A 
ATOM     42  H   UNL A   1      39.689  30.478  31.587  1.00  0.00     0.167 HD
ATOM     43  C   UNL A   1      40.020  32.635  35.382  1.00  0.00     0.037 A 
ATOM     44  C   UNL A   1      40.495  28.617  29.666  1.00  0.00     0.037 A 
ATOM     45  C   UNL A   1      41.036  31.617  35.434  1.00  0.00     0.049 A 
ATOM     46  C   UNL A   1      41.440  28.463  30.827  1.00  0.00     0.074 A 
ATOM     47  C   UNL A   1      41.906  31.322  36.468  1.00  0.00     0.029 A 
ATOM     48  N   UNL A   1      41.328  30.737  34.402  1.00  0.00    -0.354 N 
ATOM     49  N   UNL A   1      41.462  29.107  31.968  1.00  0.00    -0.248 NA
ATOM     50  C   UNL A   1      42.495  27.449  30.691  1.00  0.00     0.031 C 
ATOM     51  C   UNL A   1      42.768  30.308  36.039  1.00  0.00     0.029 A 
ATOM     52  C   UNL A   1      42.386  29.920  34.764  1.00  0.00     0.049 A 
ATOM     53  H   UNL A   1      40.853  30.699  33.540  1.00  0.00     0.167 HD
ATOM     54  C   UNL A   1      42.506  28.554  32.699  1.00  0.00     0.074 A 
ATOM     55  C   UNL A   1      43.084  27.512  31.876  1.00  0.00     0.031 C 
ATOM     56  C   UNL A   1      42.947  28.879  33.939  1.00  0.00     0.037 A 
BRANCH  43  57
ATOM     57  C   UNL A   1      39.877  33.564  36.555  1.00  0.00     0.057 A 
ATOM     58  C   UNL A   1      39.030  33.273  37.634  1.00  0.00     0.134 A 
ATOM     59  C   UNL A   1      40.622  34.748  36.624  1.00  0.00     0.134 A 
ATOM     60  F   UNL A   1      38.279  32.161  37.629  1.00  0.00    -0.206 F 
ATOM     61  C   UNL A   1      38.907  34.139  38.722  1.00  0.00     0.040 A 
ATOM     62  C   UNL A   1      40.534  35.604  37.722  1.00  0.00     0.040 A 
ATOM     63  F   UNL A   1      41.458  35.087  35.631  1.00  0.00    -0.206 F 
ATOM     64  C   UNL A   1      39.668  35.305  38.771  1.00  0.00     0.006 A 
ENDBRANCH  43  57
BRANCH  44  65
ATOM     65  C   UNL A   1      40.633  27.763  28.457  1.00  0.00     0.057 A 
ATOM     66  C   UNL A   1      41.385  28.184  27.354  1.00  0.00     0.134 A 
ATOM     67  C   UNL A   1      40.001  26.517  28.365  1.00  0.00     0.134 A 
ATOM     68  F   UNL A   1      42.001  29.375  27.372  1.00  0.00    -0.206 F 
ATOM     69  C   UNL A   1      41.481  27.412  26.194  1.00  0.00     0.040 A 
ATOM     70  C   UNL A   1      40.115  25.719  27.224  1.00  0.00     0.040 A 
ATOM     71  F   UNL A   1      39.271  26.048  29.389  1.00  0.00    -0.206 F 
ATOM     72  C   UNL A   1      40.848  26.173  26.130  1.00  0.00     0.006 A 
ENDBRANCH  44  65
BRANCH  56  73
ATOM     73  C   UNL A   1      44.080  28.069  34.505  1.00  0.00     0.057 A 
ATOM     74  C   UNL A   1      45.416  28.474  34.395  1.00  0.00     0.134 A 
ATOM     75  C   UNL A   1      43.821  26.884  35.208  1.00  0.00     0.134 A 
ATOM     76  F   UNL A   1      45.735  29.593  33.726  1.00  0.00    -0.206 F 
ATOM     77  C   UNL A   1      46.455  27.716  34.937  1.00  0.00     0.040 A 
ATOM     78  C   UNL A   1      44.848  26.136  35.784  1.00  0.00     0.040 A 
ATOM     79  F   UNL A   1      42.563  26.443  35.363  1.00  0.00    -0.206 F 
ATOM     80  C   UNL A   1      46.171  26.548  35.642  1.00  0.00     0.006 A 
ENDBRANCH  56  73
ENDBRANCH  30  31
ENDBRANCH  22  25
ENDBRANCH  20  21
ENDBRANCH  19  20
ENDBRANCH   1  19
TORSDOF 15
ENDMDL
