MODEL 1
REMARK VINA RESULT:     -10.0      0.000      0.000
REMARK SMILES CCC[N@H+](CC1CC[NH2+]CC1)[C@@H](CC)C(=O)NCCCCNC(=O)c1ccc(-c2c3nc(c(-c4c(F)cccc4F)c4ccc([nH]4)c(-c4c(F)cccc4F)c4nc(c(-c5c(F)cccc5F)c5ccc2[nH]5)C=C4)C=C3)cc1
REMARK SMILES IDX 19 1 18 2 17 3 15 4 16 5 12 7 4 8 3 10 2 11 1 12 5 13 6 14
REMARK SMILES IDX 7 15 11 16 8 17 10 18 9 19 13 22 14 23 20 24 21 25 22 26
REMARK SMILES IDX 23 27 24 29 25 30 26 31 78 32 27 33 77 34 28 35 29 36 30 37
REMARK SMILES IDX 71 38 31 39 76 40 70 41 72 42 32 43 75 44 69 45 68 46 33 48
REMARK SMILES IDX 59 49 42 50 58 51 43 52 46 53 57 54 73 55 44 56 45 57 56 59
REMARK SMILES IDX 74 60 47 61 34 62 35 63 40 64 36 65 37 66 39 67 41 68 38 69
REMARK SMILES IDX 60 70 61 71 66 72 62 73 63 74 65 75 67 76 64 77 48 78 49 79
REMARK SMILES IDX 54 80 50 81 51 82 53 83 55 84 52 85
REMARK H PARENT 17 6 4 9 9 20 9 21 22 28 72 47 46 58
REMARK Flexibility Score: inf
ROOT
ATOM      1  C   UNL A   1      36.085  22.897  25.876  1.00  0.00     0.023 C 
ENDROOT
BRANCH   1   2
ATOM      2  C   UNL A   1      34.790  22.325  26.505  1.00  0.00     0.116 C 
BRANCH   2   3
ATOM      3  N   UNL A   1      33.877  23.419  26.888  1.00  0.00    -0.351 N 
ATOM      4  C   UNL A   1      32.579  23.604  26.521  1.00  0.00     0.278 C 
ATOM      5  O   UNL A   1      31.782  23.302  27.430  1.00  0.00    -0.268 OA
ATOM      6  H   UNL A   1      34.255  24.104  27.486  1.00  0.00     0.163 HD
BRANCH   4   7
ATOM      7  C   UNL A   1      31.979  24.357  25.275  1.00  0.00     0.273 C 
BRANCH   7   8
ATOM      8  N   UNL A   1      31.938  25.856  25.039  1.00  0.00    -0.324 N 
ATOM      9  H   UNL A   1      32.611  26.030  24.293  1.00  0.00     0.348 HD
BRANCH   8  10
ATOM     10  C   UNL A   1      32.349  26.674  26.177  1.00  0.00     0.262 C 
BRANCH  10  11
ATOM     11  C   UNL A   1      33.743  27.280  26.039  1.00  0.00     0.058 C 
ATOM     12  C   UNL A   1      33.881  28.795  25.982  1.00  0.00     0.010 C 
ENDBRANCH  10  11
ENDBRANCH   8  10
BRANCH   8  13
ATOM     13  C   UNL A   1      30.532  26.254  24.681  1.00  0.00     0.266 C 
BRANCH  13  14
ATOM     14  C   UNL A   1      30.184  26.861  23.283  1.00  0.00     0.055 C 
ATOM     15  C   UNL A   1      31.424  27.126  22.424  1.00  0.00     0.071 C 
ATOM     16  C   UNL A   1      29.239  28.071  23.210  1.00  0.00     0.071 C 
ATOM     17  C   UNL A   1      32.067  28.466  22.740  1.00  0.00     0.261 C 
ATOM     18  C   UNL A   1      29.923  29.429  23.340  1.00  0.00     0.261 C 
ATOM     19  N   UNL A   1      31.128  29.565  22.524  1.00  0.00    -0.346 N 
ATOM     20  H   UNL A   1      30.859  29.577  21.540  1.00  0.00     0.346 HD
ATOM     21  H   UNL A   1      31.592  30.432  22.793  1.00  0.00     0.346 HD
ENDBRANCH  13  14
ENDBRANCH   8  13
ENDBRANCH   7   8
BRANCH   7  22
ATOM     22  C   UNL A   1      32.389  23.601  23.975  1.00  0.00     0.072 C 
ATOM     23  C   UNL A   1      33.595  24.149  23.227  1.00  0.00     0.011 C 
ENDBRANCH   7  22
ENDBRANCH   4   7
ENDBRANCH   2   3
ENDBRANCH   1   2
BRANCH   1  24
ATOM     24  C   UNL A   1      37.082  21.931  25.224  1.00  0.00     0.023 C 
BRANCH  24  25
ATOM     25  C   UNL A   1      38.474  21.787  25.834  1.00  0.00     0.116 C 
BRANCH  25  26
ATOM     26  N   UNL A   1      39.139  20.508  25.593  1.00  0.00    -0.352 N 
ATOM     27  C   UNL A   1      40.403  20.082  25.969  1.00  0.00     0.251 C 
ATOM     28  H   UNL A   1      38.609  19.850  25.086  1.00  0.00     0.163 HD
ATOM     29  O   UNL A   1      40.785  18.948  25.740  1.00  0.00    -0.269 OA
BRANCH  27  30
ATOM     30  C   UNL A   1      41.325  21.069  26.569  1.00  0.00     0.039 A 
ATOM     31  C   UNL A   1      42.005  21.936  25.711  1.00  0.00     0.014 A 
ATOM     32  C   UNL A   1      41.352  21.261  27.949  1.00  0.00     0.014 A 
ATOM     33  C   UNL A   1      42.560  23.106  26.228  1.00  0.00     0.010 A 
ATOM     34  C   UNL A   1      41.815  22.475  28.446  1.00  0.00     0.010 A 
ATOM     35  C   UNL A   1      42.378  23.429  27.582  1.00  0.00    -0.014 A 
BRANCH  35  36
ATOM     36  C   UNL A   1      42.677  24.793  28.095  1.00  0.00     0.031 A 
ATOM     37  C   UNL A   1      44.067  25.150  28.534  1.00  0.00     0.074 A 
ATOM     38  C   UNL A   1      41.670  25.676  28.263  1.00  0.00     0.049 A 
ATOM     39  N   UNL A   1      44.496  26.250  29.098  1.00  0.00    -0.248 NA
ATOM     40  C   UNL A   1      45.102  24.122  28.347  1.00  0.00     0.031 C 
ATOM     41  C   UNL A   1      40.259  25.429  27.947  1.00  0.00     0.029 A 
ATOM     42  N   UNL A   1      41.674  26.958  28.754  1.00  0.00    -0.354 N 
ATOM     43  C   UNL A   1      45.844  26.039  29.351  1.00  0.00     0.074 A 
ATOM     44  C   UNL A   1      46.149  24.688  28.930  1.00  0.00     0.031 C 
ATOM     45  C   UNL A   1      39.544  26.531  28.221  1.00  0.00     0.029 A 
ATOM     46  C   UNL A   1      40.432  27.549  28.772  1.00  0.00     0.049 A 
ATOM     47  H   UNL A   1      42.489  27.412  29.067  1.00  0.00     0.167 HD
ATOM     48  C   UNL A   1      46.754  26.900  29.861  1.00  0.00     0.037 A 
ATOM     49  C   UNL A   1      40.050  28.771  29.190  1.00  0.00     0.037 A 
ATOM     50  C   UNL A   1      46.461  28.255  30.245  1.00  0.00     0.049 A 
ATOM     51  C   UNL A   1      41.080  29.713  29.747  1.00  0.00     0.074 A 
ATOM     52  C   UNL A   1      47.333  29.234  30.689  1.00  0.00     0.029 A 
ATOM     53  N   UNL A   1      45.195  28.823  30.230  1.00  0.00    -0.354 N 
ATOM     54  N   UNL A   1      42.369  29.526  29.903  1.00  0.00    -0.248 NA
ATOM     55  C   UNL A   1      40.605  31.031  30.192  1.00  0.00     0.031 C 
ATOM     56  C   UNL A   1      46.588  30.382  30.980  1.00  0.00     0.029 A 
ATOM     57  C   UNL A   1      45.259  30.129  30.683  1.00  0.00     0.049 A 
ATOM     58  H   UNL A   1      44.373  28.365  29.940  1.00  0.00     0.167 HD
ATOM     59  C   UNL A   1      42.860  30.706  30.447  1.00  0.00     0.074 A 
ATOM     60  C   UNL A   1      41.734  31.609  30.578  1.00  0.00     0.031 C 
ATOM     61  C   UNL A   1      44.128  31.013  30.810  1.00  0.00     0.037 A 
BRANCH  48  62
ATOM     62  C   UNL A   1      48.159  26.402  30.019  1.00  0.00     0.057 A 
ATOM     63  C   UNL A   1      49.101  26.519  28.988  1.00  0.00     0.134 A 
ATOM     64  C   UNL A   1      48.580  25.816  31.218  1.00  0.00     0.134 A 
ATOM     65  F   UNL A   1      48.754  27.058  27.809  1.00  0.00    -0.206 F 
ATOM     66  C   UNL A   1      50.405  26.046  29.134  1.00  0.00     0.040 A 
ATOM     67  C   UNL A   1      49.890  25.362  31.386  1.00  0.00     0.040 A 
ATOM     68  F   UNL A   1      47.729  25.677  32.246  1.00  0.00    -0.206 F 
ATOM     69  C   UNL A   1      50.804  25.470  30.340  1.00  0.00     0.006 A 
ENDBRANCH  48  62
BRANCH  49  70
ATOM     70  C   UNL A   1      38.629  29.188  29.084  1.00  0.00     0.057 A 
ATOM     71  C   UNL A   1      38.105  29.658  27.873  1.00  0.00     0.134 A 
ATOM     72  C   UNL A   1      37.765  29.143  30.185  1.00  0.00     0.134 A 
ATOM     73  F   UNL A   1      38.888  29.744  26.789  1.00  0.00    -0.206 F 
ATOM     74  C   UNL A   1      36.780  30.083  27.765  1.00  0.00     0.040 A 
ATOM     75  C   UNL A   1      36.432  29.544  30.086  1.00  0.00     0.040 A 
ATOM     76  F   UNL A   1      38.204  28.698  31.372  1.00  0.00    -0.206 F 
ATOM     77  C   UNL A   1      35.938  30.023  28.873  1.00  0.00     0.006 A 
ENDBRANCH  49  70
BRANCH  61  78
ATOM     78  C   UNL A   1      44.367  32.380  31.375  1.00  0.00     0.057 A 
ATOM     79  C   UNL A   1      44.641  33.478  30.550  1.00  0.00     0.134 A 
ATOM     80  C   UNL A   1      44.276  32.610  32.754  1.00  0.00     0.134 A 
ATOM     81  F   UNL A   1      44.755  33.318  29.223  1.00  0.00    -0.206 F 
ATOM     82  C   UNL A   1      44.832  34.755  31.078  1.00  0.00     0.040 A 
ATOM     83  C   UNL A   1      44.443  33.888  33.291  1.00  0.00     0.040 A 
ATOM     84  F   UNL A   1      44.010  31.602  33.597  1.00  0.00    -0.206 F 
ATOM     85  C   UNL A   1      44.725  34.963  32.452  1.00  0.00     0.006 A 
ENDBRANCH  61  78
ENDBRANCH  35  36
ENDBRANCH  27  30
ENDBRANCH  25  26
ENDBRANCH  24  25
ENDBRANCH   1  24
TORSDOF 17
ENDMDL
MODEL 2
REMARK VINA RESULT:     -10.0      2.211      6.684
REMARK SMILES CCC[N@H+](CC1CC[NH2+]CC1)[C@@H](CC)C(=O)NCCCCNC(=O)c1ccc(-c2c3nc(c(-c4c(F)cccc4F)c4ccc([nH]4)c(-c4c(F)cccc4F)c4nc(c(-c5c(F)cccc5F)c5ccc2[nH]5)C=C4)C=C3)cc1
REMARK SMILES IDX 19 1 18 2 17 3 15 4 16 5 12 7 4 8 3 10 2 11 1 12 5 13 6 14
REMARK SMILES IDX 7 15 11 16 8 17 10 18 9 19 13 22 14 23 20 24 21 25 22 26
REMARK SMILES IDX 23 27 24 29 25 30 26 31 78 32 27 33 77 34 28 35 29 36 30 37
REMARK SMILES IDX 71 38 31 39 76 40 70 41 72 42 32 43 75 44 69 45 68 46 33 48
REMARK SMILES IDX 59 49 42 50 58 51 43 52 46 53 57 54 73 55 44 56 45 57 56 59
REMARK SMILES IDX 74 60 47 61 34 62 35 63 40 64 36 65 37 66 39 67 41 68 38 69
REMARK SMILES IDX 60 70 61 71 66 72 62 73 63 74 65 75 67 76 64 77 48 78 49 79
REMARK SMILES IDX 54 80 50 81 51 82 53 83 55 84 52 85
REMARK H PARENT 17 6 4 9 9 20 9 21 22 28 72 47 46 58
REMARK Flexibility Score: inf
ROOT
ATOM      1  C   UNL A   1      37.084  20.416  24.983  1.00  0.00     0.023 C 
ENDROOT
BRANCH   1   2
ATOM      2  C   UNL A   1      35.584  20.403  25.368  1.00  0.00     0.116 C 
BRANCH   2   3
ATOM      3  N   UNL A   1      35.299  21.453  26.364  1.00  0.00    -0.351 N 
ATOM      4  C   UNL A   1      34.144  22.153  26.548  1.00  0.00     0.278 C 
ATOM      5  O   UNL A   1      33.500  21.750  27.536  1.00  0.00    -0.268 OA
ATOM      6  H   UNL A   1      36.037  21.678  26.974  1.00  0.00     0.163 HD
BRANCH   4   7
ATOM      7  C   UNL A   1      33.663  23.498  25.888  1.00  0.00     0.273 C 
BRANCH   7   8
ATOM      8  N   UNL A   1      32.717  24.526  26.482  1.00  0.00    -0.324 N 
ATOM      9  H   UNL A   1      32.767  24.387  27.492  1.00  0.00     0.348 HD
BRANCH   8  10
ATOM     10  C   UNL A   1      31.316  24.372  26.104  1.00  0.00     0.262 C 
BRANCH  10  11
ATOM     11  C   UNL A   1      31.070  23.308  25.037  1.00  0.00     0.058 C 
ATOM     12  C   UNL A   1      30.940  23.743  23.585  1.00  0.00     0.010 C 
ENDBRANCH  10  11
ENDBRANCH   8  10
BRANCH   8  13
ATOM     13  C   UNL A   1      33.155  25.899  26.047  1.00  0.00     0.266 C 
BRANCH  13  14
ATOM     14  C   UNL A   1      32.350  26.718  24.987  1.00  0.00     0.055 C 
ATOM     15  C   UNL A   1      33.161  27.015  23.722  1.00  0.00     0.071 C 
ATOM     16  C   UNL A   1      31.607  27.988  25.432  1.00  0.00     0.071 C 
ATOM     17  C   UNL A   1      34.033  28.250  23.875  1.00  0.00     0.261 C 
ATOM     18  C   UNL A   1      32.444  29.264  25.401  1.00  0.00     0.261 C 
ATOM     19  N   UNL A   1      33.225  29.430  24.177  1.00  0.00    -0.346 N 
ATOM     20  H   UNL A   1      32.586  29.598  23.399  1.00  0.00     0.346 HD
ATOM     21  H   UNL A   1      33.859  30.217  24.313  1.00  0.00     0.346 HD
ENDBRANCH  13  14
ENDBRANCH   8  13
ENDBRANCH   7   8
BRANCH   7  22
ATOM     22  C   UNL A   1      34.876  24.192  25.197  1.00  0.00     0.072 C 
ATOM     23  C   UNL A   1      35.077  23.888  23.720  1.00  0.00     0.011 C 
ENDBRANCH   7  22
ENDBRANCH   4   7
ENDBRANCH   2   3
ENDBRANCH   1   2
BRANCH   1  24
ATOM     24  C   UNL A   1      37.942  21.622  25.387  1.00  0.00     0.023 C 
BRANCH  24  25
ATOM     25  C   UNL A   1      39.270  21.375  26.099  1.00  0.00     0.116 C 
BRANCH  25  26
ATOM     26  N   UNL A   1      39.864  20.056  25.885  1.00  0.00    -0.352 N 
ATOM     27  C   UNL A   1      41.160  19.623  26.112  1.00  0.00     0.251 C 
ATOM     28  H   UNL A   1      39.251  19.375  25.525  1.00  0.00     0.163 HD
ATOM     29  O   UNL A   1      41.480  18.459  25.938  1.00  0.00    -0.269 OA
BRANCH  27  30
ATOM     30  C   UNL A   1      42.183  20.626  26.475  1.00  0.00     0.039 A 
ATOM     31  C   UNL A   1      42.831  21.304  25.441  1.00  0.00     0.014 A 
ATOM     32  C   UNL A   1      42.338  21.026  27.801  1.00  0.00     0.014 A 
ATOM     33  C   UNL A   1      43.491  22.500  25.721  1.00  0.00     0.010 A 
ATOM     34  C   UNL A   1      42.907  22.269  28.062  1.00  0.00     0.010 A 
ATOM     35  C   UNL A   1      43.443  23.039  27.017  1.00  0.00    -0.014 A 
BRANCH  35  36
ATOM     36  C   UNL A   1      43.858  24.442  27.281  1.00  0.00     0.031 A 
ATOM     37  C   UNL A   1      42.848  25.462  27.718  1.00  0.00     0.074 A 
ATOM     38  C   UNL A   1      45.129  24.820  27.023  1.00  0.00     0.049 A 
ATOM     39  N   UNL A   1      43.000  26.749  27.898  1.00  0.00    -0.248 NA
ATOM     40  C   UNL A   1      41.478  24.978  27.947  1.00  0.00     0.031 C 
ATOM     41  C   UNL A   1      46.193  23.944  26.522  1.00  0.00     0.029 A 
ATOM     42  N   UNL A   1      45.740  26.045  27.134  1.00  0.00    -0.354 N 
ATOM     43  C   UNL A   1      41.745  27.230  28.242  1.00  0.00     0.074 A 
ATOM     44  C   UNL A   1      40.832  26.109  28.191  1.00  0.00     0.031 C 
ATOM     45  C   UNL A   1      47.328  24.650  26.401  1.00  0.00     0.029 A 
ATOM     46  C   UNL A   1      47.067  26.037  26.773  1.00  0.00     0.049 A 
ATOM     47  H   UNL A   1      45.272  26.854  27.442  1.00  0.00     0.167 HD
ATOM     48  C   UNL A   1      41.389  28.487  28.596  1.00  0.00     0.037 A 
ATOM     49  C   UNL A   1      47.972  27.034  26.740  1.00  0.00     0.037 A 
ATOM     50  C   UNL A   1      42.302  29.594  28.683  1.00  0.00     0.049 A 
ATOM     51  C   UNL A   1      47.553  28.419  27.144  1.00  0.00     0.074 A 
ATOM     52  C   UNL A   1      42.054  30.885  29.117  1.00  0.00     0.029 A 
ATOM     53  N   UNL A   1      43.642  29.542  28.327  1.00  0.00    -0.354 N 
ATOM     54  N   UNL A   1      46.378  28.842  27.547  1.00  0.00    -0.248 NA
ATOM     55  C   UNL A   1      48.581  29.469  27.083  1.00  0.00     0.031 C 
ATOM     56  C   UNL A   1      43.235  31.623  28.987  1.00  0.00     0.029 A 
ATOM     57  C   UNL A   1      44.226  30.784  28.506  1.00  0.00     0.049 A 
ATOM     58  H   UNL A   1      44.108  28.740  27.996  1.00  0.00     0.167 HD
ATOM     59  C   UNL A   1      46.530  30.198  27.803  1.00  0.00     0.074 A 
ATOM     60  C   UNL A   1      47.914  30.525  27.527  1.00  0.00     0.031 C 
ATOM     61  C   UNL A   1      45.605  31.093  28.224  1.00  0.00     0.037 A 
BRANCH  48  62
ATOM     62  C   UNL A   1      39.946  28.723  28.929  1.00  0.00     0.057 A 
ATOM     63  C   UNL A   1      39.034  29.174  27.966  1.00  0.00     0.134 A 
ATOM     64  C   UNL A   1      39.461  28.483  30.220  1.00  0.00     0.134 A 
ATOM     65  F   UNL A   1      39.440  29.437  26.714  1.00  0.00    -0.206 F 
ATOM     66  C   UNL A   1      37.694  29.403  28.281  1.00  0.00     0.040 A 
ATOM     67  C   UNL A   1      38.117  28.684  30.541  1.00  0.00     0.040 A 
ATOM     68  F   UNL A   1      40.281  28.048  31.187  1.00  0.00    -0.206 F 
ATOM     69  C   UNL A   1      37.232  29.152  29.572  1.00  0.00     0.006 A 
ENDBRANCH  48  62
BRANCH  49  70
ATOM     70  C   UNL A   1      49.371  26.761  26.326  1.00  0.00     0.057 A 
ATOM     71  C   UNL A   1      49.784  26.968  25.004  1.00  0.00     0.134 A 
ATOM     72  C   UNL A   1      50.324  26.275  27.229  1.00  0.00     0.134 A 
ATOM     73  F   UNL A   1      48.911  27.413  24.088  1.00  0.00    -0.206 F 
ATOM     74  C   UNL A   1      51.086  26.687  24.591  1.00  0.00     0.040 A 
ATOM     75  C   UNL A   1      51.637  26.010  26.835  1.00  0.00     0.040 A 
ATOM     76  F   UNL A   1      49.995  26.060  28.511  1.00  0.00    -0.206 F 
ATOM     77  C   UNL A   1      52.019  26.210  25.509  1.00  0.00     0.006 A 
ENDBRANCH  49  70
BRANCH  61  78
ATOM     78  C   UNL A   1      46.060  32.508  28.419  1.00  0.00     0.057 A 
ATOM     79  C   UNL A   1      46.614  32.940  29.631  1.00  0.00     0.134 A 
ATOM     80  C   UNL A   1      45.986  33.434  27.371  1.00  0.00     0.134 A 
ATOM     81  F   UNL A   1      46.697  32.103  30.675  1.00  0.00    -0.206 F 
ATOM     82  C   UNL A   1      47.064  34.250  29.798  1.00  0.00     0.040 A 
ATOM     83  C   UNL A   1      46.455  34.740  27.520  1.00  0.00     0.040 A 
ATOM     84  F   UNL A   1      45.472  33.080  26.184  1.00  0.00    -0.206 F 
ATOM     85  C   UNL A   1      46.993  35.151  28.737  1.00  0.00     0.006 A 
ENDBRANCH  61  78
ENDBRANCH  35  36
ENDBRANCH  27  30
ENDBRANCH  25  26
ENDBRANCH  24  25
ENDBRANCH   1  24
TORSDOF 17
ENDMDL
MODEL 3
REMARK VINA RESULT:     -10.0      1.122      2.201
REMARK SMILES CCC[N@H+](CC1CC[NH2+]CC1)[C@@H](CC)C(=O)NCCCCNC(=O)c1ccc(-c2c3nc(c(-c4c(F)cccc4F)c4ccc([nH]4)c(-c4c(F)cccc4F)c4nc(c(-c5c(F)cccc5F)c5ccc2[nH]5)C=C4)C=C3)cc1
REMARK SMILES IDX 19 1 18 2 17 3 15 4 16 5 12 7 4 8 3 10 2 11 1 12 5 13 6 14
REMARK SMILES IDX 7 15 11 16 8 17 10 18 9 19 13 22 14 23 20 24 21 25 22 26
REMARK SMILES IDX 23 27 24 29 25 30 26 31 78 32 27 33 77 34 28 35 29 36 30 37
REMARK SMILES IDX 71 38 31 39 76 40 70 41 72 42 32 43 75 44 69 45 68 46 33 48
REMARK SMILES IDX 59 49 42 50 58 51 43 52 46 53 57 54 73 55 44 56 45 57 56 59
REMARK SMILES IDX 74 60 47 61 34 62 35 63 40 64 36 65 37 66 39 67 41 68 38 69
REMARK SMILES IDX 60 70 61 71 66 72 62 73 63 74 65 75 67 76 64 77 48 78 49 79
REMARK SMILES IDX 54 80 50 81 51 82 53 83 55 84 52 85
REMARK H PARENT 17 6 4 9 9 20 9 21 22 28 72 47 46 58
REMARK Flexibility Score: inf
ROOT
ATOM      1  C   UNL A   1      36.833  23.096  24.772  1.00  0.00     0.023 C 
ENDROOT
BRANCH   1   2
ATOM      2  C   UNL A   1      36.344  23.138  23.303  1.00  0.00     0.116 C 
BRANCH   2   3
ATOM      3  N   UNL A   1      34.889  22.900  23.238  1.00  0.00    -0.351 N 
ATOM      4  C   UNL A   1      33.918  23.723  22.753  1.00  0.00     0.278 C 
ATOM      5  O   UNL A   1      33.515  23.366  21.629  1.00  0.00    -0.268 OA
ATOM      6  H   UNL A   1      34.580  22.034  23.592  1.00  0.00     0.163 HD
BRANCH   4   7
ATOM      7  C   UNL A   1      33.088  24.844  23.480  1.00  0.00     0.273 C 
BRANCH   7   8
ATOM      8  N   UNL A   1      31.735  24.695  24.154  1.00  0.00    -0.324 N 
ATOM      9  H   UNL A   1      31.889  24.952  25.129  1.00  0.00     0.348 HD
BRANCH   8  10
ATOM     10  C   UNL A   1      31.189  23.341  24.156  1.00  0.00     0.262 C 
BRANCH  10  11
ATOM     11  C   UNL A   1      31.624  22.493  25.350  1.00  0.00     0.058 C 
ATOM     12  C   UNL A   1      32.046  21.051  25.109  1.00  0.00     0.010 C 
ENDBRANCH  10  11
ENDBRANCH   8  10
BRANCH   8  13
ATOM     13  C   UNL A   1      30.742  25.582  23.453  1.00  0.00     0.266 C 
BRANCH  13  14
ATOM     14  C   UNL A   1      30.167  26.866  24.133  1.00  0.00     0.055 C 
ATOM     15  C   UNL A   1      29.487  27.812  23.139  1.00  0.00     0.071 C 
ATOM     16  C   UNL A   1      31.068  27.675  25.080  1.00  0.00     0.071 C 
ATOM     17  C   UNL A   1      30.480  28.736  22.453  1.00  0.00     0.261 C 
ATOM     18  C   UNL A   1      31.927  28.736  24.399  1.00  0.00     0.261 C 
ATOM     19  N   UNL A   1      31.201  29.551  23.428  1.00  0.00    -0.346 N 
ATOM     20  H   UNL A   1      30.531  30.137  23.925  1.00  0.00     0.346 HD
ATOM     21  H   UNL A   1      31.883  30.116  22.920  1.00  0.00     0.346 HD
ENDBRANCH  13  14
ENDBRANCH   8  13
ENDBRANCH   7   8
BRANCH   7  22
ATOM     22  C   UNL A   1      34.049  25.710  24.350  1.00  0.00     0.072 C 
ATOM     23  C   UNL A   1      34.001  25.471  25.852  1.00  0.00     0.011 C 
ENDBRANCH   7  22
ENDBRANCH   4   7
ENDBRANCH   2   3
ENDBRANCH   1   2
BRANCH   1  24
ATOM     24  C   UNL A   1      37.336  21.766  25.347  1.00  0.00     0.023 C 
BRANCH  24  25
ATOM     25  C   UNL A   1      38.759  21.693  25.895  1.00  0.00     0.116 C 
BRANCH  25  26
ATOM     26  N   UNL A   1      39.457  20.428  25.671  1.00  0.00    -0.352 N 
ATOM     27  C   UNL A   1      40.739  20.048  26.033  1.00  0.00     0.251 C 
ATOM     28  H   UNL A   1      38.938  19.744  25.189  1.00  0.00     0.163 HD
ATOM     29  O   UNL A   1      41.151  18.920  25.822  1.00  0.00    -0.269 OA
BRANCH  27  30
ATOM     30  C   UNL A   1      41.643  21.074  26.593  1.00  0.00     0.039 A 
ATOM     31  C   UNL A   1      42.253  21.965  25.707  1.00  0.00     0.014 A 
ATOM     32  C   UNL A   1      41.716  21.274  27.971  1.00  0.00     0.014 A 
ATOM     33  C   UNL A   1      42.779  23.159  26.198  1.00  0.00     0.010 A 
ATOM     34  C   UNL A   1      42.148  22.508  28.445  1.00  0.00     0.010 A 
ATOM     35  C   UNL A   1      42.637  23.480  27.557  1.00  0.00    -0.014 A 
BRANCH  35  36
ATOM     36  C   UNL A   1      42.899  24.858  28.053  1.00  0.00     0.031 A 
ATOM     37  C   UNL A   1      44.281  25.260  28.479  1.00  0.00     0.074 A 
ATOM     38  C   UNL A   1      41.868  25.713  28.218  1.00  0.00     0.049 A 
ATOM     39  N   UNL A   1      44.682  26.377  29.029  1.00  0.00    -0.248 NA
ATOM     40  C   UNL A   1      45.345  24.260  28.296  1.00  0.00     0.031 C 
ATOM     41  C   UNL A   1      40.463  25.422  27.915  1.00  0.00     0.029 A 
ATOM     42  N   UNL A   1      41.838  27.000  28.697  1.00  0.00    -0.354 N 
ATOM     43  C   UNL A   1      46.037  26.208  29.275  1.00  0.00     0.074 A 
ATOM     44  C   UNL A   1      46.378  24.863  28.867  1.00  0.00     0.031 C 
ATOM     45  C   UNL A   1      39.718  26.506  28.182  1.00  0.00     0.029 A 
ATOM     46  C   UNL A   1      40.580  27.555  28.716  1.00  0.00     0.049 A 
ATOM     47  H   UNL A   1      42.642  27.481  28.999  1.00  0.00     0.167 HD
ATOM     48  C   UNL A   1      46.924  27.101  29.770  1.00  0.00     0.037 A 
ATOM     49  C   UNL A   1      40.165  28.770  29.124  1.00  0.00     0.037 A 
ATOM     50  C   UNL A   1      46.594  28.452  30.141  1.00  0.00     0.049 A 
ATOM     51  C   UNL A   1      41.171  29.746  29.664  1.00  0.00     0.074 A 
ATOM     52  C   UNL A   1      47.440  29.460  30.569  1.00  0.00     0.029 A 
ATOM     53  N   UNL A   1      45.313  28.982  30.129  1.00  0.00    -0.354 N 
ATOM     54  N   UNL A   1      42.466  29.600  29.814  1.00  0.00    -0.248 NA
ATOM     55  C   UNL A   1      40.660  31.055  30.098  1.00  0.00     0.031 C 
ATOM     56  C   UNL A   1      46.665  30.589  30.853  1.00  0.00     0.029 A 
ATOM     57  C   UNL A   1      45.342  30.294  30.568  1.00  0.00     0.049 A 
ATOM     58  H   UNL A   1      44.503  28.497  29.850  1.00  0.00     0.167 HD
ATOM     59  C   UNL A   1      42.926  30.799  30.342  1.00  0.00     0.074 A 
ATOM     60  C   UNL A   1      41.774  31.669  30.470  1.00  0.00     0.031 C 
ATOM     61  C   UNL A   1      44.186  31.146  30.693  1.00  0.00     0.037 A 
BRANCH  48  62
ATOM     62  C   UNL A   1      48.344  26.646  29.924  1.00  0.00     0.057 A 
ATOM     63  C   UNL A   1      48.785  25.993  31.083  1.00  0.00     0.134 A 
ATOM     64  C   UNL A   1      49.276  26.846  28.899  1.00  0.00     0.134 A 
ATOM     65  F   UNL A   1      47.944  25.785  32.108  1.00  0.00    -0.206 F 
ATOM     66  C   UNL A   1      50.109  25.579  31.228  1.00  0.00     0.040 A 
ATOM     67  C   UNL A   1      50.597  26.414  29.022  1.00  0.00     0.040 A 
ATOM     68  F   UNL A   1      48.918  27.462  27.762  1.00  0.00    -0.206 F 
ATOM     69  C   UNL A   1      51.019  25.784  30.192  1.00  0.00     0.006 A 
ENDBRANCH  48  62
BRANCH  49  70
ATOM     70  C   UNL A   1      38.731  29.144  29.023  1.00  0.00     0.057 A 
ATOM     71  C   UNL A   1      37.888  29.069  30.138  1.00  0.00     0.134 A 
ATOM     72  C   UNL A   1      38.166  29.568  27.815  1.00  0.00     0.134 A 
ATOM     73  F   UNL A   1      38.367  28.649  31.318  1.00  0.00    -0.206 F 
ATOM     74  C   UNL A   1      36.532  29.386  30.053  1.00  0.00     0.040 A 
ATOM     75  C   UNL A   1      36.815  29.909  27.720  1.00  0.00     0.040 A 
ATOM     76  F   UNL A   1      38.921  29.666  26.710  1.00  0.00    -0.206 F 
ATOM     77  C   UNL A   1      35.993  29.812  28.841  1.00  0.00     0.006 A 
ENDBRANCH  49  70
BRANCH  61  78
ATOM     78  C   UNL A   1      44.389  32.526  31.242  1.00  0.00     0.057 A 
ATOM     79  C   UNL A   1      44.624  33.622  30.403  1.00  0.00     0.134 A 
ATOM     80  C   UNL A   1      44.302  32.767  32.619  1.00  0.00     0.134 A 
ATOM     81  F   UNL A   1      44.732  33.451  29.078  1.00  0.00    -0.206 F 
ATOM     82  C   UNL A   1      44.781  34.910  30.917  1.00  0.00     0.040 A 
ATOM     83  C   UNL A   1      44.435  34.055  33.142  1.00  0.00     0.040 A 
ATOM     84  F   UNL A   1      44.072  31.761  33.475  1.00  0.00    -0.206 F 
ATOM     85  C   UNL A   1      44.678  35.129  32.290  1.00  0.00     0.006 A 
ENDBRANCH  61  78
ENDBRANCH  35  36
ENDBRANCH  27  30
ENDBRANCH  25  26
ENDBRANCH  24  25
ENDBRANCH   1  24
TORSDOF 17
ENDMDL
