MODEL 1
REMARK VINA RESULT:     -10.8      0.000      0.000
REMARK SMILES C=CCN(CC(=O)NCCCCNC(=O)c1ccc(-c2c3nc(c(-c4c(F)cccc4F)c4ccc([nH]4)c(-c4c(F)cccc4F)c4nc(c(-c5c(F)cccc5F)c5ccc2[nH]5)C=C4)C=C3)cc1)c1ccc([N+](=O)[O-])cc1Br
REMARK SMILES IDX 10 1 9 2 8 3 6 4 7 5 5 7 4 8 3 9 2 10 1 11 70 12 71 13 78 14
REMARK SMILES IDX 72 15 77 16 79 17 73 18 74 19 75 20 76 21 11 22 12 23 13 24
REMARK SMILES IDX 14 25 15 27 16 28 17 29 69 30 18 31 68 32 19 33 20 34 21 35
REMARK SMILES IDX 62 36 22 37 67 38 61 39 63 40 23 41 66 42 60 43 59 44 24 46
REMARK SMILES IDX 50 47 33 48 49 49 34 50 37 51 48 52 64 53 35 54 36 55 47 57
REMARK SMILES IDX 65 58 38 59 25 60 26 61 31 62 27 63 28 64 30 65 32 66 29 67
REMARK SMILES IDX 51 68 52 69 57 70 53 71 54 72 56 73 58 74 55 75 39 76 40 77
REMARK SMILES IDX 45 78 41 79 42 80 44 81 46 82 43 83
REMARK H PARENT 8 6 13 26 63 45 37 56
REMARK Flexibility Score: inf
ROOT
ATOM      1  C   UNL A   1      31.512  27.771  26.475  1.00  0.00     0.023 C 
ENDROOT
BRANCH   1   2
ATOM      2  C   UNL A   1      31.128  26.513  25.695  1.00  0.00     0.116 C 
BRANCH   2   3
ATOM      3  N   UNL A   1      30.851  25.393  26.564  1.00  0.00    -0.355 N 
ATOM      4  C   UNL A   1      30.784  24.053  26.300  1.00  0.00     0.239 C 
ATOM      5  O   UNL A   1      30.552  23.319  27.268  1.00  0.00    -0.273 OA
ATOM      6  H   UNL A   1      30.683  25.634  27.504  1.00  0.00     0.163 HD
BRANCH   4   7
ATOM      7  C   UNL A   1      31.010  23.461  24.894  1.00  0.00     0.216 C 
BRANCH   7   8
ATOM      8  N   UNL A   1      32.376  22.977  24.571  1.00  0.00    -0.358 N 
BRANCH   8   9
ATOM      9  C   UNL A   1      33.333  23.940  24.021  1.00  0.00     0.144 C 
BRANCH   9  10
ATOM     10  C   UNL A   1      34.318  24.456  25.015  1.00  0.00    -0.014 C 
ATOM     11  C   UNL A   1      35.607  24.086  25.046  1.00  0.00     0.006 C 
ENDBRANCH   9  10
ENDBRANCH   8   9
BRANCH   8  12
ATOM     12  C   UNL A   1      32.617  21.607  24.442  1.00  0.00     0.052 A 
ATOM     13  C   UNL A   1      32.159  20.918  23.298  1.00  0.00     0.034 A 
ATOM     14  C   UNL A   1      33.309  20.824  25.397  1.00  0.00     0.048 A 
ATOM     15  C   UNL A   1      32.377  19.550  23.095  1.00  0.00     0.088 A 
ATOM     16  C   UNL A   1      33.599  19.465  25.174  1.00  0.00     0.103 A 
ATOM     17  Br  UNL A   1      33.745  21.439  27.146  1.00  0.00    -0.048 Br
ATOM     18  C   UNL A   1      33.120  18.835  24.027  1.00  0.00     0.270 A 
BRANCH  18  19
ATOM     19  N   UNL A   1      33.373  17.407  23.819  1.00  0.00     0.062 N 
ATOM     20  O   UNL A   1      33.366  16.671  24.816  1.00  0.00    -0.258 OA
ATOM     21  O   UNL A   1      33.570  17.022  22.658  1.00  0.00    -0.258 OA
ENDBRANCH  18  19
ENDBRANCH   8  12
ENDBRANCH   7   8
ENDBRANCH   4   7
ENDBRANCH   2   3
ENDBRANCH   1   2
BRANCH   1  22
ATOM     22  C   UNL A   1      32.849  28.400  26.080  1.00  0.00     0.023 C 
BRANCH  22  23
ATOM     23  C   UNL A   1      33.821  28.647  27.228  1.00  0.00     0.116 C 
BRANCH  23  24
ATOM     24  N   UNL A   1      33.773  30.006  27.743  1.00  0.00    -0.352 N 
ATOM     25  C   UNL A   1      34.755  30.724  28.388  1.00  0.00     0.251 C 
ATOM     26  H   UNL A   1      32.920  30.479  27.611  1.00  0.00     0.163 HD
ATOM     27  O   UNL A   1      34.508  31.826  28.851  1.00  0.00    -0.269 OA
BRANCH  25  28
ATOM     28  C   UNL A   1      36.102  30.131  28.552  1.00  0.00     0.039 A 
ATOM     29  C   UNL A   1      37.003  30.210  27.487  1.00  0.00     0.014 A 
ATOM     30  C   UNL A   1      36.483  29.522  29.750  1.00  0.00     0.014 A 
ATOM     31  C   UNL A   1      38.310  29.746  27.651  1.00  0.00     0.010 A 
ATOM     32  C   UNL A   1      37.805  29.128  29.937  1.00  0.00     0.010 A 
ATOM     33  C   UNL A   1      38.734  29.240  28.891  1.00  0.00    -0.014 A 
BRANCH  33  34
ATOM     34  C   UNL A   1      40.146  28.839  29.115  1.00  0.00     0.031 A 
ATOM     35  C   UNL A   1      41.130  29.814  29.700  1.00  0.00     0.074 A 
ATOM     36  C   UNL A   1      40.561  27.617  28.721  1.00  0.00     0.049 A 
ATOM     37  N   UNL A   1      42.415  29.669  29.905  1.00  0.00    -0.248 NA
ATOM     38  C   UNL A   1      40.609  31.136  30.082  1.00  0.00     0.031 C 
ATOM     39  C   UNL A   1      39.720  26.602  28.083  1.00  0.00     0.029 A 
ATOM     40  N   UNL A   1      41.799  27.029  28.782  1.00  0.00    -0.354 N 
ATOM     41  C   UNL A   1      42.856  30.883  30.415  1.00  0.00     0.074 A 
ATOM     42  C   UNL A   1      41.714  31.769  30.452  1.00  0.00     0.031 C 
ATOM     43  C   UNL A   1      40.462  25.514  27.824  1.00  0.00     0.029 A 
ATOM     44  C   UNL A   1      41.838  25.765  28.242  1.00  0.00     0.049 A 
ATOM     45  H   UNL A   1      42.587  27.470  29.175  1.00  0.00     0.167 HD
ATOM     46  C   UNL A   1      44.100  31.221  30.833  1.00  0.00     0.037 A 
ATOM     47  C   UNL A   1      42.867  24.911  28.086  1.00  0.00     0.037 A 
ATOM     48  C   UNL A   1      45.226  30.326  30.832  1.00  0.00     0.049 A 
ATOM     49  C   UNL A   1      44.233  25.309  28.576  1.00  0.00     0.074 A 
ATOM     50  C   UNL A   1      46.502  30.550  31.322  1.00  0.00     0.029 A 
ATOM     51  N   UNL A   1      45.216  29.042  30.312  1.00  0.00    -0.354 N 
ATOM     52  N   UNL A   1      44.613  26.426  29.146  1.00  0.00    -0.248 NA
ATOM     53  C   UNL A   1      45.311  24.324  28.410  1.00  0.00     0.031 C 
ATOM     54  C   UNL A   1      47.279  29.420  31.050  1.00  0.00     0.029 A 
ATOM     55  C   UNL A   1      46.473  28.472  30.441  1.00  0.00     0.049 A 
ATOM     56  H   UNL A   1      44.433  28.600  29.910  1.00  0.00     0.167 HD
ATOM     57  C   UNL A   1      45.964  26.268  29.431  1.00  0.00     0.074 A 
ATOM     58  C   UNL A   1      46.332  24.940  28.988  1.00  0.00     0.031 C 
ATOM     59  C   UNL A   1      46.823  27.144  30.006  1.00  0.00     0.037 A 
BRANCH  46  60
ATOM     60  C   UNL A   1      44.315  32.620  31.335  1.00  0.00     0.057 A 
ATOM     61  C   UNL A   1      44.691  33.665  30.479  1.00  0.00     0.134 A 
ATOM     62  C   UNL A   1      44.074  32.938  32.677  1.00  0.00     0.134 A 
ATOM     63  F   UNL A   1      44.946  33.425  29.184  1.00  0.00    -0.206 F 
ATOM     64  C   UNL A   1      44.834  34.973  30.946  1.00  0.00     0.040 A 
ATOM     65  C   UNL A   1      44.189  34.246  33.150  1.00  0.00     0.040 A 
ATOM     66  F   UNL A   1      43.707  31.985  33.548  1.00  0.00    -0.206 F 
ATOM     67  C   UNL A   1      44.572  35.268  32.283  1.00  0.00     0.006 A 
ENDBRANCH  46  60
BRANCH  47  68
ATOM     68  C   UNL A   1      42.655  23.592  27.437  1.00  0.00     0.057 A 
ATOM     69  C   UNL A   1      42.755  23.440  26.048  1.00  0.00     0.134 A 
ATOM     70  C   UNL A   1      42.315  22.457  28.184  1.00  0.00     0.134 A 
ATOM     71  F   UNL A   1      43.060  24.492  25.275  1.00  0.00    -0.206 F 
ATOM     72  C   UNL A   1      42.495  22.218  25.424  1.00  0.00     0.040 A 
ATOM     73  C   UNL A   1      42.081  21.223  27.576  1.00  0.00     0.040 A 
ATOM     74  F   UNL A   1      42.211  22.533  29.519  1.00  0.00    -0.206 F 
ATOM     75  C   UNL A   1      42.159  21.105  26.191  1.00  0.00     0.006 A 
ENDBRANCH  47  68
BRANCH  59  76
ATOM     76  C   UNL A   1      48.234  26.683  30.223  1.00  0.00     0.057 A 
ATOM     77  C   UNL A   1      49.253  26.953  29.301  1.00  0.00     0.134 A 
ATOM     78  C   UNL A   1      48.585  25.993  31.391  1.00  0.00     0.134 A 
ATOM     79  F   UNL A   1      48.981  27.599  28.158  1.00  0.00    -0.206 F 
ATOM     80  C   UNL A   1      50.565  26.531  29.521  1.00  0.00     0.040 A 
ATOM     81  C   UNL A   1      49.899  25.593  31.637  1.00  0.00     0.040 A 
ATOM     82  F   UNL A   1      47.659  25.711  32.321  1.00  0.00    -0.206 F 
ATOM     83  C   UNL A   1      50.893  25.856  30.696  1.00  0.00     0.006 A 
ENDBRANCH  59  76
ENDBRANCH  33  34
ENDBRANCH  25  28
ENDBRANCH  23  24
ENDBRANCH  22  23
ENDBRANCH   1  22
TORSDOF 16
ENDMDL
MODEL 2
REMARK VINA RESULT:     -10.7      2.468      7.071
REMARK SMILES C=CCN(CC(=O)NCCCCNC(=O)c1ccc(-c2c3nc(c(-c4c(F)cccc4F)c4ccc([nH]4)c(-c4c(F)cccc4F)c4nc(c(-c5c(F)cccc5F)c5ccc2[nH]5)C=C4)C=C3)cc1)c1ccc([N+](=O)[O-])cc1Br
REMARK SMILES IDX 10 1 9 2 8 3 6 4 7 5 5 7 4 8 3 9 2 10 1 11 70 12 71 13 78 14
REMARK SMILES IDX 72 15 77 16 79 17 73 18 74 19 75 20 76 21 11 22 12 23 13 24
REMARK SMILES IDX 14 25 15 27 16 28 17 29 69 30 18 31 68 32 19 33 20 34 21 35
REMARK SMILES IDX 62 36 22 37 67 38 61 39 63 40 23 41 66 42 60 43 59 44 24 46
REMARK SMILES IDX 50 47 33 48 49 49 34 50 37 51 48 52 64 53 35 54 36 55 47 57
REMARK SMILES IDX 65 58 38 59 25 60 26 61 31 62 27 63 28 64 30 65 32 66 29 67
REMARK SMILES IDX 51 68 52 69 57 70 53 71 54 72 56 73 58 74 55 75 39 76 40 77
REMARK SMILES IDX 45 78 41 79 42 80 44 81 46 82 43 83
REMARK H PARENT 8 6 13 26 63 45 37 56
REMARK Flexibility Score: inf
ROOT
ATOM      1  C   UNL A   1      37.060  21.190  24.607  1.00  0.00     0.023 C 
ENDROOT
BRANCH   1   2
ATOM      2  C   UNL A   1      37.341  22.454  25.421  1.00  0.00     0.116 C 
BRANCH   2   3
ATOM      3  N   UNL A   1      36.455  23.540  25.069  1.00  0.00    -0.355 N 
ATOM      4  C   UNL A   1      35.200  23.848  25.515  1.00  0.00     0.239 C 
ATOM      5  O   UNL A   1      34.692  24.874  25.044  1.00  0.00    -0.273 OA
ATOM      6  H   UNL A   1      36.815  24.162  24.395  1.00  0.00     0.163 HD
BRANCH   4   7
ATOM      7  C   UNL A   1      34.449  23.005  26.565  1.00  0.00     0.216 C 
BRANCH   7   8
ATOM      8  N   UNL A   1      33.116  22.473  26.185  1.00  0.00    -0.358 N 
BRANCH   8   9
ATOM      9  C   UNL A   1      31.966  22.849  27.011  1.00  0.00     0.144 C 
BRANCH   9  10
ATOM     10  C   UNL A   1      30.788  23.330  26.232  1.00  0.00    -0.014 C 
ATOM     11  C   UNL A   1      30.521  24.625  26.011  1.00  0.00     0.006 C 
ENDBRANCH   9  10
ENDBRANCH   8   9
BRANCH   8  12
ATOM     12  C   UNL A   1      33.025  21.377  25.323  1.00  0.00     0.052 A 
ATOM     13  C   UNL A   1      33.334  20.084  25.796  1.00  0.00     0.034 A 
ATOM     14  C   UNL A   1      32.630  21.459  23.966  1.00  0.00     0.048 A 
ATOM     15  C   UNL A   1      33.251  18.940  24.994  1.00  0.00     0.088 A 
ATOM     16  C   UNL A   1      32.470  20.311  23.168  1.00  0.00     0.103 A 
ATOM     17  Br  UNL A   1      32.467  23.101  23.015  1.00  0.00    -0.048 Br
ATOM     18  C   UNL A   1      32.793  19.058  23.686  1.00  0.00     0.270 A 
BRANCH  18  19
ATOM     19  N   UNL A   1      32.681  17.868  22.841  1.00  0.00     0.062 N 
ATOM     20  O   UNL A   1      33.180  16.815  23.261  1.00  0.00    -0.258 OA
ATOM     21  O   UNL A   1      32.086  17.985  21.760  1.00  0.00    -0.258 OA
ENDBRANCH  18  19
ENDBRANCH   8  12
ENDBRANCH   7   8
ENDBRANCH   4   7
ENDBRANCH   2   3
ENDBRANCH   1   2
BRANCH   1  22
ATOM     22  C   UNL A   1      37.906  19.972  24.983  1.00  0.00     0.023 C 
BRANCH  22  23
ATOM     23  C   UNL A   1      39.137  20.267  25.830  1.00  0.00     0.116 C 
BRANCH  23  24
ATOM     24  N   UNL A   1      40.127  19.203  25.799  1.00  0.00    -0.352 N 
ATOM     25  C   UNL A   1      41.479  19.268  26.056  1.00  0.00     0.251 C 
ATOM     26  H   UNL A   1      39.784  18.311  25.562  1.00  0.00     0.163 HD
ATOM     27  O   UNL A   1      42.186  18.290  25.879  1.00  0.00    -0.269 OA
BRANCH  25  28
ATOM     28  C   UNL A   1      42.073  20.546  26.510  1.00  0.00     0.039 A 
ATOM     29  C   UNL A   1      42.637  21.398  25.556  1.00  0.00     0.014 A 
ATOM     30  C   UNL A   1      42.055  20.914  27.857  1.00  0.00     0.014 A 
ATOM     31  C   UNL A   1      43.115  22.650  25.945  1.00  0.00     0.010 A 
ATOM     32  C   UNL A   1      42.464  22.191  28.231  1.00  0.00     0.010 A 
ATOM     33  C   UNL A   1      42.995  23.074  27.279  1.00  0.00    -0.014 A 
BRANCH  33  34
ATOM     34  C   UNL A   1      43.402  24.443  27.691  1.00  0.00     0.031 A 
ATOM     35  C   UNL A   1      42.363  25.474  28.034  1.00  0.00     0.074 A 
ATOM     36  C   UNL A   1      44.708  24.777  27.684  1.00  0.00     0.049 A 
ATOM     37  N   UNL A   1      42.523  26.735  28.347  1.00  0.00    -0.248 NA
ATOM     38  C   UNL A   1      40.957  25.041  27.994  1.00  0.00     0.031 C 
ATOM     39  C   UNL A   1      45.809  23.887  27.311  1.00  0.00     0.029 A 
ATOM     40  N   UNL A   1      45.331  25.964  27.982  1.00  0.00    -0.354 N 
ATOM     41  C   UNL A   1      41.244  27.248  28.518  1.00  0.00     0.074 A 
ATOM     42  C   UNL A   1      40.315  26.176  28.235  1.00  0.00     0.031 C 
ATOM     43  C   UNL A   1      46.970  24.553  27.414  1.00  0.00     0.029 A 
ATOM     44  C   UNL A   1      46.696  25.927  27.825  1.00  0.00     0.049 A 
ATOM     45  H   UNL A   1      44.845  26.767  28.280  1.00  0.00     0.167 HD
ATOM     46  C   UNL A   1      40.878  28.497  28.896  1.00  0.00     0.037 A 
ATOM     47  C   UNL A   1      47.621  26.893  27.978  1.00  0.00     0.037 A 
ATOM     48  C   UNL A   1      41.805  29.551  29.215  1.00  0.00     0.049 A 
ATOM     49  C   UNL A   1      47.185  28.265  28.416  1.00  0.00     0.074 A 
ATOM     50  C   UNL A   1      41.529  30.819  29.696  1.00  0.00     0.029 A 
ATOM     51  N   UNL A   1      43.181  29.462  29.080  1.00  0.00    -0.354 N 
ATOM     52  N   UNL A   1      45.978  28.707  28.667  1.00  0.00    -0.248 NA
ATOM     53  C   UNL A   1      48.242  29.270  28.599  1.00  0.00     0.031 C 
ATOM     54  C   UNL A   1      42.736  31.518  29.801  1.00  0.00     0.029 A 
ATOM     55  C   UNL A   1      43.767  30.666  29.438  1.00  0.00     0.049 A 
ATOM     56  H   UNL A   1      43.669  28.664  28.774  1.00  0.00     0.167 HD
ATOM     57  C   UNL A   1      46.132  30.029  29.065  1.00  0.00     0.074 A 
ATOM     58  C   UNL A   1      47.551  30.311  29.039  1.00  0.00     0.031 C 
ATOM     59  C   UNL A   1      45.183  30.930  29.418  1.00  0.00     0.037 A 
BRANCH  46  60
ATOM     60  C   UNL A   1      39.410  28.799  28.993  1.00  0.00     0.057 A 
ATOM     61  C   UNL A   1      38.702  28.655  30.193  1.00  0.00     0.134 A 
ATOM     62  C   UNL A   1      38.716  29.308  27.889  1.00  0.00     0.134 A 
ATOM     63  F   UNL A   1      39.306  28.163  31.285  1.00  0.00    -0.206 F 
ATOM     64  C   UNL A   1      37.350  28.992  30.286  1.00  0.00     0.040 A 
ATOM     65  C   UNL A   1      37.372  29.673  27.976  1.00  0.00     0.040 A 
ATOM     66  F   UNL A   1      39.337  29.476  26.711  1.00  0.00    -0.206 F 
ATOM     67  C   UNL A   1      36.684  29.513  29.178  1.00  0.00     0.006 A 
ENDBRANCH  46  60
BRANCH  47  68
ATOM     68  C   UNL A   1      49.055  26.606  27.717  1.00  0.00     0.057 A 
ATOM     69  C   UNL A   1      49.611  26.776  26.443  1.00  0.00     0.134 A 
ATOM     70  C   UNL A   1      49.898  26.123  28.727  1.00  0.00     0.134 A 
ATOM     71  F   UNL A   1      48.852  27.218  25.430  1.00  0.00    -0.206 F 
ATOM     72  C   UNL A   1      50.941  26.449  26.174  1.00  0.00     0.040 A 
ATOM     73  C   UNL A   1      51.237  25.819  28.479  1.00  0.00     0.040 A 
ATOM     74  F   UNL A   1      49.430  25.946  29.971  1.00  0.00    -0.206 F 
ATOM     75  C   UNL A   1      51.759  25.970  27.196  1.00  0.00     0.006 A 
ENDBRANCH  47  68
BRANCH  59  76
ATOM     76  C   UNL A   1      45.649  32.292  29.841  1.00  0.00     0.057 A 
ATOM     77  C   UNL A   1      45.794  33.343  28.926  1.00  0.00     0.134 A 
ATOM     78  C   UNL A   1      45.919  32.565  31.188  1.00  0.00     0.134 A 
ATOM     79  F   UNL A   1      45.562  33.144  27.620  1.00  0.00    -0.206 F 
ATOM     80  C   UNL A   1      46.215  34.610  29.333  1.00  0.00     0.040 A 
ATOM     81  C   UNL A   1      46.311  33.836  31.611  1.00  0.00     0.040 A 
ATOM     82  F   UNL A   1      45.790  31.606  32.118  1.00  0.00    -0.206 F 
ATOM     83  C   UNL A   1      46.467  34.861  30.681  1.00  0.00     0.006 A 
ENDBRANCH  59  76
ENDBRANCH  33  34
ENDBRANCH  25  28
ENDBRANCH  23  24
ENDBRANCH  22  23
ENDBRANCH   1  22
TORSDOF 16
ENDMDL
MODEL 3
REMARK VINA RESULT:     -10.7      4.090      6.185
REMARK SMILES C=CCN(CC(=O)NCCCCNC(=O)c1ccc(-c2c3nc(c(-c4c(F)cccc4F)c4ccc([nH]4)c(-c4c(F)cccc4F)c4nc(c(-c5c(F)cccc5F)c5ccc2[nH]5)C=C4)C=C3)cc1)c1ccc([N+](=O)[O-])cc1Br
REMARK SMILES IDX 10 1 9 2 8 3 6 4 7 5 5 7 4 8 3 9 2 10 1 11 70 12 71 13 78 14
REMARK SMILES IDX 72 15 77 16 79 17 73 18 74 19 75 20 76 21 11 22 12 23 13 24
REMARK SMILES IDX 14 25 15 27 16 28 17 29 69 30 18 31 68 32 19 33 20 34 21 35
REMARK SMILES IDX 62 36 22 37 67 38 61 39 63 40 23 41 66 42 60 43 59 44 24 46
REMARK SMILES IDX 50 47 33 48 49 49 34 50 37 51 48 52 64 53 35 54 36 55 47 57
REMARK SMILES IDX 65 58 38 59 25 60 26 61 31 62 27 63 28 64 30 65 32 66 29 67
REMARK SMILES IDX 51 68 52 69 57 70 53 71 54 72 56 73 58 74 55 75 39 76 40 77
REMARK SMILES IDX 45 78 41 79 42 80 44 81 46 82 43 83
REMARK H PARENT 8 6 13 26 63 45 37 56
REMARK Flexibility Score: inf
ROOT
ATOM      1  C   UNL A   1      31.697  30.433  25.857  1.00  0.00     0.023 C 
ENDROOT
BRANCH   1   2
ATOM      2  C   UNL A   1      33.113  29.876  26.010  1.00  0.00     0.116 C 
BRANCH   2   3
ATOM      3  N   UNL A   1      33.114  28.497  26.442  1.00  0.00    -0.355 N 
ATOM      4  C   UNL A   1      33.363  27.345  25.749  1.00  0.00     0.239 C 
ATOM      5  O   UNL A   1      33.318  26.296  26.403  1.00  0.00    -0.273 OA
ATOM      6  H   UNL A   1      32.901  28.365  27.394  1.00  0.00     0.163 HD
BRANCH   4   7
ATOM      7  C   UNL A   1      33.712  27.325  24.247  1.00  0.00     0.216 C 
BRANCH   7   8
ATOM      8  N   UNL A   1      32.679  26.810  23.314  1.00  0.00    -0.358 N 
BRANCH   8   9
ATOM      9  C   UNL A   1      33.086  25.811  22.323  1.00  0.00     0.144 C 
BRANCH   9  10
ATOM     10  C   UNL A   1      33.572  24.530  22.912  1.00  0.00    -0.014 C 
ATOM     11  C   UNL A   1      33.563  23.360  22.257  1.00  0.00     0.006 C 
ENDBRANCH   9  10
ENDBRANCH   8   9
BRANCH   8  12
ATOM     12  C   UNL A   1      31.483  27.512  23.143  1.00  0.00     0.052 A 
ATOM     13  C   UNL A   1      31.475  28.715  22.405  1.00  0.00     0.034 A 
ATOM     14  C   UNL A   1      30.233  27.100  23.665  1.00  0.00     0.048 A 
ATOM     15  C   UNL A   1      30.313  29.463  22.181  1.00  0.00     0.088 A 
ATOM     16  C   UNL A   1      29.045  27.801  23.387  1.00  0.00     0.103 A 
ATOM     17  Br  UNL A   1      30.035  25.701  24.942  1.00  0.00    -0.048 Br
ATOM     18  C   UNL A   1      29.096  28.985  22.655  1.00  0.00     0.270 A 
BRANCH  18  19
ATOM     19  N   UNL A   1      27.868  29.746  22.411  1.00  0.00     0.062 N 
ATOM     20  O   UNL A   1      27.858  30.529  21.451  1.00  0.00    -0.258 OA
ATOM     21  O   UNL A   1      26.912  29.553  23.175  1.00  0.00    -0.258 OA
ENDBRANCH  18  19
ENDBRANCH   8  12
ENDBRANCH   7   8
ENDBRANCH   4   7
ENDBRANCH   2   3
ENDBRANCH   1   2
BRANCH   1  22
ATOM     22  C   UNL A   1      31.443  31.768  26.559  1.00  0.00     0.023 C 
BRANCH  22  23
ATOM     23  C   UNL A   1      32.680  32.457  27.124  1.00  0.00     0.116 C 
BRANCH  23  24
ATOM     24  N   UNL A   1      32.434  33.824  27.552  1.00  0.00    -0.352 N 
ATOM     25  C   UNL A   1      33.099  34.568  28.501  1.00  0.00     0.251 C 
ATOM     26  H   UNL A   1      31.690  34.282  27.100  1.00  0.00     0.163 HD
ATOM     27  O   UNL A   1      32.690  35.674  28.813  1.00  0.00    -0.269 OA
BRANCH  25  28
ATOM     28  C   UNL A   1      34.290  33.997  29.171  1.00  0.00     0.039 A 
ATOM     29  C   UNL A   1      34.101  33.143  30.261  1.00  0.00     0.014 A 
ATOM     30  C   UNL A   1      35.580  34.281  28.717  1.00  0.00     0.014 A 
ATOM     31  C   UNL A   1      35.202  32.516  30.847  1.00  0.00     0.010 A 
ATOM     32  C   UNL A   1      36.669  33.598  29.253  1.00  0.00     0.010 A 
ATOM     33  C   UNL A   1      36.491  32.706  30.321  1.00  0.00    -0.014 A 
BRANCH  33  34
ATOM     34  C   UNL A   1      37.660  31.967  30.864  1.00  0.00     0.031 A 
ATOM     35  C   UNL A   1      38.268  32.366  32.180  1.00  0.00     0.074 A 
ATOM     36  C   UNL A   1      38.221  30.982  30.133  1.00  0.00     0.049 A 
ATOM     37  N   UNL A   1      39.328  31.887  32.779  1.00  0.00    -0.248 NA
ATOM     38  C   UNL A   1      37.615  33.467  32.907  1.00  0.00     0.031 C 
ATOM     39  C   UNL A   1      37.765  30.541  28.813  1.00  0.00     0.029 A 
ATOM     40  N   UNL A   1      39.310  30.186  30.389  1.00  0.00    -0.354 N 
ATOM     41  C   UNL A   1      39.482  32.640  33.937  1.00  0.00     0.074 A 
ATOM     42  C   UNL A   1      38.432  33.635  33.938  1.00  0.00     0.031 C 
ATOM     43  C   UNL A   1      38.558  29.547  28.382  1.00  0.00     0.029 A 
ATOM     44  C   UNL A   1      39.600  29.304  29.375  1.00  0.00     0.049 A 
ATOM     45  H   UNL A   1      39.834  30.240  31.221  1.00  0.00     0.167 HD
ATOM     46  C   UNL A   1      40.404  32.500  34.919  1.00  0.00     0.037 A 
ATOM     47  C   UNL A   1      40.601  28.412  29.250  1.00  0.00     0.037 A 
ATOM     48  C   UNL A   1      41.423  31.484  34.935  1.00  0.00     0.049 A 
ATOM     49  C   UNL A   1      41.600  28.268  30.367  1.00  0.00     0.074 A 
ATOM     50  C   UNL A   1      42.344  31.207  35.931  1.00  0.00     0.029 A 
ATOM     51  N   UNL A   1      41.661  30.586  33.907  1.00  0.00    -0.354 N 
ATOM     52  N   UNL A   1      41.673  28.923  31.499  1.00  0.00    -0.248 NA
ATOM     53  C   UNL A   1      42.651  27.255  30.191  1.00  0.00     0.031 C 
ATOM     54  C   UNL A   1      43.174  30.175  35.483  1.00  0.00     0.029 A 
ATOM     55  C   UNL A   1      42.735  29.773  34.232  1.00  0.00     0.049 A 
ATOM     56  H   UNL A   1      41.145  30.534  33.070  1.00  0.00     0.167 HD
ATOM     57  C   UNL A   1      42.756  28.383  32.182  1.00  0.00     0.074 A 
ATOM     58  C   UNL A   1      43.299  27.335  31.343  1.00  0.00     0.031 C 
ATOM     59  C   UNL A   1      43.259  28.726  33.393  1.00  0.00     0.037 A 
BRANCH  46  60
ATOM     60  C   UNL A   1      40.357  33.465  36.068  1.00  0.00     0.057 A 
ATOM     61  C   UNL A   1      39.568  33.230  37.202  1.00  0.00     0.134 A 
ATOM     62  C   UNL A   1      41.166  34.608  36.070  1.00  0.00     0.134 A 
ATOM     63  F   UNL A   1      38.763  32.158  37.260  1.00  0.00    -0.206 F 
ATOM     64  C   UNL A   1      39.574  34.105  38.289  1.00  0.00     0.040 A 
ATOM     65  C   UNL A   1      41.201  35.478  37.161  1.00  0.00     0.040 A 
ATOM     66  F   UNL A   1      41.949  34.889  35.017  1.00  0.00    -0.206 F 
ATOM     67  C   UNL A   1      40.400  35.228  38.275  1.00  0.00     0.006 A 
ENDBRANCH  46  60
BRANCH  47  68
ATOM     68  C   UNL A   1      40.716  27.580  28.025  1.00  0.00     0.057 A 
ATOM     69  C   UNL A   1      40.114  26.318  27.943  1.00  0.00     0.134 A 
ATOM     70  C   UNL A   1      41.457  28.011  26.917  1.00  0.00     0.134 A 
ATOM     71  F   UNL A   1      39.406  25.840  28.978  1.00  0.00    -0.206 F 
ATOM     72  C   UNL A   1      40.270  25.503  26.821  1.00  0.00     0.040 A 
ATOM     73  C   UNL A   1      41.597  27.219  25.777  1.00  0.00     0.040 A 
ATOM     74  F   UNL A   1      42.051  29.214  26.928  1.00  0.00    -0.206 F 
ATOM     75  C   UNL A   1      41.013  25.956  25.732  1.00  0.00     0.006 A 
ENDBRANCH  47  68
BRANCH  59  76
ATOM     76  C   UNL A   1      44.430  27.938  33.901  1.00  0.00     0.057 A 
ATOM     77  C   UNL A   1      44.266  26.751  34.626  1.00  0.00     0.134 A 
ATOM     78  C   UNL A   1      45.739  28.353  33.627  1.00  0.00     0.134 A 
ATOM     79  F   UNL A   1      43.039  26.305  34.932  1.00  0.00    -0.206 F 
ATOM     80  C   UNL A   1      45.364  26.018  35.082  1.00  0.00     0.040 A 
ATOM     81  C   UNL A   1      46.845  27.613  34.051  1.00  0.00     0.040 A 
ATOM     82  F   UNL A   1      45.967  29.476  32.927  1.00  0.00    -0.206 F 
ATOM     83  C   UNL A   1      46.658  26.446  34.787  1.00  0.00     0.006 A 
ENDBRANCH  59  76
ENDBRANCH  33  34
ENDBRANCH  25  28
ENDBRANCH  23  24
ENDBRANCH  22  23
ENDBRANCH   1  22
TORSDOF 16
ENDMDL
