MODEL 1
REMARK VINA RESULT:     -12.1      0.000      0.000
REMARK SMILES COc1ccc(Nc2c(C(=O)NCCCCNC(=O)c3ccc(-c4c5nc(c(-c6c(F)cccc6F)c6ccc([nH]6)c(-c6c(F)cccc6F)c6nc(c(-c7c(F)cccc7F)c7ccc4[nH]7)C=C6)C=C5)cc3)[nH]c(=O)[nH]c2=O)cc1
REMARK SMILES IDX 14 1 13 2 12 3 10 4 11 5 9 7 8 8 78 9 74 10 77 11 79 12
REMARK SMILES IDX 75 13 76 16 7 17 6 19 3 20 4 21 81 22 5 23 80 24 2 25 1 26
REMARK SMILES IDX 15 27 16 28 17 29 18 30 19 32 20 33 21 34 73 35 22 36 72 37
REMARK SMILES IDX 23 38 24 39 25 40 66 41 26 42 71 43 65 44 67 45 27 46 70 47
REMARK SMILES IDX 64 48 63 49 28 51 54 52 37 53 53 54 38 55 41 56 52 57 68 58
REMARK SMILES IDX 39 59 40 60 51 62 69 63 42 64 29 65 30 66 35 67 31 68 32 69
REMARK SMILES IDX 34 70 36 71 33 72 55 73 56 74 61 75 57 76 58 77 60 78 62 79
REMARK SMILES IDX 59 80 43 81 44 82 49 83 45 84 46 85 48 86 50 87 47 88
REMARK H PARENT 12 6 74 14 77 15 7 18 17 31 67 50 41 61
REMARK Flexibility Score: inf
ROOT
ATOM      1  C   UNL A   1      36.602  20.632  25.153  1.00  0.00     0.023 C 
ENDROOT
BRANCH   1   2
ATOM      2  C   UNL A   1      36.433  22.031  25.725  1.00  0.00     0.116 C 
BRANCH   2   3
ATOM      3  N   UNL A   1      35.528  22.177  26.829  1.00  0.00    -0.351 N 
ATOM      4  C   UNL A   1      34.253  21.722  26.944  1.00  0.00     0.270 C 
ATOM      5  O   UNL A   1      33.661  21.984  28.000  1.00  0.00    -0.268 OA
ATOM      6  H   UNL A   1      35.877  22.671  27.606  1.00  0.00     0.163 HD
BRANCH   4   7
ATOM      7  C   UNL A   1      33.447  21.050  25.843  1.00  0.00     0.137 A 
ATOM      8  C   UNL A   1      33.013  21.552  24.663  1.00  0.00     0.134 A 
ATOM      9  C   UNL A   1      32.410  20.545  23.699  1.00  0.00     0.278 A 
ATOM     10  N   UNL A   1      33.271  19.705  26.125  1.00  0.00    -0.301 N 
ATOM     11  N   UNL A   1      32.185  19.284  24.152  1.00  0.00    -0.272 N 
ATOM     12  O   UNL A   1      32.153  20.852  22.535  1.00  0.00    -0.267 OA
ATOM     13  C   UNL A   1      32.637  18.803  25.336  1.00  0.00     0.326 A 
ATOM     14  H   UNL A   1      33.640  19.375  26.976  1.00  0.00     0.172 HD
ATOM     15  H   UNL A   1      31.656  18.679  23.584  1.00  0.00     0.175 HD
ATOM     16  O   UNL A   1      32.505  17.630  25.656  1.00  0.00    -0.248 OA
BRANCH   8  17
ATOM     17  N   UNL A   1      33.109  22.839  24.146  1.00  0.00    -0.349 N 
ATOM     18  H   UNL A   1      33.581  22.955  23.290  1.00  0.00     0.167 HD
BRANCH  17  19
ATOM     19  C   UNL A   1      32.570  24.000  24.771  1.00  0.00     0.039 A 
ATOM     20  C   UNL A   1      31.665  26.130  26.395  1.00  0.00     0.119 A 
ATOM     21  C   UNL A   1      30.769  25.185  25.898  1.00  0.00     0.048 A 
ATOM     22  C   UNL A   1      33.016  26.023  26.066  1.00  0.00     0.048 A 
ATOM     23  C   UNL A   1      31.213  24.130  25.098  1.00  0.00     0.030 A 
ATOM     24  C   UNL A   1      33.460  24.974  25.249  1.00  0.00     0.030 A 
BRANCH  20  25
ATOM     25  O   UNL A   1      31.103  27.078  27.202  1.00  0.00    -0.497 OA
ATOM     26  C   UNL A   1      31.776  28.328  27.287  1.00  0.00     0.278 C 
ENDBRANCH  20  25
ENDBRANCH  17  19
ENDBRANCH   8  17
ENDBRANCH   4   7
ENDBRANCH   2   3
ENDBRANCH   1   2
BRANCH   1  27
ATOM     27  C   UNL A   1      38.017  20.216  24.764  1.00  0.00     0.023 C 
BRANCH  27  28
ATOM     28  C   UNL A   1      39.078  20.278  25.858  1.00  0.00     0.116 C 
BRANCH  28  29
ATOM     29  N   UNL A   1      40.061  19.203  25.809  1.00  0.00    -0.352 N 
ATOM     30  C   UNL A   1      41.417  19.199  26.050  1.00  0.00     0.251 C 
ATOM     31  H   UNL A   1      39.691  18.325  25.560  1.00  0.00     0.163 HD
ATOM     32  O   UNL A   1      42.054  18.158  25.911  1.00  0.00    -0.269 OA
BRANCH  30  33
ATOM     33  C   UNL A   1      42.125  20.452  26.405  1.00  0.00     0.039 A 
ATOM     34  C   UNL A   1      42.655  21.236  25.376  1.00  0.00     0.014 A 
ATOM     35  C   UNL A   1      42.229  20.884  27.725  1.00  0.00     0.014 A 
ATOM     36  C   UNL A   1      43.161  22.509  25.660  1.00  0.00     0.010 A 
ATOM     37  C   UNL A   1      42.633  22.189  27.995  1.00  0.00     0.010 A 
ATOM     38  C   UNL A   1      43.084  23.026  26.963  1.00  0.00    -0.014 A 
BRANCH  38  39
ATOM     39  C   UNL A   1      43.426  24.443  27.263  1.00  0.00     0.031 A 
ATOM     40  C   UNL A   1      44.852  24.914  27.195  1.00  0.00     0.074 A 
ATOM     41  C   UNL A   1      42.465  25.286  27.694  1.00  0.00     0.049 A 
ATOM     42  N   UNL A   1      45.360  26.073  27.534  1.00  0.00    -0.248 NA
ATOM     43  C   UNL A   1      45.846  23.941  26.716  1.00  0.00     0.031 C 
ATOM     44  C   UNL A   1      41.050  24.948  27.863  1.00  0.00     0.029 A 
ATOM     45  N   UNL A   1      42.536  26.603  28.078  1.00  0.00    -0.354 N 
ATOM     46  C   UNL A   1      46.730  25.958  27.335  1.00  0.00     0.074 A 
ATOM     47  C   UNL A   1      46.980  24.601  26.898  1.00  0.00     0.031 C 
ATOM     48  C   UNL A   1      40.382  26.037  28.279  1.00  0.00     0.029 A 
ATOM     49  C   UNL A   1      41.325  27.136  28.450  1.00  0.00     0.049 A 
ATOM     50  H   UNL A   1      43.375  27.116  28.087  1.00  0.00     0.167 HD
ATOM     51  C   UNL A   1      47.691  26.902  27.476  1.00  0.00     0.037 A 
ATOM     52  C   UNL A   1      41.008  28.371  28.883  1.00  0.00     0.037 A 
ATOM     53  C   UNL A   1      47.442  28.262  27.873  1.00  0.00     0.049 A 
ATOM     54  C   UNL A   1      42.090  29.405  29.024  1.00  0.00     0.074 A 
ATOM     55  C   UNL A   1      48.341  29.308  27.985  1.00  0.00     0.029 A 
ATOM     56  N   UNL A   1      46.198  28.767  28.217  1.00  0.00    -0.354 N 
ATOM     57  N   UNL A   1      43.373  29.295  28.780  1.00  0.00    -0.248 NA
ATOM     58  C   UNL A   1      41.679  30.733  29.501  1.00  0.00     0.031 C 
ATOM     59  C   UNL A   1      47.646  30.439  28.425  1.00  0.00     0.029 A 
ATOM     60  C   UNL A   1      46.307  30.107  28.551  1.00  0.00     0.049 A 
ATOM     61  H   UNL A   1      45.360  28.250  28.222  1.00  0.00     0.167 HD
ATOM     62  C   UNL A   1      43.918  30.544  29.045  1.00  0.00     0.074 A 
ATOM     63  C   UNL A   1      42.825  31.399  29.460  1.00  0.00     0.031 C 
ATOM     64  C   UNL A   1      45.208  30.947  28.952  1.00  0.00     0.037 A 
BRANCH  51  65
ATOM     65  C   UNL A   1      49.104  26.488  27.184  1.00  0.00     0.057 A 
ATOM     66  C   UNL A   1      49.641  26.561  25.892  1.00  0.00     0.134 A 
ATOM     67  C   UNL A   1      49.939  26.015  28.205  1.00  0.00     0.134 A 
ATOM     68  F   UNL A   1      48.890  26.993  24.868  1.00  0.00    -0.206 F 
ATOM     69  C   UNL A   1      50.946  26.148  25.617  1.00  0.00     0.040 A 
ATOM     70  C   UNL A   1      51.255  25.624  27.948  1.00  0.00     0.040 A 
ATOM     71  F   UNL A   1      49.491  25.925  29.465  1.00  0.00    -0.206 F 
ATOM     72  C   UNL A   1      51.758  25.681  26.649  1.00  0.00     0.006 A 
ENDBRANCH  51  65
BRANCH  52  73
ATOM     73  C   UNL A   1      39.595  28.717  29.177  1.00  0.00     0.057 A 
ATOM     74  C   UNL A   1      38.749  29.184  28.163  1.00  0.00     0.134 A 
ATOM     75  C   UNL A   1      39.057  28.597  30.463  1.00  0.00     0.134 A 
ATOM     76  F   UNL A   1      39.214  29.338  26.915  1.00  0.00    -0.206 F 
ATOM     77  C   UNL A   1      37.423  29.536  28.421  1.00  0.00     0.040 A 
ATOM     78  C   UNL A   1      37.727  28.925  30.731  1.00  0.00     0.040 A 
ATOM     79  F   UNL A   1      39.815  28.150  31.474  1.00  0.00    -0.206 F 
ATOM     80  C   UNL A   1      36.908  29.402  29.708  1.00  0.00     0.006 A 
ENDBRANCH  52  73
BRANCH  64  81
ATOM     81  C   UNL A   1      45.501  32.383  29.268  1.00  0.00     0.057 A 
ATOM     82  C   UNL A   1      45.419  33.385  28.293  1.00  0.00     0.134 A 
ATOM     83  C   UNL A   1      45.835  32.772  30.571  1.00  0.00     0.134 A 
ATOM     84  F   UNL A   1      45.119  33.075  27.023  1.00  0.00    -0.206 F 
ATOM     85  C   UNL A   1      45.677  34.722  28.601  1.00  0.00     0.040 A 
ATOM     86  C   UNL A   1      46.072  34.107  30.897  1.00  0.00     0.040 A 
ATOM     87  F   UNL A   1      45.925  31.860  31.552  1.00  0.00    -0.206 F 
ATOM     88  C   UNL A   1      45.998  35.086  29.907  1.00  0.00     0.006 A 
ENDBRANCH  64  81
ENDBRANCH  38  39
ENDBRANCH  30  33
ENDBRANCH  28  29
ENDBRANCH  27  28
ENDBRANCH   1  27
TORSDOF 14
ENDMDL
MODEL 2
REMARK VINA RESULT:     -12.1      5.062     10.017
REMARK SMILES COc1ccc(Nc2c(C(=O)NCCCCNC(=O)c3ccc(-c4c5nc(c(-c6c(F)cccc6F)c6ccc([nH]6)c(-c6c(F)cccc6F)c6nc(c(-c7c(F)cccc7F)c7ccc4[nH]7)C=C6)C=C5)cc3)[nH]c(=O)[nH]c2=O)cc1
REMARK SMILES IDX 14 1 13 2 12 3 10 4 11 5 9 7 8 8 78 9 74 10 77 11 79 12
REMARK SMILES IDX 75 13 76 16 7 17 6 19 3 20 4 21 81 22 5 23 80 24 2 25 1 26
REMARK SMILES IDX 15 27 16 28 17 29 18 30 19 32 20 33 21 34 73 35 22 36 72 37
REMARK SMILES IDX 23 38 24 39 25 40 66 41 26 42 71 43 65 44 67 45 27 46 70 47
REMARK SMILES IDX 64 48 63 49 28 51 54 52 37 53 53 54 38 55 41 56 52 57 68 58
REMARK SMILES IDX 39 59 40 60 51 62 69 63 42 64 29 65 30 66 35 67 31 68 32 69
REMARK SMILES IDX 34 70 36 71 33 72 55 73 56 74 61 75 57 76 58 77 60 78 62 79
REMARK SMILES IDX 59 80 43 81 44 82 49 83 45 84 46 85 48 86 50 87 47 88
REMARK H PARENT 12 6 74 14 77 15 7 18 17 31 67 50 41 61
REMARK Flexibility Score: inf
ROOT
ATOM      1  C   UNL A   1      31.372  30.345  25.835  1.00  0.00     0.023 C 
ENDROOT
BRANCH   1   2
ATOM      2  C   UNL A   1      32.799  29.821  25.804  1.00  0.00     0.116 C 
BRANCH   2   3
ATOM      3  N   UNL A   1      33.389  29.616  24.512  1.00  0.00    -0.351 N 
ATOM      4  C   UNL A   1      33.268  28.543  23.688  1.00  0.00     0.270 C 
ATOM      5  O   UNL A   1      33.887  28.592  22.616  1.00  0.00    -0.268 OA
ATOM      6  H   UNL A   1      33.955  30.350  24.179  1.00  0.00     0.163 HD
BRANCH   4   7
ATOM      7  C   UNL A   1      32.562  27.239  24.024  1.00  0.00     0.137 A 
ATOM      8  C   UNL A   1      31.451  26.693  23.475  1.00  0.00     0.134 A 
ATOM      9  C   UNL A   1      31.132  25.273  23.906  1.00  0.00     0.278 A 
ATOM     10  N   UNL A   1      33.290  26.523  24.961  1.00  0.00    -0.301 N 
ATOM     11  N   UNL A   1      31.856  24.736  24.923  1.00  0.00    -0.272 N 
ATOM     12  O   UNL A   1      30.259  24.616  23.338  1.00  0.00    -0.267 OA
ATOM     13  C   UNL A   1      32.970  25.300  25.450  1.00  0.00     0.326 A 
ATOM     14  H   UNL A   1      34.113  26.940  25.302  1.00  0.00     0.172 HD
ATOM     15  H   UNL A   1      31.550  23.882  25.304  1.00  0.00     0.175 HD
ATOM     16  O   UNL A   1      33.653  24.730  26.290  1.00  0.00    -0.248 OA
BRANCH   8  17
ATOM     17  N   UNL A   1      30.592  27.194  22.503  1.00  0.00    -0.349 N 
ATOM     18  H   UNL A   1      30.465  26.661  21.686  1.00  0.00     0.167 HD
BRANCH  17  19
ATOM     19  C   UNL A   1      29.886  28.426  22.610  1.00  0.00     0.039 A 
ATOM     20  C   UNL A   1      28.232  30.715  22.483  1.00  0.00     0.119 A 
ATOM     21  C   UNL A   1      29.539  30.755  21.999  1.00  0.00     0.048 A 
ATOM     22  C   UNL A   1      27.753  29.534  23.049  1.00  0.00     0.048 A 
ATOM     23  C   UNL A   1      30.358  29.625  22.058  1.00  0.00     0.030 A 
ATOM     24  C   UNL A   1      28.581  28.405  23.124  1.00  0.00     0.030 A 
BRANCH  20  25
ATOM     25  O   UNL A   1      27.529  31.875  22.318  1.00  0.00    -0.497 OA
ATOM     26  C   UNL A   1      27.865  32.673  21.190  1.00  0.00     0.278 C 
ENDBRANCH  20  25
ENDBRANCH  17  19
ENDBRANCH   8  17
ENDBRANCH   4   7
ENDBRANCH   2   3
ENDBRANCH   1   2
BRANCH   1  27
ATOM     27  C   UNL A   1      31.147  31.687  26.523  1.00  0.00     0.023 C 
BRANCH  27  28
ATOM     28  C   UNL A   1      32.230  32.745  26.339  1.00  0.00     0.116 C 
BRANCH  28  29
ATOM     29  N   UNL A   1      32.185  33.833  27.307  1.00  0.00    -0.352 N 
ATOM     30  C   UNL A   1      33.040  34.176  28.330  1.00  0.00     0.251 C 
ATOM     31  H   UNL A   1      31.406  34.428  27.212  1.00  0.00     0.163 HD
ATOM     32  O   UNL A   1      32.772  35.136  29.049  1.00  0.00    -0.269 OA
BRANCH  30  33
ATOM     33  C   UNL A   1      34.243  33.358  28.617  1.00  0.00     0.039 A 
ATOM     34  C   UNL A   1      35.486  33.994  28.679  1.00  0.00     0.014 A 
ATOM     35  C   UNL A   1      34.154  31.991  28.872  1.00  0.00     0.014 A 
ATOM     36  C   UNL A   1      36.607  33.290  29.130  1.00  0.00     0.010 A 
ATOM     37  C   UNL A   1      35.243  31.319  29.421  1.00  0.00     0.010 A 
ATOM     38  C   UNL A   1      36.477  31.966  29.578  1.00  0.00    -0.014 A 
BRANCH  38  39
ATOM     39  C   UNL A   1      37.600  31.253  30.247  1.00  0.00     0.031 A 
ATOM     40  C   UNL A   1      37.919  31.520  31.692  1.00  0.00     0.074 A 
ATOM     41  C   UNL A   1      38.396  30.436  29.528  1.00  0.00     0.049 A 
ATOM     42  N   UNL A   1      38.923  31.088  32.413  1.00  0.00    -0.248 NA
ATOM     43  C   UNL A   1      37.007  32.421  32.414  1.00  0.00     0.031 C 
ATOM     44  C   UNL A   1      38.238  30.130  28.105  1.00  0.00     0.029 A 
ATOM     45  N   UNL A   1      39.507  29.716  29.896  1.00  0.00    -0.354 N 
ATOM     46  C   UNL A   1      38.779  31.685  33.658  1.00  0.00     0.074 A 
ATOM     47  C   UNL A   1      37.622  32.550  33.580  1.00  0.00     0.031 C 
ATOM     48  C   UNL A   1      39.190  29.260  27.730  1.00  0.00     0.029 A 
ATOM     49  C   UNL A   1      40.052  28.979  28.873  1.00  0.00     0.049 A 
ATOM     50  H   UNL A   1      39.877  29.728  30.808  1.00  0.00     0.167 HD
ATOM     51  C   UNL A   1      39.524  31.509  34.776  1.00  0.00     0.037 A 
ATOM     52  C   UNL A   1      41.128  28.170  28.853  1.00  0.00     0.037 A 
ATOM     53  C   UNL A   1      40.652  30.620  34.870  1.00  0.00     0.049 A 
ATOM     54  C   UNL A   1      41.935  27.984  30.108  1.00  0.00     0.074 A 
ATOM     55  C   UNL A   1      41.432  30.328  35.975  1.00  0.00     0.029 A 
ATOM     56  N   UNL A   1      41.157  29.874  33.816  1.00  0.00    -0.354 N 
ATOM     57  N   UNL A   1      41.753  28.514  31.292  1.00  0.00    -0.248 NA
ATOM     58  C   UNL A   1      43.097  27.088  30.021  1.00  0.00     0.031 C 
ATOM     59  C   UNL A   1      42.428  29.427  35.583  1.00  0.00     0.029 A 
ATOM     60  C   UNL A   1      42.244  29.130  34.242  1.00  0.00     0.049 A 
ATOM     61  H   UNL A   1      40.795  29.873  32.900  1.00  0.00     0.167 HD
ATOM     62  C   UNL A   1      42.757  27.995  32.099  1.00  0.00     0.074 A 
ATOM     63  C   UNL A   1      43.540  27.101  31.271  1.00  0.00     0.031 C 
ATOM     64  C   UNL A   1      43.007  28.237  33.409  1.00  0.00     0.037 A 
BRANCH  51  65
ATOM     65  C   UNL A   1      39.127  32.293  35.993  1.00  0.00     0.057 A 
ATOM     66  C   UNL A   1      39.597  33.594  36.217  1.00  0.00     0.134 A 
ATOM     67  C   UNL A   1      38.261  31.747  36.949  1.00  0.00     0.134 A 
ATOM     68  F   UNL A   1      40.440  34.170  35.346  1.00  0.00    -0.206 F 
ATOM     69  C   UNL A   1      39.251  34.310  37.363  1.00  0.00     0.040 A 
ATOM     70  C   UNL A   1      37.885  32.463  38.087  1.00  0.00     0.040 A 
ATOM     71  F   UNL A   1      37.769  30.509  36.794  1.00  0.00    -0.206 F 
ATOM     72  C   UNL A   1      38.388  33.745  38.300  1.00  0.00     0.006 A 
ENDBRANCH  51  65
BRANCH  52  73
ATOM     73  C   UNL A   1      41.486  27.436  27.614  1.00  0.00     0.057 A 
ATOM     74  C   UNL A   1      42.267  28.047  26.625  1.00  0.00     0.134 A 
ATOM     75  C   UNL A   1      41.060  26.124  27.383  1.00  0.00     0.134 A 
ATOM     76  F   UNL A   1      42.688  29.310  26.782  1.00  0.00    -0.206 F 
ATOM     77  C   UNL A   1      42.598  27.384  25.441  1.00  0.00     0.040 A 
ATOM     78  C   UNL A   1      41.402  25.442  26.213  1.00  0.00     0.040 A 
ATOM     79  F   UNL A   1      40.315  25.483  28.295  1.00  0.00    -0.206 F 
ATOM     80  C   UNL A   1      42.169  26.075  25.236  1.00  0.00     0.006 A 
ENDBRANCH  52  73
BRANCH  64  81
ATOM     81  C   UNL A   1      44.149  27.496  34.035  1.00  0.00     0.057 A 
ATOM     82  C   UNL A   1      43.984  26.225  34.602  1.00  0.00     0.134 A 
ATOM     83  C   UNL A   1      45.438  28.045  34.040  1.00  0.00     0.134 A 
ATOM     84  F   UNL A   1      42.772  25.652  34.643  1.00  0.00    -0.206 F 
ATOM     85  C   UNL A   1      45.058  25.536  35.167  1.00  0.00     0.040 A 
ATOM     86  C   UNL A   1      46.523  27.356  34.581  1.00  0.00     0.040 A 
ATOM     87  F   UNL A   1      45.664  29.256  33.507  1.00  0.00    -0.206 F 
ATOM     88  C   UNL A   1      46.332  26.099  35.151  1.00  0.00     0.006 A 
ENDBRANCH  64  81
ENDBRANCH  38  39
ENDBRANCH  30  33
ENDBRANCH  28  29
ENDBRANCH  27  28
ENDBRANCH   1  27
TORSDOF 14
ENDMDL
MODEL 3
REMARK VINA RESULT:     -12.0      5.268     10.404
REMARK SMILES COc1ccc(Nc2c(C(=O)NCCCCNC(=O)c3ccc(-c4c5nc(c(-c6c(F)cccc6F)c6ccc([nH]6)c(-c6c(F)cccc6F)c6nc(c(-c7c(F)cccc7F)c7ccc4[nH]7)C=C6)C=C5)cc3)[nH]c(=O)[nH]c2=O)cc1
REMARK SMILES IDX 14 1 13 2 12 3 10 4 11 5 9 7 8 8 78 9 74 10 77 11 79 12
REMARK SMILES IDX 75 13 76 16 7 17 6 19 3 20 4 21 81 22 5 23 80 24 2 25 1 26
REMARK SMILES IDX 15 27 16 28 17 29 18 30 19 32 20 33 21 34 73 35 22 36 72 37
REMARK SMILES IDX 23 38 24 39 25 40 66 41 26 42 71 43 65 44 67 45 27 46 70 47
REMARK SMILES IDX 64 48 63 49 28 51 54 52 37 53 53 54 38 55 41 56 52 57 68 58
REMARK SMILES IDX 39 59 40 60 51 62 69 63 42 64 29 65 30 66 35 67 31 68 32 69
REMARK SMILES IDX 34 70 36 71 33 72 55 73 56 74 61 75 57 76 58 77 60 78 62 79
REMARK SMILES IDX 59 80 43 81 44 82 49 83 45 84 46 85 48 86 50 87 47 88
REMARK H PARENT 12 6 74 14 77 15 7 18 17 31 67 50 41 61
REMARK Flexibility Score: inf
ROOT
ATOM      1  C   UNL A   1      31.749  30.615  25.771  1.00  0.00     0.023 C 
ENDROOT
BRANCH   1   2
ATOM      2  C   UNL A   1      32.948  29.686  25.888  1.00  0.00     0.116 C 
BRANCH   2   3
ATOM      3  N   UNL A   1      33.673  29.405  24.683  1.00  0.00    -0.351 N 
ATOM      4  C   UNL A   1      33.192  28.974  23.487  1.00  0.00     0.270 C 
ATOM      5  O   UNL A   1      34.023  28.788  22.587  1.00  0.00    -0.268 OA
ATOM      6  H   UNL A   1      34.647  29.543  24.727  1.00  0.00     0.163 HD
BRANCH   4   7
ATOM      7  C   UNL A   1      31.756  28.566  23.202  1.00  0.00     0.137 A 
ATOM      8  C   UNL A   1      31.044  27.520  23.686  1.00  0.00     0.134 A 
ATOM      9  C   UNL A   1      29.562  27.522  23.356  1.00  0.00     0.278 A 
ATOM     10  N   UNL A   1      31.131  29.517  22.411  1.00  0.00    -0.301 N 
ATOM     11  N   UNL A   1      29.106  28.445  22.469  1.00  0.00    -0.272 N 
ATOM     12  O   UNL A   1      28.789  26.728  23.891  1.00  0.00    -0.267 OA
ATOM     13  C   UNL A   1      29.837  29.488  22.006  1.00  0.00     0.326 A 
ATOM     14  H   UNL A   1      31.675  30.282  22.117  1.00  0.00     0.172 HD
ATOM     15  H   UNL A   1      28.184  28.350  22.139  1.00  0.00     0.175 HD
ATOM     16  O   UNL A   1      29.354  30.358  21.293  1.00  0.00    -0.248 OA
BRANCH   8  17
ATOM     17  N   UNL A   1      31.434  26.477  24.518  1.00  0.00    -0.349 N 
ATOM     18  H   UNL A   1      31.041  26.438  25.419  1.00  0.00     0.167 HD
BRANCH  17  19
ATOM     19  C   UNL A   1      32.365  25.463  24.154  1.00  0.00     0.039 A 
ATOM     20  C   UNL A   1      34.486  23.791  23.319  1.00  0.00     0.119 A 
ATOM     21  C   UNL A   1      33.345  23.936  22.532  1.00  0.00     0.048 A 
ATOM     22  C   UNL A   1      34.564  24.468  24.536  1.00  0.00     0.048 A 
ATOM     23  C   UNL A   1      32.296  24.764  22.941  1.00  0.00     0.030 A 
ATOM     24  C   UNL A   1      33.505  25.285  24.954  1.00  0.00     0.030 A 
BRANCH  20  25
ATOM     25  O   UNL A   1      35.453  22.990  22.777  1.00  0.00    -0.497 OA
ATOM     26  C   UNL A   1      36.719  22.987  23.423  1.00  0.00     0.278 C 
ENDBRANCH  20  25
ENDBRANCH  17  19
ENDBRANCH   8  17
ENDBRANCH   4   7
ENDBRANCH   2   3
ENDBRANCH   1   2
BRANCH   1  27
ATOM     27  C   UNL A   1      31.572  31.650  26.877  1.00  0.00     0.023 C 
BRANCH  27  28
ATOM     28  C   UNL A   1      32.782  32.515  27.212  1.00  0.00     0.116 C 
BRANCH  28  29
ATOM     29  N   UNL A   1      32.460  33.876  27.621  1.00  0.00    -0.352 N 
ATOM     30  C   UNL A   1      33.065  34.722  28.524  1.00  0.00     0.251 C 
ATOM     31  H   UNL A   1      31.671  34.258  27.172  1.00  0.00     0.163 HD
ATOM     32  O   UNL A   1      32.584  35.834  28.729  1.00  0.00    -0.269 OA
BRANCH  30  33
ATOM     33  C   UNL A   1      34.246  34.278  29.301  1.00  0.00     0.039 A 
ATOM     34  C   UNL A   1      34.039  33.613  30.513  1.00  0.00     0.014 A 
ATOM     35  C   UNL A   1      35.544  34.464  28.829  1.00  0.00     0.014 A 
ATOM     36  C   UNL A   1      35.118  33.019  31.175  1.00  0.00     0.010 A 
ATOM     37  C   UNL A   1      36.601  33.784  29.429  1.00  0.00     0.010 A 
ATOM     38  C   UNL A   1      36.397  33.035  30.598  1.00  0.00    -0.014 A 
BRANCH  38  39
ATOM     39  C   UNL A   1      37.524  32.247  31.169  1.00  0.00     0.031 A 
ATOM     40  C   UNL A   1      38.061  32.566  32.537  1.00  0.00     0.074 A 
ATOM     41  C   UNL A   1      38.129  31.304  30.418  1.00  0.00     0.049 A 
ATOM     42  N   UNL A   1      39.106  32.073  33.153  1.00  0.00    -0.248 NA
ATOM     43  C   UNL A   1      37.350  33.604  33.300  1.00  0.00     0.031 C 
ATOM     44  C   UNL A   1      37.750  30.930  29.054  1.00  0.00     0.029 A 
ATOM     45  N   UNL A   1      39.203  30.492  30.694  1.00  0.00    -0.354 N 
ATOM     46  C   UNL A   1      39.193  32.758  34.358  1.00  0.00     0.074 A 
ATOM     47  C   UNL A   1      38.128  33.738  34.364  1.00  0.00     0.031 C 
ATOM     48  C   UNL A   1      38.551  29.940  28.628  1.00  0.00     0.029 A 
ATOM     49  C   UNL A   1      39.528  29.639  29.668  1.00  0.00     0.049 A 
ATOM     50  H   UNL A   1      39.693  30.520  31.547  1.00  0.00     0.167 HD
ATOM     51  C   UNL A   1      40.062  32.572  35.381  1.00  0.00     0.037 A 
ATOM     52  C   UNL A   1      40.505  28.717  29.572  1.00  0.00     0.037 A 
ATOM     53  C   UNL A   1      41.098  31.574  35.396  1.00  0.00     0.049 A 
ATOM     54  C   UNL A   1      41.452  28.523  30.722  1.00  0.00     0.074 A 
ATOM     55  C   UNL A   1      41.988  31.267  36.410  1.00  0.00     0.029 A 
ATOM     56  N   UNL A   1      41.377  30.713  34.346  1.00  0.00    -0.354 N 
ATOM     57  N   UNL A   1      41.486  29.142  31.877  1.00  0.00    -0.248 NA
ATOM     58  C   UNL A   1      42.497  27.502  30.555  1.00  0.00     0.031 C 
ATOM     59  C   UNL A   1      42.826  30.241  35.963  1.00  0.00     0.029 A 
ATOM     60  C   UNL A   1      42.433  29.883  34.683  1.00  0.00     0.049 A 
ATOM     61  H   UNL A   1      40.896  30.694  33.487  1.00  0.00     0.167 HD
ATOM     62  C   UNL A   1      42.534  28.568  32.584  1.00  0.00     0.074 A 
ATOM     63  C   UNL A   1      43.105  27.545  31.733  1.00  0.00     0.031 C 
ATOM     64  C   UNL A   1      42.983  28.862  33.829  1.00  0.00     0.037 A 
BRANCH  51  65
ATOM     65  C   UNL A   1      39.913  33.469  36.575  1.00  0.00     0.057 A 
ATOM     66  C   UNL A   1      40.637  34.663  36.694  1.00  0.00     0.134 A 
ATOM     67  C   UNL A   1      39.035  33.140  37.616  1.00  0.00     0.134 A 
ATOM     68  F   UNL A   1      41.505  35.029  35.739  1.00  0.00    -0.206 F 
ATOM     69  C   UNL A   1      40.521  35.480  37.819  1.00  0.00     0.040 A 
ATOM     70  C   UNL A   1      38.889  33.963  38.734  1.00  0.00     0.040 A 
ATOM     71  F   UNL A   1      38.307  32.015  37.563  1.00  0.00    -0.206 F 
ATOM     72  C   UNL A   1      39.640  35.132  38.842  1.00  0.00     0.006 A 
ENDBRANCH  51  65
BRANCH  52  73
ATOM     73  C   UNL A   1      40.617  27.874  28.355  1.00  0.00     0.057 A 
ATOM     74  C   UNL A   1      39.966  26.636  28.284  1.00  0.00     0.134 A 
ATOM     75  C   UNL A   1      41.370  28.273  27.246  1.00  0.00     0.134 A 
ATOM     76  F   UNL A   1      39.245  26.192  29.325  1.00  0.00    -0.206 F 
ATOM     77  C   UNL A   1      40.074  25.816  27.160  1.00  0.00     0.040 A 
ATOM     78  C   UNL A   1      41.469  27.473  26.106  1.00  0.00     0.040 A 
ATOM     79  F   UNL A   1      42.010  29.450  27.251  1.00  0.00    -0.206 F 
ATOM     80  C   UNL A   1      40.824  26.237  26.064  1.00  0.00     0.006 A 
ENDBRANCH  52  73
BRANCH  64  81
ATOM     81  C   UNL A   1      44.120  28.041  34.358  1.00  0.00     0.057 A 
ATOM     82  C   UNL A   1      45.453  28.449  34.219  1.00  0.00     0.134 A 
ATOM     83  C   UNL A   1      43.876  26.846  35.046  1.00  0.00     0.134 A 
ATOM     84  F   UNL A   1      45.753  29.576  33.557  1.00  0.00    -0.206 F 
ATOM     85  C   UNL A   1      46.504  27.686  34.731  1.00  0.00     0.040 A 
ATOM     86  C   UNL A   1      44.917  26.087  35.582  1.00  0.00     0.040 A 
ATOM     87  F   UNL A   1      42.621  26.403  35.218  1.00  0.00    -0.206 F 
ATOM     88  C   UNL A   1      46.236  26.505  35.420  1.00  0.00     0.006 A 
ENDBRANCH  64  81
ENDBRANCH  38  39
ENDBRANCH  30  33
ENDBRANCH  28  29
ENDBRANCH  27  28
ENDBRANCH   1  27
TORSDOF 14
ENDMDL
