MODEL 1
REMARK VINA RESULT:     -11.7      0.000      0.000
REMARK SMILES Cc1cc(Cl)ccc1OCC(=O)Nc1ccc(CC(=O)NCCCCNC(=O)c2ccc(-c3c4nc(c(-c5c(F)cccc5F)c5ccc([nH]5)c(-c5c(F)cccc5F)c5nc(c(-c6c(F)cccc6F)c6ccc3[nH]6)C=C5)C=C4)cc2)cc1
REMARK SMILES IDX 22 1 21 2 19 3 20 4 18 6 17 7 14 8 15 9 84 10 16 11 83 12
REMARK SMILES IDX 13 13 11 14 12 15 10 17 9 18 8 19 1 20 2 21 3 22 4 23 7 24
REMARK SMILES IDX 5 25 6 26 23 27 24 28 25 29 26 30 27 31 28 33 29 34 30 35
REMARK SMILES IDX 82 36 31 37 81 38 32 39 33 40 34 41 75 42 35 43 80 44 74 45
REMARK SMILES IDX 76 46 36 47 79 48 73 49 72 50 37 52 63 53 46 54 62 55 47 56
REMARK SMILES IDX 50 57 61 58 77 59 48 60 49 61 60 63 78 64 51 65 38 66 39 67
REMARK SMILES IDX 44 68 40 69 41 70 43 71 45 72 42 73 64 74 65 75 70 76 66 77
REMARK SMILES IDX 67 78 69 79 71 80 68 81 52 82 53 83 58 84 54 85 55 86 57 87
REMARK SMILES IDX 59 88 56 89
REMARK H PARENT 21 5 13 16 26 32 76 51 50 62
REMARK Flexibility Score: inf
ROOT
ATOM      1  C   UNL A   1      32.856  29.721  25.838  1.00  0.00     0.116 C 
ENDROOT
BRANCH   1   2
ATOM      2  N   UNL A   1      33.551  29.596  24.571  1.00  0.00    -0.356 N 
ATOM      3  C   UNL A   1      33.643  28.518  23.737  1.00  0.00     0.224 C 
ATOM      4  O   UNL A   1      34.351  28.614  22.733  1.00  0.00    -0.275 OA
ATOM      5  H   UNL A   1      34.024  30.405  24.268  1.00  0.00     0.163 HD
BRANCH   3   6
ATOM      6  C   UNL A   1      32.850  27.257  24.022  1.00  0.00     0.135 C 
BRANCH   6   7
ATOM      7  C   UNL A   1      33.699  26.021  24.176  1.00  0.00    -0.039 A 
ATOM      8  C   UNL A   1      35.216  23.666  24.429  1.00  0.00     0.041 A 
ATOM      9  C   UNL A   1      35.095  24.546  25.507  1.00  0.00     0.026 A 
ATOM     10  C   UNL A   1      34.530  23.947  23.255  1.00  0.00     0.026 A 
ATOM     11  C   UNL A   1      34.353  25.726  25.378  1.00  0.00     0.006 A 
ATOM     12  C   UNL A   1      33.809  25.125  23.110  1.00  0.00     0.006 A 
BRANCH   8  13
ATOM     13  N   UNL A   1      36.005  22.523  24.591  1.00  0.00    -0.323 N 
ATOM     14  C   UNL A   1      35.659  21.212  24.771  1.00  0.00     0.262 C 
ATOM     15  O   UNL A   1      36.582  20.403  24.924  1.00  0.00    -0.271 OA
ATOM     16  H   UNL A   1      36.974  22.690  24.574  1.00  0.00     0.170 HD
BRANCH  14  17
ATOM     17  C   UNL A   1      34.201  20.719  24.589  1.00  0.00     0.329 C 
BRANCH  17  18
ATOM     18  O   UNL A   1      33.148  20.806  25.528  1.00  0.00    -0.483 OA
BRANCH  18  19
ATOM     19  C   UNL A   1      32.468  21.968  25.726  1.00  0.00     0.123 A 
ATOM     20  C   UNL A   1      33.068  22.385  28.196  1.00  0.00     0.048 C 
ATOM     21  C   UNL A   1      32.403  22.730  26.897  1.00  0.00    -0.007 A 
ATOM     22  C   UNL A   1      31.612  23.902  26.895  1.00  0.00     0.027 A 
ATOM     23  C   UNL A   1      30.852  24.263  25.784  1.00  0.00     0.041 A 
ATOM     24  C   UNL A   1      31.663  22.327  24.627  1.00  0.00     0.048 A 
ATOM     25  Cl  UNL A   1      29.867  25.671  25.839  1.00  0.00    -0.084 Cl
ATOM     26  C   UNL A   1      30.863  23.470  24.648  1.00  0.00     0.024 A 
ENDBRANCH  18  19
ENDBRANCH  17  18
ENDBRANCH  14  17
ENDBRANCH   8  13
ENDBRANCH   6   7
ENDBRANCH   3   6
ENDBRANCH   1   2
BRANCH   1  27
ATOM     27  C   UNL A   1      31.489  30.390  25.674  1.00  0.00     0.023 C 
BRANCH  27  28
ATOM     28  C   UNL A   1      31.264  31.599  26.586  1.00  0.00     0.023 C 
BRANCH  28  29
ATOM     29  C   UNL A   1      32.524  32.372  26.955  1.00  0.00     0.116 C 
BRANCH  29  30
ATOM     30  N   UNL A   1      32.253  33.733  27.386  1.00  0.00    -0.352 N 
ATOM     31  C   UNL A   1      32.935  34.500  28.298  1.00  0.00     0.251 C 
ATOM     32  H   UNL A   1      31.474  34.165  26.967  1.00  0.00     0.163 HD
ATOM     33  O   UNL A   1      32.489  35.595  28.636  1.00  0.00    -0.269 OA
BRANCH  31  34
ATOM     34  C   UNL A   1      34.186  33.994  28.903  1.00  0.00     0.039 A 
ATOM     35  C   UNL A   1      34.098  33.092  29.966  1.00  0.00     0.014 A 
ATOM     36  C   UNL A   1      35.438  34.395  28.427  1.00  0.00     0.014 A 
ATOM     37  C   UNL A   1      35.263  32.552  30.513  1.00  0.00     0.010 A 
ATOM     38  C   UNL A   1      36.594  33.792  28.917  1.00  0.00     0.010 A 
ATOM     39  C   UNL A   1      36.520  32.869  29.970  1.00  0.00    -0.014 A 
BRANCH  39  40
ATOM     40  C   UNL A   1      37.756  32.238  30.503  1.00  0.00     0.031 A 
ATOM     41  C   UNL A   1      38.428  32.790  31.731  1.00  0.00     0.074 A 
ATOM     42  C   UNL A   1      38.285  31.173  29.867  1.00  0.00     0.049 A 
ATOM     43  N   UNL A   1      39.505  32.366  32.345  1.00  0.00    -0.248 NA
ATOM     44  C   UNL A   1      37.826  33.987  32.338  1.00  0.00     0.031 C 
ATOM     45  C   UNL A   1      37.759  30.573  28.638  1.00  0.00     0.029 A 
ATOM     46  N   UNL A   1      39.380  30.403  30.168  1.00  0.00    -0.354 N 
ATOM     47  C   UNL A   1      39.700  33.235  33.411  1.00  0.00     0.074 A 
ATOM     48  C   UNL A   1      38.679  34.255  33.317  1.00  0.00     0.031 C 
ATOM     49  C   UNL A   1      38.506  29.504  28.315  1.00  0.00     0.029 A 
ATOM     50  C   UNL A   1      39.584  29.366  29.288  1.00  0.00     0.049 A 
ATOM     51  H   UNL A   1      39.964  30.575  30.942  1.00  0.00     0.167 HD
ATOM     52  C   UNL A   1      40.623  33.171  34.400  1.00  0.00     0.037 A 
ATOM     53  C   UNL A   1      40.534  28.411  29.269  1.00  0.00     0.037 A 
ATOM     54  C   UNL A   1      41.639  32.155  34.496  1.00  0.00     0.049 A 
ATOM     55  C   UNL A   1      41.569  28.387  30.361  1.00  0.00     0.074 A 
ATOM     56  C   UNL A   1      42.609  31.994  35.471  1.00  0.00     0.029 A 
ATOM     57  N   UNL A   1      41.815  31.127  33.584  1.00  0.00    -0.354 N 
ATOM     58  N   UNL A   1      41.699  29.178  31.399  1.00  0.00    -0.248 NA
ATOM     59  C   UNL A   1      42.584  27.329  30.283  1.00  0.00     0.031 C 
ATOM     60  C   UNL A   1      43.399  30.893  35.126  1.00  0.00     0.029 A 
ATOM     61  C   UNL A   1      42.887  30.335  33.965  1.00  0.00     0.049 A 
ATOM     62  H   UNL A   1      41.262  30.980  32.783  1.00  0.00     0.167 HD
ATOM     63  C   UNL A   1      42.785  28.690  32.115  1.00  0.00     0.074 A 
ATOM     64  C   UNL A   1      43.262  27.521  31.405  1.00  0.00     0.031 C 
ATOM     65  C   UNL A   1      43.340  29.166  33.256  1.00  0.00     0.037 A 
BRANCH  52  66
ATOM     66  C   UNL A   1      40.563  34.221  35.473  1.00  0.00     0.057 A 
ATOM     67  C   UNL A   1      41.222  35.451  35.332  1.00  0.00     0.134 A 
ATOM     68  C   UNL A   1      39.805  34.026  36.634  1.00  0.00     0.134 A 
ATOM     69  F   UNL A   1      41.976  35.699  34.250  1.00  0.00    -0.206 F 
ATOM     70  C   UNL A   1      41.148  36.438  36.317  1.00  0.00     0.040 A 
ATOM     71  C   UNL A   1      39.698  35.017  37.612  1.00  0.00     0.040 A 
ATOM     72  F   UNL A   1      39.142  32.876  36.831  1.00  0.00    -0.206 F 
ATOM     73  C   UNL A   1      40.376  36.225  37.457  1.00  0.00     0.006 A 
ENDBRANCH  52  66
BRANCH  53  74
ATOM     74  C   UNL A   1      40.550  27.381  28.198  1.00  0.00     0.057 A 
ATOM     75  C   UNL A   1      41.267  27.580  27.011  1.00  0.00     0.134 A 
ATOM     76  C   UNL A   1      39.808  26.199  28.310  1.00  0.00     0.134 A 
ATOM     77  F   UNL A   1      41.982  28.700  26.835  1.00  0.00    -0.206 F 
ATOM     78  C   UNL A   1      41.214  26.662  25.961  1.00  0.00     0.040 A 
ATOM     79  C   UNL A   1      39.772  25.257  27.280  1.00  0.00     0.040 A 
ATOM     80  F   UNL A   1      39.106  25.941  29.423  1.00  0.00    -0.206 F 
ATOM     81  C   UNL A   1      40.465  25.496  26.094  1.00  0.00     0.006 A 
ENDBRANCH  53  74
BRANCH  65  82
ATOM     82  C   UNL A   1      44.492  28.391  33.831  1.00  0.00     0.057 A 
ATOM     83  C   UNL A   1      45.824  28.700  33.527  1.00  0.00     0.134 A 
ATOM     84  C   UNL A   1      44.263  27.326  34.712  1.00  0.00     0.134 A 
ATOM     85  F   UNL A   1      46.114  29.701  32.681  1.00  0.00    -0.206 F 
ATOM     86  C   UNL A   1      46.884  27.954  34.045  1.00  0.00     0.040 A 
ATOM     87  C   UNL A   1      45.315  26.592  35.262  1.00  0.00     0.040 A 
ATOM     88  F   UNL A   1      43.012  26.982  35.056  1.00  0.00    -0.206 F 
ATOM     89  C   UNL A   1      46.630  26.899  34.920  1.00  0.00     0.006 A 
ENDBRANCH  65  82
ENDBRANCH  39  40
ENDBRANCH  31  34
ENDBRANCH  29  30
ENDBRANCH  28  29
ENDBRANCH  27  28
ENDBRANCH   1  27
TORSDOF 16
ENDMDL
MODEL 2
REMARK VINA RESULT:     -11.5      4.220      7.942
REMARK SMILES Cc1cc(Cl)ccc1OCC(=O)Nc1ccc(CC(=O)NCCCCNC(=O)c2ccc(-c3c4nc(c(-c5c(F)cccc5F)c5ccc([nH]5)c(-c5c(F)cccc5F)c5nc(c(-c6c(F)cccc6F)c6ccc3[nH]6)C=C5)C=C4)cc2)cc1
REMARK SMILES IDX 22 1 21 2 19 3 20 4 18 6 17 7 14 8 15 9 84 10 16 11 83 12
REMARK SMILES IDX 13 13 11 14 12 15 10 17 9 18 8 19 1 20 2 21 3 22 4 23 7 24
REMARK SMILES IDX 5 25 6 26 23 27 24 28 25 29 26 30 27 31 28 33 29 34 30 35
REMARK SMILES IDX 82 36 31 37 81 38 32 39 33 40 34 41 75 42 35 43 80 44 74 45
REMARK SMILES IDX 76 46 36 47 79 48 73 49 72 50 37 52 63 53 46 54 62 55 47 56
REMARK SMILES IDX 50 57 61 58 77 59 48 60 49 61 60 63 78 64 51 65 38 66 39 67
REMARK SMILES IDX 44 68 40 69 41 70 43 71 45 72 42 73 64 74 65 75 70 76 66 77
REMARK SMILES IDX 67 78 69 79 71 80 68 81 52 82 53 83 58 84 54 85 55 86 57 87
REMARK SMILES IDX 59 88 56 89
REMARK H PARENT 21 5 13 16 26 32 76 51 50 62
REMARK Flexibility Score: inf
ROOT
ATOM      1  C   UNL A   1      31.937  29.550  25.036  1.00  0.00     0.116 C 
ENDROOT
BRANCH   1   2
ATOM      2  N   UNL A   1      33.040  29.522  24.095  1.00  0.00    -0.356 N 
ATOM      3  C   UNL A   1      33.495  28.489  23.326  1.00  0.00     0.224 C 
ATOM      4  O   UNL A   1      34.502  28.670  22.639  1.00  0.00    -0.275 OA
ATOM      5  H   UNL A   1      33.531  30.370  23.995  1.00  0.00     0.163 HD
BRANCH   3   6
ATOM      6  C   UNL A   1      32.743  27.172  23.286  1.00  0.00     0.135 C 
BRANCH   6   7
ATOM      7  C   UNL A   1      33.573  25.981  23.692  1.00  0.00    -0.039 A 
ATOM      8  C   UNL A   1      35.183  23.814  24.481  1.00  0.00     0.041 A 
ATOM      9  C   UNL A   1      34.642  23.859  23.194  1.00  0.00     0.026 A 
ATOM     10  C   UNL A   1      34.957  24.881  25.339  1.00  0.00     0.026 A 
ATOM     11  C   UNL A   1      33.829  24.929  22.805  1.00  0.00     0.006 A 
ATOM     12  C   UNL A   1      34.134  25.937  24.970  1.00  0.00     0.006 A 
BRANCH   8  13
ATOM     13  N   UNL A   1      35.953  22.702  24.839  1.00  0.00    -0.323 N 
ATOM     14  C   UNL A   1      35.610  21.388  25.002  1.00  0.00     0.262 C 
ATOM     15  O   UNL A   1      36.505  20.615  25.362  1.00  0.00    -0.271 OA
ATOM     16  H   UNL A   1      36.903  22.900  25.001  1.00  0.00     0.170 HD
BRANCH  14  17
ATOM     17  C   UNL A   1      34.227  20.843  24.563  1.00  0.00     0.329 C 
BRANCH  17  18
ATOM     18  O   UNL A   1      33.020  20.894  25.296  1.00  0.00    -0.483 OA
BRANCH  18  19
ATOM     19  C   UNL A   1      32.405  22.078  25.572  1.00  0.00     0.123 A 
ATOM     20  C   UNL A   1      33.129  22.359  28.027  1.00  0.00     0.048 C 
ATOM     21  C   UNL A   1      32.428  22.791  26.775  1.00  0.00    -0.007 A 
ATOM     22  C   UNL A   1      31.696  23.997  26.855  1.00  0.00     0.027 A 
ATOM     23  C   UNL A   1      30.907  24.441  25.795  1.00  0.00     0.041 A 
ATOM     24  C   UNL A   1      31.573  22.521  24.525  1.00  0.00     0.048 A 
ATOM     25  Cl  UNL A   1      29.996  25.891  25.951  1.00  0.00    -0.084 Cl
ATOM     26  C   UNL A   1      30.832  23.698  24.628  1.00  0.00     0.024 A 
ENDBRANCH  18  19
ENDBRANCH  17  18
ENDBRANCH  14  17
ENDBRANCH   8  13
ENDBRANCH   6   7
ENDBRANCH   3   6
ENDBRANCH   1   2
BRANCH   1  27
ATOM     27  C   UNL A   1      32.414  29.816  26.466  1.00  0.00     0.023 C 
BRANCH  27  28
ATOM     28  C   UNL A   1      33.222  28.673  27.085  1.00  0.00     0.023 C 
BRANCH  28  29
ATOM     29  C   UNL A   1      34.630  29.047  27.532  1.00  0.00     0.116 C 
BRANCH  29  30
ATOM     30  N   UNL A   1      34.658  30.178  28.444  1.00  0.00    -0.352 N 
ATOM     31  C   UNL A   1      35.705  30.656  29.194  1.00  0.00     0.251 C 
ATOM     32  H   UNL A   1      33.810  30.669  28.539  1.00  0.00     0.163 HD
ATOM     33  O   UNL A   1      35.515  31.554  30.012  1.00  0.00    -0.269 OA
BRANCH  31  34
ATOM     34  C   UNL A   1      37.053  30.066  29.043  1.00  0.00     0.039 A 
ATOM     35  C   UNL A   1      37.652  30.081  27.782  1.00  0.00     0.014 A 
ATOM     36  C   UNL A   1      37.728  29.507  30.133  1.00  0.00     0.014 A 
ATOM     37  C   UNL A   1      38.948  29.586  27.626  1.00  0.00     0.010 A 
ATOM     38  C   UNL A   1      39.050  29.092  29.993  1.00  0.00     0.010 A 
ATOM     39  C   UNL A   1      39.673  29.120  28.737  1.00  0.00    -0.014 A 
BRANCH  39  40
ATOM     40  C   UNL A   1      41.079  28.662  28.587  1.00  0.00     0.031 A 
ATOM     41  C   UNL A   1      41.384  27.223  28.268  1.00  0.00     0.074 A 
ATOM     42  C   UNL A   1      42.086  29.543  28.756  1.00  0.00     0.049 A 
ATOM     43  N   UNL A   1      42.546  26.645  28.090  1.00  0.00    -0.248 NA
ATOM     44  C   UNL A   1      40.238  26.308  28.154  1.00  0.00     0.031 C 
ATOM     45  C   UNL A   1      41.926  30.953  29.116  1.00  0.00     0.029 A 
ATOM     46  N   UNL A   1      43.444  29.384  28.640  1.00  0.00    -0.354 N 
ATOM     47  C   UNL A   1      42.268  25.308  27.834  1.00  0.00     0.074 A 
ATOM     48  C   UNL A   1      40.837  25.143  27.956  1.00  0.00     0.031 C 
ATOM     49  C   UNL A   1      43.134  31.539  29.152  1.00  0.00     0.029 A 
ATOM     50  C   UNL A   1      44.155  30.541  28.855  1.00  0.00     0.049 A 
ATOM     51  H   UNL A   1      43.869  28.522  28.424  1.00  0.00     0.167 HD
ATOM     52  C   UNL A   1      43.123  24.314  27.493  1.00  0.00     0.037 A 
ATOM     53  C   UNL A   1      45.482  30.769  28.817  1.00  0.00     0.037 A 
ATOM     54  C   UNL A   1      44.548  24.477  27.369  1.00  0.00     0.049 A 
ATOM     55  C   UNL A   1      46.410  29.636  28.471  1.00  0.00     0.074 A 
ATOM     56  C   UNL A   1      45.497  23.535  27.010  1.00  0.00     0.029 A 
ATOM     57  N   UNL A   1      45.230  25.662  27.600  1.00  0.00    -0.354 N 
ATOM     58  N   UNL A   1      46.125  28.393  28.167  1.00  0.00    -0.248 NA
ATOM     59  C   UNL A   1      47.846  29.944  28.453  1.00  0.00     0.031 C 
ATOM     60  C   UNL A   1      46.757  24.138  27.065  1.00  0.00     0.029 A 
ATOM     61  C   UNL A   1      46.589  25.472  27.405  1.00  0.00     0.049 A 
ATOM     62  H   UNL A   1      44.811  26.513  27.863  1.00  0.00     0.167 HD
ATOM     63  C   UNL A   1      47.341  27.783  27.886  1.00  0.00     0.074 A 
ATOM     64  C   UNL A   1      48.362  28.798  28.033  1.00  0.00     0.031 C 
ATOM     65  C   UNL A   1      47.592  26.496  27.540  1.00  0.00     0.037 A 
BRANCH  52  66
ATOM     66  C   UNL A   1      42.534  22.962  27.208  1.00  0.00     0.057 A 
ATOM     67  C   UNL A   1      42.112  22.114  28.242  1.00  0.00     0.134 A 
ATOM     68  C   UNL A   1      42.342  22.518  25.894  1.00  0.00     0.134 A 
ATOM     69  F   UNL A   1      42.278  22.471  29.525  1.00  0.00    -0.206 F 
ATOM     70  C   UNL A   1      41.542  20.866  27.980  1.00  0.00     0.040 A 
ATOM     71  C   UNL A   1      41.745  21.286  25.618  1.00  0.00     0.040 A 
ATOM     72  F   UNL A   1      42.716  23.281  24.855  1.00  0.00    -0.206 F 
ATOM     73  C   UNL A   1      41.349  20.454  26.663  1.00  0.00     0.006 A 
ENDBRANCH  52  66
BRANCH  53  74
ATOM     74  C   UNL A   1      46.024  32.126  29.090  1.00  0.00     0.057 A 
ATOM     75  C   UNL A   1      46.236  33.044  28.054  1.00  0.00     0.134 A 
ATOM     76  C   UNL A   1      46.393  32.520  30.382  1.00  0.00     0.134 A 
ATOM     77  F   UNL A   1      45.921  32.721  26.791  1.00  0.00    -0.206 F 
ATOM     78  C   UNL A   1      46.831  34.285  28.284  1.00  0.00     0.040 A 
ATOM     79  C   UNL A   1      46.958  33.771  30.632  1.00  0.00     0.040 A 
ATOM     80  F   UNL A   1      46.208  31.693  31.422  1.00  0.00    -0.206 F 
ATOM     81  C   UNL A   1      47.193  34.652  29.578  1.00  0.00     0.006 A 
ENDBRANCH  53  74
BRANCH  65  82
ATOM     82  C   UNL A   1      49.020  26.133  27.247  1.00  0.00     0.057 A 
ATOM     83  C   UNL A   1      49.886  25.656  28.240  1.00  0.00     0.134 A 
ATOM     84  C   UNL A   1      49.532  26.252  25.948  1.00  0.00     0.134 A 
ATOM     85  F   UNL A   1      49.463  25.529  29.507  1.00  0.00    -0.206 F 
ATOM     86  C   UNL A   1      51.219  25.350  27.961  1.00  0.00     0.040 A 
ATOM     87  C   UNL A   1      50.853  25.918  25.650  1.00  0.00     0.040 A 
ATOM     88  F   UNL A   1      48.755  26.692  24.947  1.00  0.00    -0.206 F 
ATOM     89  C   UNL A   1      51.704  25.475  26.660  1.00  0.00     0.006 A 
ENDBRANCH  65  82
ENDBRANCH  39  40
ENDBRANCH  31  34
ENDBRANCH  29  30
ENDBRANCH  28  29
ENDBRANCH  27  28
ENDBRANCH   1  27
TORSDOF 16
ENDMDL
MODEL 3
REMARK VINA RESULT:     -11.4      2.975      4.295
REMARK SMILES Cc1cc(Cl)ccc1OCC(=O)Nc1ccc(CC(=O)NCCCCNC(=O)c2ccc(-c3c4nc(c(-c5c(F)cccc5F)c5ccc([nH]5)c(-c5c(F)cccc5F)c5nc(c(-c6c(F)cccc6F)c6ccc3[nH]6)C=C5)C=C4)cc2)cc1
REMARK SMILES IDX 22 1 21 2 19 3 20 4 18 6 17 7 14 8 15 9 84 10 16 11 83 12
REMARK SMILES IDX 13 13 11 14 12 15 10 17 9 18 8 19 1 20 2 21 3 22 4 23 7 24
REMARK SMILES IDX 5 25 6 26 23 27 24 28 25 29 26 30 27 31 28 33 29 34 30 35
REMARK SMILES IDX 82 36 31 37 81 38 32 39 33 40 34 41 75 42 35 43 80 44 74 45
REMARK SMILES IDX 76 46 36 47 79 48 73 49 72 50 37 52 63 53 46 54 62 55 47 56
REMARK SMILES IDX 50 57 61 58 77 59 48 60 49 61 60 63 78 64 51 65 38 66 39 67
REMARK SMILES IDX 44 68 40 69 41 70 43 71 45 72 42 73 64 74 65 75 70 76 66 77
REMARK SMILES IDX 67 78 69 79 71 80 68 81 52 82 53 83 58 84 54 85 55 86 57 87
REMARK SMILES IDX 59 88 56 89
REMARK H PARENT 21 5 13 16 26 32 76 51 50 62
REMARK Flexibility Score: inf
ROOT
ATOM      1  C   UNL A   1      31.344  29.044  24.368  1.00  0.00     0.116 C 
ENDROOT
BRANCH   1   2
ATOM      2  N   UNL A   1      32.482  29.040  23.469  1.00  0.00    -0.356 N 
ATOM      3  C   UNL A   1      33.035  27.999  22.778  1.00  0.00     0.224 C 
ATOM      4  O   UNL A   1      34.053  28.210  22.118  1.00  0.00    -0.275 OA
ATOM      5  H   UNL A   1      32.919  29.912  23.338  1.00  0.00     0.163 HD
BRANCH   3   6
ATOM      6  C   UNL A   1      32.374  26.633  22.788  1.00  0.00     0.135 C 
BRANCH   6   7
ATOM      7  C   UNL A   1      33.285  25.515  23.227  1.00  0.00    -0.039 A 
ATOM      8  C   UNL A   1      35.048  23.490  24.063  1.00  0.00     0.041 A 
ATOM      9  C   UNL A   1      34.368  23.376  22.848  1.00  0.00     0.026 A 
ATOM     10  C   UNL A   1      34.880  24.643  24.818  1.00  0.00     0.026 A 
ATOM     11  C   UNL A   1      33.479  24.375  22.438  1.00  0.00     0.006 A 
ATOM     12  C   UNL A   1      33.984  25.630  24.430  1.00  0.00     0.006 A 
BRANCH   8  13
ATOM     13  N   UNL A   1      35.891  22.444  24.452  1.00  0.00    -0.323 N 
ATOM     14  C   UNL A   1      35.611  21.167  24.853  1.00  0.00     0.262 C 
ATOM     15  O   UNL A   1      36.570  20.457  25.176  1.00  0.00    -0.271 OA
ATOM     16  H   UNL A   1      36.850  22.666  24.434  1.00  0.00     0.170 HD
BRANCH  14  17
ATOM     17  C   UNL A   1      34.192  20.560  24.717  1.00  0.00     0.329 C 
BRANCH  17  18
ATOM     18  O   UNL A   1      33.116  20.698  25.623  1.00  0.00    -0.483 OA
BRANCH  18  19
ATOM     19  C   UNL A   1      32.491  21.893  25.809  1.00  0.00     0.123 A 
ATOM     20  C   UNL A   1      33.390  22.473  28.151  1.00  0.00     0.048 C 
ATOM     21  C   UNL A   1      32.584  22.742  26.916  1.00  0.00    -0.007 A 
ATOM     22  C   UNL A   1      31.827  23.935  26.914  1.00  0.00     0.027 A 
ATOM     23  C   UNL A   1      30.948  24.237  25.875  1.00  0.00     0.041 A 
ATOM     24  C   UNL A   1      31.571  22.195  24.786  1.00  0.00     0.048 A 
ATOM     25  Cl  UNL A   1      30.011  25.677  25.933  1.00  0.00    -0.084 Cl
ATOM     26  C   UNL A   1      30.806  23.361  24.810  1.00  0.00     0.024 A 
ENDBRANCH  18  19
ENDBRANCH  17  18
ENDBRANCH  14  17
ENDBRANCH   8  13
ENDBRANCH   6   7
ENDBRANCH   3   6
ENDBRANCH   1   2
BRANCH   1  27
ATOM     27  C   UNL A   1      31.762  29.313  25.815  1.00  0.00     0.023 C 
BRANCH  27  28
ATOM     28  C   UNL A   1      32.608  28.204  26.445  1.00  0.00     0.023 C 
BRANCH  28  29
ATOM     29  C   UNL A   1      33.898  28.673  27.108  1.00  0.00     0.116 C 
BRANCH  29  30
ATOM     30  N   UNL A   1      33.791  30.001  27.687  1.00  0.00    -0.352 N 
ATOM     31  C   UNL A   1      34.730  30.710  28.396  1.00  0.00     0.251 C 
ATOM     32  H   UNL A   1      32.928  30.455  27.554  1.00  0.00     0.163 HD
ATOM     33  O   UNL A   1      34.424  31.778  28.922  1.00  0.00    -0.269 OA
BRANCH  31  34
ATOM     34  C   UNL A   1      36.098  30.172  28.557  1.00  0.00     0.039 A 
ATOM     35  C   UNL A   1      36.986  30.270  27.483  1.00  0.00     0.014 A 
ATOM     36  C   UNL A   1      36.510  29.580  29.755  1.00  0.00     0.014 A 
ATOM     37  C   UNL A   1      38.301  29.826  27.631  1.00  0.00     0.010 A 
ATOM     38  C   UNL A   1      37.843  29.216  29.927  1.00  0.00     0.010 A 
ATOM     39  C   UNL A   1      38.752  29.327  28.865  1.00  0.00    -0.014 A 
BRANCH  39  40
ATOM     40  C   UNL A   1      40.171  28.923  29.046  1.00  0.00     0.031 A 
ATOM     41  C   UNL A   1      41.157  29.862  29.688  1.00  0.00     0.074 A 
ATOM     42  C   UNL A   1      40.576  27.712  28.614  1.00  0.00     0.049 A 
ATOM     43  N   UNL A   1      42.430  29.678  29.938  1.00  0.00    -0.248 NA
ATOM     44  C   UNL A   1      40.656  31.188  30.082  1.00  0.00     0.031 C 
ATOM     45  C   UNL A   1      39.731  26.730  27.931  1.00  0.00     0.029 A 
ATOM     46  N   UNL A   1      41.800  27.098  28.691  1.00  0.00    -0.354 N 
ATOM     47  C   UNL A   1      42.874  30.856  30.525  1.00  0.00     0.074 A 
ATOM     48  C   UNL A   1      41.758  31.776  30.524  1.00  0.00     0.031 C 
ATOM     49  C   UNL A   1      40.450  25.622  27.689  1.00  0.00     0.029 A 
ATOM     50  C   UNL A   1      41.815  25.828  28.163  1.00  0.00     0.049 A 
ATOM     51  H   UNL A   1      42.594  27.525  29.087  1.00  0.00     0.167 HD
ATOM     52  C   UNL A   1      44.091  31.136  31.050  1.00  0.00     0.037 A 
ATOM     53  C   UNL A   1      42.815  24.931  28.073  1.00  0.00     0.037 A 
ATOM     54  C   UNL A   1      45.203  30.221  31.053  1.00  0.00     0.049 A 
ATOM     55  C   UNL A   1      44.167  25.284  28.633  1.00  0.00     0.074 A 
ATOM     56  C   UNL A   1      46.471  30.405  31.578  1.00  0.00     0.029 A 
ATOM     57  N   UNL A   1      45.178  28.947  30.505  1.00  0.00    -0.354 N 
ATOM     58  N   UNL A   1      44.552  26.379  29.244  1.00  0.00    -0.248 NA
ATOM     59  C   UNL A   1      45.221  24.270  28.498  1.00  0.00     0.031 C 
ATOM     60  C   UNL A   1      47.227  29.259  31.310  1.00  0.00     0.029 A 
ATOM     61  C   UNL A   1      46.413  28.339  30.667  1.00  0.00     0.049 A 
ATOM     62  H   UNL A   1      44.399  28.536  30.066  1.00  0.00     0.167 HD
ATOM     63  C   UNL A   1      45.879  26.168  29.599  1.00  0.00     0.074 A 
ATOM     64  C   UNL A   1      46.224  24.834  29.155  1.00  0.00     0.031 C 
ATOM     65  C   UNL A   1      46.737  27.005  30.233  1.00  0.00     0.037 A 
BRANCH  52  66
ATOM     66  C   UNL A   1      44.277  32.484  31.686  1.00  0.00     0.057 A 
ATOM     67  C   UNL A   1      44.012  32.694  33.047  1.00  0.00     0.134 A 
ATOM     68  C   UNL A   1      44.768  33.570  30.951  1.00  0.00     0.134 A 
ATOM     69  F   UNL A   1      43.529  31.700  33.808  1.00  0.00    -0.206 F 
ATOM     70  C   UNL A   1      44.207  33.940  33.647  1.00  0.00     0.040 A 
ATOM     71  C   UNL A   1      44.995  34.813  31.546  1.00  0.00     0.040 A 
ATOM     72  F   UNL A   1      45.049  33.438  29.646  1.00  0.00    -0.206 F 
ATOM     73  C   UNL A   1      44.709  35.001  32.897  1.00  0.00     0.006 A 
ENDBRANCH  52  66
BRANCH  53  74
ATOM     74  C   UNL A   1      42.586  23.601  27.449  1.00  0.00     0.057 A 
ATOM     75  C   UNL A   1      42.669  23.427  26.062  1.00  0.00     0.134 A 
ATOM     76  C   UNL A   1      42.226  22.487  28.216  1.00  0.00     0.134 A 
ATOM     77  F   UNL A   1      42.991  24.461  25.270  1.00  0.00    -0.206 F 
ATOM     78  C   UNL A   1      42.364  22.207  25.457  1.00  0.00     0.040 A 
ATOM     79  C   UNL A   1      41.951  21.252  27.627  1.00  0.00     0.040 A 
ATOM     80  F   UNL A   1      42.137  22.581  29.552  1.00  0.00    -0.206 F 
ATOM     81  C   UNL A   1      42.004  21.113  26.242  1.00  0.00     0.006 A 
ENDBRANCH  53  74
BRANCH  65  82
ATOM     82  C   UNL A   1      48.113  26.478  30.527  1.00  0.00     0.057 A 
ATOM     83  C   UNL A   1      49.188  26.669  29.648  1.00  0.00     0.134 A 
ATOM     84  C   UNL A   1      48.368  25.779  31.714  1.00  0.00     0.134 A 
ATOM     85  F   UNL A   1      49.010  27.319  28.488  1.00  0.00    -0.206 F 
ATOM     86  C   UNL A   1      50.454  26.149  29.919  1.00  0.00     0.040 A 
ATOM     87  C   UNL A   1      49.637  25.283  32.013  1.00  0.00     0.040 A 
ATOM     88  F   UNL A   1      47.388  25.570  32.606  1.00  0.00    -0.206 F 
ATOM     89  C   UNL A   1      50.683  25.458  31.109  1.00  0.00     0.006 A 
ENDBRANCH  65  82
ENDBRANCH  39  40
ENDBRANCH  31  34
ENDBRANCH  29  30
ENDBRANCH  28  29
ENDBRANCH  27  28
ENDBRANCH   1  27
TORSDOF 16
ENDMDL
