MODEL 1
REMARK VINA RESULT:     -12.4      0.000      0.000
REMARK SMILES CCC[C@H]1CCc2c(sc(NC(=O)[C@H]3[C@@H](C(=O)NCCCCNC(=O)c4ccc(-c5c6nc(c(-c7c(F)cccc7F)c7ccc([nH]7)c(-c7c(F)cccc7F)c7nc(c(-c8c(F)cccc8F)c8ccc5[nH]8)C=C7)C=C6)cc4)[C@H]4CC[C@@H]3O4)c2C(N)=O)C1
REMARK SMILES IDX 19 1 18 2 16 3 17 4 15 6 14 7 83 8 80 9 82 10 84 11 81 12
REMARK SMILES IDX 12 13 11 14 13 16 10 17 4 18 5 19 89 20 6 21 8 22 7 23 9 24
REMARK SMILES IDX 85 25 3 26 2 27 1 28 86 29 87 30 88 31 20 34 21 35 22 36
REMARK SMILES IDX 23 37 24 38 25 40 26 41 27 42 79 43 28 44 78 45 29 46 30 47
REMARK SMILES IDX 31 48 72 49 32 50 77 51 71 52 73 53 33 54 76 55 70 56 69 57
REMARK SMILES IDX 34 59 60 60 43 61 59 62 44 63 47 64 58 65 74 66 45 67 46 68
REMARK SMILES IDX 57 70 75 71 48 72 35 73 36 74 41 75 37 76 38 77 40 78 42 79
REMARK SMILES IDX 39 80 61 81 62 82 67 83 63 84 64 85 66 86 68 87 65 88 49 89
REMARK SMILES IDX 50 90 55 91 51 92 52 93 54 94 56 95 53 96
REMARK H PARENT 18 5 11 15 87 32 87 33 23 39 73 58 47 69
REMARK Flexibility Score: inf
ROOT
ATOM      1  C   UNL A   1      31.342  26.526  26.251  1.00  0.00     0.116 C 
ENDROOT
BRANCH   1   2
ATOM      2  N   UNL A   1      31.568  25.188  26.765  1.00  0.00    -0.356 N 
ATOM      3  C   UNL A   1      32.497  24.262  26.399  1.00  0.00     0.226 C 
ATOM      4  O   UNL A   1      32.495  23.182  26.986  1.00  0.00    -0.275 OA
ATOM      5  H   UNL A   1      30.960  24.907  27.486  1.00  0.00     0.163 HD
BRANCH   3   6
ATOM      6  C   UNL A   1      33.522  24.622  25.343  1.00  0.00     0.122 C 
ATOM      7  C   UNL A   1      33.487  23.827  24.027  1.00  0.00     0.123 C 
ATOM      8  C   UNL A   1      34.791  23.031  24.115  1.00  0.00     0.132 C 
ATOM      9  C   UNL A   1      34.960  24.360  25.827  1.00  0.00     0.132 C 
ATOM     10  C   UNL A   1      34.888  22.060  25.293  1.00  0.00     0.035 C 
ATOM     11  O   UNL A   1      35.663  24.105  24.581  1.00  0.00    -0.373 OA
ATOM     12  C   UNL A   1      35.132  22.994  26.478  1.00  0.00     0.035 C 
BRANCH   7  13
ATOM     13  C   UNL A   1      32.252  23.043  23.641  1.00  0.00     0.231 C 
ATOM     14  N   UNL A   1      31.108  23.667  23.220  1.00  0.00    -0.317 N 
ATOM     15  H   UNL A   1      30.341  23.064  23.080  1.00  0.00     0.170 HD
ATOM     16  O   UNL A   1      32.256  21.807  23.669  1.00  0.00    -0.274 OA
BRANCH  14  17
ATOM     17  C   UNL A   1      30.846  24.993  22.957  1.00  0.00     0.108 A 
ATOM     18  C   UNL A   1      29.016  29.459  22.699  1.00  0.00    -0.006 C 
ATOM     19  C   UNL A   1      30.515  29.770  22.894  1.00  0.00     0.009 C 
ATOM     20  C   UNL A   1      28.641  28.206  23.539  1.00  0.00     0.050 C 
ATOM     21  C   UNL A   1      31.379  28.652  22.301  1.00  0.00     0.038 C 
ATOM     22  C   UNL A   1      29.624  27.104  23.247  1.00  0.00     0.011 A 
ATOM     23  C   UNL A   1      30.855  27.288  22.651  1.00  0.00    -0.019 A 
ATOM     24  S   UNL A   1      29.327  25.471  23.597  1.00  0.00    -0.122 S 
ATOM     25  C   UNL A   1      31.463  26.033  22.282  1.00  0.00     0.077 A 
BRANCH  18  26
ATOM     26  C   UNL A   1      28.120  30.662  23.025  1.00  0.00     0.004 C 
BRANCH  26  27
ATOM     27  C   UNL A   1      28.312  31.877  22.101  1.00  0.00    -0.003 C 
ATOM     28  C   UNL A   1      28.806  33.129  22.815  1.00  0.00     0.004 C 
ENDBRANCH  26  27
ENDBRANCH  18  26
BRANCH  25  29
ATOM     29  C   UNL A   1      32.548  25.952  21.316  1.00  0.00     0.251 C 
ATOM     30  N   UNL A   1      32.167  25.730  20.026  1.00  0.00    -0.365 N 
ATOM     31  O   UNL A   1      33.727  26.130  21.608  1.00  0.00    -0.269 OA
ATOM     32  H   UNL A   1      31.217  25.590  19.811  1.00  0.00     0.159 HD
ATOM     33  H   UNL A   1      32.842  25.711  19.310  1.00  0.00     0.159 HD
ENDBRANCH  25  29
ENDBRANCH  14  17
ENDBRANCH   7  13
ENDBRANCH   3   6
ENDBRANCH   1   2
BRANCH   1  34
ATOM     34  C   UNL A   1      31.765  27.596  27.252  1.00  0.00     0.023 C 
BRANCH  34  35
ATOM     35  C   UNL A   1      32.509  28.797  26.664  1.00  0.00     0.023 C 
BRANCH  35  36
ATOM     36  C   UNL A   1      33.859  29.108  27.298  1.00  0.00     0.116 C 
BRANCH  36  37
ATOM     37  N   UNL A   1      33.873  30.366  28.028  1.00  0.00    -0.352 N 
ATOM     38  C   UNL A   1      34.880  30.922  28.779  1.00  0.00     0.251 C 
ATOM     39  H   UNL A   1      33.043  30.892  27.977  1.00  0.00     0.163 HD
ATOM     40  O   UNL A   1      34.676  31.947  29.421  1.00  0.00    -0.269 OA
BRANCH  38  41
ATOM     41  C   UNL A   1      36.200  30.258  28.850  1.00  0.00     0.039 A 
ATOM     42  C   UNL A   1      37.040  30.316  27.735  1.00  0.00     0.014 A 
ATOM     43  C   UNL A   1      36.621  29.608  30.014  1.00  0.00     0.014 A 
ATOM     44  C   UNL A   1      38.337  29.803  27.817  1.00  0.00     0.010 A 
ATOM     45  C   UNL A   1      37.935  29.158  30.117  1.00  0.00     0.010 A 
ATOM     46  C   UNL A   1      38.810  29.264  29.025  1.00  0.00    -0.014 A 
BRANCH  46  47
ATOM     47  C   UNL A   1      40.225  28.842  29.180  1.00  0.00     0.031 A 
ATOM     48  C   UNL A   1      41.255  29.806  29.695  1.00  0.00     0.074 A 
ATOM     49  C   UNL A   1      40.597  27.611  28.777  1.00  0.00     0.049 A 
ATOM     50  N   UNL A   1      42.549  29.651  29.805  1.00  0.00    -0.248 NA
ATOM     51  C   UNL A   1      40.767  31.128  30.119  1.00  0.00     0.031 C 
ATOM     52  C   UNL A   1      39.702  26.596  28.217  1.00  0.00     0.029 A 
ATOM     53  N   UNL A   1      41.831  27.010  28.760  1.00  0.00    -0.354 N 
ATOM     54  C   UNL A   1      43.033  30.857  30.296  1.00  0.00     0.074 A 
ATOM     55  C   UNL A   1      41.899  31.748  30.420  1.00  0.00     0.031 C 
ATOM     56  C   UNL A   1      40.413  25.495  27.926  1.00  0.00     0.029 A 
ATOM     57  C   UNL A   1      41.818  25.739  28.240  1.00  0.00     0.049 A 
ATOM     58  H   UNL A   1      42.648  27.449  29.090  1.00  0.00     0.167 HD
ATOM     59  C   UNL A   1      44.305  31.185  30.629  1.00  0.00     0.037 A 
ATOM     60  C   UNL A   1      42.824  24.870  28.026  1.00  0.00     0.037 A 
ATOM     61  C   UNL A   1      45.428  30.292  30.526  1.00  0.00     0.049 A 
ATOM     62  C   UNL A   1      44.228  25.265  28.391  1.00  0.00     0.074 A 
ATOM     63  C   UNL A   1      46.743  30.511  30.903  1.00  0.00     0.029 A 
ATOM     64  N   UNL A   1      45.373  29.009  30.004  1.00  0.00    -0.354 N 
ATOM     65  N   UNL A   1      44.661  26.387  28.913  1.00  0.00    -0.248 NA
ATOM     66  C   UNL A   1      45.282  24.273  28.135  1.00  0.00     0.031 C 
ATOM     67  C   UNL A   1      47.489  29.377  30.572  1.00  0.00     0.029 A 
ATOM     68  C   UNL A   1      46.632  28.434  30.025  1.00  0.00     0.049 A 
ATOM     69  H   UNL A   1      44.558  28.571  29.668  1.00  0.00     0.167 HD
ATOM     70  C   UNL A   1      46.032  26.228  29.067  1.00  0.00     0.074 A 
ATOM     71  C   UNL A   1      46.356  24.897  28.599  1.00  0.00     0.031 C 
ATOM     72  C   UNL A   1      46.941  27.109  29.552  1.00  0.00     0.037 A 
BRANCH  59  73
ATOM     73  C   UNL A   1      44.547  32.574  31.142  1.00  0.00     0.057 A 
ATOM     74  C   UNL A   1      44.869  33.632  30.282  1.00  0.00     0.134 A 
ATOM     75  C   UNL A   1      44.422  32.865  32.506  1.00  0.00     0.134 A 
ATOM     76  F   UNL A   1      45.016  33.417  28.966  1.00  0.00    -0.206 F 
ATOM     77  C   UNL A   1      45.080  34.925  30.763  1.00  0.00     0.040 A 
ATOM     78  C   UNL A   1      44.606  34.159  32.996  1.00  0.00     0.040 A 
ATOM     79  F   UNL A   1      44.109  31.899  33.383  1.00  0.00    -0.206 F 
ATOM     80  C   UNL A   1      44.942  35.193  32.124  1.00  0.00     0.006 A 
ENDBRANCH  59  73
BRANCH  60  81
ATOM     81  C   UNL A   1      42.542  23.536  27.443  1.00  0.00     0.057 A 
ATOM     82  C   UNL A   1      42.617  23.324  26.062  1.00  0.00     0.134 A 
ATOM     83  C   UNL A   1      42.185  22.446  28.245  1.00  0.00     0.134 A 
ATOM     84  F   UNL A   1      42.934  24.336  25.240  1.00  0.00    -0.206 F 
ATOM     85  C   UNL A   1      42.333  22.080  25.496  1.00  0.00     0.040 A 
ATOM     86  C   UNL A   1      41.921  21.190  27.696  1.00  0.00     0.040 A 
ATOM     87  F   UNL A   1      42.101  22.584  29.577  1.00  0.00    -0.206 F 
ATOM     88  C   UNL A   1      41.988  21.007  26.316  1.00  0.00     0.006 A 
ENDBRANCH  60  81
BRANCH  72  89
ATOM     89  C   UNL A   1      48.367  26.651  29.619  1.00  0.00     0.057 A 
ATOM     90  C   UNL A   1      49.274  26.918  28.585  1.00  0.00     0.134 A 
ATOM     91  C   UNL A   1      48.848  25.966  30.741  1.00  0.00     0.134 A 
ATOM     92  F   UNL A   1      48.873  27.558  27.477  1.00  0.00    -0.206 F 
ATOM     93  C   UNL A   1      50.604  26.501  28.658  1.00  0.00     0.040 A 
ATOM     94  C   UNL A   1      50.181  25.564  30.836  1.00  0.00     0.040 A 
ATOM     95  F   UNL A   1      48.032  25.684  31.768  1.00  0.00    -0.206 F 
ATOM     96  C   UNL A   1      51.062  25.827  29.789  1.00  0.00     0.006 A 
ENDBRANCH  72  89
ENDBRANCH  46  47
ENDBRANCH  38  41
ENDBRANCH  36  37
ENDBRANCH  35  36
ENDBRANCH  34  35
ENDBRANCH   1  34
TORSDOF 16
ENDMDL
MODEL 2
REMARK VINA RESULT:     -12.3      2.843      7.323
REMARK SMILES CCC[C@H]1CCc2c(sc(NC(=O)[C@H]3[C@@H](C(=O)NCCCCNC(=O)c4ccc(-c5c6nc(c(-c7c(F)cccc7F)c7ccc([nH]7)c(-c7c(F)cccc7F)c7nc(c(-c8c(F)cccc8F)c8ccc5[nH]8)C=C7)C=C6)cc4)[C@H]4CC[C@@H]3O4)c2C(N)=O)C1
REMARK SMILES IDX 19 1 18 2 16 3 17 4 15 6 14 7 83 8 80 9 82 10 84 11 81 12
REMARK SMILES IDX 12 13 11 14 13 16 10 17 4 18 5 19 89 20 6 21 8 22 7 23 9 24
REMARK SMILES IDX 85 25 3 26 2 27 1 28 86 29 87 30 88 31 20 34 21 35 22 36
REMARK SMILES IDX 23 37 24 38 25 40 26 41 27 42 79 43 28 44 78 45 29 46 30 47
REMARK SMILES IDX 31 48 72 49 32 50 77 51 71 52 73 53 33 54 76 55 70 56 69 57
REMARK SMILES IDX 34 59 60 60 43 61 59 62 44 63 47 64 58 65 74 66 45 67 46 68
REMARK SMILES IDX 57 70 75 71 48 72 35 73 36 74 41 75 37 76 38 77 40 78 42 79
REMARK SMILES IDX 39 80 61 81 62 82 67 83 63 84 64 85 66 86 68 87 65 88 49 89
REMARK SMILES IDX 50 90 55 91 51 92 52 93 54 94 56 95 53 96
REMARK H PARENT 18 5 11 15 87 32 87 33 23 39 73 58 47 69
REMARK Flexibility Score: inf
ROOT
ATOM      1  C   UNL A   1      35.120  24.078  24.235  1.00  0.00     0.116 C 
ENDROOT
BRANCH   1   2
ATOM      2  N   UNL A   1      34.363  24.991  23.399  1.00  0.00    -0.356 N 
ATOM      3  C   UNL A   1      33.381  25.871  23.739  1.00  0.00     0.226 C 
ATOM      4  O   UNL A   1      32.880  26.548  22.845  1.00  0.00    -0.275 OA
ATOM      5  H   UNL A   1      34.593  24.972  22.442  1.00  0.00     0.163 HD
BRANCH   3   6
ATOM      6  C   UNL A   1      33.000  26.023  25.198  1.00  0.00     0.122 C 
ATOM      7  C   UNL A   1      31.521  26.300  25.514  1.00  0.00     0.123 C 
ATOM      8  C   UNL A   1      31.584  27.737  26.037  1.00  0.00     0.132 C 
ATOM      9  C   UNL A   1      33.690  27.236  25.848  1.00  0.00     0.132 C 
ATOM     10  C   UNL A   1      32.094  28.777  25.038  1.00  0.00     0.035 C 
ATOM     11  O   UNL A   1      32.753  27.597  26.899  1.00  0.00    -0.373 OA
ATOM     12  C   UNL A   1      33.597  28.500  25.004  1.00  0.00     0.035 C 
BRANCH   7  13
ATOM     13  C   UNL A   1      30.452  26.013  24.482  1.00  0.00     0.231 C 
ATOM     14  N   UNL A   1      30.275  24.757  23.963  1.00  0.00    -0.317 N 
ATOM     15  H   UNL A   1      29.611  24.706  23.237  1.00  0.00     0.170 HD
ATOM     16  O   UNL A   1      29.688  26.906  24.101  1.00  0.00    -0.274 OA
BRANCH  14  17
ATOM     17  C   UNL A   1      30.864  23.554  24.284  1.00  0.00     0.108 A 
ATOM     18  C   UNL A   1      33.058  19.249  24.277  1.00  0.00    -0.006 C 
ATOM     19  C   UNL A   1      33.786  19.943  25.447  1.00  0.00     0.009 C 
ATOM     20  C   UNL A   1      32.770  20.294  23.163  1.00  0.00     0.050 C 
ATOM     21  C   UNL A   1      32.865  20.964  26.124  1.00  0.00     0.038 C 
ATOM     22  C   UNL A   1      32.108  21.498  23.776  1.00  0.00     0.011 A 
ATOM     23  C   UNL A   1      32.112  21.795  25.124  1.00  0.00    -0.019 A 
ATOM     24  S   UNL A   1      31.241  22.647  22.877  1.00  0.00    -0.122 S 
ATOM     25  C   UNL A   1      31.199  22.866  25.439  1.00  0.00     0.077 A 
BRANCH  18  26
ATOM     26  C   UNL A   1      33.833  18.035  23.743  1.00  0.00     0.004 C 
BRANCH  26  27
ATOM     27  C   UNL A   1      33.514  16.707  24.450  1.00  0.00    -0.003 C 
ATOM     28  C   UNL A   1      34.737  15.990  25.007  1.00  0.00     0.004 C 
ENDBRANCH  26  27
ENDBRANCH  18  26
BRANCH  25  29
ATOM     29  C   UNL A   1      30.728  23.112  26.793  1.00  0.00     0.251 C 
ATOM     30  N   UNL A   1      29.508  22.581  27.092  1.00  0.00    -0.365 N 
ATOM     31  O   UNL A   1      31.391  23.698  27.643  1.00  0.00    -0.269 OA
ATOM     32  H   UNL A   1      28.991  22.114  26.397  1.00  0.00     0.159 HD
ATOM     33  H   UNL A   1      29.145  22.665  28.003  1.00  0.00     0.159 HD
ENDBRANCH  25  29
ENDBRANCH  14  17
ENDBRANCH   7  13
ENDBRANCH   3   6
ENDBRANCH   1   2
BRANCH   1  34
ATOM     34  C   UNL A   1      35.463  22.787  23.498  1.00  0.00     0.023 C 
BRANCH  34  35
ATOM     35  C   UNL A   1      36.814  22.161  23.850  1.00  0.00     0.023 C 
BRANCH  35  36
ATOM     36  C   UNL A   1      37.023  21.838  25.324  1.00  0.00     0.116 C 
BRANCH  36  37
ATOM     37  N   UNL A   1      38.005  20.788  25.547  1.00  0.00    -0.352 N 
ATOM     38  C   UNL A   1      39.264  20.878  26.089  1.00  0.00     0.251 C 
ATOM     39  H   UNL A   1      37.727  19.886  25.268  1.00  0.00     0.163 HD
ATOM     40  O   UNL A   1      40.003  19.899  26.099  1.00  0.00    -0.269 OA
BRANCH  38  41
ATOM     41  C   UNL A   1      39.747  22.171  26.622  1.00  0.00     0.039 A 
ATOM     42  C   UNL A   1      40.740  22.162  27.604  1.00  0.00     0.014 A 
ATOM     43  C   UNL A   1      39.248  23.384  26.138  1.00  0.00     0.014 A 
ATOM     44  C   UNL A   1      41.298  23.368  28.036  1.00  0.00     0.010 A 
ATOM     45  C   UNL A   1      39.850  24.580  26.519  1.00  0.00     0.010 A 
ATOM     46  C   UNL A   1      40.891  24.583  27.461  1.00  0.00    -0.014 A 
BRANCH  46  47
ATOM     47  C   UNL A   1      41.565  25.861  27.800  1.00  0.00     0.031 A 
ATOM     48  C   UNL A   1      40.827  26.936  28.545  1.00  0.00     0.074 A 
ATOM     49  C   UNL A   1      42.820  26.085  27.362  1.00  0.00     0.049 A 
ATOM     50  N   UNL A   1      41.215  28.150  28.843  1.00  0.00    -0.248 NA
ATOM     51  C   UNL A   1      39.464  26.612  28.993  1.00  0.00     0.031 C 
ATOM     52  C   UNL A   1      43.630  25.141  26.590  1.00  0.00     0.029 A 
ATOM     53  N   UNL A   1      43.629  27.187  27.490  1.00  0.00    -0.354 N 
ATOM     54  C   UNL A   1      40.142  28.739  29.499  1.00  0.00     0.074 A 
ATOM     55  C   UNL A   1      39.071  27.765  29.516  1.00  0.00     0.031 C 
ATOM     56  C   UNL A   1      44.822  25.697  26.325  1.00  0.00     0.029 A 
ATOM     57  C   UNL A   1      44.849  27.049  26.873  1.00  0.00     0.049 A 
ATOM     58  H   UNL A   1      43.359  27.999  27.977  1.00  0.00     0.167 HD
ATOM     59  C   UNL A   1      40.062  29.973  30.051  1.00  0.00     0.037 A 
ATOM     60  C   UNL A   1      45.870  27.919  26.750  1.00  0.00     0.037 A 
ATOM     61  C   UNL A   1      41.135  30.933  30.054  1.00  0.00     0.049 A 
ATOM     62  C   UNL A   1      45.750  29.287  27.360  1.00  0.00     0.074 A 
ATOM     63  C   UNL A   1      41.172  32.184  30.648  1.00  0.00     0.029 A 
ATOM     64  N   UNL A   1      42.359  30.753  29.427  1.00  0.00    -0.354 N 
ATOM     65  N   UNL A   1      44.752  29.808  28.032  1.00  0.00    -0.248 NA
ATOM     66  C   UNL A   1      46.899  30.189  27.193  1.00  0.00     0.031 C 
ATOM     67  C   UNL A   1      42.403  32.775  30.347  1.00  0.00     0.029 A 
ATOM     68  C   UNL A   1      43.148  31.878  29.599  1.00  0.00     0.049 A 
ATOM     69  H   UNL A   1      42.627  29.944  28.934  1.00  0.00     0.167 HD
ATOM     70  C   UNL A   1      45.159  31.087  28.385  1.00  0.00     0.074 A 
ATOM     71  C   UNL A   1      46.501  31.259  27.867  1.00  0.00     0.031 C 
ATOM     72  C   UNL A   1      44.481  32.036  29.075  1.00  0.00     0.037 A 
BRANCH  59  73
ATOM     73  C   UNL A   1      38.767  30.355  30.706  1.00  0.00     0.057 A 
ATOM     74  C   UNL A   1      37.749  31.009  30.001  1.00  0.00     0.134 A 
ATOM     75  C   UNL A   1      38.521  30.031  32.047  1.00  0.00     0.134 A 
ATOM     76  F   UNL A   1      37.927  31.357  28.718  1.00  0.00    -0.206 F 
ATOM     77  C   UNL A   1      36.541  31.348  30.611  1.00  0.00     0.040 A 
ATOM     78  C   UNL A   1      37.307  30.344  32.661  1.00  0.00     0.040 A 
ATOM     79  F   UNL A   1      39.452  29.399  32.777  1.00  0.00    -0.206 F 
ATOM     80  C   UNL A   1      36.315  31.010  31.944  1.00  0.00     0.006 A 
ENDBRANCH  59  73
BRANCH  60  81
ATOM     81  C   UNL A   1      47.100  27.520  26.024  1.00  0.00     0.057 A 
ATOM     82  C   UNL A   1      47.191  27.653  24.634  1.00  0.00     0.134 A 
ATOM     83  C   UNL A   1      48.209  26.992  26.696  1.00  0.00     0.134 A 
ATOM     84  F   UNL A   1      46.153  28.133  23.933  1.00  0.00    -0.206 F 
ATOM     85  C   UNL A   1      48.334  27.261  23.935  1.00  0.00     0.040 A 
ATOM     86  C   UNL A   1      49.367  26.618  26.013  1.00  0.00     0.040 A 
ATOM     87  F   UNL A   1      48.186  26.845  28.030  1.00  0.00    -0.206 F 
ATOM     88  C   UNL A   1      49.429  26.746  24.627  1.00  0.00     0.006 A 
ENDBRANCH  60  81
BRANCH  72  89
ATOM     89  C   UNL A   1      45.187  33.334  29.326  1.00  0.00     0.057 A 
ATOM     90  C   UNL A   1      45.072  34.417  28.445  1.00  0.00     0.134 A 
ATOM     91  C   UNL A   1      45.964  33.516  30.477  1.00  0.00     0.134 A 
ATOM     92  F   UNL A   1      44.354  34.303  27.318  1.00  0.00    -0.206 F 
ATOM     93  C   UNL A   1      45.721  35.628  28.690  1.00  0.00     0.040 A 
ATOM     94  C   UNL A   1      46.599  34.729  30.745  1.00  0.00     0.040 A 
ATOM     95  F   UNL A   1      46.110  32.520  31.364  1.00  0.00    -0.206 F 
ATOM     96  C   UNL A   1      46.483  35.788  29.846  1.00  0.00     0.006 A 
ENDBRANCH  72  89
ENDBRANCH  46  47
ENDBRANCH  38  41
ENDBRANCH  36  37
ENDBRANCH  35  36
ENDBRANCH  34  35
ENDBRANCH   1  34
TORSDOF 16
ENDMDL
MODEL 3
REMARK VINA RESULT:     -12.3      3.183      6.502
REMARK SMILES CCC[C@H]1CCc2c(sc(NC(=O)[C@H]3[C@@H](C(=O)NCCCCNC(=O)c4ccc(-c5c6nc(c(-c7c(F)cccc7F)c7ccc([nH]7)c(-c7c(F)cccc7F)c7nc(c(-c8c(F)cccc8F)c8ccc5[nH]8)C=C7)C=C6)cc4)[C@H]4CC[C@@H]3O4)c2C(N)=O)C1
REMARK SMILES IDX 19 1 18 2 16 3 17 4 15 6 14 7 83 8 80 9 82 10 84 11 81 12
REMARK SMILES IDX 12 13 11 14 13 16 10 17 4 18 5 19 89 20 6 21 8 22 7 23 9 24
REMARK SMILES IDX 85 25 3 26 2 27 1 28 86 29 87 30 88 31 20 34 21 35 22 36
REMARK SMILES IDX 23 37 24 38 25 40 26 41 27 42 79 43 28 44 78 45 29 46 30 47
REMARK SMILES IDX 31 48 72 49 32 50 77 51 71 52 73 53 33 54 76 55 70 56 69 57
REMARK SMILES IDX 34 59 60 60 43 61 59 62 44 63 47 64 58 65 74 66 45 67 46 68
REMARK SMILES IDX 57 70 75 71 48 72 35 73 36 74 41 75 37 76 38 77 40 78 42 79
REMARK SMILES IDX 39 80 61 81 62 82 67 83 63 84 64 85 66 86 68 87 65 88 49 89
REMARK SMILES IDX 50 90 55 91 51 92 52 93 54 94 56 95 53 96
REMARK H PARENT 18 5 11 15 87 32 87 33 23 39 73 58 47 69
REMARK Flexibility Score: inf
ROOT
ATOM      1  C   UNL A   1      32.505  26.870  26.332  1.00  0.00     0.116 C 
ENDROOT
BRANCH   1   2
ATOM      2  N   UNL A   1      32.225  25.457  26.502  1.00  0.00    -0.356 N 
ATOM      3  C   UNL A   1      32.768  24.381  25.866  1.00  0.00     0.226 C 
ATOM      4  O   UNL A   1      32.366  23.264  26.183  1.00  0.00    -0.275 OA
ATOM      5  H   UNL A   1      31.542  25.242  27.176  1.00  0.00     0.163 HD
BRANCH   3   6
ATOM      6  C   UNL A   1      33.876  24.602  24.857  1.00  0.00     0.122 C 
ATOM      7  C   UNL A   1      33.923  23.656  23.646  1.00  0.00     0.123 C 
ATOM      8  C   UNL A   1      35.202  22.862  23.927  1.00  0.00     0.132 C 
ATOM      9  C   UNL A   1      35.268  24.384  25.477  1.00  0.00     0.132 C 
ATOM     10  C   UNL A   1      35.192  22.038  25.216  1.00  0.00     0.035 C 
ATOM     11  O   UNL A   1      36.057  23.975  24.327  1.00  0.00    -0.373 OA
ATOM     12  C   UNL A   1      35.364  23.104  26.297  1.00  0.00     0.035 C 
BRANCH   7  13
ATOM     13  C   UNL A   1      32.706  22.844  23.262  1.00  0.00     0.231 C 
ATOM     14  N   UNL A   1      31.513  23.441  22.952  1.00  0.00    -0.317 N 
ATOM     15  H   UNL A   1      30.768  22.814  22.804  1.00  0.00     0.170 HD
ATOM     16  O   UNL A   1      32.767  21.612  23.190  1.00  0.00    -0.274 OA
BRANCH  14  17
ATOM     17  C   UNL A   1      31.177  24.770  22.809  1.00  0.00     0.108 A 
ATOM     18  C   UNL A   1      29.121  29.140  22.984  1.00  0.00    -0.006 C 
ATOM     19  C   UNL A   1      30.608  29.512  23.163  1.00  0.00     0.009 C 
ATOM     20  C   UNL A   1      28.837  27.803  23.725  1.00  0.00     0.050 C 
ATOM     21  C   UNL A   1      31.507  28.493  22.453  1.00  0.00     0.038 C 
ATOM     22  C   UNL A   1      29.862  26.783  23.313  1.00  0.00     0.011 A 
ATOM     23  C   UNL A   1      31.063  27.079  22.700  1.00  0.00    -0.019 A 
ATOM     24  S   UNL A   1      29.658  25.112  23.531  1.00  0.00    -0.122 S 
ATOM     25  C   UNL A   1      31.720  25.893  22.208  1.00  0.00     0.077 A 
BRANCH  18  26
ATOM     26  C   UNL A   1      28.177  30.263  23.436  1.00  0.00     0.004 C 
BRANCH  26  27
ATOM     27  C   UNL A   1      28.717  31.686  23.211  1.00  0.00    -0.003 C 
ATOM     28  C   UNL A   1      28.463  32.233  21.812  1.00  0.00     0.004 C 
ENDBRANCH  26  27
ENDBRANCH  18  26
BRANCH  25  29
ATOM     29  C   UNL A   1      32.776  25.950  21.209  1.00  0.00     0.251 C 
ATOM     30  N   UNL A   1      32.406  25.588  19.947  1.00  0.00    -0.365 N 
ATOM     31  O   UNL A   1      33.911  26.350  21.448  1.00  0.00    -0.269 OA
ATOM     32  H   UNL A   1      31.491  25.270  19.775  1.00  0.00     0.159 HD
ATOM     33  H   UNL A   1      33.055  25.647  19.209  1.00  0.00     0.159 HD
ENDBRANCH  25  29
ENDBRANCH  14  17
ENDBRANCH   7  13
ENDBRANCH   3   6
ENDBRANCH   1   2
BRANCH   1  34
ATOM     34  C   UNL A   1      31.268  27.727  26.583  1.00  0.00     0.023 C 
BRANCH  34  35
ATOM     35  C   UNL A   1      31.529  29.106  27.192  1.00  0.00     0.023 C 
BRANCH  35  36
ATOM     36  C   UNL A   1      32.353  30.057  26.334  1.00  0.00     0.116 C 
BRANCH  36  37
ATOM     37  N   UNL A   1      32.099  31.459  26.627  1.00  0.00    -0.352 N 
ATOM     38  C   UNL A   1      32.874  32.354  27.325  1.00  0.00     0.251 C 
ATOM     39  H   UNL A   1      31.252  31.816  26.275  1.00  0.00     0.163 HD
ATOM     40  O   UNL A   1      32.448  33.477  27.571  1.00  0.00    -0.269 OA
BRANCH  38  41
ATOM     41  C   UNL A   1      34.207  31.946  27.820  1.00  0.00     0.039 A 
ATOM     42  C   UNL A   1      35.185  32.927  27.998  1.00  0.00     0.014 A 
ATOM     43  C   UNL A   1      34.484  30.612  28.136  1.00  0.00     0.014 A 
ATOM     44  C   UNL A   1      36.410  32.588  28.577  1.00  0.00     0.010 A 
ATOM     45  C   UNL A   1      35.678  30.287  28.775  1.00  0.00     0.010 A 
ATOM     46  C   UNL A   1      36.646  31.274  29.015  1.00  0.00    -0.014 A 
BRANCH  46  47
ATOM     47  C   UNL A   1      37.881  30.919  29.759  1.00  0.00     0.031 A 
ATOM     48  C   UNL A   1      38.923  30.040  29.129  1.00  0.00     0.074 A 
ATOM     49  C   UNL A   1      38.025  31.324  31.037  1.00  0.00     0.049 A 
ATOM     50  N   UNL A   1      40.014  29.545  29.656  1.00  0.00    -0.248 NA
ATOM     51  C   UNL A   1      38.695  29.645  27.730  1.00  0.00     0.031 C 
ATOM     52  C   UNL A   1      37.064  32.144  31.779  1.00  0.00     0.029 A 
ATOM     53  N   UNL A   1      39.027  31.085  31.944  1.00  0.00    -0.354 N 
ATOM     54  C   UNL A   1      40.595  28.769  28.660  1.00  0.00     0.074 A 
ATOM     55  C   UNL A   1      39.713  28.824  27.514  1.00  0.00     0.031 C 
ATOM     56  C   UNL A   1      37.530  32.351  33.021  1.00  0.00     0.029 A 
ATOM     57  C   UNL A   1      38.800  31.648  33.176  1.00  0.00     0.049 A 
ATOM     58  H   UNL A   1      39.832  30.560  31.731  1.00  0.00     0.167 HD
ATOM     59  C   UNL A   1      41.765  28.089  28.694  1.00  0.00     0.037 A 
ATOM     60  C   UNL A   1      39.525  31.594  34.309  1.00  0.00     0.037 A 
ATOM     61  C   UNL A   1      42.653  28.053  29.826  1.00  0.00     0.049 A 
ATOM     62  C   UNL A   1      40.813  30.819  34.324  1.00  0.00     0.074 A 
ATOM     63  C   UNL A   1      43.893  27.446  29.931  1.00  0.00     0.029 A 
ATOM     64  N   UNL A   1      42.393  28.644  31.053  1.00  0.00    -0.354 N 
ATOM     65  N   UNL A   1      41.381  30.143  33.355  1.00  0.00    -0.248 NA
ATOM     66  C   UNL A   1      41.560  30.799  35.590  1.00  0.00     0.031 C 
ATOM     67  C   UNL A   1      44.365  27.636  31.234  1.00  0.00     0.029 A 
ATOM     68  C   UNL A   1      43.437  28.396  31.928  1.00  0.00     0.049 A 
ATOM     69  H   UNL A   1      41.585  29.164  31.270  1.00  0.00     0.167 HD
ATOM     70  C   UNL A   1      42.559  29.635  33.887  1.00  0.00     0.074 A 
ATOM     71  C   UNL A   1      42.632  30.095  35.258  1.00  0.00     0.031 C 
ATOM     72  C   UNL A   1      43.495  28.857  33.292  1.00  0.00     0.037 A 
BRANCH  59  73
ATOM     73  C   UNL A   1      42.157  27.327  27.461  1.00  0.00     0.057 A 
ATOM     74  C   UNL A   1      41.838  25.973  27.299  1.00  0.00     0.134 A 
ATOM     75  C   UNL A   1      42.827  27.964  26.409  1.00  0.00     0.134 A 
ATOM     76  F   UNL A   1      41.208  25.302  28.274  1.00  0.00    -0.206 F 
ATOM     77  C   UNL A   1      42.192  25.273  26.145  1.00  0.00     0.040 A 
ATOM     78  C   UNL A   1      43.165  27.281  25.240  1.00  0.00     0.040 A 
ATOM     79  F   UNL A   1      43.156  29.262  26.498  1.00  0.00    -0.206 F 
ATOM     80  C   UNL A   1      42.852  25.930  25.108  1.00  0.00     0.006 A 
ENDBRANCH  59  73
BRANCH  60  81
ATOM     81  C   UNL A   1      39.055  32.301  35.526  1.00  0.00     0.057 A 
ATOM     82  C   UNL A   1      39.368  33.647  35.742  1.00  0.00     0.134 A 
ATOM     83  C   UNL A   1      38.290  31.651  36.502  1.00  0.00     0.134 A 
ATOM     84  F   UNL A   1      40.114  34.317  34.851  1.00  0.00    -0.206 F 
ATOM     85  C   UNL A   1      38.952  34.320  36.892  1.00  0.00     0.040 A 
ATOM     86  C   UNL A   1      37.848  32.317  37.646  1.00  0.00     0.040 A 
ATOM     87  F   UNL A   1      37.953  30.361  36.351  1.00  0.00    -0.206 F 
ATOM     88  C   UNL A   1      38.185  33.654  37.846  1.00  0.00     0.006 A 
ENDBRANCH  60  81
BRANCH  72  89
ATOM     89  C   UNL A   1      44.687  28.471  34.116  1.00  0.00     0.057 A 
ATOM     90  C   UNL A   1      45.826  29.283  34.187  1.00  0.00     0.134 A 
ATOM     91  C   UNL A   1      44.683  27.293  34.872  1.00  0.00     0.134 A 
ATOM     92  F   UNL A   1      45.898  30.417  33.475  1.00  0.00    -0.206 F 
ATOM     93  C   UNL A   1      46.928  28.925  34.965  1.00  0.00     0.040 A 
ATOM     94  C   UNL A   1      45.769  26.936  35.673  1.00  0.00     0.040 A 
ATOM     95  F   UNL A   1      43.620  26.474  34.854  1.00  0.00    -0.206 F 
ATOM     96  C   UNL A   1      46.898  27.752  35.716  1.00  0.00     0.006 A 
ENDBRANCH  72  89
ENDBRANCH  46  47
ENDBRANCH  38  41
ENDBRANCH  36  37
ENDBRANCH  35  36
ENDBRANCH  34  35
ENDBRANCH   1  34
TORSDOF 16
ENDMDL
