MODEL 1
REMARK VINA RESULT:     -12.0      0.000      0.000
REMARK SMILES COc1ccc([C@@H]2C(C#N)=C(N)N3C(=O)[C@H](CC(=O)NCCCCNC(=O)c4ccc(-c5c6nc(c(-c7c(F)cccc7F)c7ccc([nH]7)c(-c7c(F)cccc7F)c7nc(c(-c8c(F)cccc8F)c8ccc5[nH]8)C=C7)C=C6)cc4)SC3=C2C#N)cc1
REMARK SMILES IDX 22 1 21 2 20 3 18 4 19 5 17 7 16 8 7 9 8 10 84 11 11 12
REMARK SMILES IDX 83 13 13 14 82 15 14 16 15 17 6 18 3 19 4 20 88 21 5 22
REMARK SMILES IDX 87 23 2 24 1 25 9 26 10 27 85 28 86 29 12 30 23 33 24 34
REMARK SMILES IDX 25 35 26 36 27 38 28 39 29 40 81 41 30 42 80 43 31 44 32 45
REMARK SMILES IDX 33 46 74 47 34 48 79 49 73 50 75 51 35 52 78 53 72 54 71 55
REMARK SMILES IDX 36 57 62 58 45 59 61 60 46 61 49 62 60 63 76 64 47 65 48 66
REMARK SMILES IDX 59 68 77 69 50 70 37 71 38 72 43 73 39 74 40 75 42 76 44 77
REMARK SMILES IDX 41 78 63 79 64 80 69 81 65 82 66 83 68 84 70 85 67 86 51 87
REMARK SMILES IDX 52 88 57 89 53 90 54 91 56 92 58 93 55 94
REMARK H PARENT 20 6 12 31 12 32 25 37 75 56 49 67
REMARK Flexibility Score: inf
ROOT
ATOM      1  C   UNL A   1      30.651  31.884  25.453  1.00  0.00     0.023 C 
ENDROOT
BRANCH   1   2
ATOM      2  C   UNL A   1      30.645  30.473  24.866  1.00  0.00     0.116 C 
BRANCH   2   3
ATOM      3  N   UNL A   1      30.048  30.479  23.548  1.00  0.00    -0.356 N 
ATOM      4  C   UNL A   1      29.832  29.436  22.702  1.00  0.00     0.221 C 
ATOM      5  O   UNL A   1      29.503  29.672  21.540  1.00  0.00    -0.275 OA
ATOM      6  H   UNL A   1      29.760  31.361  23.218  1.00  0.00     0.163 HD
BRANCH   4   7
ATOM      7  C   UNL A   1      29.966  28.015  23.204  1.00  0.00     0.125 C 
BRANCH   7   8
ATOM      8  C   UNL A   1      31.406  27.530  23.150  1.00  0.00     0.152 C 
ATOM      9  C   UNL A   1      33.561  23.405  24.537  1.00  0.00     0.107 C 
ATOM     10  C   UNL A   1      32.892  23.889  25.845  1.00  0.00     0.083 C 
ATOM     11  C   UNL A   1      32.937  24.009  23.287  1.00  0.00     0.073 C 
ATOM     12  C   UNL A   1      32.099  24.977  25.837  1.00  0.00     0.126 C 
ATOM     13  C   UNL A   1      32.136  25.069  23.421  1.00  0.00     0.099 C 
ATOM     14  N   UNL A   1      31.924  25.679  24.633  1.00  0.00    -0.258 N 
ATOM     15  S   UNL A   1      31.512  26.022  22.113  1.00  0.00    -0.093 SA
ATOM     16  C   UNL A   1      31.956  27.065  24.494  1.00  0.00     0.247 C 
ATOM     17  O   UNL A   1      32.529  27.816  25.270  1.00  0.00    -0.273 OA
BRANCH   9  18
ATOM     18  C   UNL A   1      33.605  21.888  24.354  1.00  0.00    -0.034 A 
ATOM     19  C   UNL A   1      33.537  19.090  24.516  1.00  0.00     0.118 A 
ATOM     20  C   UNL A   1      32.385  19.796  24.176  1.00  0.00     0.047 A 
ATOM     21  C   UNL A   1      34.741  19.769  24.701  1.00  0.00     0.047 A 
ATOM     22  C   UNL A   1      32.413  21.188  24.102  1.00  0.00     0.008 A 
ATOM     23  C   UNL A   1      34.777  21.162  24.621  1.00  0.00     0.008 A 
BRANCH  19  24
ATOM     24  O   UNL A   1      33.416  17.731  24.609  1.00  0.00    -0.497 OA
ATOM     25  C   UNL A   1      33.280  17.087  23.344  1.00  0.00     0.278 C 
ENDBRANCH  19  24
ENDBRANCH   9  18
BRANCH  10  26
ATOM     26  C   UNL A   1      33.141  22.968  27.028  1.00  0.00     0.100 C 
ATOM     27  N   UNL A   1      33.347  22.203  28.010  1.00  0.00    -0.193 NA
ENDBRANCH  10  26
BRANCH  11  28
ATOM     28  C   UNL A   1      33.323  23.535  21.996  1.00  0.00     0.098 C 
ATOM     29  N   UNL A   1      33.653  23.141  20.954  1.00  0.00    -0.193 NA
ENDBRANCH  11  28
BRANCH  12  30
ATOM     30  N   UNL A   1      31.401  25.327  26.961  1.00  0.00    -0.384 N 
ATOM     31  H   UNL A   1      30.480  25.668  26.884  1.00  0.00     0.158 HD
ATOM     32  H   UNL A   1      31.820  25.239  27.848  1.00  0.00     0.158 HD
ENDBRANCH  12  30
ENDBRANCH   7   8
ENDBRANCH   4   7
ENDBRANCH   2   3
ENDBRANCH   1   2
BRANCH   1  33
ATOM     33  C   UNL A   1      31.269  32.043  26.814  1.00  0.00     0.023 C 
BRANCH  33  34
ATOM     34  C   UNL A   1      32.483  32.936  26.820  1.00  0.00     0.116 C 
BRANCH  34  35
ATOM     35  N   UNL A   1      32.320  34.144  27.626  1.00  0.00    -0.352 N 
ATOM     36  C   UNL A   1      33.112  34.592  28.658  1.00  0.00     0.251 C 
ATOM     37  H   UNL A   1      31.545  34.709  27.401  1.00  0.00     0.163 HD
ATOM     38  O   UNL A   1      32.791  35.566  29.327  1.00  0.00    -0.269 OA
BRANCH  36  39
ATOM     39  C   UNL A   1      34.337  33.827  28.960  1.00  0.00     0.039 A 
ATOM     40  C   UNL A   1      35.583  34.418  28.754  1.00  0.00     0.014 A 
ATOM     41  C   UNL A   1      34.221  32.606  29.625  1.00  0.00     0.014 A 
ATOM     42  C   UNL A   1      36.712  33.825  29.319  1.00  0.00     0.010 A 
ATOM     43  C   UNL A   1      35.315  32.116  30.316  1.00  0.00     0.010 A 
ATOM     44  C   UNL A   1      36.577  32.707  30.158  1.00  0.00    -0.014 A 
BRANCH  44  45
ATOM     45  C   UNL A   1      37.732  32.095  30.859  1.00  0.00     0.031 A 
ATOM     46  C   UNL A   1      38.516  31.017  30.163  1.00  0.00     0.074 A 
ATOM     47  C   UNL A   1      38.017  32.431  32.133  1.00  0.00     0.049 A 
ATOM     48  N   UNL A   1      39.465  30.249  30.631  1.00  0.00    -0.248 NA
ATOM     49  C   UNL A   1      38.154  30.733  28.763  1.00  0.00     0.031 C 
ATOM     50  C   UNL A   1      37.305  33.431  32.932  1.00  0.00     0.029 A 
ATOM     51  N   UNL A   1      38.979  31.951  32.987  1.00  0.00    -0.354 N 
ATOM     52  C   UNL A   1      39.790  29.385  29.593  1.00  0.00     0.074 A 
ATOM     53  C   UNL A   1      38.887  29.664  28.503  1.00  0.00     0.031 C 
ATOM     54  C   UNL A   1      37.875  33.510  34.146  1.00  0.00     0.029 A 
ATOM     55  C   UNL A   1      38.951  32.530  34.234  1.00  0.00     0.049 A 
ATOM     56  H   UNL A   1      39.629  31.257  32.730  1.00  0.00     0.167 HD
ATOM     57  C   UNL A   1      40.778  28.462  29.540  1.00  0.00     0.037 A 
ATOM     58  C   UNL A   1      39.698  32.282  35.327  1.00  0.00     0.037 A 
ATOM     59  C   UNL A   1      41.688  28.206  30.620  1.00  0.00     0.049 A 
ATOM     60  C   UNL A   1      40.764  31.221  35.259  1.00  0.00     0.074 A 
ATOM     61  C   UNL A   1      42.757  27.330  30.653  1.00  0.00     0.029 A 
ATOM     62  N   UNL A   1      41.632  28.821  31.862  1.00  0.00    -0.354 N 
ATOM     63  N   UNL A   1      41.105  30.454  34.252  1.00  0.00    -0.248 NA
ATOM     64  C   UNL A   1      41.552  30.989  36.479  1.00  0.00     0.031 C 
ATOM     65  C   UNL A   1      43.305  27.362  31.937  1.00  0.00     0.029 A 
ATOM     66  C   UNL A   1      42.629  28.319  32.679  1.00  0.00     0.049 A 
ATOM     67  H   UNL A   1      40.981  29.512  32.123  1.00  0.00     0.167 HD
ATOM     68  C   UNL A   1      42.170  29.682  34.700  1.00  0.00     0.074 A 
ATOM     69  C   UNL A   1      42.421  30.073  36.071  1.00  0.00     0.031 C 
ATOM     70  C   UNL A   1      42.879  28.738  34.035  1.00  0.00     0.037 A 
BRANCH  57  71
ATOM     71  C   UNL A   1      40.915  27.664  28.275  1.00  0.00     0.057 A 
ATOM     72  C   UNL A   1      41.708  28.099  27.204  1.00  0.00     0.134 A 
ATOM     73  C   UNL A   1      40.261  26.434  28.135  1.00  0.00     0.134 A 
ATOM     74  F   UNL A   1      42.350  29.276  27.265  1.00  0.00    -0.206 F 
ATOM     75  C   UNL A   1      41.817  27.356  26.028  1.00  0.00     0.040 A 
ATOM     76  C   UNL A   1      40.393  25.664  26.978  1.00  0.00     0.040 A 
ATOM     77  F   UNL A   1      39.489  25.955  29.122  1.00  0.00    -0.206 F 
ATOM     78  C   UNL A   1      41.166  26.130  25.916  1.00  0.00     0.006 A 
ENDBRANCH  57  71
BRANCH  58  79
ATOM     79  C   UNL A   1      39.476  33.056  36.579  1.00  0.00     0.057 A 
ATOM     80  C   UNL A   1      40.216  34.211  36.857  1.00  0.00     0.134 A 
ATOM     81  C   UNL A   1      38.535  32.651  37.534  1.00  0.00     0.134 A 
ATOM     82  F   UNL A   1      41.145  34.642  35.990  1.00  0.00    -0.206 F 
ATOM     83  C   UNL A   1      40.051  34.920  38.048  1.00  0.00     0.040 A 
ATOM     84  C   UNL A   1      38.335  33.368  38.716  1.00  0.00     0.040 A 
ATOM     85  F   UNL A   1      37.786  31.559  37.328  1.00  0.00    -0.206 F 
ATOM     86  C   UNL A   1      39.103  34.501  38.979  1.00  0.00     0.006 A 
ENDBRANCH  58  79
BRANCH  70  87
ATOM     87  C   UNL A   1      44.037  28.101  34.746  1.00  0.00     0.057 A 
ATOM     88  C   UNL A   1      43.916  26.890  35.437  1.00  0.00     0.134 A 
ATOM     89  C   UNL A   1      45.317  28.667  34.653  1.00  0.00     0.134 A 
ATOM     90  F   UNL A   1      42.718  26.301  35.571  1.00  0.00    -0.206 F 
ATOM     91  C   UNL A   1      45.022  26.271  36.022  1.00  0.00     0.040 A 
ATOM     92  C   UNL A   1      46.435  28.041  35.204  1.00  0.00     0.040 A 
ATOM     93  F   UNL A   1      45.505  29.820  33.993  1.00  0.00    -0.206 F 
ATOM     94  C   UNL A   1      46.288  26.841  35.894  1.00  0.00     0.006 A 
ENDBRANCH  70  87
ENDBRANCH  44  45
ENDBRANCH  36  39
ENDBRANCH  34  35
ENDBRANCH  33  34
ENDBRANCH   1  33
TORSDOF 17
ENDMDL
MODEL 2
REMARK VINA RESULT:     -11.9      0.634      5.954
REMARK SMILES COc1ccc([C@@H]2C(C#N)=C(N)N3C(=O)[C@H](CC(=O)NCCCCNC(=O)c4ccc(-c5c6nc(c(-c7c(F)cccc7F)c7ccc([nH]7)c(-c7c(F)cccc7F)c7nc(c(-c8c(F)cccc8F)c8ccc5[nH]8)C=C7)C=C6)cc4)SC3=C2C#N)cc1
REMARK SMILES IDX 22 1 21 2 20 3 18 4 19 5 17 7 16 8 7 9 8 10 84 11 11 12
REMARK SMILES IDX 83 13 13 14 82 15 14 16 15 17 6 18 3 19 4 20 88 21 5 22
REMARK SMILES IDX 87 23 2 24 1 25 9 26 10 27 85 28 86 29 12 30 23 33 24 34
REMARK SMILES IDX 25 35 26 36 27 38 28 39 29 40 81 41 30 42 80 43 31 44 32 45
REMARK SMILES IDX 33 46 74 47 34 48 79 49 73 50 75 51 35 52 78 53 72 54 71 55
REMARK SMILES IDX 36 57 62 58 45 59 61 60 46 61 49 62 60 63 76 64 47 65 48 66
REMARK SMILES IDX 59 68 77 69 50 70 37 71 38 72 43 73 39 74 40 75 42 76 44 77
REMARK SMILES IDX 41 78 63 79 64 80 69 81 65 82 66 83 68 84 70 85 67 86 51 87
REMARK SMILES IDX 52 88 57 89 53 90 54 91 56 92 58 93 55 94
REMARK H PARENT 20 6 12 31 12 32 25 37 75 56 49 67
REMARK Flexibility Score: inf
ROOT
ATOM      1  C   UNL A   1      30.577  32.086  25.282  1.00  0.00     0.023 C 
ENDROOT
BRANCH   1   2
ATOM      2  C   UNL A   1      30.307  30.664  24.789  1.00  0.00     0.116 C 
BRANCH   2   3
ATOM      3  N   UNL A   1      29.888  30.683  23.405  1.00  0.00    -0.356 N 
ATOM      4  C   UNL A   1      29.803  29.651  22.522  1.00  0.00     0.221 C 
ATOM      5  O   UNL A   1      29.624  29.901  21.331  1.00  0.00    -0.275 OA
ATOM      6  H   UNL A   1      29.628  31.565  23.053  1.00  0.00     0.163 HD
BRANCH   4   7
ATOM      7  C   UNL A   1      29.898  28.224  23.017  1.00  0.00     0.125 C 
BRANCH   7   8
ATOM      8  C   UNL A   1      31.334  27.724  23.027  1.00  0.00     0.152 C 
ATOM      9  C   UNL A   1      33.393  23.618  24.604  1.00  0.00     0.107 C 
ATOM     10  C   UNL A   1      32.685  24.146  25.874  1.00  0.00     0.083 C 
ATOM     11  C   UNL A   1      32.821  24.193  23.317  1.00  0.00     0.073 C 
ATOM     12  C   UNL A   1      31.905  25.241  25.807  1.00  0.00     0.126 C 
ATOM     13  C   UNL A   1      32.026  25.264  23.392  1.00  0.00     0.099 C 
ATOM     14  N   UNL A   1      31.779  25.911  24.579  1.00  0.00    -0.258 N 
ATOM     15  S   UNL A   1      31.458  26.185  22.037  1.00  0.00    -0.093 SA
ATOM     16  C   UNL A   1      31.831  27.291  24.402  1.00  0.00     0.247 C 
ATOM     17  O   UNL A   1      32.385  28.059  25.176  1.00  0.00    -0.273 OA
BRANCH   9  18
ATOM     18  C   UNL A   1      33.428  22.096  24.466  1.00  0.00    -0.034 A 
ATOM     19  C   UNL A   1      33.390  19.305  24.722  1.00  0.00     0.118 A 
ATOM     20  C   UNL A   1      32.207  19.997  24.474  1.00  0.00     0.047 A 
ATOM     21  C   UNL A   1      34.602  19.992  24.767  1.00  0.00     0.047 A 
ATOM     22  C   UNL A   1      32.220  21.387  24.353  1.00  0.00     0.008 A 
ATOM     23  C   UNL A   1      34.624  21.382  24.640  1.00  0.00     0.008 A 
BRANCH  19  24
ATOM     24  O   UNL A   1      33.285  17.950  24.869  1.00  0.00    -0.497 OA
ATOM     25  C   UNL A   1      33.646  17.223  23.696  1.00  0.00     0.278 C 
ENDBRANCH  19  24
ENDBRANCH   9  18
BRANCH  10  26
ATOM     26  C   UNL A   1      32.883  23.257  27.091  1.00  0.00     0.100 C 
ATOM     27  N   UNL A   1      33.047  22.518  28.100  1.00  0.00    -0.193 NA
ENDBRANCH  10  26
BRANCH  11  28
ATOM     28  C   UNL A   1      33.246  23.679  22.054  1.00  0.00     0.098 C 
ATOM     29  N   UNL A   1      33.611  23.260  21.033  1.00  0.00    -0.193 NA
ENDBRANCH  11  28
BRANCH  12  30
ATOM     30  N   UNL A   1      31.172  25.630  26.896  1.00  0.00    -0.384 N 
ATOM     31  H   UNL A   1      30.356  26.167  26.774  1.00  0.00     0.158 HD
ATOM     32  H   UNL A   1      31.462  25.374  27.802  1.00  0.00     0.158 HD
ENDBRANCH  12  30
ENDBRANCH   7   8
ENDBRANCH   4   7
ENDBRANCH   2   3
ENDBRANCH   1   2
BRANCH   1  33
ATOM     33  C   UNL A   1      31.044  32.227  26.704  1.00  0.00     0.023 C 
BRANCH  33  34
ATOM     34  C   UNL A   1      32.420  32.828  26.827  1.00  0.00     0.116 C 
BRANCH  34  35
ATOM     35  N   UNL A   1      32.448  34.081  27.578  1.00  0.00    -0.352 N 
ATOM     36  C   UNL A   1      33.384  34.502  28.495  1.00  0.00     0.251 C 
ATOM     37  H   UNL A   1      31.704  34.703  27.406  1.00  0.00     0.163 HD
ATOM     38  O   UNL A   1      33.222  35.529  29.142  1.00  0.00    -0.269 OA
BRANCH  36  39
ATOM     39  C   UNL A   1      34.565  33.643  28.708  1.00  0.00     0.039 A 
ATOM     40  C   UNL A   1      35.837  34.216  28.715  1.00  0.00     0.014 A 
ATOM     41  C   UNL A   1      34.372  32.315  29.090  1.00  0.00     0.014 A 
ATOM     42  C   UNL A   1      36.908  33.474  29.214  1.00  0.00     0.010 A 
ATOM     43  C   UNL A   1      35.401  31.649  29.732  1.00  0.00     0.010 A 
ATOM     44  C   UNL A   1      36.686  32.211  29.786  1.00  0.00    -0.014 A 
BRANCH  44  45
ATOM     45  C   UNL A   1      37.772  31.421  30.415  1.00  0.00     0.031 A 
ATOM     46  C   UNL A   1      38.134  31.696  31.849  1.00  0.00     0.074 A 
ATOM     47  C   UNL A   1      38.485  30.537  29.690  1.00  0.00     0.049 A 
ATOM     48  N   UNL A   1      39.132  31.233  32.555  1.00  0.00    -0.248 NA
ATOM     49  C   UNL A   1      37.283  32.657  32.574  1.00  0.00     0.031 C 
ATOM     50  C   UNL A   1      38.261  30.211  28.279  1.00  0.00     0.029 A 
ATOM     51  N   UNL A   1      39.561  29.759  30.041  1.00  0.00    -0.354 N 
ATOM     52  C   UNL A   1      39.037  31.863  33.790  1.00  0.00     0.074 A 
ATOM     53  C   UNL A   1      37.940  32.799  33.712  1.00  0.00     0.031 C 
ATOM     54  C   UNL A   1      39.150  29.280  27.897  1.00  0.00     0.029 A 
ATOM     55  C   UNL A   1      40.042  28.985  29.012  1.00  0.00     0.049 A 
ATOM     56  H   UNL A   1      39.950  29.755  30.945  1.00  0.00     0.167 HD
ATOM     57  C   UNL A   1      39.777  31.656  34.902  1.00  0.00     0.037 A 
ATOM     58  C   UNL A   1      41.097  28.147  28.970  1.00  0.00     0.037 A 
ATOM     59  C   UNL A   1      40.852  30.707  34.981  1.00  0.00     0.049 A 
ATOM     60  C   UNL A   1      41.934  27.963  30.208  1.00  0.00     0.074 A 
ATOM     61  C   UNL A   1      41.633  30.381  36.074  1.00  0.00     0.029 A 
ATOM     62  N   UNL A   1      41.301  29.936  33.919  1.00  0.00    -0.354 N 
ATOM     63  N   UNL A   1      41.796  28.517  31.389  1.00  0.00    -0.248 NA
ATOM     64  C   UNL A   1      43.072  27.038  30.112  1.00  0.00     0.031 C 
ATOM     65  C   UNL A   1      42.600  29.464  35.657  1.00  0.00     0.029 A 
ATOM     66  C   UNL A   1      42.370  29.157  34.324  1.00  0.00     0.049 A 
ATOM     67  H   UNL A   1      40.916  29.940  33.012  1.00  0.00     0.167 HD
ATOM     68  C   UNL A   1      42.800  27.978  32.185  1.00  0.00     0.074 A 
ATOM     69  C   UNL A   1      43.539  27.051  31.354  1.00  0.00     0.031 C 
ATOM     70  C   UNL A   1      43.080  28.223  33.487  1.00  0.00     0.037 A 
BRANCH  57  71
ATOM     71  C   UNL A   1      39.450  32.476  36.117  1.00  0.00     0.057 A 
ATOM     72  C   UNL A   1      40.064  33.711  36.369  1.00  0.00     0.134 A 
ATOM     73  C   UNL A   1      38.490  32.035  37.037  1.00  0.00     0.134 A 
ATOM     74  F   UNL A   1      41.004  34.187  35.537  1.00  0.00    -0.206 F 
ATOM     75  C   UNL A   1      39.763  34.459  37.508  1.00  0.00     0.040 A 
ATOM     76  C   UNL A   1      38.152  32.793  38.160  1.00  0.00     0.040 A 
ATOM     77  F   UNL A   1      37.859  30.866  36.856  1.00  0.00    -0.206 F 
ATOM     78  C   UNL A   1      38.797  34.004  38.403  1.00  0.00     0.006 A 
ENDBRANCH  57  71
BRANCH  58  79
ATOM     79  C   UNL A   1      41.420  27.409  27.719  1.00  0.00     0.057 A 
ATOM     80  C   UNL A   1      42.222  27.983  26.726  1.00  0.00     0.134 A 
ATOM     81  C   UNL A   1      40.921  26.123  27.476  1.00  0.00     0.134 A 
ATOM     82  F   UNL A   1      42.718  29.219  26.890  1.00  0.00    -0.206 F 
ATOM     83  C   UNL A   1      42.495  27.321  25.528  1.00  0.00     0.040 A 
ATOM     84  C   UNL A   1      41.212  25.434  26.297  1.00  0.00     0.040 A 
ATOM     85  F   UNL A   1      40.153  25.510  28.389  1.00  0.00    -0.206 F 
ATOM     86  C   UNL A   1      41.993  26.039  25.313  1.00  0.00     0.006 A 
ENDBRANCH  58  79
BRANCH  70  87
ATOM     87  C   UNL A   1      44.191  27.440  34.126  1.00  0.00     0.057 A 
ATOM     88  C   UNL A   1      45.497  27.932  34.213  1.00  0.00     0.134 A 
ATOM     89  C   UNL A   1      43.919  26.211  34.745  1.00  0.00     0.134 A 
ATOM     90  F   UNL A   1      45.826  29.096  33.633  1.00  0.00    -0.206 F 
ATOM     91  C   UNL A   1      46.498  27.225  34.883  1.00  0.00     0.040 A 
ATOM     92  C   UNL A   1      44.901  25.513  35.446  1.00  0.00     0.040 A 
ATOM     93  F   UNL A   1      42.683  25.690  34.710  1.00  0.00    -0.206 F 
ATOM     94  C   UNL A   1      46.197  26.019  35.513  1.00  0.00     0.006 A 
ENDBRANCH  70  87
ENDBRANCH  44  45
ENDBRANCH  36  39
ENDBRANCH  34  35
ENDBRANCH  33  34
ENDBRANCH   1  33
TORSDOF 17
ENDMDL
MODEL 3
REMARK VINA RESULT:     -11.9      5.536     10.499
REMARK SMILES COc1ccc([C@@H]2C(C#N)=C(N)N3C(=O)[C@H](CC(=O)NCCCCNC(=O)c4ccc(-c5c6nc(c(-c7c(F)cccc7F)c7ccc([nH]7)c(-c7c(F)cccc7F)c7nc(c(-c8c(F)cccc8F)c8ccc5[nH]8)C=C7)C=C6)cc4)SC3=C2C#N)cc1
REMARK SMILES IDX 22 1 21 2 20 3 18 4 19 5 17 7 16 8 7 9 8 10 84 11 11 12
REMARK SMILES IDX 83 13 13 14 82 15 14 16 15 17 6 18 3 19 4 20 88 21 5 22
REMARK SMILES IDX 87 23 2 24 1 25 9 26 10 27 85 28 86 29 12 30 23 33 24 34
REMARK SMILES IDX 25 35 26 36 27 38 28 39 29 40 81 41 30 42 80 43 31 44 32 45
REMARK SMILES IDX 33 46 74 47 34 48 79 49 73 50 75 51 35 52 78 53 72 54 71 55
REMARK SMILES IDX 36 57 62 58 45 59 61 60 46 61 49 62 60 63 76 64 47 65 48 66
REMARK SMILES IDX 59 68 77 69 50 70 37 71 38 72 43 73 39 74 40 75 42 76 44 77
REMARK SMILES IDX 41 78 63 79 64 80 69 81 65 82 66 83 68 84 70 85 67 86 51 87
REMARK SMILES IDX 52 88 57 89 53 90 54 91 56 92 58 93 55 94
REMARK H PARENT 20 6 12 31 12 32 25 37 75 56 49 67
REMARK Flexibility Score: inf
ROOT
ATOM      1  C   UNL A   1      41.084  21.427  26.184  1.00  0.00     0.023 C 
ENDROOT
BRANCH   1   2
ATOM      2  C   UNL A   1      39.592  21.759  26.177  1.00  0.00     0.116 C 
BRANCH   2   3
ATOM      3  N   UNL A   1      38.851  20.731  25.481  1.00  0.00    -0.356 N 
ATOM      4  C   UNL A   1      37.509  20.633  25.275  1.00  0.00     0.221 C 
ATOM      5  O   UNL A   1      37.050  19.578  24.840  1.00  0.00    -0.275 OA
ATOM      6  H   UNL A   1      39.393  20.000  25.105  1.00  0.00     0.163 HD
BRANCH   4   7
ATOM      7  C   UNL A   1      36.614  21.822  25.549  1.00  0.00     0.125 C 
BRANCH   7   8
ATOM      8  C   UNL A   1      35.495  21.935  24.526  1.00  0.00     0.152 C 
ATOM      9  C   UNL A   1      31.513  24.703  24.273  1.00  0.00     0.107 C 
ATOM     10  C   UNL A   1      31.333  23.981  25.630  1.00  0.00     0.083 C 
ATOM     11  C   UNL A   1      32.956  24.725  23.794  1.00  0.00     0.073 C 
ATOM     12  C   UNL A   1      32.308  23.185  26.107  1.00  0.00     0.126 C 
ATOM     13  C   UNL A   1      33.837  23.908  24.379  1.00  0.00     0.099 C 
ATOM     14  N   UNL A   1      33.466  22.994  25.335  1.00  0.00    -0.258 N 
ATOM     15  S   UNL A   1      35.460  23.633  23.833  1.00  0.00    -0.093 SA
ATOM     16  C   UNL A   1      34.097  21.773  25.114  1.00  0.00     0.247 C 
ATOM     17  O   UNL A   1      33.537  20.689  25.197  1.00  0.00    -0.273 OA
BRANCH   9  18
ATOM     18  C   UNL A   1      30.978  26.134  24.224  1.00  0.00    -0.034 A 
ATOM     19  C   UNL A   1      30.253  28.787  23.683  1.00  0.00     0.118 A 
ATOM     20  C   UNL A   1      29.475  27.739  23.196  1.00  0.00     0.047 A 
ATOM     21  C   UNL A   1      31.348  28.518  24.503  1.00  0.00     0.047 A 
ATOM     22  C   UNL A   1      29.836  26.418  23.456  1.00  0.00     0.008 A 
ATOM     23  C   UNL A   1      31.712  27.198  24.774  1.00  0.00     0.008 A 
BRANCH  19  24
ATOM     24  O   UNL A   1      29.854  30.051  23.348  1.00  0.00    -0.497 OA
ATOM     25  C   UNL A   1      29.520  30.192  21.968  1.00  0.00     0.278 C 
ENDBRANCH  19  24
ENDBRANCH   9  18
BRANCH  10  26
ATOM     26  C   UNL A   1      30.050  24.361  26.351  1.00  0.00     0.100 C 
ATOM     27  N   UNL A   1      28.985  24.675  26.949  1.00  0.00    -0.193 NA
ENDBRANCH  10  26
BRANCH  11  28
ATOM     28  C   UNL A   1      33.317  25.499  22.649  1.00  0.00     0.098 C 
ATOM     29  N   UNL A   1      33.621  26.142  21.730  1.00  0.00    -0.193 NA
ENDBRANCH  11  28
BRANCH  12  30
ATOM     30  N   UNL A   1      32.209  22.655  27.365  1.00  0.00    -0.384 N 
ATOM     31  H   UNL A   1      33.011  22.572  27.930  1.00  0.00     0.158 HD
ATOM     32  H   UNL A   1      31.334  22.355  27.705  1.00  0.00     0.158 HD
ENDBRANCH  12  30
ENDBRANCH   7   8
ENDBRANCH   4   7
ENDBRANCH   2   3
ENDBRANCH   1   2
BRANCH   1  33
ATOM     33  C   UNL A   1      41.447  19.969  26.136  1.00  0.00     0.023 C 
BRANCH  33  34
ATOM     34  C   UNL A   1      42.906  19.705  26.404  1.00  0.00     0.116 C 
BRANCH  34  35
ATOM     35  N   UNL A   1      43.584  19.000  25.319  1.00  0.00    -0.352 N 
ATOM     36  C   UNL A   1      44.503  19.498  24.424  1.00  0.00     0.251 C 
ATOM     37  H   UNL A   1      43.356  18.047  25.217  1.00  0.00     0.163 HD
ATOM     38  O   UNL A   1      44.906  18.822  23.486  1.00  0.00    -0.269 OA
BRANCH  36  39
ATOM     39  C   UNL A   1      44.945  20.894  24.605  1.00  0.00     0.039 A 
ATOM     40  C   UNL A   1      44.467  21.882  23.746  1.00  0.00     0.014 A 
ATOM     41  C   UNL A   1      45.676  21.225  25.748  1.00  0.00     0.014 A 
ATOM     42  C   UNL A   1      44.635  23.221  24.098  1.00  0.00     0.010 A 
ATOM     43  C   UNL A   1      45.693  22.542  26.169  1.00  0.00     0.010 A 
ATOM     44  C   UNL A   1      45.190  23.559  25.343  1.00  0.00    -0.014 A 
BRANCH  44  45
ATOM     45  C   UNL A   1      45.305  24.963  25.808  1.00  0.00     0.031 A 
ATOM     46  C   UNL A   1      46.654  25.628  25.785  1.00  0.00     0.074 A 
ATOM     47  C   UNL A   1      44.240  25.601  26.330  1.00  0.00     0.049 A 
ATOM     48  N   UNL A   1      47.016  26.787  26.271  1.00  0.00    -0.248 NA
ATOM     49  C   UNL A   1      47.757  24.866  25.171  1.00  0.00     0.031 C 
ATOM     50  C   UNL A   1      42.887  25.051  26.448  1.00  0.00     0.029 A 
ATOM     51  N   UNL A   1      44.133  26.857  26.877  1.00  0.00    -0.354 N 
ATOM     52  C   UNL A   1      48.382  26.876  26.040  1.00  0.00     0.074 A 
ATOM     53  C   UNL A   1      48.802  25.628  25.449  1.00  0.00     0.031 C 
ATOM     54  C   UNL A   1      42.083  25.974  27.000  1.00  0.00     0.029 A 
ATOM     55  C   UNL A   1      42.870  27.157  27.329  1.00  0.00     0.049 A 
ATOM     56  H   UNL A   1      44.890  27.483  26.937  1.00  0.00     0.167 HD
ATOM     57  C   UNL A   1      49.210  27.921  26.269  1.00  0.00     0.037 A 
ATOM     58  C   UNL A   1      42.407  28.257  27.956  1.00  0.00     0.037 A 
ATOM     59  C   UNL A   1      48.783  29.169  26.835  1.00  0.00     0.049 A 
ATOM     60  C   UNL A   1      43.356  29.391  28.239  1.00  0.00     0.074 A 
ATOM     61  C   UNL A   1      49.528  30.311  27.062  1.00  0.00     0.029 A 
ATOM     62  N   UNL A   1      47.493  29.436  27.271  1.00  0.00    -0.354 N 
ATOM     63  N   UNL A   1      44.633  29.490  27.960  1.00  0.00    -0.248 NA
ATOM     64  C   UNL A   1      42.802  30.567  28.925  1.00  0.00     0.031 C 
ATOM     65  C   UNL A   1      48.709  31.244  27.699  1.00  0.00     0.029 A 
ATOM     66  C   UNL A   1      47.431  30.715  27.795  1.00  0.00     0.049 A 
ATOM     67  H   UNL A   1      46.735  28.810  27.215  1.00  0.00     0.167 HD
ATOM     68  C   UNL A   1      45.024  30.751  28.395  1.00  0.00     0.074 A 
ATOM     69  C   UNL A   1      43.849  31.382  28.955  1.00  0.00     0.031 C 
ATOM     70  C   UNL A   1      46.245  31.335  28.329  1.00  0.00     0.037 A 
BRANCH  57  71
ATOM     71  C   UNL A   1      50.659  27.750  25.911  1.00  0.00     0.057 A 
ATOM     72  C   UNL A   1      51.626  27.406  26.866  1.00  0.00     0.134 A 
ATOM     73  C   UNL A   1      51.089  27.910  24.588  1.00  0.00     0.134 A 
ATOM     74  F   UNL A   1      51.286  27.252  28.155  1.00  0.00    -0.206 F 
ATOM     75  C   UNL A   1      52.971  27.263  26.525  1.00  0.00     0.040 A 
ATOM     76  C   UNL A   1      52.426  27.733  24.228  1.00  0.00     0.040 A 
ATOM     77  F   UNL A   1      50.217  28.234  23.621  1.00  0.00    -0.206 F 
ATOM     78  C   UNL A   1      53.373  27.418  25.200  1.00  0.00     0.006 A 
ENDBRANCH  57  71
BRANCH  58  79
ATOM     79  C   UNL A   1      40.975  28.348  28.352  1.00  0.00     0.057 A 
ATOM     80  C   UNL A   1      40.013  28.861  27.474  1.00  0.00     0.134 A 
ATOM     81  C   UNL A   1      40.537  27.944  29.620  1.00  0.00     0.134 A 
ATOM     82  F   UNL A   1      40.371  29.280  26.251  1.00  0.00    -0.206 F 
ATOM     83  C   UNL A   1      38.675  28.994  27.849  1.00  0.00     0.040 A 
ATOM     84  C   UNL A   1      39.196  28.042  29.997  1.00  0.00     0.040 A 
ATOM     85  F   UNL A   1      41.404  27.436  30.507  1.00  0.00    -0.206 F 
ATOM     86  C   UNL A   1      38.262  28.579  29.113  1.00  0.00     0.006 A 
ENDBRANCH  58  79
BRANCH  70  87
ATOM     87  C   UNL A   1      46.372  32.749  28.816  1.00  0.00     0.057 A 
ATOM     88  C   UNL A   1      46.143  33.850  27.983  1.00  0.00     0.134 A 
ATOM     89  C   UNL A   1      46.639  33.007  30.168  1.00  0.00     0.134 A 
ATOM     90  F   UNL A   1      45.893  33.674  26.676  1.00  0.00    -0.206 F 
ATOM     91  C   UNL A   1      46.186  35.156  28.474  1.00  0.00     0.040 A 
ATOM     92  C   UNL A   1      46.652  34.305  30.677  1.00  0.00     0.040 A 
ATOM     93  F   UNL A   1      46.856  31.996  31.024  1.00  0.00    -0.206 F 
ATOM     94  C   UNL A   1      46.428  35.385  29.827  1.00  0.00     0.006 A 
ENDBRANCH  70  87
ENDBRANCH  44  45
ENDBRANCH  36  39
ENDBRANCH  34  35
ENDBRANCH  33  34
ENDBRANCH   1  33
TORSDOF 17
ENDMDL
