MODEL 1
REMARK VINA RESULT:      -9.7      0.000      0.000
REMARK SMILES CC1(C)Cc2c(-c3ccccc3)c(-c3ccc(Cl)cc3)c(CC(=O)NCCCCNC(=O)c3ccc(-c4c5nc(c(-c6c(F)cccc6F)c6ccc([nH]6)c(-c6c(F)cccc6F)c6nc(c(-c7c(F)cccc7F)c7ccc4[nH]7)C=C6)C=C5)cc3)n2C1
REMARK SMILES IDX 27 1 26 2 25 3 23 4 24 5 22 7 21 8 1 9 2 10 3 11 4 12 88 13
REMARK SMILES IDX 5 14 87 15 6 16 13 17 7 18 8 19 12 20 9 21 11 22 10 23 14 24
REMARK SMILES IDX 15 25 20 26 16 27 19 28 17 29 18 30 28 31 29 32 30 33 31 34
REMARK SMILES IDX 32 36 33 37 34 38 86 39 35 40 85 41 36 42 37 43 38 44 79 45
REMARK SMILES IDX 39 46 84 47 78 48 80 49 40 50 83 51 77 52 76 53 41 55 67 56
REMARK SMILES IDX 50 57 66 58 51 59 54 60 65 61 81 62 52 63 53 64 64 66 82 67
REMARK SMILES IDX 55 68 42 69 43 70 48 71 44 72 45 73 47 74 49 75 46 76 68 77
REMARK SMILES IDX 69 78 74 79 70 80 71 81 73 82 75 83 72 84 56 85 57 86 62 87
REMARK SMILES IDX 58 88 59 89 61 90 63 91 60 92
REMARK H PARENT 25 6 30 35 80 54 54 65
REMARK Flexibility Score: inf
ROOT
ATOM      1  C   UNL A   1      37.543  32.119  32.852  1.00  0.00     0.023 C 
ENDROOT
BRANCH   1   2
ATOM      2  C   UNL A   1      38.356  32.060  34.147  1.00  0.00     0.116 C 
BRANCH   2   3
ATOM      3  N   UNL A   1      39.078  33.279  34.443  1.00  0.00    -0.356 N 
ATOM      4  C   UNL A   1      40.366  33.616  34.132  1.00  0.00     0.225 C 
ATOM      5  O   UNL A   1      40.722  34.771  34.390  1.00  0.00    -0.275 OA
ATOM      6  H   UNL A   1      38.568  33.962  34.938  1.00  0.00     0.163 HD
BRANCH   4   7
ATOM      7  C   UNL A   1      41.303  32.642  33.428  1.00  0.00     0.154 C 
BRANCH   7   8
ATOM      8  C   UNL A   1      42.015  33.225  32.242  1.00  0.00     0.036 A 
ATOM      9  C   UNL A   1      46.969  33.489  32.794  1.00  0.00     0.013 C 
ATOM     10  C   UNL A   1      45.596  34.130  32.585  1.00  0.00    -0.012 C 
ATOM     11  C   UNL A   1      45.614  35.522  33.240  1.00  0.00     0.013 C 
ATOM     12  C   UNL A   1      45.239  34.265  31.070  1.00  0.00     0.063 C 
ATOM     13  C   UNL A   1      44.462  33.236  33.169  1.00  0.00     0.129 C 
ATOM     14  C   UNL A   1      43.782  33.985  31.056  1.00  0.00     0.027 A 
ATOM     15  N   UNL A   1      43.365  33.428  32.227  1.00  0.00    -0.346 N 
ATOM     16  C   UNL A   1      42.693  34.127  30.238  1.00  0.00     0.011 A 
ATOM     17  C   UNL A   1      41.563  33.618  30.975  1.00  0.00     0.011 A 
BRANCH  16  18
ATOM     18  C   UNL A   1      42.743  34.737  28.924  1.00  0.00    -0.016 A 
ATOM     19  C   UNL A   1      42.032  35.910  28.651  1.00  0.00     0.009 A 
ATOM     20  C   UNL A   1      43.528  34.158  27.919  1.00  0.00     0.009 A 
ATOM     21  C   UNL A   1      42.104  36.495  27.386  1.00  0.00     0.001 A 
ATOM     22  C   UNL A   1      43.600  34.743  26.656  1.00  0.00     0.001 A 
ATOM     23  C   UNL A   1      42.889  35.911  26.390  1.00  0.00     0.000 A 
ENDBRANCH  16  18
BRANCH  17  24
ATOM     24  C   UNL A   1      40.189  33.526  30.495  1.00  0.00    -0.016 A 
ATOM     25  C   UNL A   1      39.758  32.357  29.852  1.00  0.00     0.010 A 
ATOM     26  C   UNL A   1      39.327  34.627  30.544  1.00  0.00     0.010 A 
ATOM     27  C   UNL A   1      38.483  32.287  29.282  1.00  0.00     0.021 A 
ATOM     28  C   UNL A   1      38.043  34.553  29.995  1.00  0.00     0.021 A 
ATOM     29  C   UNL A   1      37.629  33.385  29.362  1.00  0.00     0.041 A 
ATOM     30  Cl  UNL A   1      36.065  33.309  28.648  1.00  0.00    -0.084 Cl
ENDBRANCH  17  24
ENDBRANCH   7   8
ENDBRANCH   4   7
ENDBRANCH   2   3
ENDBRANCH   1   2
BRANCH   1  31
ATOM     31  C   UNL A   1      36.572  30.970  32.577  1.00  0.00     0.023 C 
BRANCH  31  32
ATOM     32  C   UNL A   1      37.047  29.988  31.517  1.00  0.00     0.116 C 
BRANCH  32  33
ATOM     33  N   UNL A   1      36.056  29.714  30.467  1.00  0.00    -0.352 N 
ATOM     34  C   UNL A   1      36.292  29.462  29.119  1.00  0.00     0.251 C 
ATOM     35  H   UNL A   1      35.113  29.710  30.751  1.00  0.00     0.163 HD
ATOM     36  O   UNL A   1      35.430  29.604  28.272  1.00  0.00    -0.269 OA
BRANCH  34  37
ATOM     37  C   UNL A   1      37.630  28.966  28.751  1.00  0.00     0.039 A 
ATOM     38  C   UNL A   1      38.342  29.419  27.638  1.00  0.00     0.014 A 
ATOM     39  C   UNL A   1      38.193  28.068  29.645  1.00  0.00     0.014 A 
ATOM     40  C   UNL A   1      39.668  29.011  27.488  1.00  0.00     0.010 A 
ATOM     41  C   UNL A   1      39.541  27.888  29.637  1.00  0.00     0.010 A 
ATOM     42  C   UNL A   1      40.260  28.253  28.509  1.00  0.00    -0.014 A 
BRANCH  42  43
ATOM     43  C   UNL A   1      41.663  27.870  28.510  1.00  0.00     0.031 A 
ATOM     44  C   UNL A   1      41.959  26.626  27.752  1.00  0.00     0.074 A 
ATOM     45  C   UNL A   1      42.618  28.746  28.901  1.00  0.00     0.049 A 
ATOM     46  N   UNL A   1      42.384  25.499  28.217  1.00  0.00    -0.248 NA
ATOM     47  C   UNL A   1      41.593  26.576  26.325  1.00  0.00     0.031 C 
ATOM     48  C   UNL A   1      42.452  30.138  29.353  1.00  0.00     0.029 A 
ATOM     49  N   UNL A   1      43.970  28.617  28.865  1.00  0.00    -0.354 N 
ATOM     50  C   UNL A   1      42.565  24.674  27.108  1.00  0.00     0.074 A 
ATOM     51  C   UNL A   1      41.859  25.303  26.025  1.00  0.00     0.031 C 
ATOM     52  C   UNL A   1      43.639  30.781  29.315  1.00  0.00     0.029 A 
ATOM     53  C   UNL A   1      44.673  29.812  29.017  1.00  0.00     0.049 A 
ATOM     54  H   UNL A   1      44.417  27.750  28.741  1.00  0.00     0.167 HD
ATOM     55  C   UNL A   1      43.515  23.697  27.114  1.00  0.00     0.037 A 
ATOM     56  C   UNL A   1      46.013  29.979  28.883  1.00  0.00     0.037 A 
ATOM     57  C   UNL A   1      43.972  23.443  28.460  1.00  0.00     0.049 A 
ATOM     58  C   UNL A   1      46.627  28.633  29.004  1.00  0.00     0.074 A 
ATOM     59  C   UNL A   1      43.377  23.021  29.632  1.00  0.00     0.029 A 
ATOM     60  N   UNL A   1      45.168  24.010  28.832  1.00  0.00    -0.354 N 
ATOM     61  N   UNL A   1      46.612  27.932  30.105  1.00  0.00    -0.248 NA
ATOM     62  C   UNL A   1      46.809  27.871  27.779  1.00  0.00     0.031 C 
ATOM     63  C   UNL A   1      44.004  23.788  30.658  1.00  0.00     0.029 A 
ATOM     64  C   UNL A   1      44.999  24.570  30.069  1.00  0.00     0.049 A 
ATOM     65  H   UNL A   1      45.998  24.013  28.302  1.00  0.00     0.167 HD
ATOM     66  C   UNL A   1      46.345  26.635  29.694  1.00  0.00     0.074 A 
ATOM     67  C   UNL A   1      46.546  26.647  28.244  1.00  0.00     0.031 C 
ATOM     68  C   UNL A   1      45.696  25.756  30.515  1.00  0.00     0.037 A 
BRANCH  55  69
ATOM     69  C   UNL A   1      44.334  23.278  25.911  1.00  0.00     0.057 A 
ATOM     70  C   UNL A   1      44.413  21.906  25.598  1.00  0.00     0.134 A 
ATOM     71  C   UNL A   1      45.279  24.089  25.251  1.00  0.00     0.134 A 
ATOM     72  F   UNL A   1      43.564  21.023  26.146  1.00  0.00    -0.206 F 
ATOM     73  C   UNL A   1      45.424  21.374  24.787  1.00  0.00     0.040 A 
ATOM     74  C   UNL A   1      46.260  23.573  24.400  1.00  0.00     0.040 A 
ATOM     75  F   UNL A   1      45.377  25.406  25.460  1.00  0.00    -0.206 F 
ATOM     76  C   UNL A   1      46.363  22.208  24.197  1.00  0.00     0.006 A 
ENDBRANCH  55  69
BRANCH  56  77
ATOM     77  C   UNL A   1      46.755  31.142  28.339  1.00  0.00     0.057 A 
ATOM     78  C   UNL A   1      46.427  31.697  27.094  1.00  0.00     0.134 A 
ATOM     79  C   UNL A   1      47.607  31.911  29.151  1.00  0.00     0.134 A 
ATOM     80  F   UNL A   1      45.589  31.059  26.265  1.00  0.00    -0.206 F 
ATOM     81  C   UNL A   1      46.896  32.956  26.691  1.00  0.00     0.040 A 
ATOM     82  C   UNL A   1      48.084  33.167  28.760  1.00  0.00     0.040 A 
ATOM     83  F   UNL A   1      47.930  31.509  30.389  1.00  0.00    -0.206 F 
ATOM     84  C   UNL A   1      47.717  33.701  27.530  1.00  0.00     0.006 A 
ENDBRANCH  56  77
BRANCH  68  85
ATOM     85  C   UNL A   1      45.486  26.155  31.952  1.00  0.00     0.057 A 
ATOM     86  C   UNL A   1      44.310  26.736  32.448  1.00  0.00     0.134 A 
ATOM     87  C   UNL A   1      46.447  25.779  32.894  1.00  0.00     0.134 A 
ATOM     88  F   UNL A   1      43.292  27.048  31.637  1.00  0.00    -0.206 F 
ATOM     89  C   UNL A   1      44.111  26.959  33.815  1.00  0.00     0.040 A 
ATOM     90  C   UNL A   1      46.250  25.967  34.265  1.00  0.00     0.040 A 
ATOM     91  F   UNL A   1      47.575  25.167  32.500  1.00  0.00    -0.206 F 
ATOM     92  C   UNL A   1      45.082  26.565  34.729  1.00  0.00     0.006 A 
ENDBRANCH  68  85
ENDBRANCH  42  43
ENDBRANCH  34  37
ENDBRANCH  32  33
ENDBRANCH  31  32
ENDBRANCH   1  31
TORSDOF 14
ENDMDL
MODEL 2
REMARK VINA RESULT:      -9.5      3.696     10.770
REMARK SMILES CC1(C)Cc2c(-c3ccccc3)c(-c3ccc(Cl)cc3)c(CC(=O)NCCCCNC(=O)c3ccc(-c4c5nc(c(-c6c(F)cccc6F)c6ccc([nH]6)c(-c6c(F)cccc6F)c6nc(c(-c7c(F)cccc7F)c7ccc4[nH]7)C=C6)C=C5)cc3)n2C1
REMARK SMILES IDX 27 1 26 2 25 3 23 4 24 5 22 7 21 8 1 9 2 10 3 11 4 12 88 13
REMARK SMILES IDX 5 14 87 15 6 16 13 17 7 18 8 19 12 20 9 21 11 22 10 23 14 24
REMARK SMILES IDX 15 25 20 26 16 27 19 28 17 29 18 30 28 31 29 32 30 33 31 34
REMARK SMILES IDX 32 36 33 37 34 38 86 39 35 40 85 41 36 42 37 43 38 44 79 45
REMARK SMILES IDX 39 46 84 47 78 48 80 49 40 50 83 51 77 52 76 53 41 55 67 56
REMARK SMILES IDX 50 57 66 58 51 59 54 60 65 61 81 62 52 63 53 64 64 66 82 67
REMARK SMILES IDX 55 68 42 69 43 70 48 71 44 72 45 73 47 74 49 75 46 76 68 77
REMARK SMILES IDX 69 78 74 79 70 80 71 81 73 82 75 83 72 84 56 85 57 86 62 87
REMARK SMILES IDX 58 88 59 89 61 90 63 91 60 92
REMARK H PARENT 25 6 30 35 80 54 54 65
REMARK Flexibility Score: inf
ROOT
ATOM      1  C   UNL A   1      43.883  32.187  26.514  1.00  0.00     0.023 C 
ENDROOT
BRANCH   1   2
ATOM      2  C   UNL A   1      44.902  31.224  27.127  1.00  0.00     0.116 C 
BRANCH   2   3
ATOM      3  N   UNL A   1      45.193  30.072  26.301  1.00  0.00    -0.356 N 
ATOM      4  C   UNL A   1      44.463  28.929  26.127  1.00  0.00     0.225 C 
ATOM      5  O   UNL A   1      44.861  28.133  25.271  1.00  0.00    -0.275 OA
ATOM      6  H   UNL A   1      46.034  30.119  25.792  1.00  0.00     0.163 HD
BRANCH   4   7
ATOM      7  C   UNL A   1      43.170  28.677  26.896  1.00  0.00     0.154 C 
BRANCH   7   8
ATOM      8  C   UNL A   1      43.293  27.647  27.980  1.00  0.00     0.036 A 
ATOM      9  C   UNL A   1      41.983  23.048  26.552  1.00  0.00     0.013 C 
ATOM     10  C   UNL A   1      41.812  24.292  27.425  1.00  0.00    -0.012 C 
ATOM     11  C   UNL A   1      40.320  24.431  27.772  1.00  0.00     0.013 C 
ATOM     12  C   UNL A   1      42.653  24.203  28.740  1.00  0.00     0.063 C 
ATOM     13  C   UNL A   1      42.355  25.563  26.707  1.00  0.00     0.129 C 
ATOM     14  C   UNL A   1      43.112  25.601  28.924  1.00  0.00     0.027 A 
ATOM     15  N   UNL A   1      42.930  26.345  27.796  1.00  0.00    -0.346 N 
ATOM     16  C   UNL A   1      43.651  26.412  29.888  1.00  0.00     0.011 A 
ATOM     17  C   UNL A   1      43.798  27.714  29.286  1.00  0.00     0.011 A 
BRANCH  16  18
ATOM     18  C   UNL A   1      43.932  25.980  31.242  1.00  0.00    -0.016 A 
ATOM     19  C   UNL A   1      43.511  26.739  32.338  1.00  0.00     0.009 A 
ATOM     20  C   UNL A   1      44.617  24.777  31.459  1.00  0.00     0.009 A 
ATOM     21  C   UNL A   1      43.775  26.300  33.637  1.00  0.00     0.001 A 
ATOM     22  C   UNL A   1      44.879  24.340  32.756  1.00  0.00     0.001 A 
ATOM     23  C   UNL A   1      44.458  25.101  33.845  1.00  0.00     0.000 A 
ENDBRANCH  16  18
BRANCH  17  24
ATOM     24  C   UNL A   1      44.369  28.898  29.919  1.00  0.00    -0.016 A 
ATOM     25  C   UNL A   1      43.526  29.954  30.296  1.00  0.00     0.010 A 
ATOM     26  C   UNL A   1      45.753  29.061  30.040  1.00  0.00     0.010 A 
ATOM     27  C   UNL A   1      44.060  31.145  30.798  1.00  0.00     0.021 A 
ATOM     28  C   UNL A   1      46.289  30.242  30.564  1.00  0.00     0.021 A 
ATOM     29  C   UNL A   1      45.440  31.281  30.935  1.00  0.00     0.041 A 
ATOM     30  Cl  UNL A   1      46.102  32.750  31.538  1.00  0.00    -0.084 Cl
ENDBRANCH  17  24
ENDBRANCH   7   8
ENDBRANCH   4   7
ENDBRANCH   2   3
ENDBRANCH   1   2
BRANCH   1  31
ATOM     31  C   UNL A   1      44.359  33.079  25.366  1.00  0.00     0.023 C 
BRANCH  31  32
ATOM     32  C   UNL A   1      43.925  34.533  25.480  1.00  0.00     0.116 C 
BRANCH  32  33
ATOM     33  N   UNL A   1      44.967  35.430  25.998  1.00  0.00    -0.352 N 
ATOM     34  C   UNL A   1      44.897  36.263  27.111  1.00  0.00     0.251 C 
ATOM     35  H   UNL A   1      45.815  35.444  25.498  1.00  0.00     0.163 HD
ATOM     36  O   UNL A   1      45.640  37.214  27.256  1.00  0.00    -0.269 OA
BRANCH  34  37
ATOM     37  C   UNL A   1      43.904  35.922  28.145  1.00  0.00     0.039 A 
ATOM     38  C   UNL A   1      42.652  36.536  28.246  1.00  0.00     0.014 A 
ATOM     39  C   UNL A   1      44.256  34.870  28.977  1.00  0.00     0.014 A 
ATOM     40  C   UNL A   1      41.728  36.011  29.150  1.00  0.00     0.010 A 
ATOM     41  C   UNL A   1      43.278  34.211  29.655  1.00  0.00     0.010 A 
ATOM     42  C   UNL A   1      42.054  34.834  29.841  1.00  0.00    -0.014 A 
BRANCH  42  43
ATOM     43  C   UNL A   1      41.125  34.141  30.720  1.00  0.00     0.031 A 
ATOM     44  C   UNL A   1      41.565  34.066  32.138  1.00  0.00     0.074 A 
ATOM     45  C   UNL A   1      39.858  33.881  30.320  1.00  0.00     0.049 A 
ATOM     46  N   UNL A   1      41.883  33.012  32.812  1.00  0.00    -0.248 NA
ATOM     47  C   UNL A   1      41.833  35.328  32.852  1.00  0.00     0.031 C 
ATOM     48  C   UNL A   1      39.214  34.224  29.040  1.00  0.00     0.029 A 
ATOM     49  N   UNL A   1      38.824  33.354  31.027  1.00  0.00    -0.354 N 
ATOM     50  C   UNL A   1      42.161  33.457  34.104  1.00  0.00     0.074 A 
ATOM     51  C   UNL A   1      42.332  34.881  34.006  1.00  0.00     0.031 C 
ATOM     52  C   UNL A   1      37.873  34.117  29.154  1.00  0.00     0.029 A 
ATOM     53  C   UNL A   1      37.571  33.528  30.442  1.00  0.00     0.049 A 
ATOM     54  H   UNL A   1      38.951  32.888  31.884  1.00  0.00     0.167 HD
ATOM     55  C   UNL A   1      41.944  32.650  35.180  1.00  0.00     0.037 A 
ATOM     56  C   UNL A   1      36.373  33.222  31.001  1.00  0.00     0.037 A 
ATOM     57  C   UNL A   1      41.773  31.279  34.760  1.00  0.00     0.049 A 
ATOM     58  C   UNL A   1      36.648  32.274  32.110  1.00  0.00     0.074 A 
ATOM     59  C   UNL A   1      42.552  30.357  34.089  1.00  0.00     0.029 A 
ATOM     60  N   UNL A   1      40.486  30.803  34.687  1.00  0.00    -0.354 N 
ATOM     61  N   UNL A   1      37.109  31.067  31.927  1.00  0.00    -0.248 NA
ATOM     62  C   UNL A   1      36.884  32.842  33.428  1.00  0.00     0.031 C 
ATOM     63  C   UNL A   1      41.642  29.655  33.243  1.00  0.00     0.029 A 
ATOM     64  C   UNL A   1      40.355  30.128  33.503  1.00  0.00     0.049 A 
ATOM     65  H   UNL A   1      39.783  30.927  35.365  1.00  0.00     0.167 HD
ATOM     66  C   UNL A   1      38.054  30.894  32.927  1.00  0.00     0.074 A 
ATOM     67  C   UNL A   1      37.821  31.995  33.863  1.00  0.00     0.031 C 
ATOM     68  C   UNL A   1      39.124  30.063  32.748  1.00  0.00     0.037 A 
BRANCH  55  69
ATOM     69  C   UNL A   1      41.464  33.124  36.536  1.00  0.00     0.057 A 
ATOM     70  C   UNL A   1      42.139  32.667  37.685  1.00  0.00     0.134 A 
ATOM     71  C   UNL A   1      40.217  33.731  36.787  1.00  0.00     0.134 A 
ATOM     72  F   UNL A   1      43.342  32.080  37.590  1.00  0.00    -0.206 F 
ATOM     73  C   UNL A   1      41.567  32.707  38.963  1.00  0.00     0.040 A 
ATOM     74  C   UNL A   1      39.660  33.822  38.065  1.00  0.00     0.040 A 
ATOM     75  F   UNL A   1      39.421  34.185  35.813  1.00  0.00    -0.206 F 
ATOM     76  C   UNL A   1      40.315  33.273  39.154  1.00  0.00     0.006 A 
ENDBRANCH  55  69
BRANCH  56  77
ATOM     77  C   UNL A   1      35.076  33.928  30.866  1.00  0.00     0.057 A 
ATOM     78  C   UNL A   1      34.726  34.978  31.726  1.00  0.00     0.134 A 
ATOM     79  C   UNL A   1      34.280  33.782  29.716  1.00  0.00     0.134 A 
ATOM     80  F   UNL A   1      35.449  35.224  32.827  1.00  0.00    -0.206 F 
ATOM     81  C   UNL A   1      33.663  35.851  31.446  1.00  0.00     0.040 A 
ATOM     82  C   UNL A   1      33.216  34.644  29.426  1.00  0.00     0.040 A 
ATOM     83  F   UNL A   1      34.567  32.855  28.791  1.00  0.00    -0.206 F 
ATOM     84  C   UNL A   1      32.913  35.692  30.285  1.00  0.00     0.006 A 
ENDBRANCH  56  77
BRANCH  68  85
ATOM     85  C   UNL A   1      39.127  29.167  31.538  1.00  0.00     0.057 A 
ATOM     86  C   UNL A   1      39.713  29.501  30.308  1.00  0.00     0.134 A 
ATOM     87  C   UNL A   1      38.671  27.854  31.681  1.00  0.00     0.134 A 
ATOM     88  F   UNL A   1      40.262  30.703  30.103  1.00  0.00    -0.206 F 
ATOM     89  C   UNL A   1      39.813  28.580  29.258  1.00  0.00     0.040 A 
ATOM     90  C   UNL A   1      38.792  26.914  30.653  1.00  0.00     0.040 A 
ATOM     91  F   UNL A   1      38.149  27.444  32.848  1.00  0.00    -0.206 F 
ATOM     92  C   UNL A   1      39.359  27.278  29.435  1.00  0.00     0.006 A 
ENDBRANCH  68  85
ENDBRANCH  42  43
ENDBRANCH  34  37
ENDBRANCH  32  33
ENDBRANCH  31  32
ENDBRANCH   1  31
TORSDOF 14
ENDMDL
MODEL 3
REMARK VINA RESULT:      -9.4      7.246     12.051
REMARK SMILES CC1(C)Cc2c(-c3ccccc3)c(-c3ccc(Cl)cc3)c(CC(=O)NCCCCNC(=O)c3ccc(-c4c5nc(c(-c6c(F)cccc6F)c6ccc([nH]6)c(-c6c(F)cccc6F)c6nc(c(-c7c(F)cccc7F)c7ccc4[nH]7)C=C6)C=C5)cc3)n2C1
REMARK SMILES IDX 27 1 26 2 25 3 23 4 24 5 22 7 21 8 1 9 2 10 3 11 4 12 88 13
REMARK SMILES IDX 5 14 87 15 6 16 13 17 7 18 8 19 12 20 9 21 11 22 10 23 14 24
REMARK SMILES IDX 15 25 20 26 16 27 19 28 17 29 18 30 28 31 29 32 30 33 31 34
REMARK SMILES IDX 32 36 33 37 34 38 86 39 35 40 85 41 36 42 37 43 38 44 79 45
REMARK SMILES IDX 39 46 84 47 78 48 80 49 40 50 83 51 77 52 76 53 41 55 67 56
REMARK SMILES IDX 50 57 66 58 51 59 54 60 65 61 81 62 52 63 53 64 64 66 82 67
REMARK SMILES IDX 55 68 42 69 43 70 48 71 44 72 45 73 47 74 49 75 46 76 68 77
REMARK SMILES IDX 69 78 74 79 70 80 71 81 73 82 75 83 72 84 56 85 57 86 62 87
REMARK SMILES IDX 58 88 59 89 61 90 63 91 60 92
REMARK H PARENT 25 6 30 35 80 54 54 65
REMARK Flexibility Score: inf
ROOT
ATOM      1  C   UNL A   1      42.959  41.327  26.146  1.00  0.00     0.023 C 
ENDROOT
BRANCH   1   2
ATOM      2  C   UNL A   1      43.273  41.907  24.765  1.00  0.00     0.116 C 
BRANCH   2   3
ATOM      3  N   UNL A   1      42.113  42.411  24.063  1.00  0.00    -0.356 N 
ATOM      4  C   UNL A   1      41.922  42.576  22.719  1.00  0.00     0.225 C 
ATOM      5  O   UNL A   1      40.793  42.915  22.349  1.00  0.00    -0.275 OA
ATOM      6  H   UNL A   1      41.353  42.671  24.634  1.00  0.00     0.163 HD
BRANCH   4   7
ATOM      7  C   UNL A   1      43.026  42.282  21.710  1.00  0.00     0.154 C 
BRANCH   7   8
ATOM      8  C   UNL A   1      43.631  43.508  21.089  1.00  0.00     0.036 A 
ATOM      9  C   UNL A   1      41.362  44.976  16.893  1.00  0.00     0.013 C 
ATOM     10  C   UNL A   1      42.583  44.472  17.664  1.00  0.00    -0.012 C 
ATOM     11  C   UNL A   1      43.429  43.611  16.710  1.00  0.00     0.013 C 
ATOM     12  C   UNL A   1      43.449  45.649  18.220  1.00  0.00     0.063 C 
ATOM     13  C   UNL A   1      42.159  43.674  18.933  1.00  0.00     0.129 C 
ATOM     14  C   UNL A   1      43.896  45.127  19.535  1.00  0.00     0.027 A 
ATOM     15  N   UNL A   1      43.182  44.028  19.910  1.00  0.00    -0.346 N 
ATOM     16  C   UNL A   1      44.828  45.383  20.505  1.00  0.00     0.011 A 
ATOM     17  C   UNL A   1      44.648  44.372  21.517  1.00  0.00     0.011 A 
BRANCH  16  18
ATOM     18  C   UNL A   1      45.808  46.448  20.423  1.00  0.00    -0.016 A 
ATOM     19  C   UNL A   1      45.413  47.789  20.458  1.00  0.00     0.009 A 
ATOM     20  C   UNL A   1      47.169  46.133  20.329  1.00  0.00     0.009 A 
ATOM     21  C   UNL A   1      46.370  48.803  20.396  1.00  0.00     0.001 A 
ATOM     22  C   UNL A   1      48.125  47.146  20.268  1.00  0.00     0.001 A 
ATOM     23  C   UNL A   1      47.725  48.481  20.301  1.00  0.00     0.000 A 
ENDBRANCH  16  18
BRANCH  17  24
ATOM     24  C   UNL A   1      45.391  44.260  22.767  1.00  0.00    -0.016 A 
ATOM     25  C   UNL A   1      44.938  44.945  23.904  1.00  0.00     0.010 A 
ATOM     26  C   UNL A   1      46.618  43.590  22.826  1.00  0.00     0.010 A 
ATOM     27  C   UNL A   1      45.694  44.946  25.081  1.00  0.00     0.021 A 
ATOM     28  C   UNL A   1      47.364  43.570  24.008  1.00  0.00     0.021 A 
ATOM     29  C   UNL A   1      46.901  44.253  25.129  1.00  0.00     0.041 A 
ATOM     30  Cl  UNL A   1      47.841  44.265  26.570  1.00  0.00    -0.084 Cl
ENDBRANCH  17  24
ENDBRANCH   7   8
ENDBRANCH   4   7
ENDBRANCH   2   3
ENDBRANCH   1   2
BRANCH   1  31
ATOM     31  C   UNL A   1      42.035  40.110  26.206  1.00  0.00     0.023 C 
BRANCH  31  32
ATOM     32  C   UNL A   1      42.653  38.884  26.858  1.00  0.00     0.116 C 
BRANCH  32  33
ATOM     33  N   UNL A   1      44.067  38.673  26.518  1.00  0.00    -0.352 N 
ATOM     34  C   UNL A   1      44.989  37.863  27.174  1.00  0.00     0.251 C 
ATOM     35  H   UNL A   1      44.402  39.164  25.733  1.00  0.00     0.163 HD
ATOM     36  O   UNL A   1      46.189  38.021  27.056  1.00  0.00    -0.269 OA
BRANCH  34  37
ATOM     37  C   UNL A   1      44.454  36.763  27.995  1.00  0.00     0.039 A 
ATOM     38  C   UNL A   1      44.293  36.841  29.381  1.00  0.00     0.014 A 
ATOM     39  C   UNL A   1      44.026  35.651  27.285  1.00  0.00     0.014 A 
ATOM     40  C   UNL A   1      43.615  35.808  30.029  1.00  0.00     0.010 A 
ATOM     41  C   UNL A   1      43.150  34.792  27.873  1.00  0.00     0.010 A 
ATOM     42  C   UNL A   1      43.035  34.793  29.254  1.00  0.00    -0.014 A 
BRANCH  42  43
ATOM     43  C   UNL A   1      42.212  33.732  29.814  1.00  0.00     0.031 A 
ATOM     44  C   UNL A   1      40.842  34.159  30.201  1.00  0.00     0.074 A 
ATOM     45  C   UNL A   1      42.579  32.434  29.689  1.00  0.00     0.049 A 
ATOM     46  N   UNL A   1      40.335  34.208  31.387  1.00  0.00    -0.248 NA
ATOM     47  C   UNL A   1      39.977  34.749  29.163  1.00  0.00     0.031 C 
ATOM     48  C   UNL A   1      43.765  31.880  29.015  1.00  0.00     0.029 A 
ATOM     49  N   UNL A   1      41.898  31.311  30.038  1.00  0.00    -0.354 N 
ATOM     50  C   UNL A   1      39.010  34.610  31.218  1.00  0.00     0.074 A 
ATOM     51  C   UNL A   1      38.922  35.135  29.883  1.00  0.00     0.031 C 
ATOM     52  C   UNL A   1      43.598  30.557  28.799  1.00  0.00     0.029 A 
ATOM     53  C   UNL A   1      42.390  30.134  29.475  1.00  0.00     0.049 A 
ATOM     54  H   UNL A   1      41.121  31.327  30.641  1.00  0.00     0.167 HD
ATOM     55  C   UNL A   1      38.045  34.211  32.092  1.00  0.00     0.037 A 
ATOM     56  C   UNL A   1      41.817  28.906  29.550  1.00  0.00     0.037 A 
ATOM     57  C   UNL A   1      38.639  33.691  33.301  1.00  0.00     0.049 A 
ATOM     58  C   UNL A   1      40.863  28.948  30.687  1.00  0.00     0.074 A 
ATOM     59  C   UNL A   1      39.467  34.200  34.282  1.00  0.00     0.029 A 
ATOM     60  N   UNL A   1      38.710  32.324  33.425  1.00  0.00    -0.354 N 
ATOM     61  N   UNL A   1      41.232  29.084  31.932  1.00  0.00    -0.248 NA
ATOM     62  C   UNL A   1      39.494  29.340  30.393  1.00  0.00     0.031 C 
ATOM     63  C   UNL A   1      40.354  33.129  34.604  1.00  0.00     0.029 A 
ATOM     64  C   UNL A   1      39.966  32.009  33.868  1.00  0.00     0.049 A 
ATOM     65  H   UNL A   1      37.986  31.686  33.230  1.00  0.00     0.167 HD
ATOM     66  C   UNL A   1      40.314  29.969  32.477  1.00  0.00     0.074 A 
ATOM     67  C   UNL A   1      39.226  30.037  31.501  1.00  0.00     0.031 C 
ATOM     68  C   UNL A   1      40.659  30.790  33.513  1.00  0.00     0.037 A 
BRANCH  55  69
ATOM     69  C   UNL A   1      36.614  33.887  31.715  1.00  0.00     0.057 A 
ATOM     70  C   UNL A   1      36.387  32.966  30.672  1.00  0.00     0.134 A 
ATOM     71  C   UNL A   1      35.486  34.643  32.090  1.00  0.00     0.134 A 
ATOM     72  F   UNL A   1      37.373  32.173  30.226  1.00  0.00    -0.206 F 
ATOM     73  C   UNL A   1      35.169  32.890  29.985  1.00  0.00     0.040 A 
ATOM     74  C   UNL A   1      34.251  34.538  31.443  1.00  0.00     0.040 A 
ATOM     75  F   UNL A   1      35.528  35.592  33.031  1.00  0.00    -0.206 F 
ATOM     76  C   UNL A   1      34.100  33.690  30.360  1.00  0.00     0.006 A 
ENDBRANCH  55  69
BRANCH  56  77
ATOM     77  C   UNL A   1      41.788  27.830  28.532  1.00  0.00     0.057 A 
ATOM     78  C   UNL A   1      42.269  26.544  28.816  1.00  0.00     0.134 A 
ATOM     79  C   UNL A   1      41.026  27.956  27.356  1.00  0.00     0.134 A 
ATOM     80  F   UNL A   1      42.970  26.314  29.935  1.00  0.00    -0.206 F 
ATOM     81  C   UNL A   1      41.987  25.442  27.995  1.00  0.00     0.040 A 
ATOM     82  C   UNL A   1      40.739  26.865  26.527  1.00  0.00     0.040 A 
ATOM     83  F   UNL A   1      40.459  29.125  27.023  1.00  0.00    -0.206 F 
ATOM     84  C   UNL A   1      41.209  25.599  26.853  1.00  0.00     0.006 A 
ENDBRANCH  56  77
BRANCH  68  85
ATOM     85  C   UNL A   1      41.979  30.548  34.197  1.00  0.00     0.057 A 
ATOM     86  C   UNL A   1      43.183  31.174  33.840  1.00  0.00     0.134 A 
ATOM     87  C   UNL A   1      41.993  29.784  35.367  1.00  0.00     0.134 A 
ATOM     88  F   UNL A   1      43.251  31.999  32.789  1.00  0.00    -0.206 F 
ATOM     89  C   UNL A   1      44.352  31.022  34.594  1.00  0.00     0.040 A 
ATOM     90  C   UNL A   1      43.144  29.648  36.148  1.00  0.00     0.040 A 
ATOM     91  F   UNL A   1      40.866  29.198  35.804  1.00  0.00    -0.206 F 
ATOM     92  C   UNL A   1      44.330  30.263  35.758  1.00  0.00     0.006 A 
ENDBRANCH  68  85
ENDBRANCH  42  43
ENDBRANCH  34  37
ENDBRANCH  32  33
ENDBRANCH  31  32
ENDBRANCH   1  31
TORSDOF 14
ENDMDL
