MODEL 1
REMARK VINA RESULT:     -11.9      0.000      0.000
REMARK SMILES COc1ccc2c(c1)c(CC(=O)NCCCCNC(=O)c1ccc(-c3c4nc(c(-c5c(F)cccc5F)c5ccc([nH]5)c(-c5c(F)cccc5F)c5nc(c(-c6c(F)cccc6F)c6ccc3[nH]6)C=C5)C=C4)cc1)c(C)n2Cc1ccc(Br)cc1
REMARK SMILES IDX 15 1 14 2 13 3 11 4 12 5 10 7 9 8 3 9 4 10 8 11 5 12 7 13
REMARK SMILES IDX 6 14 77 15 75 16 76 17 2 18 1 19 78 20 79 21 80 22 85 23
REMARK SMILES IDX 81 24 84 25 82 26 83 27 16 28 17 29 18 30 19 31 20 33 21 34
REMARK SMILES IDX 22 35 74 36 23 37 73 38 24 39 25 40 26 41 67 42 27 43 72 44
REMARK SMILES IDX 66 45 68 46 28 47 71 48 65 49 64 50 29 52 55 53 38 54 54 55
REMARK SMILES IDX 39 56 42 57 53 58 69 59 40 60 41 61 52 63 70 64 43 65 30 66
REMARK SMILES IDX 31 67 36 68 32 69 33 70 35 71 37 72 34 73 56 74 57 75 62 76
REMARK SMILES IDX 58 77 59 78 61 79 63 80 60 81 44 82 45 83 50 84 46 85 47 86
REMARK SMILES IDX 49 87 51 88 48 89
REMARK H PARENT 13 6 18 32 68 51 42 62
REMARK Flexibility Score: inf
ROOT
ATOM      1  C   UNL A   1      39.734  23.188  27.246  1.00  0.00     0.023 C 
ENDROOT
BRANCH   1   2
ATOM      2  C   UNL A   1      38.726  24.139  26.598  1.00  0.00     0.116 C 
BRANCH   2   3
ATOM      3  N   UNL A   1      38.120  23.577  25.404  1.00  0.00    -0.356 N 
ATOM      4  C   UNL A   1      36.845  23.715  24.929  1.00  0.00     0.224 C 
ATOM      5  O   UNL A   1      36.563  23.149  23.868  1.00  0.00    -0.275 OA
ATOM      6  H   UNL A   1      38.713  23.014  24.858  1.00  0.00     0.163 HD
BRANCH   4   7
ATOM      7  C   UNL A   1      35.832  24.604  25.638  1.00  0.00     0.138 C 
BRANCH   7   8
ATOM      8  C   UNL A   1      34.413  24.191  25.400  1.00  0.00    -0.010 A 
ATOM      9  C   UNL A   1      32.436  26.357  22.959  1.00  0.00     0.119 A 
ATOM     10  C   UNL A   1      31.286  25.574  22.960  1.00  0.00     0.048 A 
ATOM     11  C   UNL A   1      33.550  25.964  23.702  1.00  0.00     0.057 A 
ATOM     12  C   UNL A   1      31.213  24.397  23.724  1.00  0.00     0.031 A 
ATOM     13  C   UNL A   1      33.487  24.809  24.511  1.00  0.00     0.007 A 
ATOM     14  C   UNL A   1      32.323  24.035  24.509  1.00  0.00     0.049 A 
ATOM     15  N   UNL A   1      32.554  22.957  25.356  1.00  0.00    -0.340 N 
ATOM     16  C   UNL A   1      33.728  23.178  26.058  1.00  0.00     0.020 A 
ATOM     17  C   UNL A   1      34.174  22.405  27.252  1.00  0.00     0.065 C 
BRANCH   9  18
ATOM     18  O   UNL A   1      32.596  27.489  22.206  1.00  0.00    -0.497 OA
ATOM     19  C   UNL A   1      33.895  28.066  22.277  1.00  0.00     0.278 C 
ENDBRANCH   9  18
BRANCH  15  20
ATOM     20  C   UNL A   1      31.655  21.812  25.524  1.00  0.00     0.157 C 
BRANCH  20  21
ATOM     21  C   UNL A   1      32.212  20.526  24.939  1.00  0.00    -0.028 A 
ATOM     22  C   UNL A   1      32.205  20.289  23.554  1.00  0.00     0.007 A 
ATOM     23  C   UNL A   1      32.779  19.550  25.772  1.00  0.00     0.007 A 
ATOM     24  C   UNL A   1      32.717  19.106  23.015  1.00  0.00     0.016 A 
ATOM     25  C   UNL A   1      33.320  18.375  25.233  1.00  0.00     0.016 A 
ATOM     26  C   UNL A   1      33.283  18.157  23.858  1.00  0.00     0.017 A 
ATOM     27  Br  UNL A   1      34.033  16.585  23.131  1.00  0.00    -0.051 Br
ENDBRANCH  20  21
ENDBRANCH  15  20
ENDBRANCH   7   8
ENDBRANCH   4   7
ENDBRANCH   2   3
ENDBRANCH   1   2
BRANCH   1  28
ATOM     28  C   UNL A   1      40.095  21.947  26.415  1.00  0.00     0.023 C 
BRANCH  28  29
ATOM     29  C   UNL A   1      41.589  21.636  26.318  1.00  0.00     0.116 C 
BRANCH  29  30
ATOM     30  N   UNL A   1      42.286  22.330  25.254  1.00  0.00    -0.352 N 
ATOM     31  C   UNL A   1      43.012  23.491  25.217  1.00  0.00     0.251 C 
ATOM     32  H   UNL A   1      42.228  21.875  24.383  1.00  0.00     0.163 HD
ATOM     33  O   UNL A   1      43.899  23.556  24.358  1.00  0.00    -0.269 OA
BRANCH  31  34
ATOM     34  C   UNL A   1      42.738  24.694  26.051  1.00  0.00     0.039 A 
ATOM     35  C   UNL A   1      43.168  24.887  27.360  1.00  0.00     0.014 A 
ATOM     36  C   UNL A   1      41.920  25.683  25.462  1.00  0.00     0.014 A 
ATOM     37  C   UNL A   1      42.754  26.010  28.074  1.00  0.00     0.010 A 
ATOM     38  C   UNL A   1      41.503  26.809  26.172  1.00  0.00     0.010 A 
ATOM     39  C   UNL A   1      41.906  26.964  27.490  1.00  0.00    -0.014 A 
BRANCH  39  40
ATOM     40  C   UNL A   1      41.646  28.184  28.255  1.00  0.00     0.031 A 
ATOM     41  C   UNL A   1      42.713  29.212  28.107  1.00  0.00     0.074 A 
ATOM     42  C   UNL A   1      40.550  28.461  28.991  1.00  0.00     0.049 A 
ATOM     43  N   UNL A   1      43.566  29.584  29.003  1.00  0.00    -0.248 NA
ATOM     44  C   UNL A   1      42.948  29.786  26.775  1.00  0.00     0.031 C 
ATOM     45  C   UNL A   1      39.291  27.720  29.049  1.00  0.00     0.029 A 
ATOM     46  N   UNL A   1      40.316  29.535  29.809  1.00  0.00    -0.354 N 
ATOM     47  C   UNL A   1      44.330  30.586  28.411  1.00  0.00     0.074 A 
ATOM     48  C   UNL A   1      44.011  30.560  27.008  1.00  0.00     0.031 C 
ATOM     49  C   UNL A   1      38.362  28.467  29.692  1.00  0.00     0.029 A 
ATOM     50  C   UNL A   1      38.992  29.672  30.211  1.00  0.00     0.049 A 
ATOM     51  H   UNL A   1      41.025  30.157  30.088  1.00  0.00     0.167 HD
ATOM     52  C   UNL A   1      44.973  31.510  29.176  1.00  0.00     0.037 A 
ATOM     53  C   UNL A   1      38.446  30.712  30.891  1.00  0.00     0.037 A 
ATOM     54  C   UNL A   1      45.112  31.048  30.537  1.00  0.00     0.049 A 
ATOM     55  C   UNL A   1      39.539  31.418  31.595  1.00  0.00     0.074 A 
ATOM     56  C   UNL A   1      45.709  29.973  31.167  1.00  0.00     0.029 A 
ATOM     57  N   UNL A   1      44.268  31.601  31.464  1.00  0.00    -0.354 N 
ATOM     58  N   UNL A   1      40.172  30.942  32.628  1.00  0.00    -0.248 NA
ATOM     59  C   UNL A   1      40.183  32.541  30.935  1.00  0.00     0.031 C 
ATOM     60  C   UNL A   1      44.869  29.677  32.284  1.00  0.00     0.029 A 
ATOM     61  C   UNL A   1      43.834  30.612  32.301  1.00  0.00     0.049 A 
ATOM     62  H   UNL A   1      44.016  32.552  31.519  1.00  0.00     0.167 HD
ATOM     63  C   UNL A   1      41.476  31.373  32.461  1.00  0.00     0.074 A 
ATOM     64  C   UNL A   1      41.390  32.468  31.501  1.00  0.00     0.031 C 
ATOM     65  C   UNL A   1      42.519  30.606  32.895  1.00  0.00     0.037 A 
BRANCH  52  66
ATOM     66  C   UNL A   1      45.028  32.989  28.841  1.00  0.00     0.057 A 
ATOM     67  C   UNL A   1      43.907  33.842  28.816  1.00  0.00     0.134 A 
ATOM     68  C   UNL A   1      46.272  33.649  28.922  1.00  0.00     0.134 A 
ATOM     69  F   UNL A   1      42.652  33.389  28.745  1.00  0.00    -0.206 F 
ATOM     70  C   UNL A   1      44.007  35.228  28.966  1.00  0.00     0.040 A 
ATOM     71  C   UNL A   1      46.380  35.030  29.122  1.00  0.00     0.040 A 
ATOM     72  F   UNL A   1      47.421  32.954  28.929  1.00  0.00    -0.206 F 
ATOM     73  C   UNL A   1      45.242  35.822  29.169  1.00  0.00     0.006 A 
ENDBRANCH  52  66
BRANCH  53  74
ATOM     74  C   UNL A   1      37.079  31.282  30.833  1.00  0.00     0.057 A 
ATOM     75  C   UNL A   1      36.615  31.952  29.690  1.00  0.00     0.134 A 
ATOM     76  C   UNL A   1      36.306  31.445  31.996  1.00  0.00     0.134 A 
ATOM     77  F   UNL A   1      37.305  31.922  28.542  1.00  0.00    -0.206 F 
ATOM     78  C   UNL A   1      35.474  32.762  29.707  1.00  0.00     0.040 A 
ATOM     79  C   UNL A   1      35.165  32.259  32.028  1.00  0.00     0.040 A 
ATOM     80  F   UNL A   1      36.680  30.876  33.151  1.00  0.00    -0.206 F 
ATOM     81  C   UNL A   1      34.755  32.933  30.884  1.00  0.00     0.006 A 
ENDBRANCH  53  74
BRANCH  65  82
ATOM     82  C   UNL A   1      42.221  29.534  33.901  1.00  0.00     0.057 A 
ATOM     83  C   UNL A   1      42.392  29.838  35.257  1.00  0.00     0.134 A 
ATOM     84  C   UNL A   1      41.859  28.216  33.584  1.00  0.00     0.134 A 
ATOM     85  F   UNL A   1      42.786  31.066  35.630  1.00  0.00    -0.206 F 
ATOM     86  C   UNL A   1      42.192  28.886  36.258  1.00  0.00     0.040 A 
ATOM     87  C   UNL A   1      41.618  27.264  34.581  1.00  0.00     0.040 A 
ATOM     88  F   UNL A   1      41.768  27.802  32.313  1.00  0.00    -0.206 F 
ATOM     89  C   UNL A   1      41.786  27.598  35.922  1.00  0.00     0.006 A 
ENDBRANCH  65  82
ENDBRANCH  39  40
ENDBRANCH  31  34
ENDBRANCH  29  30
ENDBRANCH  28  29
ENDBRANCH   1  28
TORSDOF 15
ENDMDL
MODEL 2
REMARK VINA RESULT:     -11.8      3.602      8.346
REMARK SMILES COc1ccc2c(c1)c(CC(=O)NCCCCNC(=O)c1ccc(-c3c4nc(c(-c5c(F)cccc5F)c5ccc([nH]5)c(-c5c(F)cccc5F)c5nc(c(-c6c(F)cccc6F)c6ccc3[nH]6)C=C5)C=C4)cc1)c(C)n2Cc1ccc(Br)cc1
REMARK SMILES IDX 15 1 14 2 13 3 11 4 12 5 10 7 9 8 3 9 4 10 8 11 5 12 7 13
REMARK SMILES IDX 6 14 77 15 75 16 76 17 2 18 1 19 78 20 79 21 80 22 85 23
REMARK SMILES IDX 81 24 84 25 82 26 83 27 16 28 17 29 18 30 19 31 20 33 21 34
REMARK SMILES IDX 22 35 74 36 23 37 73 38 24 39 25 40 26 41 67 42 27 43 72 44
REMARK SMILES IDX 66 45 68 46 28 47 71 48 65 49 64 50 29 52 55 53 38 54 54 55
REMARK SMILES IDX 39 56 42 57 53 58 69 59 40 60 41 61 52 63 70 64 43 65 30 66
REMARK SMILES IDX 31 67 36 68 32 69 33 70 35 71 37 72 34 73 56 74 57 75 62 76
REMARK SMILES IDX 58 77 59 78 61 79 63 80 60 81 44 82 45 83 50 84 46 85 47 86
REMARK SMILES IDX 49 87 51 88 48 89
REMARK H PARENT 13 6 18 32 68 51 42 62
REMARK Flexibility Score: inf
ROOT
ATOM      1  C   UNL A   1      35.726  31.396  27.771  1.00  0.00     0.023 C 
ENDROOT
BRANCH   1   2
ATOM      2  C   UNL A   1      35.562  29.878  27.866  1.00  0.00     0.116 C 
BRANCH   2   3
ATOM      3  N   UNL A   1      34.170  29.475  27.955  1.00  0.00    -0.356 N 
ATOM      4  C   UNL A   1      33.514  28.466  27.306  1.00  0.00     0.224 C 
ATOM      5  O   UNL A   1      32.317  28.301  27.562  1.00  0.00    -0.275 OA
ATOM      6  H   UNL A   1      33.618  30.005  28.573  1.00  0.00     0.163 HD
BRANCH   4   7
ATOM      7  C   UNL A   1      34.252  27.525  26.364  1.00  0.00     0.138 C 
BRANCH   7   8
ATOM      8  C   UNL A   1      33.355  26.863  25.364  1.00  0.00    -0.010 A 
ATOM      9  C   UNL A   1      31.762  23.578  26.471  1.00  0.00     0.119 A 
ATOM     10  C   UNL A   1      30.971  23.405  25.339  1.00  0.00     0.048 A 
ATOM     11  C   UNL A   1      32.560  24.716  26.599  1.00  0.00     0.057 A 
ATOM     12  C   UNL A   1      30.979  24.350  24.300  1.00  0.00     0.031 A 
ATOM     13  C   UNL A   1      32.618  25.659  25.550  1.00  0.00     0.007 A 
ATOM     14  C   UNL A   1      31.824  25.470  24.415  1.00  0.00     0.049 A 
ATOM     15  N   UNL A   1      32.055  26.554  23.577  1.00  0.00    -0.340 N 
ATOM     16  C   UNL A   1      33.140  27.270  24.053  1.00  0.00     0.020 A 
ATOM     17  C   UNL A   1      33.873  28.325  23.297  1.00  0.00     0.065 C 
BRANCH   9  18
ATOM     18  O   UNL A   1      31.772  22.725  27.542  1.00  0.00    -0.497 OA
ATOM     19  C   UNL A   1      33.067  22.284  27.934  1.00  0.00     0.278 C 
ENDBRANCH   9  18
BRANCH  15  20
ATOM     20  C   UNL A   1      31.309  26.840  22.348  1.00  0.00     0.157 C 
BRANCH  20  21
ATOM     21  C   UNL A   1      30.349  28.007  22.492  1.00  0.00    -0.028 A 
ATOM     22  C   UNL A   1      29.097  27.852  23.113  1.00  0.00     0.007 A 
ATOM     23  C   UNL A   1      30.702  29.284  22.031  1.00  0.00     0.007 A 
ATOM     24  C   UNL A   1      28.213  28.927  23.246  1.00  0.00     0.016 A 
ATOM     25  C   UNL A   1      29.830  30.370  22.189  1.00  0.00     0.016 A 
ATOM     26  C   UNL A   1      28.589  30.184  22.791  1.00  0.00     0.017 A 
ATOM     27  Br  UNL A   1      27.424  31.652  23.023  1.00  0.00    -0.051 Br
ENDBRANCH  20  21
ENDBRANCH  15  20
ENDBRANCH   7   8
ENDBRANCH   4   7
ENDBRANCH   2   3
ENDBRANCH   1   2
BRANCH   1  28
ATOM     28  C   UNL A   1      34.484  32.217  28.148  1.00  0.00     0.023 C 
BRANCH  28  29
ATOM     29  C   UNL A   1      34.693  33.250  29.254  1.00  0.00     0.116 C 
BRANCH  29  30
ATOM     30  N   UNL A   1      34.463  32.757  30.597  1.00  0.00    -0.352 N 
ATOM     31  C   UNL A   1      35.301  32.287  31.574  1.00  0.00     0.251 C 
ATOM     32  H   UNL A   1      33.515  32.760  30.862  1.00  0.00     0.163 HD
ATOM     33  O   UNL A   1      34.923  32.443  32.741  1.00  0.00    -0.269 OA
BRANCH  31  34
ATOM     34  C   UNL A   1      36.555  31.524  31.326  1.00  0.00     0.039 A 
ATOM     35  C   UNL A   1      37.793  32.080  31.014  1.00  0.00     0.014 A 
ATOM     36  C   UNL A   1      36.441  30.117  31.356  1.00  0.00     0.014 A 
ATOM     37  C   UNL A   1      38.869  31.254  30.697  1.00  0.00     0.010 A 
ATOM     38  C   UNL A   1      37.515  29.286  31.040  1.00  0.00     0.010 A 
ATOM     39  C   UNL A   1      38.730  29.857  30.690  1.00  0.00    -0.014 A 
BRANCH  39  40
ATOM     40  C   UNL A   1      39.946  29.065  30.496  1.00  0.00     0.031 A 
ATOM     41  C   UNL A   1      40.732  28.876  31.745  1.00  0.00     0.074 A 
ATOM     42  C   UNL A   1      40.353  28.474  29.354  1.00  0.00     0.049 A 
ATOM     43  N   UNL A   1      41.876  29.402  32.033  1.00  0.00    -0.248 NA
ATOM     44  C   UNL A   1      40.113  28.135  32.853  1.00  0.00     0.031 C 
ATOM     45  C   UNL A   1      39.609  28.309  28.106  1.00  0.00     0.029 A 
ATOM     46  N   UNL A   1      41.532  27.823  29.100  1.00  0.00    -0.354 N 
ATOM     47  C   UNL A   1      42.221  28.905  33.286  1.00  0.00     0.074 A 
ATOM     48  C   UNL A   1      41.043  28.260  33.803  1.00  0.00     0.031 C 
ATOM     49  C   UNL A   1      40.266  27.436  27.305  1.00  0.00     0.029 A 
ATOM     50  C   UNL A   1      41.539  27.089  27.919  1.00  0.00     0.049 A 
ATOM     51  H   UNL A   1      42.308  27.871  29.703  1.00  0.00     0.167 HD
ATOM     52  C   UNL A   1      43.524  28.857  33.677  1.00  0.00     0.037 A 
ATOM     53  C   UNL A   1      42.504  26.235  27.492  1.00  0.00     0.037 A 
ATOM     54  C   UNL A   1      44.337  29.743  32.877  1.00  0.00     0.049 A 
ATOM     55  C   UNL A   1      43.763  26.589  28.183  1.00  0.00     0.074 A 
ATOM     56  C   UNL A   1      44.369  31.099  32.614  1.00  0.00     0.029 A 
ATOM     57  N   UNL A   1      45.123  29.159  31.918  1.00  0.00    -0.354 N 
ATOM     58  N   UNL A   1      44.459  27.660  27.934  1.00  0.00    -0.248 NA
ATOM     59  C   UNL A   1      44.092  25.909  29.424  1.00  0.00     0.031 C 
ATOM     60  C   UNL A   1      44.810  31.209  31.260  1.00  0.00     0.029 A 
ATOM     61  C   UNL A   1      45.067  29.923  30.787  1.00  0.00     0.049 A 
ATOM     62  H   UNL A   1      45.642  28.329  32.027  1.00  0.00     0.167 HD
ATOM     63  C   UNL A   1      44.953  28.044  29.168  1.00  0.00     0.074 A 
ATOM     64  C   UNL A   1      44.828  26.857  30.008  1.00  0.00     0.031 C 
ATOM     65  C   UNL A   1      45.140  29.365  29.458  1.00  0.00     0.037 A 
BRANCH  52  66
ATOM     66  C   UNL A   1      44.139  27.682  34.416  1.00  0.00     0.057 A 
ATOM     67  C   UNL A   1      44.246  26.379  33.890  1.00  0.00     0.134 A 
ATOM     68  C   UNL A   1      44.982  27.948  35.514  1.00  0.00     0.134 A 
ATOM     69  F   UNL A   1      43.525  25.956  32.847  1.00  0.00    -0.206 F 
ATOM     70  C   UNL A   1      45.186  25.452  34.349  1.00  0.00     0.040 A 
ATOM     71  C   UNL A   1      45.960  27.046  35.948  1.00  0.00     0.040 A 
ATOM     72  F   UNL A   1      44.963  29.143  36.124  1.00  0.00    -0.206 F 
ATOM     73  C   UNL A   1      46.081  25.800  35.348  1.00  0.00     0.006 A 
ENDBRANCH  52  66
BRANCH  53  74
ATOM     74  C   UNL A   1      42.396  24.999  26.680  1.00  0.00     0.057 A 
ATOM     75  C   UNL A   1      41.824  23.829  27.203  1.00  0.00     0.134 A 
ATOM     76  C   UNL A   1      43.120  24.847  25.484  1.00  0.00     0.134 A 
ATOM     77  F   UNL A   1      41.168  23.842  28.371  1.00  0.00    -0.206 F 
ATOM     78  C   UNL A   1      41.987  22.579  26.596  1.00  0.00     0.040 A 
ATOM     79  C   UNL A   1      43.296  23.599  24.870  1.00  0.00     0.040 A 
ATOM     80  F   UNL A   1      43.736  25.895  24.919  1.00  0.00    -0.206 F 
ATOM     81  C   UNL A   1      42.740  22.457  25.435  1.00  0.00     0.006 A 
ENDBRANCH  53  74
BRANCH  65  82
ATOM     82  C   UNL A   1      45.204  30.326  28.308  1.00  0.00     0.057 A 
ATOM     83  C   UNL A   1      46.466  30.736  27.862  1.00  0.00     0.134 A 
ATOM     84  C   UNL A   1      44.089  30.914  27.693  1.00  0.00     0.134 A 
ATOM     85  F   UNL A   1      47.578  30.252  28.440  1.00  0.00    -0.206 F 
ATOM     86  C   UNL A   1      46.620  31.669  26.836  1.00  0.00     0.040 A 
ATOM     87  C   UNL A   1      44.230  31.821  26.637  1.00  0.00     0.040 A 
ATOM     88  F   UNL A   1      42.843  30.662  28.116  1.00  0.00    -0.206 F 
ATOM     89  C   UNL A   1      45.498  32.203  26.208  1.00  0.00     0.006 A 
ENDBRANCH  65  82
ENDBRANCH  39  40
ENDBRANCH  31  34
ENDBRANCH  29  30
ENDBRANCH  28  29
ENDBRANCH   1  28
TORSDOF 15
ENDMDL
MODEL 3
REMARK VINA RESULT:     -11.7      2.962      7.909
REMARK SMILES COc1ccc2c(c1)c(CC(=O)NCCCCNC(=O)c1ccc(-c3c4nc(c(-c5c(F)cccc5F)c5ccc([nH]5)c(-c5c(F)cccc5F)c5nc(c(-c6c(F)cccc6F)c6ccc3[nH]6)C=C5)C=C4)cc1)c(C)n2Cc1ccc(Br)cc1
REMARK SMILES IDX 15 1 14 2 13 3 11 4 12 5 10 7 9 8 3 9 4 10 8 11 5 12 7 13
REMARK SMILES IDX 6 14 77 15 75 16 76 17 2 18 1 19 78 20 79 21 80 22 85 23
REMARK SMILES IDX 81 24 84 25 82 26 83 27 16 28 17 29 18 30 19 31 20 33 21 34
REMARK SMILES IDX 22 35 74 36 23 37 73 38 24 39 25 40 26 41 67 42 27 43 72 44
REMARK SMILES IDX 66 45 68 46 28 47 71 48 65 49 64 50 29 52 55 53 38 54 54 55
REMARK SMILES IDX 39 56 42 57 53 58 69 59 40 60 41 61 52 63 70 64 43 65 30 66
REMARK SMILES IDX 31 67 36 68 32 69 33 70 35 71 37 72 34 73 56 74 57 75 62 76
REMARK SMILES IDX 58 77 59 78 61 79 63 80 60 81 44 82 45 83 50 84 46 85 47 86
REMARK SMILES IDX 49 87 51 88 48 89
REMARK H PARENT 13 6 18 32 68 51 42 62
REMARK Flexibility Score: inf
ROOT
ATOM      1  C   UNL A   1      31.604  27.927  26.497  1.00  0.00     0.023 C 
ENDROOT
BRANCH   1   2
ATOM      2  C   UNL A   1      31.186  26.593  25.877  1.00  0.00     0.116 C 
BRANCH   2   3
ATOM      3  N   UNL A   1      31.233  25.499  26.829  1.00  0.00    -0.356 N 
ATOM      4  C   UNL A   1      31.376  24.157  26.607  1.00  0.00     0.224 C 
ATOM      5  O   UNL A   1      31.406  23.411  27.591  1.00  0.00    -0.275 OA
ATOM      6  H   UNL A   1      31.149  25.761  27.774  1.00  0.00     0.163 HD
BRANCH   4   7
ATOM      7  C   UNL A   1      31.576  23.609  25.201  1.00  0.00     0.138 C 
BRANCH   7   8
ATOM      8  C   UNL A   1      32.911  22.962  25.001  1.00  0.00    -0.010 A 
ATOM      9  C   UNL A   1      32.995  19.166  25.370  1.00  0.00     0.119 A 
ATOM     10  C   UNL A   1      34.328  19.008  25.003  1.00  0.00     0.048 A 
ATOM     11  C   UNL A   1      32.413  20.434  25.360  1.00  0.00     0.057 A 
ATOM     12  C   UNL A   1      35.116  20.115  24.646  1.00  0.00     0.031 A 
ATOM     13  C   UNL A   1      33.194  21.567  25.046  1.00  0.00     0.007 A 
ATOM     14  C   UNL A   1      34.534  21.396  24.687  1.00  0.00     0.049 A 
ATOM     15  N   UNL A   1      35.039  22.659  24.402  1.00  0.00    -0.340 N 
ATOM     16  C   UNL A   1      34.122  23.614  24.808  1.00  0.00     0.020 A 
ATOM     17  C   UNL A   1      34.399  25.073  24.933  1.00  0.00     0.065 C 
BRANCH   9  18
ATOM     18  O   UNL A   1      32.155  18.131  25.684  1.00  0.00    -0.497 OA
ATOM     19  C   UNL A   1      32.516  16.881  25.107  1.00  0.00     0.278 C 
ENDBRANCH   9  18
BRANCH  15  20
ATOM     20  C   UNL A   1      36.363  22.926  23.831  1.00  0.00     0.157 C 
BRANCH  20  21
ATOM     21  C   UNL A   1      37.490  22.752  24.833  1.00  0.00    -0.028 A 
ATOM     22  C   UNL A   1      37.884  23.801  25.681  1.00  0.00     0.007 A 
ATOM     23  C   UNL A   1      38.152  21.521  24.958  1.00  0.00     0.007 A 
ATOM     24  C   UNL A   1      38.922  23.642  26.603  1.00  0.00     0.016 A 
ATOM     25  C   UNL A   1      39.173  21.348  25.901  1.00  0.00     0.016 A 
ATOM     26  C   UNL A   1      39.556  22.411  26.716  1.00  0.00     0.017 A 
ATOM     27  Br  UNL A   1      40.916  22.171  28.002  1.00  0.00    -0.051 Br
ENDBRANCH  20  21
ENDBRANCH  15  20
ENDBRANCH   7   8
ENDBRANCH   4   7
ENDBRANCH   2   3
ENDBRANCH   1   2
BRANCH   1  28
ATOM     28  C   UNL A   1      33.107  28.237  26.439  1.00  0.00     0.023 C 
BRANCH  28  29
ATOM     29  C   UNL A   1      33.466  29.664  26.025  1.00  0.00     0.116 C 
BRANCH  29  30
ATOM     30  N   UNL A   1      33.449  30.632  27.103  1.00  0.00    -0.352 N 
ATOM     31  C   UNL A   1      34.441  31.290  27.781  1.00  0.00     0.251 C 
ATOM     32  H   UNL A   1      32.543  30.864  27.410  1.00  0.00     0.163 HD
ATOM     33  O   UNL A   1      34.145  32.397  28.245  1.00  0.00    -0.269 OA
BRANCH  31  34
ATOM     34  C   UNL A   1      35.786  30.726  28.082  1.00  0.00     0.039 A 
ATOM     35  C   UNL A   1      36.140  29.383  27.991  1.00  0.00     0.014 A 
ATOM     36  C   UNL A   1      36.750  31.643  28.555  1.00  0.00     0.014 A 
ATOM     37  C   UNL A   1      37.403  28.964  28.405  1.00  0.00     0.010 A 
ATOM     38  C   UNL A   1      38.015  31.229  28.970  1.00  0.00     0.010 A 
ATOM     39  C   UNL A   1      38.337  29.881  28.913  1.00  0.00    -0.014 A 
BRANCH  39  40
ATOM     40  C   UNL A   1      39.687  29.380  29.179  1.00  0.00     0.031 A 
ATOM     41  C   UNL A   1      39.972  29.196  30.628  1.00  0.00     0.074 A 
ATOM     42  C   UNL A   1      40.616  29.033  28.265  1.00  0.00     0.049 A 
ATOM     43  N   UNL A   1      40.769  29.900  31.362  1.00  0.00    -0.248 NA
ATOM     44  C   UNL A   1      39.178  28.211  31.375  1.00  0.00     0.031 C 
ATOM     45  C   UNL A   1      40.451  28.882  26.821  1.00  0.00     0.029 A 
ATOM     46  N   UNL A   1      41.923  28.670  28.468  1.00  0.00    -0.354 N 
ATOM     47  C   UNL A   1      40.729  29.327  32.629  1.00  0.00     0.074 A 
ATOM     48  C   UNL A   1      39.629  28.399  32.618  1.00  0.00     0.031 C 
ATOM     49  C   UNL A   1      41.544  28.268  26.308  1.00  0.00     0.029 A 
ATOM     50  C   UNL A   1      42.540  28.108  27.356  1.00  0.00     0.049 A 
ATOM     51  H   UNL A   1      42.384  28.796  29.328  1.00  0.00     0.167 HD
ATOM     52  C   UNL A   1      41.765  29.493  33.496  1.00  0.00     0.037 A 
ATOM     53  C   UNL A   1      43.767  27.527  27.308  1.00  0.00     0.037 A 
ATOM     54  C   UNL A   1      42.585  30.618  33.114  1.00  0.00     0.049 A 
ATOM     55  C   UNL A   1      44.556  28.036  28.450  1.00  0.00     0.074 A 
ATOM     56  C   UNL A   1      42.393  31.975  32.938  1.00  0.00     0.029 A 
ATOM     57  N   UNL A   1      43.785  30.331  32.518  1.00  0.00    -0.354 N 
ATOM     58  N   UNL A   1      45.023  29.248  28.535  1.00  0.00    -0.248 NA
ATOM     59  C   UNL A   1      44.549  27.284  29.693  1.00  0.00     0.031 C 
ATOM     60  C   UNL A   1      43.268  32.343  31.870  1.00  0.00     0.029 A 
ATOM     61  C   UNL A   1      43.976  31.205  31.486  1.00  0.00     0.049 A 
ATOM     62  H   UNL A   1      44.405  29.615  32.788  1.00  0.00     0.167 HD
ATOM     63  C   UNL A   1      44.918  29.563  29.879  1.00  0.00     0.074 A 
ATOM     64  C   UNL A   1      44.770  28.279  30.555  1.00  0.00     0.031 C 
ATOM     65  C   UNL A   1      44.668  30.847  30.271  1.00  0.00     0.037 A 
BRANCH  52  66
ATOM     66  C   UNL A   1      42.317  28.381  34.370  1.00  0.00     0.057 A 
ATOM     67  C   UNL A   1      42.191  28.334  35.773  1.00  0.00     0.134 A 
ATOM     68  C   UNL A   1      42.642  27.150  33.764  1.00  0.00     0.134 A 
ATOM     69  F   UNL A   1      41.884  29.406  36.510  1.00  0.00    -0.206 F 
ATOM     70  C   UNL A   1      42.275  27.143  36.501  1.00  0.00     0.040 A 
ATOM     71  C   UNL A   1      42.679  25.946  34.476  1.00  0.00     0.040 A 
ATOM     72  F   UNL A   1      42.814  27.061  32.436  1.00  0.00    -0.206 F 
ATOM     73  C   UNL A   1      42.471  25.937  35.849  1.00  0.00     0.006 A 
ENDBRANCH  52  66
BRANCH  53  74
ATOM     74  C   UNL A   1      44.262  26.408  26.471  1.00  0.00     0.057 A 
ATOM     75  C   UNL A   1      43.881  25.081  26.725  1.00  0.00     0.134 A 
ATOM     76  C   UNL A   1      45.350  26.578  25.596  1.00  0.00     0.134 A 
ATOM     77  F   UNL A   1      42.900  24.797  27.592  1.00  0.00    -0.206 F 
ATOM     78  C   UNL A   1      44.558  23.988  26.173  1.00  0.00     0.040 A 
ATOM     79  C   UNL A   1      46.041  25.491  25.043  1.00  0.00     0.040 A 
ATOM     80  F   UNL A   1      45.816  27.803  25.314  1.00  0.00    -0.206 F 
ATOM     81  C   UNL A   1      45.654  24.190  25.343  1.00  0.00     0.006 A 
ENDBRANCH  53  74
BRANCH  65  82
ATOM     82  C   UNL A   1      44.928  31.939  29.277  1.00  0.00     0.057 A 
ATOM     83  C   UNL A   1      43.902  32.277  28.386  1.00  0.00     0.134 A 
ATOM     84  C   UNL A   1      46.155  32.600  29.114  1.00  0.00     0.134 A 
ATOM     85  F   UNL A   1      42.716  31.650  28.451  1.00  0.00    -0.206 F 
ATOM     86  C   UNL A   1      44.073  33.242  27.392  1.00  0.00     0.040 A 
ATOM     87  C   UNL A   1      46.327  33.596  28.147  1.00  0.00     0.040 A 
ATOM     88  F   UNL A   1      47.226  32.276  29.851  1.00  0.00    -0.206 F 
ATOM     89  C   UNL A   1      45.286  33.917  27.282  1.00  0.00     0.006 A 
ENDBRANCH  65  82
ENDBRANCH  39  40
ENDBRANCH  31  34
ENDBRANCH  29  30
ENDBRANCH  28  29
ENDBRANCH   1  28
TORSDOF 15
ENDMDL
