MODEL 1
REMARK VINA RESULT:     -10.9      0.000      0.000
REMARK SMILES CC(C)C[C@@H](NC(=O)c1cccnc1)C(=O)NCCCCNC(=O)c1ccc(-c2c3nc(c(-c4c(F)cccc4F)c4ccc([nH]4)c(-c4c(F)cccc4F)c4nc(c(-c5c(F)cccc5F)c5ccc2[nH]5)C=C4)C=C3)cc1
REMARK SMILES IDX 19 1 18 2 17 3 15 4 16 5 5 7 4 8 2 9 1 10 3 11 6 12 7 13
REMARK SMILES IDX 8 15 9 16 10 17 14 18 11 19 13 20 12 21 20 22 21 23 22 24
REMARK SMILES IDX 23 25 24 27 25 28 26 29 78 30 27 31 77 32 28 33 29 34 30 35
REMARK SMILES IDX 71 36 31 37 76 38 70 39 72 40 32 41 75 42 69 43 68 44 33 46
REMARK SMILES IDX 59 47 42 48 58 49 43 50 46 51 57 52 73 53 44 54 45 55 56 57
REMARK SMILES IDX 74 58 47 59 34 60 35 61 40 62 36 63 37 64 39 65 41 66 38 67
REMARK SMILES IDX 60 68 61 69 66 70 62 71 63 72 65 73 67 74 64 75 48 76 49 77
REMARK SMILES IDX 54 78 50 79 51 80 53 81 55 82 52 83
REMARK H PARENT 17 6 6 14 22 26 72 45 46 56
REMARK Flexibility Score: inf
ROOT
ATOM      1  C   UNL A   1      31.808  30.478  26.921  1.00  0.00     0.023 C 
ENDROOT
BRANCH   1   2
ATOM      2  C   UNL A   1      32.321  29.935  25.593  1.00  0.00     0.116 C 
BRANCH   2   3
ATOM      3  N   UNL A   1      31.317  30.077  24.554  1.00  0.00    -0.354 N 
ATOM      4  C   UNL A   1      30.907  29.183  23.610  1.00  0.00     0.242 C 
ATOM      5  O   UNL A   1      30.146  29.581  22.724  1.00  0.00    -0.273 OA
ATOM      6  H   UNL A   1      30.865  30.950  24.527  1.00  0.00     0.163 HD
BRANCH   4   7
ATOM      7  C   UNL A   1      31.482  27.751  23.567  1.00  0.00     0.171 C 
BRANCH   7   8
ATOM      8  C   UNL A   1      30.248  26.826  23.742  1.00  0.00     0.038 C 
BRANCH   8   9
ATOM      9  C   UNL A   1      30.131  25.998  25.032  1.00  0.00    -0.015 C 
ATOM     10  C   UNL A   1      30.564  24.553  24.813  1.00  0.00     0.007 C 
ATOM     11  C   UNL A   1      30.994  26.650  26.120  1.00  0.00     0.007 C 
ENDBRANCH   8   9
ENDBRANCH   7   8
BRANCH   7  12
ATOM     12  N   UNL A   1      32.277  27.436  22.367  1.00  0.00    -0.340 N 
ATOM     13  C   UNL A   1      32.990  26.306  22.032  1.00  0.00     0.253 C 
ATOM     14  H   UNL A   1      32.305  28.153  21.692  1.00  0.00     0.164 HD
ATOM     15  O   UNL A   1      33.323  26.126  20.865  1.00  0.00    -0.269 OA
BRANCH  13  16
ATOM     16  C   UNL A   1      33.522  25.403  23.063  1.00  0.00     0.058 A 
ATOM     17  C   UNL A   1      34.041  25.826  24.282  1.00  0.00     0.017 A 
ATOM     18  C   UNL A   1      33.560  24.045  22.765  1.00  0.00     0.124 A 
ATOM     19  C   UNL A   1      34.662  24.889  25.108  1.00  0.00     0.021 A 
ATOM     20  N   UNL A   1      34.167  23.115  23.543  1.00  0.00    -0.264 NA
ATOM     21  C   UNL A   1      34.713  23.565  24.694  1.00  0.00     0.111 A 
ENDBRANCH  13  16
ENDBRANCH   7  12
ENDBRANCH   4   7
ENDBRANCH   2   3
ENDBRANCH   1   2
BRANCH   1  22
ATOM     22  C   UNL A   1      31.426  31.960  26.877  1.00  0.00     0.023 C 
BRANCH  22  23
ATOM     23  C   UNL A   1      32.601  32.917  26.707  1.00  0.00     0.116 C 
BRANCH  23  24
ATOM     24  N   UNL A   1      32.449  34.128  27.499  1.00  0.00    -0.352 N 
ATOM     25  C   UNL A   1      33.155  34.514  28.612  1.00  0.00     0.251 C 
ATOM     26  H   UNL A   1      31.749  34.751  27.198  1.00  0.00     0.163 HD
ATOM     27  O   UNL A   1      32.806  35.490  29.268  1.00  0.00    -0.269 OA
BRANCH  25  28
ATOM     28  C   UNL A   1      34.323  33.717  29.027  1.00  0.00     0.039 A 
ATOM     29  C   UNL A   1      35.597  34.276  28.912  1.00  0.00     0.014 A 
ATOM     30  C   UNL A   1      34.150  32.440  29.569  1.00  0.00     0.014 A 
ATOM     31  C   UNL A   1      36.699  33.577  29.404  1.00  0.00     0.010 A 
ATOM     32  C   UNL A   1      35.241  31.773  30.115  1.00  0.00     0.010 A 
ATOM     33  C   UNL A   1      36.525  32.337  30.037  1.00  0.00    -0.014 A 
BRANCH  33  34
ATOM     34  C   UNL A   1      37.676  31.611  30.627  1.00  0.00     0.031 A 
ATOM     35  C   UNL A   1      38.118  31.917  32.030  1.00  0.00     0.074 A 
ATOM     36  C   UNL A   1      38.360  30.726  29.877  1.00  0.00     0.049 A 
ATOM     37  N   UNL A   1      39.134  31.434  32.699  1.00  0.00    -0.248 NA
ATOM     38  C   UNL A   1      37.328  32.915  32.768  1.00  0.00     0.031 C 
ATOM     39  C   UNL A   1      38.060  30.382  28.487  1.00  0.00     0.029 A 
ATOM     40  N   UNL A   1      39.458  29.961  30.180  1.00  0.00    -0.354 N 
ATOM     41  C   UNL A   1      39.113  32.078  33.929  1.00  0.00     0.074 A 
ATOM     42  C   UNL A   1      38.016  33.021  33.895  1.00  0.00     0.031 C 
ATOM     43  C   UNL A   1      38.941  29.462  28.062  1.00  0.00     0.029 A 
ATOM     44  C   UNL A   1      39.884  29.174  29.138  1.00  0.00     0.049 A 
ATOM     45  H   UNL A   1      39.899  29.975  31.060  1.00  0.00     0.167 HD
ATOM     46  C   UNL A   1      39.920  31.885  34.998  1.00  0.00     0.037 A 
ATOM     47  C   UNL A   1      40.921  28.319  29.060  1.00  0.00     0.037 A 
ATOM     48  C   UNL A   1      40.997  30.931  35.037  1.00  0.00     0.049 A 
ATOM     49  C   UNL A   1      41.799  28.116  30.262  1.00  0.00     0.074 A 
ATOM     50  C   UNL A   1      41.836  30.621  36.092  1.00  0.00     0.029 A 
ATOM     51  N   UNL A   1      41.381  30.133  33.971  1.00  0.00    -0.354 N 
ATOM     52  N   UNL A   1      41.728  28.684  31.442  1.00  0.00    -0.248 NA
ATOM     53  C   UNL A   1      42.896  27.148  30.125  1.00  0.00     0.031 C 
ATOM     54  C   UNL A   1      42.752  29.658  35.654  1.00  0.00     0.029 A 
ATOM     55  C   UNL A   1      42.456  29.341  34.336  1.00  0.00     0.049 A 
ATOM     56  H   UNL A   1      40.953  30.129  33.084  1.00  0.00     0.167 HD
ATOM     57  C   UNL A   1      42.753  28.127  32.194  1.00  0.00     0.074 A 
ATOM     58  C   UNL A   1      43.424  27.167  31.342  1.00  0.00     0.031 C 
ATOM     59  C   UNL A   1      43.108  28.387  33.477  1.00  0.00     0.037 A 
BRANCH  46  60
ATOM     60  C   UNL A   1      39.661  32.723  36.214  1.00  0.00     0.057 A 
ATOM     61  C   UNL A   1      40.356  33.918  36.446  1.00  0.00     0.134 A 
ATOM     62  C   UNL A   1      38.694  32.346  37.153  1.00  0.00     0.134 A 
ATOM     63  F   UNL A   1      41.305  34.328  35.591  1.00  0.00    -0.206 F 
ATOM     64  C   UNL A   1      40.118  34.692  37.583  1.00  0.00     0.040 A 
ATOM     65  C   UNL A   1      38.429  33.124  38.280  1.00  0.00     0.040 A 
ATOM     66  F   UNL A   1      37.989  31.215  36.989  1.00  0.00    -0.206 F 
ATOM     67  C   UNL A   1      39.147  34.298  38.501  1.00  0.00     0.006 A 
ENDBRANCH  46  60
BRANCH  47  68
ATOM     68  C   UNL A   1      41.169  27.569  27.804  1.00  0.00     0.057 A 
ATOM     69  C   UNL A   1      40.626  26.294  27.607  1.00  0.00     0.134 A 
ATOM     70  C   UNL A   1      41.951  28.106  26.774  1.00  0.00     0.134 A 
ATOM     71  F   UNL A   1      39.885  25.722  28.567  1.00  0.00    -0.206 F 
ATOM     72  C   UNL A   1      40.864  25.572  26.438  1.00  0.00     0.040 A 
ATOM     73  C   UNL A   1      42.179  27.403  25.590  1.00  0.00     0.040 A 
ATOM     74  F   UNL A   1      42.491  29.327  26.900  1.00  0.00    -0.206 F 
ATOM     75  C   UNL A   1      41.640  26.129  25.422  1.00  0.00     0.006 A 
ENDBRANCH  47  68
BRANCH  59  76
ATOM     76  C   UNL A   1      44.254  27.603  34.042  1.00  0.00     0.057 A 
ATOM     77  C   UNL A   1      45.567  28.088  34.008  1.00  0.00     0.134 A 
ATOM     78  C   UNL A   1      44.034  26.368  34.664  1.00  0.00     0.134 A 
ATOM     79  F   UNL A   1      45.844  29.259  33.414  1.00  0.00    -0.206 F 
ATOM     80  C   UNL A   1      46.625  27.361  34.556  1.00  0.00     0.040 A 
ATOM     81  C   UNL A   1      45.079  25.643  35.235  1.00  0.00     0.040 A 
ATOM     82  F   UNL A   1      42.798  25.852  34.736  1.00  0.00    -0.206 F 
ATOM     83  C   UNL A   1      46.381  26.138  35.177  1.00  0.00     0.006 A 
ENDBRANCH  59  76
ENDBRANCH  33  34
ENDBRANCH  25  28
ENDBRANCH  23  24
ENDBRANCH  22  23
ENDBRANCH   1  22
TORSDOF 15
ENDMDL
MODEL 2
REMARK VINA RESULT:     -10.9      4.876     10.023
REMARK SMILES CC(C)C[C@@H](NC(=O)c1cccnc1)C(=O)NCCCCNC(=O)c1ccc(-c2c3nc(c(-c4c(F)cccc4F)c4ccc([nH]4)c(-c4c(F)cccc4F)c4nc(c(-c5c(F)cccc5F)c5ccc2[nH]5)C=C4)C=C3)cc1
REMARK SMILES IDX 19 1 18 2 17 3 15 4 16 5 5 7 4 8 2 9 1 10 3 11 6 12 7 13
REMARK SMILES IDX 8 15 9 16 10 17 14 18 11 19 13 20 12 21 20 22 21 23 22 24
REMARK SMILES IDX 23 25 24 27 25 28 26 29 78 30 27 31 77 32 28 33 29 34 30 35
REMARK SMILES IDX 71 36 31 37 76 38 70 39 72 40 32 41 75 42 69 43 68 44 33 46
REMARK SMILES IDX 59 47 42 48 58 49 43 50 46 51 57 52 73 53 44 54 45 55 56 57
REMARK SMILES IDX 74 58 47 59 34 60 35 61 40 62 36 63 37 64 39 65 41 66 38 67
REMARK SMILES IDX 60 68 61 69 66 70 62 71 63 72 65 73 67 74 64 75 48 76 49 77
REMARK SMILES IDX 54 78 50 79 51 80 53 81 55 82 52 83
REMARK H PARENT 17 6 6 14 22 26 72 45 46 56
REMARK Flexibility Score: inf
ROOT
ATOM      1  C   UNL A   1      36.787  20.918  24.679  1.00  0.00     0.023 C 
ENDROOT
BRANCH   1   2
ATOM      2  C   UNL A   1      35.741  21.116  25.769  1.00  0.00     0.116 C 
BRANCH   2   3
ATOM      3  N   UNL A   1      34.574  20.289  25.523  1.00  0.00    -0.354 N 
ATOM      4  C   UNL A   1      33.262  20.642  25.416  1.00  0.00     0.242 C 
ATOM      5  O   UNL A   1      32.420  19.741  25.362  1.00  0.00    -0.273 OA
ATOM      6  H   UNL A   1      34.758  19.328  25.417  1.00  0.00     0.163 HD
BRANCH   4   7
ATOM      7  C   UNL A   1      32.826  22.120  25.500  1.00  0.00     0.171 C 
BRANCH   7   8
ATOM      8  C   UNL A   1      32.443  22.500  24.044  1.00  0.00     0.038 C 
BRANCH   8   9
ATOM      9  C   UNL A   1      33.518  23.132  23.146  1.00  0.00    -0.015 C 
ATOM     10  C   UNL A   1      32.900  23.982  22.042  1.00  0.00     0.007 C 
ATOM     11  C   UNL A   1      34.451  23.988  24.014  1.00  0.00     0.007 C 
ENDBRANCH   8   9
ENDBRANCH   7   8
BRANCH   7  12
ATOM     12  N   UNL A   1      31.755  22.399  26.473  1.00  0.00    -0.340 N 
ATOM     13  C   UNL A   1      30.858  23.442  26.549  1.00  0.00     0.253 C 
ATOM     14  H   UNL A   1      31.665  21.729  27.189  1.00  0.00     0.164 HD
ATOM     15  O   UNL A   1      29.858  23.328  27.250  1.00  0.00    -0.269 OA
BRANCH  13  16
ATOM     16  C   UNL A   1      31.162  24.756  25.961  1.00  0.00     0.058 A 
ATOM     17  C   UNL A   1      30.496  25.297  24.868  1.00  0.00     0.017 A 
ATOM     18  C   UNL A   1      32.226  25.467  26.505  1.00  0.00     0.124 A 
ATOM     19  C   UNL A   1      30.981  26.477  24.304  1.00  0.00     0.021 A 
ATOM     20  N   UNL A   1      32.726  26.609  25.970  1.00  0.00    -0.264 NA
ATOM     21  C   UNL A   1      32.094  27.081  24.873  1.00  0.00     0.111 A 
ENDBRANCH  13  16
ENDBRANCH   7  12
ENDBRANCH   4   7
ENDBRANCH   2   3
ENDBRANCH   1   2
BRANCH   1  22
ATOM     22  C   UNL A   1      37.778  19.789  24.970  1.00  0.00     0.023 C 
BRANCH  22  23
ATOM     23  C   UNL A   1      39.017  20.214  25.751  1.00  0.00     0.116 C 
BRANCH  23  24
ATOM     24  N   UNL A   1      40.019  19.161  25.814  1.00  0.00    -0.352 N 
ATOM     25  C   UNL A   1      41.370  19.280  26.031  1.00  0.00     0.251 C 
ATOM     26  H   UNL A   1      39.685  18.243  25.685  1.00  0.00     0.163 HD
ATOM     27  O   UNL A   1      42.114  18.313  25.900  1.00  0.00    -0.269 OA
BRANCH  25  28
ATOM     28  C   UNL A   1      41.920  20.599  26.394  1.00  0.00     0.039 A 
ATOM     29  C   UNL A   1      42.342  21.456  25.376  1.00  0.00     0.014 A 
ATOM     30  C   UNL A   1      41.974  20.999  27.732  1.00  0.00     0.014 A 
ATOM     31  C   UNL A   1      42.760  22.747  25.697  1.00  0.00     0.010 A 
ATOM     32  C   UNL A   1      42.330  22.306  28.043  1.00  0.00     0.010 A 
ATOM     33  C   UNL A   1      42.726  23.191  27.028  1.00  0.00    -0.014 A 
BRANCH  33  34
ATOM     34  C   UNL A   1      43.101  24.582  27.380  1.00  0.00     0.031 A 
ATOM     35  C   UNL A   1      44.541  25.007  27.335  1.00  0.00     0.074 A 
ATOM     36  C   UNL A   1      42.153  25.441  27.801  1.00  0.00     0.049 A 
ATOM     37  N   UNL A   1      45.074  26.156  27.661  1.00  0.00    -0.248 NA
ATOM     38  C   UNL A   1      45.513  23.996  26.887  1.00  0.00     0.031 C 
ATOM     39  C   UNL A   1      40.729  25.132  27.937  1.00  0.00     0.029 A 
ATOM     40  N   UNL A   1      42.251  26.750  28.202  1.00  0.00    -0.354 N 
ATOM     41  C   UNL A   1      46.441  26.004  27.472  1.00  0.00     0.074 A 
ATOM     42  C   UNL A   1      46.661  24.637  27.051  1.00  0.00     0.031 C 
ATOM     43  C   UNL A   1      40.082  26.226  28.373  1.00  0.00     0.029 A 
ATOM     44  C   UNL A   1      41.049  27.301  28.576  1.00  0.00     0.049 A 
ATOM     45  H   UNL A   1      43.100  27.247  28.221  1.00  0.00     0.167 HD
ATOM     46  C   UNL A   1      47.422  26.925  27.613  1.00  0.00     0.037 A 
ATOM     47  C   UNL A   1      40.761  28.534  29.033  1.00  0.00     0.037 A 
ATOM     48  C   UNL A   1      47.199  28.290  28.011  1.00  0.00     0.049 A 
ATOM     49  C   UNL A   1      41.866  29.542  29.175  1.00  0.00     0.074 A 
ATOM     50  C   UNL A   1      48.120  29.316  28.129  1.00  0.00     0.029 A 
ATOM     51  N   UNL A   1      45.965  28.818  28.355  1.00  0.00    -0.354 N 
ATOM     52  N   UNL A   1      43.147  29.404  28.929  1.00  0.00    -0.248 NA
ATOM     53  C   UNL A   1      41.485  30.879  29.651  1.00  0.00     0.031 C 
ATOM     54  C   UNL A   1      47.448  30.458  28.577  1.00  0.00     0.029 A 
ATOM     55  C   UNL A   1      46.101  30.152  28.702  1.00  0.00     0.049 A 
ATOM     56  H   UNL A   1      45.116  28.319  28.354  1.00  0.00     0.167 HD
ATOM     57  C   UNL A   1      43.720  30.640  29.197  1.00  0.00     0.074 A 
ATOM     58  C   UNL A   1      42.647  31.519  29.612  1.00  0.00     0.031 C 
ATOM     59  C   UNL A   1      45.020  31.013  29.107  1.00  0.00     0.037 A 
BRANCH  46  60
ATOM     60  C   UNL A   1      48.827  26.482  27.329  1.00  0.00     0.057 A 
ATOM     61  C   UNL A   1      49.659  25.982  28.340  1.00  0.00     0.134 A 
ATOM     62  C   UNL A   1      49.347  26.535  26.031  1.00  0.00     0.134 A 
ATOM     63  F   UNL A   1      49.224  25.918  29.608  1.00  0.00    -0.206 F 
ATOM     64  C   UNL A   1      50.968  25.578  28.075  1.00  0.00     0.040 A 
ATOM     65  C   UNL A   1      50.646  26.110  25.748  1.00  0.00     0.040 A 
ATOM     66  F   UNL A   1      48.602  26.999  25.016  1.00  0.00    -0.206 F 
ATOM     67  C   UNL A   1      51.463  25.636  26.773  1.00  0.00     0.006 A 
ENDBRANCH  46  60
BRANCH  47  68
ATOM     68  C   UNL A   1      39.360  28.892  29.365  1.00  0.00     0.057 A 
ATOM     69  C   UNL A   1      38.514  29.455  28.403  1.00  0.00     0.134 A 
ATOM     70  C   UNL A   1      38.834  28.680  30.645  1.00  0.00     0.134 A 
ATOM     71  F   UNL A   1      38.968  29.698  27.165  1.00  0.00    -0.206 F 
ATOM     72  C   UNL A   1      37.199  29.811  28.705  1.00  0.00     0.040 A 
ATOM     73  C   UNL A   1      37.514  29.011  30.955  1.00  0.00     0.040 A 
ATOM     74  F   UNL A   1      39.593  28.136  31.607  1.00  0.00    -0.206 F 
ATOM     75  C   UNL A   1      36.694  29.584  29.985  1.00  0.00     0.006 A 
ENDBRANCH  47  68
BRANCH  59  76
ATOM     76  C   UNL A   1      45.347  32.439  29.437  1.00  0.00     0.057 A 
ATOM     77  C   UNL A   1      45.736  32.827  30.724  1.00  0.00     0.134 A 
ATOM     78  C   UNL A   1      45.310  33.426  28.444  1.00  0.00     0.134 A 
ATOM     79  F   UNL A   1      45.778  31.930  31.721  1.00  0.00    -0.206 F 
ATOM     80  C   UNL A   1      46.059  34.153  31.017  1.00  0.00     0.040 A 
ATOM     81  C   UNL A   1      45.653  34.749  28.719  1.00  0.00     0.040 A 
ATOM     82  F   UNL A   1      44.953  33.117  27.188  1.00  0.00    -0.206 F 
ATOM     83  C   UNL A   1      46.025  35.116  30.011  1.00  0.00     0.006 A 
ENDBRANCH  59  76
ENDBRANCH  33  34
ENDBRANCH  25  28
ENDBRANCH  23  24
ENDBRANCH  22  23
ENDBRANCH   1  22
TORSDOF 15
ENDMDL
MODEL 3
REMARK VINA RESULT:     -10.8      4.963      9.147
REMARK SMILES CC(C)C[C@@H](NC(=O)c1cccnc1)C(=O)NCCCCNC(=O)c1ccc(-c2c3nc(c(-c4c(F)cccc4F)c4ccc([nH]4)c(-c4c(F)cccc4F)c4nc(c(-c5c(F)cccc5F)c5ccc2[nH]5)C=C4)C=C3)cc1
REMARK SMILES IDX 19 1 18 2 17 3 15 4 16 5 5 7 4 8 2 9 1 10 3 11 6 12 7 13
REMARK SMILES IDX 8 15 9 16 10 17 14 18 11 19 13 20 12 21 20 22 21 23 22 24
REMARK SMILES IDX 23 25 24 27 25 28 26 29 78 30 27 31 77 32 28 33 29 34 30 35
REMARK SMILES IDX 71 36 31 37 76 38 70 39 72 40 32 41 75 42 69 43 68 44 33 46
REMARK SMILES IDX 59 47 42 48 58 49 43 50 46 51 57 52 73 53 44 54 45 55 56 57
REMARK SMILES IDX 74 58 47 59 34 60 35 61 40 62 36 63 37 64 39 65 41 66 38 67
REMARK SMILES IDX 60 68 61 69 66 70 62 71 63 72 65 73 67 74 64 75 48 76 49 77
REMARK SMILES IDX 54 78 50 79 51 80 53 81 55 82 52 83
REMARK H PARENT 17 6 6 14 22 26 72 45 46 56
REMARK Flexibility Score: inf
ROOT
ATOM      1  C   UNL A   1      36.820  21.173  24.790  1.00  0.00     0.023 C 
ENDROOT
BRANCH   1   2
ATOM      2  C   UNL A   1      35.772  21.277  25.891  1.00  0.00     0.116 C 
BRANCH   2   3
ATOM      3  N   UNL A   1      34.644  20.406  25.614  1.00  0.00    -0.354 N 
ATOM      4  C   UNL A   1      33.320  20.708  25.489  1.00  0.00     0.242 C 
ATOM      5  O   UNL A   1      32.517  19.774  25.409  1.00  0.00    -0.273 OA
ATOM      6  H   UNL A   1      34.868  19.455  25.499  1.00  0.00     0.163 HD
BRANCH   4   7
ATOM      7  C   UNL A   1      32.823  22.166  25.584  1.00  0.00     0.171 C 
BRANCH   7   8
ATOM      8  C   UNL A   1      32.418  22.538  24.133  1.00  0.00     0.038 C 
BRANCH   8   9
ATOM      9  C   UNL A   1      33.476  23.175  23.218  1.00  0.00    -0.015 C 
ATOM     10  C   UNL A   1      32.836  23.951  22.072  1.00  0.00     0.007 C 
ATOM     11  C   UNL A   1      34.363  24.106  24.057  1.00  0.00     0.007 C 
ENDBRANCH   8   9
ENDBRANCH   7   8
BRANCH   7  12
ATOM     12  N   UNL A   1      31.746  22.394  26.564  1.00  0.00    -0.340 N 
ATOM     13  C   UNL A   1      30.817  23.407  26.659  1.00  0.00     0.253 C 
ATOM     14  H   UNL A   1      31.679  21.709  27.268  1.00  0.00     0.164 HD
ATOM     15  O   UNL A   1      29.823  23.249  27.360  1.00  0.00    -0.269 OA
BRANCH  13  16
ATOM     16  C   UNL A   1      31.077  24.739  26.094  1.00  0.00     0.058 A 
ATOM     17  C   UNL A   1      30.375  25.287  25.026  1.00  0.00     0.017 A 
ATOM     18  C   UNL A   1      32.136  25.464  26.630  1.00  0.00     0.124 A 
ATOM     19  C   UNL A   1      30.821  26.490  24.478  1.00  0.00     0.021 A 
ATOM     20  N   UNL A   1      32.597  26.628  26.110  1.00  0.00    -0.264 NA
ATOM     21  C   UNL A   1      31.931  27.108  25.037  1.00  0.00     0.111 A 
ENDBRANCH  13  16
ENDBRANCH   7  12
ENDBRANCH   4   7
ENDBRANCH   2   3
ENDBRANCH   1   2
BRANCH   1  22
ATOM     22  C   UNL A   1      37.803  20.015  24.978  1.00  0.00     0.023 C 
BRANCH  22  23
ATOM     23  C   UNL A   1      39.063  20.369  25.761  1.00  0.00     0.116 C 
BRANCH  23  24
ATOM     24  N   UNL A   1      39.992  19.252  25.849  1.00  0.00    -0.352 N 
ATOM     25  C   UNL A   1      41.342  19.282  26.096  1.00  0.00     0.251 C 
ATOM     26  H   UNL A   1      39.600  18.358  25.715  1.00  0.00     0.163 HD
ATOM     27  O   UNL A   1      42.023  18.268  25.983  1.00  0.00    -0.269 OA
BRANCH  25  28
ATOM     28  C   UNL A   1      41.971  20.563  26.466  1.00  0.00     0.039 A 
ATOM     29  C   UNL A   1      42.406  21.419  25.453  1.00  0.00     0.014 A 
ATOM     30  C   UNL A   1      42.085  20.932  27.810  1.00  0.00     0.014 A 
ATOM     31  C   UNL A   1      42.900  22.680  25.786  1.00  0.00     0.010 A 
ATOM     32  C   UNL A   1      42.518  22.212  28.136  1.00  0.00     0.010 A 
ATOM     33  C   UNL A   1      42.929  23.097  27.126  1.00  0.00    -0.014 A 
BRANCH  33  34
ATOM     34  C   UNL A   1      43.386  24.459  27.493  1.00  0.00     0.031 A 
ATOM     35  C   UNL A   1      42.386  25.503  27.902  1.00  0.00     0.074 A 
ATOM     36  C   UNL A   1      44.692  24.772  27.396  1.00  0.00     0.049 A 
ATOM     37  N   UNL A   1      42.581  26.762  28.201  1.00  0.00    -0.248 NA
ATOM     38  C   UNL A   1      40.977  25.081  27.958  1.00  0.00     0.031 C 
ATOM     39  C   UNL A   1      45.752  23.860  26.961  1.00  0.00     0.029 A 
ATOM     40  N   UNL A   1      45.348  25.951  27.647  1.00  0.00    -0.354 N 
ATOM     41  C   UNL A   1      41.323  27.285  28.466  1.00  0.00     0.074 A 
ATOM     42  C   UNL A   1      40.367  26.221  28.244  1.00  0.00     0.031 C 
ATOM     43  C   UNL A   1      46.928  24.508  26.993  1.00  0.00     0.029 A 
ATOM     44  C   UNL A   1      46.701  25.885  27.421  1.00  0.00     0.049 A 
ATOM     45  H   UNL A   1      44.893  26.765  27.960  1.00  0.00     0.167 HD
ATOM     46  C   UNL A   1      40.996  28.531  28.880  1.00  0.00     0.037 A 
ATOM     47  C   UNL A   1      47.651  26.832  27.541  1.00  0.00     0.037 A 
ATOM     48  C   UNL A   1      41.950  29.580  29.122  1.00  0.00     0.049 A 
ATOM     49  C   UNL A   1      47.264  28.207  28.010  1.00  0.00     0.074 A 
ATOM     50  C   UNL A   1      41.723  30.860  29.595  1.00  0.00     0.029 A 
ATOM     51  N   UNL A   1      43.315  29.469  28.906  1.00  0.00    -0.354 N 
ATOM     52  N   UNL A   1      46.077  28.669  28.321  1.00  0.00    -0.248 NA
ATOM     53  C   UNL A   1      48.349  29.188  28.150  1.00  0.00     0.031 C 
ATOM     54  C   UNL A   1      42.948  31.535  29.636  1.00  0.00     0.029 A 
ATOM     55  C   UNL A   1      43.943  30.661  29.222  1.00  0.00     0.049 A 
ATOM     56  H   UNL A   1      43.771  28.661  28.577  1.00  0.00     0.167 HD
ATOM     57  C   UNL A   1      46.274  29.985  28.716  1.00  0.00     0.074 A 
ATOM     58  C   UNL A   1      47.696  30.244  28.617  1.00  0.00     0.031 C 
ATOM     59  C   UNL A   1      45.359  30.899  29.123  1.00  0.00     0.037 A 
BRANCH  46  60
ATOM     60  C   UNL A   1      39.541  28.820  29.101  1.00  0.00     0.057 A 
ATOM     61  C   UNL A   1      38.716  29.281  28.066  1.00  0.00     0.134 A 
ATOM     62  C   UNL A   1      38.951  28.618  30.355  1.00  0.00     0.134 A 
ATOM     63  F   UNL A   1      39.223  29.508  26.844  1.00  0.00    -0.206 F 
ATOM     64  C   UNL A   1      37.365  29.557  28.276  1.00  0.00     0.040 A 
ATOM     65  C   UNL A   1      37.595  28.867  30.571  1.00  0.00     0.040 A 
ATOM     66  F   UNL A   1      39.683  28.175  31.389  1.00  0.00    -0.206 F 
ATOM     67  C   UNL A   1      36.799  29.344  29.532  1.00  0.00     0.006 A 
ENDBRANCH  46  60
BRANCH  47  68
ATOM     68  C   UNL A   1      49.066  26.504  27.240  1.00  0.00     0.057 A 
ATOM     69  C   UNL A   1      49.907  25.970  28.224  1.00  0.00     0.134 A 
ATOM     70  C   UNL A   1      49.611  26.713  25.968  1.00  0.00     0.134 A 
ATOM     71  F   UNL A   1      49.446  25.765  29.466  1.00  0.00    -0.206 F 
ATOM     72  C   UNL A   1      51.244  25.671  27.958  1.00  0.00     0.040 A 
ATOM     73  C   UNL A   1      50.940  26.398  25.682  1.00  0.00     0.040 A 
ATOM     74  F   UNL A   1      48.853  27.214  24.981  1.00  0.00    -0.206 F 
ATOM     75  C   UNL A   1      51.763  25.881  26.681  1.00  0.00     0.006 A 
ENDBRANCH  47  68
BRANCH  59  76
ATOM     76  C   UNL A   1      45.872  32.251  29.520  1.00  0.00     0.057 A 
ATOM     77  C   UNL A   1      45.961  33.304  28.601  1.00  0.00     0.134 A 
ATOM     78  C   UNL A   1      46.242  32.512  30.845  1.00  0.00     0.134 A 
ATOM     79  F   UNL A   1      45.634  33.112  27.314  1.00  0.00    -0.206 F 
ATOM     80  C   UNL A   1      46.420  34.565  28.983  1.00  0.00     0.040 A 
ATOM     81  C   UNL A   1      46.679  33.775  31.244  1.00  0.00     0.040 A 
ATOM     82  F   UNL A   1      46.173  31.547  31.775  1.00  0.00    -0.206 F 
ATOM     83  C   UNL A   1      46.774  34.805  30.310  1.00  0.00     0.006 A 
ENDBRANCH  59  76
ENDBRANCH  33  34
ENDBRANCH  25  28
ENDBRANCH  23  24
ENDBRANCH  22  23
ENDBRANCH   1  22
TORSDOF 15
ENDMDL
