MODEL 1
REMARK VINA RESULT:     -12.0      0.000      0.000
REMARK SMILES O=C(NCCCCNC(=O)[C@H]1CC[C@H](CNC(=O)c2ccccc2O)O1)c1ccc(-c2c3nc(c(-c4c(F)cccc4F)c4ccc([nH]4)c(-c4c(F)cccc4F)c4nc(c(-c5c(F)cccc5F)c5ccc2[nH]5)C=C4)C=C3)cc1
REMARK SMILES IDX 6 1 5 2 4 3 3 4 1 5 2 6 27 8 28 9 80 10 29 11 79 12 30 13
REMARK SMILES IDX 31 14 32 15 73 16 33 17 78 18 72 19 74 20 34 21 77 22 71 23
REMARK SMILES IDX 70 24 35 26 61 27 44 28 60 29 45 30 48 31 59 32 75 33 46 34
REMARK SMILES IDX 47 35 58 37 76 38 49 39 36 40 37 41 42 42 38 43 39 44 41 45
REMARK SMILES IDX 43 46 40 47 62 48 63 49 68 50 64 51 65 52 67 53 69 54 66 55
REMARK SMILES IDX 50 56 51 57 56 58 52 59 53 60 55 61 57 62 54 63 7 64 8 65
REMARK SMILES IDX 9 66 10 68 11 69 12 70 26 71 13 72 14 73 15 74 16 75 17 76
REMARK SMILES IDX 18 78 19 79 20 80 24 81 21 82 23 83 22 84 25 85
REMARK H PARENT 3 7 74 25 48 36 8 67 16 77 25 86
REMARK Flexibility Score: inf
ROOT
ATOM      1  C   UNL A   1      37.219  20.866  24.596  1.00  0.00     0.023 C 
ENDROOT
BRANCH   1   2
ATOM      2  C   UNL A   1      38.121  19.667  24.889  1.00  0.00     0.023 C 
BRANCH   2   3
ATOM      3  C   UNL A   1      39.092  19.845  26.051  1.00  0.00     0.116 C 
BRANCH   3   4
ATOM      4  N   UNL A   1      40.223  18.934  25.989  1.00  0.00    -0.352 N 
ATOM      5  O   UNL A   1      42.392  18.327  25.860  1.00  0.00    -0.269 OA
ATOM      6  C   UNL A   1      41.566  19.211  26.071  1.00  0.00     0.251 C 
ATOM      7  H   UNL A   1      39.993  17.983  25.872  1.00  0.00     0.163 HD
BRANCH   6   8
ATOM      8  C   UNL A   1      42.021  20.582  26.390  1.00  0.00     0.039 A 
ATOM      9  C   UNL A   1      42.237  21.519  25.376  1.00  0.00     0.014 A 
ATOM     10  C   UNL A   1      42.220  20.938  27.727  1.00  0.00     0.014 A 
ATOM     11  C   UNL A   1      42.769  22.766  25.688  1.00  0.00     0.010 A 
ATOM     12  C   UNL A   1      42.681  22.218  28.044  1.00  0.00     0.010 A 
ATOM     13  C   UNL A   1      42.980  23.135  27.026  1.00  0.00    -0.014 A 
BRANCH  13  14
ATOM     14  C   UNL A   1      43.431  24.514  27.342  1.00  0.00     0.031 A 
ATOM     15  C   UNL A   1      42.466  25.562  27.816  1.00  0.00     0.074 A 
ATOM     16  C   UNL A   1      44.736  24.812  27.192  1.00  0.00     0.049 A 
ATOM     17  N   UNL A   1      42.695  26.817  28.112  1.00  0.00    -0.248 NA
ATOM     18  C   UNL A   1      41.061  25.157  27.972  1.00  0.00     0.031 C 
ATOM     19  C   UNL A   1      45.763  23.878  26.721  1.00  0.00     0.029 A 
ATOM     20  N   UNL A   1      45.423  25.976  27.416  1.00  0.00    -0.354 N 
ATOM     21  C   UNL A   1      41.466  27.356  28.469  1.00  0.00     0.074 A 
ATOM     22  C   UNL A   1      40.488  26.297  28.336  1.00  0.00     0.031 C 
ATOM     23  C   UNL A   1      46.952  24.498  26.719  1.00  0.00     0.029 A 
ATOM     24  C   UNL A   1      46.763  25.884  27.128  1.00  0.00     0.049 A 
ATOM     25  H   UNL A   1      44.999  26.797  27.753  1.00  0.00     0.167 HD
ATOM     26  C   UNL A   1      41.186  28.618  28.876  1.00  0.00     0.037 A 
ATOM     27  C   UNL A   1      47.731  26.819  27.159  1.00  0.00     0.037 A 
ATOM     28  C   UNL A   1      42.170  29.660  29.025  1.00  0.00     0.049 A 
ATOM     29  C   UNL A   1      47.383  28.215  27.584  1.00  0.00     0.074 A 
ATOM     30  C   UNL A   1      41.992  30.951  29.494  1.00  0.00     0.029 A 
ATOM     31  N   UNL A   1      43.511  29.536  28.698  1.00  0.00    -0.354 N 
ATOM     32  N   UNL A   1      46.227  28.695  27.972  1.00  0.00    -0.248 NA
ATOM     33  C   UNL A   1      48.472  29.201  27.568  1.00  0.00     0.031 C 
ATOM     34  C   UNL A   1      43.216  31.622  29.404  1.00  0.00     0.029 A 
ATOM     35  C   UNL A   1      44.166  30.737  28.923  1.00  0.00     0.049 A 
ATOM     36  H   UNL A   1      43.936  28.715  28.358  1.00  0.00     0.167 HD
ATOM     37  C   UNL A   1      46.449  30.034  28.257  1.00  0.00     0.074 A 
ATOM     38  C   UNL A   1      47.855  30.285  28.018  1.00  0.00     0.031 C 
ATOM     39  C   UNL A   1      45.565  30.972  28.675  1.00  0.00     0.037 A 
BRANCH  26  40
ATOM     40  C   UNL A   1      39.754  28.957  29.174  1.00  0.00     0.057 A 
ATOM     41  C   UNL A   1      38.851  29.315  28.166  1.00  0.00     0.134 A 
ATOM     42  C   UNL A   1      39.258  28.855  30.480  1.00  0.00     0.134 A 
ATOM     43  F   UNL A   1      39.264  29.438  26.896  1.00  0.00    -0.206 F 
ATOM     44  C   UNL A   1      37.508  29.575  28.449  1.00  0.00     0.040 A 
ATOM     45  C   UNL A   1      37.913  29.091  30.772  1.00  0.00     0.040 A 
ATOM     46  F   UNL A   1      40.067  28.507  31.492  1.00  0.00    -0.206 F 
ATOM     47  C   UNL A   1      37.034  29.454  29.754  1.00  0.00     0.006 A 
ENDBRANCH  26  40
BRANCH  27  48
ATOM     48  C   UNL A   1      49.111  26.463  26.750  1.00  0.00     0.057 A 
ATOM     49  C   UNL A   1      50.023  25.925  27.665  1.00  0.00     0.134 A 
ATOM     50  C   UNL A   1      49.547  26.640  25.431  1.00  0.00     0.134 A 
ATOM     51  F   UNL A   1      49.668  25.748  28.947  1.00  0.00    -0.206 F 
ATOM     52  C   UNL A   1      51.323  25.589  27.287  1.00  0.00     0.040 A 
ATOM     53  C   UNL A   1      50.836  26.284  25.032  1.00  0.00     0.040 A 
ATOM     54  F   UNL A   1      48.717  27.144  24.505  1.00  0.00    -0.206 F 
ATOM     55  C   UNL A   1      51.730  25.762  25.964  1.00  0.00     0.006 A 
ENDBRANCH  27  48
BRANCH  39  56
ATOM     56  C   UNL A   1      46.100  32.352  28.912  1.00  0.00     0.057 A 
ATOM     57  C   UNL A   1      46.630  32.731  30.152  1.00  0.00     0.134 A 
ATOM     58  C   UNL A   1      46.116  33.300  27.883  1.00  0.00     0.134 A 
ATOM     59  F   UNL A   1      46.629  31.873  31.183  1.00  0.00    -0.206 F 
ATOM     60  C   UNL A   1      47.141  34.012  30.364  1.00  0.00     0.040 A 
ATOM     61  C   UNL A   1      46.646  34.577  28.075  1.00  0.00     0.040 A 
ATOM     62  F   UNL A   1      45.627  32.997  26.670  1.00  0.00    -0.206 F 
ATOM     63  C   UNL A   1      47.155  34.937  29.321  1.00  0.00     0.006 A 
ENDBRANCH  39  56
ENDBRANCH  13  14
ENDBRANCH   6   8
ENDBRANCH   3   4
ENDBRANCH   2   3
ENDBRANCH   1   2
BRANCH   1  64
ATOM     64  C   UNL A   1      36.039  21.051  25.546  1.00  0.00     0.116 C 
BRANCH  64  65
ATOM     65  N   UNL A   1      34.922  20.175  25.242  1.00  0.00    -0.354 N 
ATOM     66  C   UNL A   1      33.672  20.509  24.789  1.00  0.00     0.249 C 
ATOM     67  H   UNL A   1      35.083  19.214  25.379  1.00  0.00     0.163 HD
ATOM     68  O   UNL A   1      32.894  19.599  24.500  1.00  0.00    -0.272 OA
BRANCH  66  69
ATOM     69  C   UNL A   1      33.301  21.996  24.673  1.00  0.00     0.207 C 
ATOM     70  C   UNL A   1      33.912  22.689  23.469  1.00  0.00     0.045 C 
ATOM     71  O   UNL A   1      31.873  22.100  24.547  1.00  0.00    -0.363 OA
ATOM     72  C   UNL A   1      32.825  22.590  22.429  1.00  0.00     0.037 C 
ATOM     73  C   UNL A   1      31.551  22.662  23.256  1.00  0.00     0.138 C 
BRANCH  73  74
ATOM     74  C   UNL A   1      31.022  24.082  23.500  1.00  0.00     0.148 C 
BRANCH  74  75
ATOM     75  N   UNL A   1      30.585  24.331  24.861  1.00  0.00    -0.349 N 
ATOM     76  C   UNL A   1      30.057  25.475  25.406  1.00  0.00     0.255 C 
ATOM     77  H   UNL A   1      30.680  23.573  25.482  1.00  0.00     0.163 HD
ATOM     78  O   UNL A   1      29.777  25.503  26.603  1.00  0.00    -0.269 OA
BRANCH  76  79
ATOM     79  C   UNL A   1      29.904  26.705  24.599  1.00  0.00     0.081 A 
ATOM     80  C   UNL A   1      30.967  27.619  24.633  1.00  0.00     0.018 A 
ATOM     81  C   UNL A   1      28.752  27.011  23.865  1.00  0.00     0.128 A 
ATOM     82  C   UNL A   1      30.902  28.799  23.892  1.00  0.00     0.001 A 
ATOM     83  C   UNL A   1      28.694  28.187  23.113  1.00  0.00     0.047 A 
ATOM     84  C   UNL A   1      29.772  29.076  23.124  1.00  0.00     0.004 A 
BRANCH  81  85
ATOM     85  O   UNL A   1      27.675  26.168  23.875  1.00  0.00    -0.507 OA
ATOM     86  H   UNL A   1      27.258  25.951  24.685  1.00  0.00     0.293 HD
ENDBRANCH  81  85
ENDBRANCH  76  79
ENDBRANCH  74  75
ENDBRANCH  73  74
ENDBRANCH  66  69
ENDBRANCH  64  65
ENDBRANCH   1  64
TORSDOF 15
ENDMDL
MODEL 2
REMARK VINA RESULT:     -11.9      1.027      6.359
REMARK SMILES O=C(NCCCCNC(=O)[C@H]1CC[C@H](CNC(=O)c2ccccc2O)O1)c1ccc(-c2c3nc(c(-c4c(F)cccc4F)c4ccc([nH]4)c(-c4c(F)cccc4F)c4nc(c(-c5c(F)cccc5F)c5ccc2[nH]5)C=C4)C=C3)cc1
REMARK SMILES IDX 6 1 5 2 4 3 3 4 1 5 2 6 27 8 28 9 80 10 29 11 79 12 30 13
REMARK SMILES IDX 31 14 32 15 73 16 33 17 78 18 72 19 74 20 34 21 77 22 71 23
REMARK SMILES IDX 70 24 35 26 61 27 44 28 60 29 45 30 48 31 59 32 75 33 46 34
REMARK SMILES IDX 47 35 58 37 76 38 49 39 36 40 37 41 42 42 38 43 39 44 41 45
REMARK SMILES IDX 43 46 40 47 62 48 63 49 68 50 64 51 65 52 67 53 69 54 66 55
REMARK SMILES IDX 50 56 51 57 56 58 52 59 53 60 55 61 57 62 54 63 7 64 8 65
REMARK SMILES IDX 9 66 10 68 11 69 12 70 26 71 13 72 14 73 15 74 16 75 17 76
REMARK SMILES IDX 18 78 19 79 20 80 24 81 21 82 23 83 22 84 25 85
REMARK H PARENT 3 7 74 25 48 36 8 67 16 77 25 86
REMARK Flexibility Score: inf
ROOT
ATOM      1  C   UNL A   1      37.298  20.849  24.573  1.00  0.00     0.023 C 
ENDROOT
BRANCH   1   2
ATOM      2  C   UNL A   1      38.186  19.651  24.912  1.00  0.00     0.023 C 
BRANCH   2   3
ATOM      3  C   UNL A   1      39.198  19.879  26.029  1.00  0.00     0.116 C 
BRANCH   3   4
ATOM      4  N   UNL A   1      40.390  19.059  25.890  1.00  0.00    -0.352 N 
ATOM      5  O   UNL A   1      42.595  18.618  25.716  1.00  0.00    -0.269 OA
ATOM      6  C   UNL A   1      41.710  19.420  26.002  1.00  0.00     0.251 C 
ATOM      7  H   UNL A   1      40.227  18.108  25.688  1.00  0.00     0.163 HD
BRANCH   6   8
ATOM      8  C   UNL A   1      42.069  20.786  26.443  1.00  0.00     0.039 A 
ATOM      9  C   UNL A   1      42.165  21.098  27.802  1.00  0.00     0.014 A 
ATOM     10  C   UNL A   1      42.330  21.765  25.480  1.00  0.00     0.014 A 
ATOM     11  C   UNL A   1      42.396  22.411  28.197  1.00  0.00     0.010 A 
ATOM     12  C   UNL A   1      42.638  23.068  25.879  1.00  0.00     0.010 A 
ATOM     13  C   UNL A   1      42.653  23.406  27.240  1.00  0.00    -0.014 A 
BRANCH  13  14
ATOM     14  C   UNL A   1      43.019  24.774  27.688  1.00  0.00     0.031 A 
ATOM     15  C   UNL A   1      44.454  25.196  27.815  1.00  0.00     0.074 A 
ATOM     16  C   UNL A   1      42.029  25.638  27.983  1.00  0.00     0.049 A 
ATOM     17  N   UNL A   1      44.941  26.344  28.213  1.00  0.00    -0.248 NA
ATOM     18  C   UNL A   1      45.478  24.203  27.458  1.00  0.00     0.031 C 
ATOM     19  C   UNL A   1      40.597  25.333  27.913  1.00  0.00     0.029 A 
ATOM     20  N   UNL A   1      42.070  26.943  28.400  1.00  0.00    -0.354 N 
ATOM     21  C   UNL A   1      46.323  26.208  28.175  1.00  0.00     0.074 A 
ATOM     22  C   UNL A   1      46.599  24.858  27.731  1.00  0.00     0.031 C 
ATOM     23  C   UNL A   1      39.898  26.427  28.247  1.00  0.00     0.029 A 
ATOM     24  C   UNL A   1      40.828  27.489  28.613  1.00  0.00     0.049 A 
ATOM     25  H   UNL A   1      42.908  27.441  28.533  1.00  0.00     0.167 HD
ATOM     26  C   UNL A   1      47.269  27.129  28.477  1.00  0.00     0.037 A 
ATOM     27  C   UNL A   1      40.473  28.700  29.079  1.00  0.00     0.037 A 
ATOM     28  C   UNL A   1      46.985  28.477  28.899  1.00  0.00     0.049 A 
ATOM     29  C   UNL A   1      41.544  29.688  29.435  1.00  0.00     0.074 A 
ATOM     30  C   UNL A   1      47.876  29.503  29.164  1.00  0.00     0.029 A 
ATOM     31  N   UNL A   1      45.714  28.984  29.127  1.00  0.00    -0.354 N 
ATOM     32  N   UNL A   1      42.845  29.563  29.340  1.00  0.00    -0.248 NA
ATOM     33  C   UNL A   1      41.100  30.982  29.970  1.00  0.00     0.031 C 
ATOM     34  C   UNL A   1      47.148  30.615  29.600  1.00  0.00     0.029 A 
ATOM     35  C   UNL A   1      45.801  30.297  29.563  1.00  0.00     0.049 A 
ATOM     36  H   UNL A   1      44.875  28.485  28.998  1.00  0.00     0.167 HD
ATOM     37  C   UNL A   1      43.376  30.762  29.791  1.00  0.00     0.074 A 
ATOM     38  C   UNL A   1      42.254  31.611  30.140  1.00  0.00     0.031 C 
ATOM     39  C   UNL A   1      44.675  31.126  29.910  1.00  0.00     0.037 A 
BRANCH  26  40
ATOM     40  C   UNL A   1      48.709  26.713  28.383  1.00  0.00     0.057 A 
ATOM     41  C   UNL A   1      49.389  26.146  29.468  1.00  0.00     0.134 A 
ATOM     42  C   UNL A   1      49.400  26.818  27.169  1.00  0.00     0.134 A 
ATOM     43  F   UNL A   1      48.786  26.024  30.660  1.00  0.00    -0.206 F 
ATOM     44  C   UNL A   1      50.712  25.712  29.352  1.00  0.00     0.040 A 
ATOM     45  C   UNL A   1      50.715  26.368  27.036  1.00  0.00     0.040 A 
ATOM     46  F   UNL A   1      48.804  27.343  26.089  1.00  0.00    -0.206 F 
ATOM     47  C   UNL A   1      51.375  25.814  28.130  1.00  0.00     0.006 A 
ENDBRANCH  26  40
BRANCH  27  48
ATOM     48  C   UNL A   1      39.038  29.028  29.258  1.00  0.00     0.057 A 
ATOM     49  C   UNL A   1      38.395  28.825  30.484  1.00  0.00     0.134 A 
ATOM     50  C   UNL A   1      38.279  29.565  28.211  1.00  0.00     0.134 A 
ATOM     51  F   UNL A   1      39.065  28.298  31.519  1.00  0.00    -0.206 F 
ATOM     52  C   UNL A   1      37.044  29.130  30.658  1.00  0.00     0.040 A 
ATOM     53  C   UNL A   1      36.935  29.900  28.378  1.00  0.00     0.040 A 
ATOM     54  F   UNL A   1      38.841  29.790  27.014  1.00  0.00    -0.206 F 
ATOM     55  C   UNL A   1      36.313  29.677  29.604  1.00  0.00     0.006 A 
ENDBRANCH  27  48
BRANCH  39  56
ATOM     56  C   UNL A   1      44.950  32.506  30.427  1.00  0.00     0.057 A 
ATOM     57  C   UNL A   1      45.005  33.613  29.571  1.00  0.00     0.134 A 
ATOM     58  C   UNL A   1      45.128  32.735  31.796  1.00  0.00     0.134 A 
ATOM     59  F   UNL A   1      44.859  33.456  28.247  1.00  0.00    -0.206 F 
ATOM     60  C   UNL A   1      45.247  34.898  30.058  1.00  0.00     0.040 A 
ATOM     61  C   UNL A   1      45.346  34.019  32.298  1.00  0.00     0.040 A 
ATOM     62  F   UNL A   1      45.082  31.717  32.669  1.00  0.00    -0.206 F 
ATOM     63  C   UNL A   1      45.411  35.104  31.427  1.00  0.00     0.006 A 
ENDBRANCH  39  56
ENDBRANCH  13  14
ENDBRANCH   6   8
ENDBRANCH   3   4
ENDBRANCH   2   3
ENDBRANCH   1   2
BRANCH   1  64
ATOM     64  C   UNL A   1      36.068  21.029  25.458  1.00  0.00     0.116 C 
BRANCH  64  65
ATOM     65  N   UNL A   1      34.981  20.131  25.110  1.00  0.00    -0.354 N 
ATOM     66  C   UNL A   1      33.724  20.444  24.664  1.00  0.00     0.249 C 
ATOM     67  H   UNL A   1      35.172  19.171  25.207  1.00  0.00     0.163 HD
ATOM     68  O   UNL A   1      32.977  19.523  24.331  1.00  0.00    -0.272 OA
BRANCH  66  69
ATOM     69  C   UNL A   1      33.305  21.922  24.610  1.00  0.00     0.207 C 
ATOM     70  C   UNL A   1      33.966  22.706  23.490  1.00  0.00     0.045 C 
ATOM     71  O   UNL A   1      31.886  21.985  24.396  1.00  0.00    -0.363 OA
ATOM     72  C   UNL A   1      32.952  22.633  22.377  1.00  0.00     0.037 C 
ATOM     73  C   UNL A   1      31.626  22.612  23.120  1.00  0.00     0.138 C 
BRANCH  73  74
ATOM     74  C   UNL A   1      31.030  23.997  23.410  1.00  0.00     0.148 C 
BRANCH  74  75
ATOM     75  N   UNL A   1      30.590  24.184  24.781  1.00  0.00    -0.349 N 
ATOM     76  C   UNL A   1      30.065  25.303  25.378  1.00  0.00     0.255 C 
ATOM     77  H   UNL A   1      30.680  23.396  25.365  1.00  0.00     0.163 HD
ATOM     78  O   UNL A   1      29.782  25.275  26.574  1.00  0.00    -0.269 OA
BRANCH  76  79
ATOM     79  C   UNL A   1      29.920  26.570  24.629  1.00  0.00     0.081 A 
ATOM     80  C   UNL A   1      30.955  27.506  24.765  1.00  0.00     0.018 A 
ATOM     81  C   UNL A   1      28.798  26.887  23.855  1.00  0.00     0.128 A 
ATOM     82  C   UNL A   1      30.896  28.722  24.084  1.00  0.00     0.001 A 
ATOM     83  C   UNL A   1      28.746  28.100  23.163  1.00  0.00     0.047 A 
ATOM     84  C   UNL A   1      29.798  29.013  23.275  1.00  0.00     0.004 A 
BRANCH  81  85
ATOM     85  O   UNL A   1      27.744  26.019  23.766  1.00  0.00    -0.507 OA
ATOM     86  H   UNL A   1      26.868  26.338  23.853  1.00  0.00     0.293 HD
ENDBRANCH  81  85
ENDBRANCH  76  79
ENDBRANCH  74  75
ENDBRANCH  73  74
ENDBRANCH  66  69
ENDBRANCH  64  65
ENDBRANCH   1  64
TORSDOF 15
ENDMDL
MODEL 3
REMARK VINA RESULT:     -11.8      5.428     10.139
REMARK SMILES O=C(NCCCCNC(=O)[C@H]1CC[C@H](CNC(=O)c2ccccc2O)O1)c1ccc(-c2c3nc(c(-c4c(F)cccc4F)c4ccc([nH]4)c(-c4c(F)cccc4F)c4nc(c(-c5c(F)cccc5F)c5ccc2[nH]5)C=C4)C=C3)cc1
REMARK SMILES IDX 6 1 5 2 4 3 3 4 1 5 2 6 27 8 28 9 80 10 29 11 79 12 30 13
REMARK SMILES IDX 31 14 32 15 73 16 33 17 78 18 72 19 74 20 34 21 77 22 71 23
REMARK SMILES IDX 70 24 35 26 61 27 44 28 60 29 45 30 48 31 59 32 75 33 46 34
REMARK SMILES IDX 47 35 58 37 76 38 49 39 36 40 37 41 42 42 38 43 39 44 41 45
REMARK SMILES IDX 43 46 40 47 62 48 63 49 68 50 64 51 65 52 67 53 69 54 66 55
REMARK SMILES IDX 50 56 51 57 56 58 52 59 53 60 55 61 57 62 54 63 7 64 8 65
REMARK SMILES IDX 9 66 10 68 11 69 12 70 26 71 13 72 14 73 15 74 16 75 17 76
REMARK SMILES IDX 18 78 19 79 20 80 24 81 21 82 23 83 22 84 25 85
REMARK H PARENT 3 7 74 25 48 36 8 67 16 77 25 86
REMARK Flexibility Score: inf
ROOT
ATOM      1  C   UNL A   1      31.999  30.501  27.177  1.00  0.00     0.023 C 
ENDROOT
BRANCH   1   2
ATOM      2  C   UNL A   1      31.602  31.961  26.956  1.00  0.00     0.023 C 
BRANCH   2   3
ATOM      3  C   UNL A   1      32.759  32.950  26.866  1.00  0.00     0.116 C 
BRANCH   3   4
ATOM      4  N   UNL A   1      32.499  34.193  27.572  1.00  0.00    -0.352 N 
ATOM      5  O   UNL A   1      32.656  35.702  29.241  1.00  0.00    -0.269 OA
ATOM      6  C   UNL A   1      33.101  34.693  28.701  1.00  0.00     0.251 C 
ATOM      7  H   UNL A   1      31.791  34.758  27.185  1.00  0.00     0.163 HD
BRANCH   6   8
ATOM      8  C   UNL A   1      34.272  34.001  29.284  1.00  0.00     0.039 A 
ATOM      9  C   UNL A   1      35.572  34.423  28.990  1.00  0.00     0.014 A 
ATOM     10  C   UNL A   1      34.064  32.924  30.150  1.00  0.00     0.014 A 
ATOM     11  C   UNL A   1      36.659  33.693  29.459  1.00  0.00     0.010 A 
ATOM     12  C   UNL A   1      35.159  32.239  30.683  1.00  0.00     0.010 A 
ATOM     13  C   UNL A   1      36.464  32.605  30.325  1.00  0.00    -0.014 A 
BRANCH  13  14
ATOM     14  C   UNL A   1      37.643  31.918  30.912  1.00  0.00     0.031 A 
ATOM     15  C   UNL A   1      38.394  30.866  30.148  1.00  0.00     0.074 A 
ATOM     16  C   UNL A   1      38.028  32.257  32.157  1.00  0.00     0.049 A 
ATOM     17  N   UNL A   1      39.428  30.157  30.525  1.00  0.00    -0.248 NA
ATOM     18  C   UNL A   1      37.924  30.562  28.788  1.00  0.00     0.031 C 
ATOM     19  C   UNL A   1      37.364  33.253  33.002  1.00  0.00     0.029 A 
ATOM     20  N   UNL A   1      39.067  31.807  32.930  1.00  0.00    -0.354 N 
ATOM     21  C   UNL A   1      39.720  29.312  29.463  1.00  0.00     0.074 A 
ATOM     22  C   UNL A   1      38.743  29.582  28.429  1.00  0.00     0.031 C 
ATOM     23  C   UNL A   1      38.026  33.358  34.162  1.00  0.00     0.029 A 
ATOM     24  C   UNL A   1      39.122  32.397  34.169  1.00  0.00     0.049 A 
ATOM     25  H   UNL A   1      39.711  31.128  32.626  1.00  0.00     0.167 HD
ATOM     26  C   UNL A   1      40.717  28.399  29.361  1.00  0.00     0.037 A 
ATOM     27  C   UNL A   1      39.945  32.170  35.210  1.00  0.00     0.037 A 
ATOM     28  C   UNL A   1      41.698  28.151  30.387  1.00  0.00     0.049 A 
ATOM     29  C   UNL A   1      41.019  31.132  35.078  1.00  0.00     0.074 A 
ATOM     30  C   UNL A   1      42.784  27.294  30.350  1.00  0.00     0.029 A 
ATOM     31  N   UNL A   1      41.705  28.750  31.638  1.00  0.00    -0.354 N 
ATOM     32  N   UNL A   1      41.317  30.380  34.047  1.00  0.00    -0.248 NA
ATOM     33  C   UNL A   1      41.867  30.904  36.256  1.00  0.00     0.031 C 
ATOM     34  C   UNL A   1      43.420  27.338  31.595  1.00  0.00     0.029 A 
ATOM     35  C   UNL A   1      42.757  28.256  32.393  1.00  0.00     0.049 A 
ATOM     36  H   UNL A   1      41.059  29.427  31.944  1.00  0.00     0.167 HD
ATOM     37  C   UNL A   1      42.392  29.599  34.445  1.00  0.00     0.074 A 
ATOM     38  C   UNL A   1      42.708  29.983  35.805  1.00  0.00     0.031 C 
ATOM     39  C   UNL A   1      43.054  28.645  33.747  1.00  0.00     0.037 A 
BRANCH  26  40
ATOM     40  C   UNL A   1      40.794  27.581  28.105  1.00  0.00     0.057 A 
ATOM     41  C   UNL A   1      41.541  27.995  26.996  1.00  0.00     0.134 A 
ATOM     42  C   UNL A   1      40.169  26.330  28.032  1.00  0.00     0.134 A 
ATOM     43  F   UNL A   1      42.159  29.186  26.997  1.00  0.00    -0.206 F 
ATOM     44  C   UNL A   1      41.651  27.200  25.852  1.00  0.00     0.040 A 
ATOM     45  C   UNL A   1      40.289  25.517  26.904  1.00  0.00     0.040 A 
ATOM     46  F   UNL A   1      39.445  25.869  29.064  1.00  0.00    -0.206 F 
ATOM     47  C   UNL A   1      41.031  25.952  25.809  1.00  0.00     0.006 A 
ENDBRANCH  26  40
BRANCH  27  48
ATOM     48  C   UNL A   1      39.761  32.927  36.472  1.00  0.00     0.057 A 
ATOM     49  C   UNL A   1      38.811  32.535  37.421  1.00  0.00     0.134 A 
ATOM     50  C   UNL A   1      40.540  34.054  36.763  1.00  0.00     0.134 A 
ATOM     51  F   UNL A   1      38.025  31.473  37.190  1.00  0.00    -0.206 F 
ATOM     52  C   UNL A   1      38.633  33.244  38.610  1.00  0.00     0.040 A 
ATOM     53  C   UNL A   1      40.391  34.757  37.959  1.00  0.00     0.040 A 
ATOM     54  F   UNL A   1      41.473  34.476  35.895  1.00  0.00    -0.206 F 
ATOM     55  C   UNL A   1      39.430  34.355  38.884  1.00  0.00     0.006 A 
ENDBRANCH  27  48
BRANCH  39  56
ATOM     56  C   UNL A   1      44.194  27.963  34.442  1.00  0.00     0.057 A 
ATOM     57  C   UNL A   1      45.485  28.505  34.440  1.00  0.00     0.134 A 
ATOM     58  C   UNL A   1      43.992  26.771  35.146  1.00  0.00     0.134 A 
ATOM     59  F   UNL A   1      45.747  29.637  33.769  1.00  0.00    -0.206 F 
ATOM     60  C   UNL A   1      46.540  27.874  35.101  1.00  0.00     0.040 A 
ATOM     61  C   UNL A   1      45.034  26.143  35.831  1.00  0.00     0.040 A 
ATOM     62  F   UNL A   1      42.777  26.203  35.190  1.00  0.00    -0.206 F 
ATOM     63  C   UNL A   1      46.314  26.692  35.805  1.00  0.00     0.006 A 
ENDBRANCH  39  56
ENDBRANCH  13  14
ENDBRANCH   6   8
ENDBRANCH   3   4
ENDBRANCH   2   3
ENDBRANCH   1   2
BRANCH   1  64
ATOM     64  C   UNL A   1      33.472  30.177  26.946  1.00  0.00     0.116 C 
BRANCH  64  65
ATOM     65  N   UNL A   1      33.730  28.752  26.834  1.00  0.00    -0.354 N 
ATOM     66  C   UNL A   1      33.471  27.917  25.779  1.00  0.00     0.249 C 
ATOM     67  H   UNL A   1      34.146  28.330  27.620  1.00  0.00     0.163 HD
ATOM     68  O   UNL A   1      33.858  26.750  25.851  1.00  0.00    -0.272 OA
BRANCH  66  69
ATOM     69  C   UNL A   1      32.707  28.472  24.567  1.00  0.00     0.207 C 
ATOM     70  C   UNL A   1      33.189  27.927  23.235  1.00  0.00     0.045 C 
ATOM     71  O   UNL A   1      31.322  28.113  24.700  1.00  0.00    -0.363 OA
ATOM     72  C   UNL A   1      32.258  26.769  22.982  1.00  0.00     0.037 C 
ATOM     73  C   UNL A   1      30.955  27.230  23.616  1.00  0.00     0.138 C 
BRANCH  73  74
ATOM     74  C   UNL A   1      30.030  28.023  22.681  1.00  0.00     0.148 C 
BRANCH  74  75
ATOM     75  N   UNL A   1      28.622  27.942  23.024  1.00  0.00    -0.349 N 
ATOM     76  C   UNL A   1      27.676  28.937  23.042  1.00  0.00     0.255 C 
ATOM     77  H   UNL A   1      28.299  27.048  23.280  1.00  0.00     0.163 HD
ATOM     78  O   UNL A   1      26.529  28.676  23.399  1.00  0.00    -0.269 OA
BRANCH  76  79
ATOM     79  C   UNL A   1      28.034  30.336  22.726  1.00  0.00     0.081 A 
ATOM     80  C   UNL A   1      28.367  31.163  23.808  1.00  0.00     0.018 A 
ATOM     81  C   UNL A   1      28.005  30.870  21.432  1.00  0.00     0.128 A 
ATOM     82  C   UNL A   1      28.724  32.494  23.592  1.00  0.00     0.001 A 
ATOM     83  C   UNL A   1      28.375  32.199  21.215  1.00  0.00     0.047 A 
ATOM     84  C   UNL A   1      28.740  33.007  22.295  1.00  0.00     0.004 A 
BRANCH  81  85
ATOM     85  O   UNL A   1      27.615  30.101  20.370  1.00  0.00    -0.507 OA
ATOM     86  H   UNL A   1      26.953  30.413  19.785  1.00  0.00     0.293 HD
ENDBRANCH  81  85
ENDBRANCH  76  79
ENDBRANCH  74  75
ENDBRANCH  73  74
ENDBRANCH  66  69
ENDBRANCH  64  65
ENDBRANCH   1  64
TORSDOF 15
ENDMDL
