MODEL 1
REMARK VINA RESULT:     -12.5      0.000      0.000
REMARK SMILES O=C(NCCCCNC(=O)c1ccc(-n2cccc2/C=N/NC(=O)c2cccs2)cc1)c1ccc(-c2c3nc(c(-c4c(F)cccc4F)c4ccc([nH]4)c(-c4c(F)cccc4F)c4nc(c(-c5c(F)cccc5F)c5ccc2[nH]5)C=C4)C=C3)cc1
REMARK SMILES IDX 6 1 5 2 4 3 3 4 1 5 2 6 32 8 33 9 85 10 34 11 84 12 35 13
REMARK SMILES IDX 36 14 37 15 78 16 38 17 83 18 77 19 79 20 39 21 82 22 76 23
REMARK SMILES IDX 75 24 40 26 66 27 49 28 65 29 50 30 53 31 64 32 80 33 51 34
REMARK SMILES IDX 52 35 63 37 81 38 54 39 41 40 42 41 47 42 43 43 44 44 46 45
REMARK SMILES IDX 48 46 45 47 67 48 68 49 73 50 69 51 70 52 72 53 74 54 71 55
REMARK SMILES IDX 55 56 56 57 61 58 57 59 58 60 60 61 62 62 59 63 7 64 8 65
REMARK SMILES IDX 9 66 10 68 11 69 12 70 31 71 13 72 30 73 14 74 15 75 16 76
REMARK SMILES IDX 19 77 17 78 18 79 20 80 21 81 22 82 23 83 24 85 25 86 26 87
REMARK SMILES IDX 29 88 27 89 28 90
REMARK H PARENT 3 7 79 25 53 36 8 67 22 84
REMARK Flexibility Score: inf
ROOT
ATOM      1  C   UNL A   1      35.747  21.940  25.711  1.00  0.00     0.023 C 
ENDROOT
BRANCH   1   2
ATOM      2  C   UNL A   1      36.325  23.229  25.125  1.00  0.00     0.023 C 
BRANCH   2   3
ATOM      3  C   UNL A   1      37.184  24.043  26.093  1.00  0.00     0.116 C 
BRANCH   3   4
ATOM      4  N   UNL A   1      38.596  23.712  26.072  1.00  0.00    -0.352 N 
ATOM      5  O   UNL A   1      40.775  23.648  26.491  1.00  0.00    -0.269 OA
ATOM      6  C   UNL A   1      39.710  24.239  26.677  1.00  0.00     0.251 C 
ATOM      7  H   UNL A   1      38.801  22.940  25.497  1.00  0.00     0.163 HD
BRANCH   6   8
ATOM      8  C   UNL A   1      39.717  25.485  27.492  1.00  0.00     0.039 A 
ATOM      9  C   UNL A   1      39.281  25.565  28.813  1.00  0.00     0.014 A 
ATOM     10  C   UNL A   1      40.232  26.647  26.884  1.00  0.00     0.014 A 
ATOM     11  C   UNL A   1      39.283  26.779  29.489  1.00  0.00     0.010 A 
ATOM     12  C   UNL A   1      40.270  27.866  27.568  1.00  0.00     0.010 A 
ATOM     13  C   UNL A   1      39.783  27.930  28.874  1.00  0.00    -0.014 A 
BRANCH  13  14
ATOM     14  C   UNL A   1      39.873  29.141  29.722  1.00  0.00     0.031 A 
ATOM     15  C   UNL A   1      38.713  30.103  29.490  1.00  0.00     0.074 A 
ATOM     16  C   UNL A   1      41.011  29.304  30.452  1.00  0.00     0.049 A 
ATOM     17  N   UNL A   1      38.702  31.400  29.458  1.00  0.00    -0.248 NA
ATOM     18  C   UNL A   1      37.387  29.531  29.140  1.00  0.00     0.031 C 
ATOM     19  C   UNL A   1      42.043  28.266  30.604  1.00  0.00     0.029 A 
ATOM     20  N   UNL A   1      41.547  30.346  31.185  1.00  0.00    -0.354 N 
ATOM     21  C   UNL A   1      37.365  31.800  29.268  1.00  0.00     0.074 A 
ATOM     22  C   UNL A   1      36.628  30.612  28.953  1.00  0.00     0.031 C 
ATOM     23  C   UNL A   1      43.091  28.739  31.305  1.00  0.00     0.029 A 
ATOM     24  C   UNL A   1      42.859  30.122  31.673  1.00  0.00     0.049 A 
ATOM     25  H   UNL A   1      41.054  31.182  31.356  1.00  0.00     0.167 HD
ATOM     26  C   UNL A   1      36.912  33.064  29.506  1.00  0.00     0.037 A 
ATOM     27  C   UNL A   1      43.727  30.990  32.284  1.00  0.00     0.037 A 
ATOM     28  C   UNL A   1      37.968  33.917  29.934  1.00  0.00     0.049 A 
ATOM     29  C   UNL A   1      42.998  32.262  32.423  1.00  0.00     0.074 A 
ATOM     30  C   UNL A   1      38.999  34.549  29.291  1.00  0.00     0.029 A 
ATOM     31  N   UNL A   1      38.177  34.009  31.288  1.00  0.00    -0.354 N 
ATOM     32  N   UNL A   1      42.056  32.487  33.289  1.00  0.00    -0.248 NA
ATOM     33  C   UNL A   1      43.301  33.361  31.498  1.00  0.00     0.031 C 
ATOM     34  C   UNL A   1      40.000  34.700  30.276  1.00  0.00     0.029 A 
ATOM     35  C   UNL A   1      39.524  34.196  31.491  1.00  0.00     0.049 A 
ATOM     36  H   UNL A   1      37.487  33.951  31.987  1.00  0.00     0.167 HD
ATOM     37  C   UNL A   1      41.448  33.616  32.791  1.00  0.00     0.074 A 
ATOM     38  C   UNL A   1      42.408  34.253  31.920  1.00  0.00     0.031 C 
ATOM     39  C   UNL A   1      40.095  33.666  32.711  1.00  0.00     0.037 A 
BRANCH  26  40
ATOM     40  C   UNL A   1      35.511  33.599  29.610  1.00  0.00     0.057 A 
ATOM     41  C   UNL A   1      34.932  34.211  28.474  1.00  0.00     0.134 A 
ATOM     42  C   UNL A   1      34.843  33.812  30.821  1.00  0.00     0.134 A 
ATOM     43  F   UNL A   1      35.472  34.057  27.255  1.00  0.00    -0.206 F 
ATOM     44  C   UNL A   1      33.819  35.052  28.554  1.00  0.00     0.040 A 
ATOM     45  C   UNL A   1      33.699  34.618  30.906  1.00  0.00     0.040 A 
ATOM     46  F   UNL A   1      35.320  33.328  31.975  1.00  0.00    -0.206 F 
ATOM     47  C   UNL A   1      33.204  35.268  29.779  1.00  0.00     0.006 A 
ENDBRANCH  26  40
BRANCH  27  48
ATOM     48  C   UNL A   1      45.172  30.994  32.742  1.00  0.00     0.057 A 
ATOM     49  C   UNL A   1      46.297  30.759  31.946  1.00  0.00     0.134 A 
ATOM     50  C   UNL A   1      45.495  31.300  34.094  1.00  0.00     0.134 A 
ATOM     51  F   UNL A   1      46.194  30.341  30.683  1.00  0.00    -0.206 F 
ATOM     52  C   UNL A   1      47.616  30.916  32.418  1.00  0.00     0.040 A 
ATOM     53  C   UNL A   1      46.799  31.487  34.571  1.00  0.00     0.040 A 
ATOM     54  F   UNL A   1      44.554  31.437  35.038  1.00  0.00    -0.206 F 
ATOM     55  C   UNL A   1      47.872  31.312  33.723  1.00  0.00     0.006 A 
ENDBRANCH  27  48
BRANCH  39  56
ATOM     56  C   UNL A   1      39.411  32.724  33.683  1.00  0.00     0.057 A 
ATOM     57  C   UNL A   1      39.381  33.010  35.052  1.00  0.00     0.134 A 
ATOM     58  C   UNL A   1      38.926  31.459  33.317  1.00  0.00     0.134 A 
ATOM     59  F   UNL A   1      39.827  34.193  35.504  1.00  0.00    -0.206 F 
ATOM     60  C   UNL A   1      38.918  32.083  35.997  1.00  0.00     0.040 A 
ATOM     61  C   UNL A   1      38.445  30.527  34.241  1.00  0.00     0.040 A 
ATOM     62  F   UNL A   1      38.921  31.077  32.043  1.00  0.00    -0.206 F 
ATOM     63  C   UNL A   1      38.452  30.834  35.593  1.00  0.00     0.006 A 
ENDBRANCH  39  56
ENDBRANCH  13  14
ENDBRANCH   6   8
ENDBRANCH   3   4
ENDBRANCH   2   3
ENDBRANCH   1   2
BRANCH   1  64
ATOM     64  C   UNL A   1      35.109  20.982  24.705  1.00  0.00     0.116 C 
BRANCH  64  65
ATOM     65  N   UNL A   1      33.739  20.633  25.041  1.00  0.00    -0.352 N 
ATOM     66  C   UNL A   1      32.583  21.383  25.018  1.00  0.00     0.251 C 
ATOM     67  H   UNL A   1      33.615  19.702  25.335  1.00  0.00     0.163 HD
ATOM     68  O   UNL A   1      31.544  20.899  25.430  1.00  0.00    -0.269 OA
BRANCH  66  69
ATOM     69  C   UNL A   1      32.598  22.790  24.548  1.00  0.00     0.039 A 
ATOM     70  C   UNL A   1      32.641  23.803  25.513  1.00  0.00     0.016 A 
ATOM     71  C   UNL A   1      32.541  23.125  23.194  1.00  0.00     0.016 A 
ATOM     72  C   UNL A   1      32.757  25.141  25.127  1.00  0.00     0.027 A 
ATOM     73  C   UNL A   1      32.650  24.463  22.803  1.00  0.00     0.027 A 
ATOM     74  C   UNL A   1      32.812  25.467  23.769  1.00  0.00     0.046 A 
BRANCH  74  75
ATOM     75  N   UNL A   1      33.031  26.808  23.346  1.00  0.00    -0.316 N 
ATOM     76  C   UNL A   1      34.283  27.330  23.068  1.00  0.00     0.092 A 
ATOM     77  C   UNL A   1      32.103  27.846  23.259  1.00  0.00     0.066 A 
ATOM     78  C   UNL A   1      34.164  28.660  22.749  1.00  0.00     0.021 A 
ATOM     79  C   UNL A   1      32.802  28.987  22.883  1.00  0.00     0.030 A 
BRANCH  77  80
ATOM     80  C   UNL A   1      30.701  27.800  23.613  1.00  0.00     0.160 C 
ATOM     81  N   UNL A   1      29.808  27.945  22.683  1.00  0.00    -0.179 NA
BRANCH  81  82
ATOM     82  N   UNL A   1      28.476  27.927  23.003  1.00  0.00    -0.242 N 
ATOM     83  C   UNL A   1      27.510  28.923  23.024  1.00  0.00     0.281 C 
ATOM     84  H   UNL A   1      28.142  27.040  23.270  1.00  0.00     0.194 HD
ATOM     85  O   UNL A   1      26.423  28.649  23.536  1.00  0.00    -0.266 OA
BRANCH  83  86
ATOM     86  C   UNL A   1      27.789  30.208  22.412  1.00  0.00     0.094 A 
ATOM     87  C   UNL A   1      27.983  30.527  21.083  1.00  0.00     0.026 A 
ATOM     88  S   UNL A   1      27.870  31.600  23.410  1.00  0.00    -0.139 S 
ATOM     89  C   UNL A   1      28.252  31.911  20.895  1.00  0.00     0.012 A 
ATOM     90  C   UNL A   1      28.236  32.609  22.083  1.00  0.00     0.065 A 
ENDBRANCH  83  86
ENDBRANCH  81  82
ENDBRANCH  77  80
ENDBRANCH  74  75
ENDBRANCH  66  69
ENDBRANCH  64  65
ENDBRANCH   1  64
TORSDOF 15
ENDMDL
MODEL 2
REMARK VINA RESULT:     -12.3      4.162      8.979
REMARK SMILES O=C(NCCCCNC(=O)c1ccc(-n2cccc2/C=N/NC(=O)c2cccs2)cc1)c1ccc(-c2c3nc(c(-c4c(F)cccc4F)c4ccc([nH]4)c(-c4c(F)cccc4F)c4nc(c(-c5c(F)cccc5F)c5ccc2[nH]5)C=C4)C=C3)cc1
REMARK SMILES IDX 6 1 5 2 4 3 3 4 1 5 2 6 32 8 33 9 85 10 34 11 84 12 35 13
REMARK SMILES IDX 36 14 37 15 78 16 38 17 83 18 77 19 79 20 39 21 82 22 76 23
REMARK SMILES IDX 75 24 40 26 66 27 49 28 65 29 50 30 53 31 64 32 80 33 51 34
REMARK SMILES IDX 52 35 63 37 81 38 54 39 41 40 42 41 47 42 43 43 44 44 46 45
REMARK SMILES IDX 48 46 45 47 67 48 68 49 73 50 69 51 70 52 72 53 74 54 71 55
REMARK SMILES IDX 55 56 56 57 61 58 57 59 58 60 60 61 62 62 59 63 7 64 8 65
REMARK SMILES IDX 9 66 10 68 11 69 12 70 31 71 13 72 30 73 14 74 15 75 16 76
REMARK SMILES IDX 19 77 17 78 18 79 20 80 21 81 22 82 23 83 24 85 25 86 26 87
REMARK SMILES IDX 29 88 27 89 28 90
REMARK H PARENT 3 7 79 25 53 36 8 67 22 84
REMARK Flexibility Score: inf
ROOT
ATOM      1  C   UNL A   1      32.706  29.045  25.174  1.00  0.00     0.023 C 
ENDROOT
BRANCH   1   2
ATOM      2  C   UNL A   1      34.173  28.800  25.533  1.00  0.00     0.023 C 
BRANCH   2   3
ATOM      3  C   UNL A   1      34.431  28.524  27.014  1.00  0.00     0.116 C 
BRANCH   3   4
ATOM      4  N   UNL A   1      34.676  29.708  27.815  1.00  0.00    -0.352 N 
ATOM      5  O   UNL A   1      35.652  31.351  28.946  1.00  0.00    -0.269 OA
ATOM      6  C   UNL A   1      35.798  30.271  28.371  1.00  0.00     0.251 C 
ATOM      7  H   UNL A   1      33.858  30.221  28.003  1.00  0.00     0.163 HD
BRANCH   6   8
ATOM      8  C   UNL A   1      37.149  29.644  28.362  1.00  0.00     0.039 A 
ATOM      9  C   UNL A   1      38.048  29.725  27.300  1.00  0.00     0.014 A 
ATOM     10  C   UNL A   1      37.544  28.952  29.524  1.00  0.00     0.014 A 
ATOM     11  C   UNL A   1      39.274  29.074  27.357  1.00  0.00     0.010 A 
ATOM     12  C   UNL A   1      38.790  28.322  29.604  1.00  0.00     0.010 A 
ATOM     13  C   UNL A   1      39.653  28.378  28.509  1.00  0.00    -0.014 A 
BRANCH  13  14
ATOM     14  C   UNL A   1      41.032  27.839  28.525  1.00  0.00     0.031 A 
ATOM     15  C   UNL A   1      41.085  26.361  28.154  1.00  0.00     0.074 A 
ATOM     16  C   UNL A   1      42.012  28.656  29.002  1.00  0.00     0.049 A 
ATOM     17  N   UNL A   1      41.825  25.409  28.634  1.00  0.00    -0.248 NA
ATOM     18  C   UNL A   1      40.093  25.849  27.174  1.00  0.00     0.031 C 
ATOM     19  C   UNL A   1      41.816  30.084  29.298  1.00  0.00     0.029 A 
ATOM     20  N   UNL A   1      43.337  28.472  29.352  1.00  0.00    -0.354 N 
ATOM     21  C   UNL A   1      41.524  24.242  27.905  1.00  0.00     0.074 A 
ATOM     22  C   UNL A   1      40.367  24.544  27.114  1.00  0.00     0.031 C 
ATOM     23  C   UNL A   1      42.931  30.614  29.836  1.00  0.00     0.029 A 
ATOM     24  C   UNL A   1      43.957  29.596  29.955  1.00  0.00     0.049 A 
ATOM     25  H   UNL A   1      43.814  27.625  29.194  1.00  0.00     0.167 HD
ATOM     26  C   UNL A   1      42.317  23.133  27.891  1.00  0.00     0.037 A 
ATOM     27  C   UNL A   1      45.185  29.700  30.555  1.00  0.00     0.037 A 
ATOM     28  C   UNL A   1      43.455  23.303  28.731  1.00  0.00     0.049 A 
ATOM     29  C   UNL A   1      45.827  28.384  30.399  1.00  0.00     0.074 A 
ATOM     30  C   UNL A   1      43.650  23.266  30.085  1.00  0.00     0.029 A 
ATOM     31  N   UNL A   1      44.587  23.809  28.140  1.00  0.00    -0.354 N 
ATOM     32  N   UNL A   1      46.332  27.930  29.292  1.00  0.00    -0.248 NA
ATOM     33  C   UNL A   1      45.873  27.474  31.551  1.00  0.00     0.031 C 
ATOM     34  C   UNL A   1      44.774  24.092  30.310  1.00  0.00     0.029 A 
ATOM     35  C   UNL A   1      45.247  24.563  29.081  1.00  0.00     0.049 A 
ATOM     36  H   UNL A   1      44.874  23.658  27.211  1.00  0.00     0.167 HD
ATOM     37  C   UNL A   1      46.447  26.582  29.540  1.00  0.00     0.074 A 
ATOM     38  C   UNL A   1      46.453  26.424  30.975  1.00  0.00     0.031 C 
ATOM     39  C   UNL A   1      46.017  25.693  28.609  1.00  0.00     0.037 A 
BRANCH  26  40
ATOM     40  C   UNL A   1      42.298  21.925  26.996  1.00  0.00     0.057 A 
ATOM     41  C   UNL A   1      41.547  20.795  27.395  1.00  0.00     0.134 A 
ATOM     42  C   UNL A   1      43.202  21.714  25.949  1.00  0.00     0.134 A 
ATOM     43  F   UNL A   1      40.633  20.883  28.374  1.00  0.00    -0.206 F 
ATOM     44  C   UNL A   1      41.749  19.524  26.852  1.00  0.00     0.040 A 
ATOM     45  C   UNL A   1      43.382  20.452  25.365  1.00  0.00     0.040 A 
ATOM     46  F   UNL A   1      44.007  22.693  25.515  1.00  0.00    -0.206 F 
ATOM     47  C   UNL A   1      42.680  19.346  25.839  1.00  0.00     0.006 A 
ENDBRANCH  26  40
BRANCH  27  48
ATOM     48  C   UNL A   1      45.957  30.731  31.356  1.00  0.00     0.057 A 
ATOM     49  C   UNL A   1      47.029  31.505  30.901  1.00  0.00     0.134 A 
ATOM     50  C   UNL A   1      45.584  31.024  32.698  1.00  0.00     0.134 A 
ATOM     51  F   UNL A   1      47.598  31.294  29.712  1.00  0.00    -0.206 F 
ATOM     52  C   UNL A   1      47.605  32.540  31.663  1.00  0.00     0.040 A 
ATOM     53  C   UNL A   1      46.127  32.066  33.459  1.00  0.00     0.040 A 
ATOM     54  F   UNL A   1      44.661  30.306  33.354  1.00  0.00    -0.206 F 
ATOM     55  C   UNL A   1      47.136  32.846  32.933  1.00  0.00     0.006 A 
ENDBRANCH  27  48
BRANCH  39  56
ATOM     56  C   UNL A   1      45.987  26.274  27.208  1.00  0.00     0.057 A 
ATOM     57  C   UNL A   1      47.176  26.515  26.510  1.00  0.00     0.134 A 
ATOM     58  C   UNL A   1      44.818  26.754  26.599  1.00  0.00     0.134 A 
ATOM     59  F   UNL A   1      48.349  26.097  27.011  1.00  0.00    -0.206 F 
ATOM     60  C   UNL A   1      47.197  27.210  25.293  1.00  0.00     0.040 A 
ATOM     61  C   UNL A   1      44.816  27.436  25.378  1.00  0.00     0.040 A 
ATOM     62  F   UNL A   1      43.634  26.593  27.182  1.00  0.00    -0.206 F 
ATOM     63  C   UNL A   1      46.014  27.677  24.724  1.00  0.00     0.006 A 
ENDBRANCH  39  56
ENDBRANCH  13  14
ENDBRANCH   6   8
ENDBRANCH   3   4
ENDBRANCH   2   3
ENDBRANCH   1   2
BRANCH   1  64
ATOM     64  C   UNL A   1      32.212  28.362  23.899  1.00  0.00     0.116 C 
BRANCH  64  65
ATOM     65  N   UNL A   1      31.176  27.374  24.146  1.00  0.00    -0.352 N 
ATOM     66  C   UNL A   1      31.260  26.038  24.473  1.00  0.00     0.251 C 
ATOM     67  H   UNL A   1      30.257  27.717  24.066  1.00  0.00     0.163 HD
ATOM     68  O   UNL A   1      30.243  25.373  24.550  1.00  0.00    -0.269 OA
BRANCH  66  69
ATOM     69  C   UNL A   1      32.577  25.387  24.680  1.00  0.00     0.039 A 
ATOM     70  C   UNL A   1      32.922  25.005  25.983  1.00  0.00     0.016 A 
ATOM     71  C   UNL A   1      33.478  25.176  23.635  1.00  0.00     0.016 A 
ATOM     72  C   UNL A   1      34.104  24.299  26.221  1.00  0.00     0.027 A 
ATOM     73  C   UNL A   1      34.665  24.475  23.870  1.00  0.00     0.027 A 
ATOM     74  C   UNL A   1      34.953  23.990  25.155  1.00  0.00     0.046 A 
BRANCH  74  75
ATOM     75  N   UNL A   1      36.111  23.187  25.350  1.00  0.00    -0.316 N 
ATOM     76  C   UNL A   1      37.404  23.652  25.184  1.00  0.00     0.092 A 
ATOM     77  C   UNL A   1      36.175  21.815  25.601  1.00  0.00     0.066 A 
ATOM     78  C   UNL A   1      38.290  22.622  25.382  1.00  0.00     0.021 A 
ATOM     79  C   UNL A   1      37.521  21.469  25.629  1.00  0.00     0.030 A 
BRANCH  77  80
ATOM     80  C   UNL A   1      35.069  20.888  25.690  1.00  0.00     0.160 C 
ATOM     81  N   UNL A   1      35.117  19.778  25.020  1.00  0.00    -0.179 NA
BRANCH  81  82
ATOM     82  N   UNL A   1      34.069  18.898  25.075  1.00  0.00    -0.242 N 
ATOM     83  C   UNL A   1      32.756  18.986  24.634  1.00  0.00     0.281 C 
ATOM     84  H   UNL A   1      34.288  18.042  25.511  1.00  0.00     0.194 HD
ATOM     85  O   UNL A   1      31.978  18.096  24.987  1.00  0.00    -0.266 OA
BRANCH  83  86
ATOM     86  C   UNL A   1      32.364  20.068  23.753  1.00  0.00     0.094 A 
ATOM     87  C   UNL A   1      32.153  20.060  22.388  1.00  0.00     0.026 A 
ATOM     88  S   UNL A   1      32.061  21.615  24.426  1.00  0.00    -0.139 S 
ATOM     89  C   UNL A   1      31.792  21.343  21.891  1.00  0.00     0.012 A 
ATOM     90  C   UNL A   1      31.721  22.286  22.893  1.00  0.00     0.065 A 
ENDBRANCH  83  86
ENDBRANCH  81  82
ENDBRANCH  77  80
ENDBRANCH  74  75
ENDBRANCH  66  69
ENDBRANCH  64  65
ENDBRANCH   1  64
TORSDOF 15
ENDMDL
MODEL 3
REMARK VINA RESULT:     -12.3      4.372      9.510
REMARK SMILES O=C(NCCCCNC(=O)c1ccc(-n2cccc2/C=N/NC(=O)c2cccs2)cc1)c1ccc(-c2c3nc(c(-c4c(F)cccc4F)c4ccc([nH]4)c(-c4c(F)cccc4F)c4nc(c(-c5c(F)cccc5F)c5ccc2[nH]5)C=C4)C=C3)cc1
REMARK SMILES IDX 6 1 5 2 4 3 3 4 1 5 2 6 32 8 33 9 85 10 34 11 84 12 35 13
REMARK SMILES IDX 36 14 37 15 78 16 38 17 83 18 77 19 79 20 39 21 82 22 76 23
REMARK SMILES IDX 75 24 40 26 66 27 49 28 65 29 50 30 53 31 64 32 80 33 51 34
REMARK SMILES IDX 52 35 63 37 81 38 54 39 41 40 42 41 47 42 43 43 44 44 46 45
REMARK SMILES IDX 48 46 45 47 67 48 68 49 73 50 69 51 70 52 72 53 74 54 71 55
REMARK SMILES IDX 55 56 56 57 61 58 57 59 58 60 60 61 62 62 59 63 7 64 8 65
REMARK SMILES IDX 9 66 10 68 11 69 12 70 31 71 13 72 30 73 14 74 15 75 16 76
REMARK SMILES IDX 19 77 17 78 18 79 20 80 21 81 22 82 23 83 24 85 25 86 26 87
REMARK SMILES IDX 29 88 27 89 28 90
REMARK H PARENT 3 7 79 25 53 36 8 67 22 84
REMARK Flexibility Score: inf
ROOT
ATOM      1  C   UNL A   1      32.249  29.213  25.717  1.00  0.00     0.023 C 
ENDROOT
BRANCH   1   2
ATOM      2  C   UNL A   1      33.076  28.371  26.689  1.00  0.00     0.023 C 
BRANCH   2   3
ATOM      3  C   UNL A   1      34.530  28.816  26.845  1.00  0.00     0.116 C 
BRANCH   3   4
ATOM      4  N   UNL A   1      34.746  29.827  27.862  1.00  0.00    -0.352 N 
ATOM      5  O   UNL A   1      35.679  31.211  29.325  1.00  0.00    -0.269 OA
ATOM      6  C   UNL A   1      35.842  30.251  28.570  1.00  0.00     0.251 C 
ATOM      7  H   UNL A   1      33.926  30.317  28.097  1.00  0.00     0.163 HD
BRANCH   6   8
ATOM      8  C   UNL A   1      37.183  29.603  28.518  1.00  0.00     0.039 A 
ATOM      9  C   UNL A   1      38.075  29.723  27.455  1.00  0.00     0.014 A 
ATOM     10  C   UNL A   1      37.574  28.846  29.640  1.00  0.00     0.014 A 
ATOM     11  C   UNL A   1      39.291  29.050  27.468  1.00  0.00     0.010 A 
ATOM     12  C   UNL A   1      38.810  28.192  29.677  1.00  0.00     0.010 A 
ATOM     13  C   UNL A   1      39.665  28.290  28.580  1.00  0.00    -0.014 A 
BRANCH  13  14
ATOM     14  C   UNL A   1      41.035  27.728  28.558  1.00  0.00     0.031 A 
ATOM     15  C   UNL A   1      41.057  26.259  28.151  1.00  0.00     0.074 A 
ATOM     16  C   UNL A   1      42.038  28.518  29.034  1.00  0.00     0.049 A 
ATOM     17  N   UNL A   1      41.789  25.284  28.595  1.00  0.00    -0.248 NA
ATOM     18  C   UNL A   1      40.038  25.786  27.179  1.00  0.00     0.031 C 
ATOM     19  C   UNL A   1      41.872  29.941  29.367  1.00  0.00     0.029 A 
ATOM     20  N   UNL A   1      43.366  28.304  29.354  1.00  0.00    -0.354 N 
ATOM     21  C   UNL A   1      41.455  24.139  27.845  1.00  0.00     0.074 A 
ATOM     22  C   UNL A   1      40.289  24.479  27.083  1.00  0.00     0.031 C 
ATOM     23  C   UNL A   1      43.006  30.440  29.895  1.00  0.00     0.029 A 
ATOM     24  C   UNL A   1      44.016  29.403  29.971  1.00  0.00     0.049 A 
ATOM     25  H   UNL A   1      43.825  27.453  29.167  1.00  0.00     0.167 HD
ATOM     26  C   UNL A   1      42.229  23.017  27.791  1.00  0.00     0.037 A 
ATOM     27  C   UNL A   1      45.256  29.473  30.550  1.00  0.00     0.037 A 
ATOM     28  C   UNL A   1      43.385  23.150  28.612  1.00  0.00     0.049 A 
ATOM     29  C   UNL A   1      45.874  28.150  30.352  1.00  0.00     0.074 A 
ATOM     30  C   UNL A   1      43.605  23.078  29.961  1.00  0.00     0.029 A 
ATOM     31  N   UNL A   1      44.514  23.650  28.012  1.00  0.00    -0.354 N 
ATOM     32  N   UNL A   1      46.349  27.715  29.225  1.00  0.00    -0.248 NA
ATOM     33  C   UNL A   1      45.925  27.213  31.481  1.00  0.00     0.031 C 
ATOM     34  C   UNL A   1      44.747  23.880  30.184  1.00  0.00     0.029 A 
ATOM     35  C   UNL A   1      45.204  24.371  28.957  1.00  0.00     0.049 A 
ATOM     36  H   UNL A   1      44.781  23.516  27.074  1.00  0.00     0.167 HD
ATOM     37  C   UNL A   1      46.446  26.359  29.439  1.00  0.00     0.074 A 
ATOM     38  C   UNL A   1      46.477  26.167  30.870  1.00  0.00     0.031 C 
ATOM     39  C   UNL A   1      45.985  25.500  28.496  1.00  0.00     0.037 A 
BRANCH  26  40
ATOM     40  C   UNL A   1      42.173  21.832  26.868  1.00  0.00     0.057 A 
ATOM     41  C   UNL A   1      41.129  20.892  27.032  1.00  0.00     0.134 A 
ATOM     42  C   UNL A   1      43.237  21.421  26.058  1.00  0.00     0.134 A 
ATOM     43  F   UNL A   1      40.046  21.184  27.769  1.00  0.00    -0.206 F 
ATOM     44  C   UNL A   1      41.184  19.601  26.501  1.00  0.00     0.040 A 
ATOM     45  C   UNL A   1      43.283  20.143  25.482  1.00  0.00     0.040 A 
ATOM     46  F   UNL A   1      44.309  22.201  25.866  1.00  0.00    -0.206 F 
ATOM     47  C   UNL A   1      42.273  19.218  25.731  1.00  0.00     0.006 A 
ENDBRANCH  26  40
BRANCH  27  48
ATOM     48  C   UNL A   1      46.061  30.472  31.359  1.00  0.00     0.057 A 
ATOM     49  C   UNL A   1      45.884  30.782  32.711  1.00  0.00     0.134 A 
ATOM     50  C   UNL A   1      47.149  31.170  30.761  1.00  0.00     0.134 A 
ATOM     51  F   UNL A   1      44.846  30.320  33.411  1.00  0.00    -0.206 F 
ATOM     52  C   UNL A   1      46.762  31.620  33.426  1.00  0.00     0.040 A 
ATOM     53  C   UNL A   1      48.046  31.983  31.464  1.00  0.00     0.040 A 
ATOM     54  F   UNL A   1      47.403  31.100  29.448  1.00  0.00    -0.206 F 
ATOM     55  C   UNL A   1      47.864  32.199  32.814  1.00  0.00     0.006 A 
ENDBRANCH  27  48
BRANCH  39  56
ATOM     56  C   UNL A   1      45.938  26.113  27.110  1.00  0.00     0.057 A 
ATOM     57  C   UNL A   1      47.115  26.318  26.381  1.00  0.00     0.134 A 
ATOM     58  C   UNL A   1      44.774  26.658  26.548  1.00  0.00     0.134 A 
ATOM     59  F   UNL A   1      48.283  25.839  26.836  1.00  0.00    -0.206 F 
ATOM     60  C   UNL A   1      47.130  27.040  25.179  1.00  0.00     0.040 A 
ATOM     61  C   UNL A   1      44.765  27.367  25.343  1.00  0.00     0.040 A 
ATOM     62  F   UNL A   1      43.601  26.535  27.164  1.00  0.00    -0.206 F 
ATOM     63  C   UNL A   1      45.953  27.571  24.658  1.00  0.00     0.006 A 
ENDBRANCH  39  56
ENDBRANCH  13  14
ENDBRANCH   6   8
ENDBRANCH   3   4
ENDBRANCH   2   3
ENDBRANCH   1   2
BRANCH   1  64
ATOM     64  C   UNL A   1      32.811  29.335  24.300  1.00  0.00     0.116 C 
BRANCH  64  65
ATOM     65  N   UNL A   1      31.863  28.931  23.275  1.00  0.00    -0.352 N 
ATOM     66  C   UNL A   1      31.393  27.685  22.921  1.00  0.00     0.251 C 
ATOM     67  H   UNL A   1      31.496  29.673  22.743  1.00  0.00     0.163 HD
ATOM     68  O   UNL A   1      30.655  27.573  21.958  1.00  0.00    -0.269 OA
BRANCH  66  69
ATOM     69  C   UNL A   1      31.814  26.472  23.663  1.00  0.00     0.039 A 
ATOM     70  C   UNL A   1      33.097  25.966  23.418  1.00  0.00     0.016 A 
ATOM     71  C   UNL A   1      30.971  25.816  24.561  1.00  0.00     0.016 A 
ATOM     72  C   UNL A   1      33.583  24.888  24.161  1.00  0.00     0.027 A 
ATOM     73  C   UNL A   1      31.451  24.732  25.302  1.00  0.00     0.027 A 
ATOM     74  C   UNL A   1      32.777  24.301  25.140  1.00  0.00     0.046 A 
BRANCH  74  75
ATOM     75  N   UNL A   1      33.278  23.268  25.980  1.00  0.00    -0.316 N 
ATOM     76  C   UNL A   1      33.847  23.497  27.221  1.00  0.00     0.092 A 
ATOM     77  C   UNL A   1      33.414  21.910  25.688  1.00  0.00     0.066 A 
ATOM     78  C   UNL A   1      34.287  22.309  27.750  1.00  0.00     0.021 A 
ATOM     79  C   UNL A   1      34.029  21.318  26.784  1.00  0.00     0.030 A 
BRANCH  77  80
ATOM     80  C   UNL A   1      33.102  21.246  24.441  1.00  0.00     0.160 C 
ATOM     81  N   UNL A   1      32.402  20.153  24.464  1.00  0.00    -0.179 NA
BRANCH  81  82
ATOM     82  N   UNL A   1      32.117  19.499  23.295  1.00  0.00    -0.242 N 
ATOM     83  C   UNL A   1      32.526  18.272  22.791  1.00  0.00     0.281 C 
ATOM     84  H   UNL A   1      31.506  19.992  22.700  1.00  0.00     0.194 HD
ATOM     85  O   UNL A   1      32.249  18.020  21.616  1.00  0.00    -0.266 OA
BRANCH  83  86
ATOM     86  C   UNL A   1      33.207  17.330  23.657  1.00  0.00     0.094 A 
ATOM     87  C   UNL A   1      34.434  16.715  23.499  1.00  0.00     0.026 A 
ATOM     88  S   UNL A   1      32.468  16.883  25.138  1.00  0.00    -0.139 S 
ATOM     89  C   UNL A   1      34.738  15.836  24.575  1.00  0.00     0.012 A 
ATOM     90  C   UNL A   1      33.745  15.820  25.529  1.00  0.00     0.065 A 
ENDBRANCH  83  86
ENDBRANCH  81  82
ENDBRANCH  77  80
ENDBRANCH  74  75
ENDBRANCH  66  69
ENDBRANCH  64  65
ENDBRANCH   1  64
TORSDOF 15
ENDMDL
