MODEL 1
REMARK VINA RESULT:     -11.9      0.000      0.000
REMARK SMILES Nc1cccc(C(=O)N[C@@H]2C=C[C@@H](C(=O)NCCCCNC(=O)c3ccc(-c4c5nc(c(-c6c(F)cccc6F)c6ccc([nH]6)c(-c6c(F)cccc6F)c6nc(c(-c7c(F)cccc7F)c7ccc4[nH]7)C=C6)C=C5)cc3)C2)c1
REMARK SMILES IDX 18 1 17 2 16 3 14 4 15 5 13 7 10 8 11 9 78 10 12 11 9 12
REMARK SMILES IDX 7 13 8 14 6 16 2 17 3 18 79 19 4 20 5 21 1 22 19 25 20 26
REMARK SMILES IDX 21 27 22 28 23 30 24 31 25 32 77 33 26 34 76 35 27 36 28 37
REMARK SMILES IDX 29 38 70 39 30 40 75 41 69 42 71 43 31 44 74 45 68 46 67 47
REMARK SMILES IDX 32 49 58 50 41 51 57 52 42 53 45 54 56 55 72 56 43 57 44 58
REMARK SMILES IDX 55 60 73 61 46 62 33 63 34 64 39 65 35 66 36 67 38 68 40 69
REMARK SMILES IDX 37 70 59 71 60 72 65 73 61 74 62 75 64 76 66 77 63 78 47 79
REMARK SMILES IDX 48 80 53 81 49 82 50 83 52 84 54 85 51 86
REMARK H PARENT 16 6 9 15 1 23 1 24 21 29 71 48 45 59
REMARK Flexibility Score: inf
ROOT
ATOM      1  C   UNL A   1      36.840  20.535  24.987  1.00  0.00     0.023 C 
ENDROOT
BRANCH   1   2
ATOM      2  C   UNL A   1      37.243  21.975  24.670  1.00  0.00     0.116 C 
BRANCH   2   3
ATOM      3  N   UNL A   1      36.363  22.568  23.689  1.00  0.00    -0.356 N 
ATOM      4  C   UNL A   1      35.336  23.449  23.796  1.00  0.00     0.227 C 
ATOM      5  O   UNL A   1      34.781  23.765  22.737  1.00  0.00    -0.274 OA
ATOM      6  H   UNL A   1      36.542  22.276  22.766  1.00  0.00     0.163 HD
BRANCH   4   7
ATOM      7  C   UNL A   1      34.894  24.105  25.108  1.00  0.00     0.103 C 
ATOM      8  C   UNL A   1      32.618  24.727  25.844  1.00  0.00     0.106 C 
ATOM      9  C   UNL A   1      33.112  23.477  26.496  1.00  0.00    -0.006 C 
ATOM     10  C   UNL A   1      33.852  25.230  25.063  1.00  0.00     0.047 C 
ATOM     11  C   UNL A   1      34.324  23.116  26.069  1.00  0.00    -0.016 C 
BRANCH   8  12
ATOM     12  N   UNL A   1      32.109  25.677  26.809  1.00  0.00    -0.346 N 
ATOM     13  C   UNL A   1      31.492  26.896  26.636  1.00  0.00     0.251 C 
ATOM     14  O   UNL A   1      31.247  27.586  27.624  1.00  0.00    -0.269 OA
ATOM     15  H   UNL A   1      32.223  25.407  27.749  1.00  0.00     0.164 HD
BRANCH  13  16
ATOM     16  C   UNL A   1      31.010  27.342  25.302  1.00  0.00     0.041 A 
ATOM     17  C   UNL A   1      31.334  28.472  23.180  1.00  0.00     0.032 A 
ATOM     18  C   UNL A   1      30.183  27.852  22.691  1.00  0.00     0.025 A 
ATOM     19  C   UNL A   1      31.682  28.284  24.519  1.00  0.00     0.039 A 
ATOM     20  C   UNL A   1      29.435  26.995  23.501  1.00  0.00     0.003 A 
ATOM     21  C   UNL A   1      29.857  26.726  24.801  1.00  0.00     0.014 A 
BRANCH  17  22
ATOM     22  N   UNL A   1      32.069  29.328  22.376  1.00  0.00    -0.399 N 
ATOM     23  H   UNL A   1      32.985  29.582  22.635  1.00  0.00     0.156 HD
ATOM     24  H   UNL A   1      31.677  29.683  21.545  1.00  0.00     0.156 HD
ENDBRANCH  17  22
ENDBRANCH  13  16
ENDBRANCH   8  12
ENDBRANCH   4   7
ENDBRANCH   2   3
ENDBRANCH   1   2
BRANCH   1  25
ATOM     25  C   UNL A   1      38.007  19.543  25.001  1.00  0.00     0.023 C 
BRANCH  25  26
ATOM     26  C   UNL A   1      39.250  20.014  25.751  1.00  0.00     0.116 C 
BRANCH  26  27
ATOM     27  N   UNL A   1      40.282  18.991  25.835  1.00  0.00    -0.352 N 
ATOM     28  C   UNL A   1      41.628  19.140  26.075  1.00  0.00     0.251 C 
ATOM     29  H   UNL A   1      39.974  18.066  25.701  1.00  0.00     0.163 HD
ATOM     30  O   UNL A   1      42.379  18.178  25.983  1.00  0.00    -0.269 OA
BRANCH  28  31
ATOM     31  C   UNL A   1      42.168  20.475  26.413  1.00  0.00     0.039 A 
ATOM     32  C   UNL A   1      42.553  21.327  25.376  1.00  0.00     0.014 A 
ATOM     33  C   UNL A   1      42.274  20.890  27.743  1.00  0.00     0.014 A 
ATOM     34  C   UNL A   1      42.979  22.624  25.669  1.00  0.00     0.010 A 
ATOM     35  C   UNL A   1      42.629  22.205  28.030  1.00  0.00     0.010 A 
ATOM     36  C   UNL A   1      42.984  23.085  26.995  1.00  0.00    -0.014 A 
BRANCH  36  37
ATOM     37  C   UNL A   1      43.347  24.488  27.320  1.00  0.00     0.031 A 
ATOM     38  C   UNL A   1      44.783  24.930  27.272  1.00  0.00     0.074 A 
ATOM     39  C   UNL A   1      42.393  25.344  27.732  1.00  0.00     0.049 A 
ATOM     40  N   UNL A   1      45.303  26.089  27.587  1.00  0.00    -0.248 NA
ATOM     41  C   UNL A   1      45.769  23.926  26.842  1.00  0.00     0.031 C 
ATOM     42  C   UNL A   1      40.973  25.020  27.883  1.00  0.00     0.029 A 
ATOM     43  N   UNL A   1      42.477  26.658  28.117  1.00  0.00    -0.354 N 
ATOM     44  C   UNL A   1      46.672  25.950  27.406  1.00  0.00     0.074 A 
ATOM     45  C   UNL A   1      46.908  24.578  27.011  1.00  0.00     0.031 C 
ATOM     46  C   UNL A   1      40.318  26.108  28.316  1.00  0.00     0.029 A 
ATOM     47  C   UNL A   1      41.274  27.196  28.503  1.00  0.00     0.049 A 
ATOM     48  H   UNL A   1      43.320  27.167  28.116  1.00  0.00     0.167 HD
ATOM     49  C   UNL A   1      47.643  26.886  27.533  1.00  0.00     0.037 A 
ATOM     50  C   UNL A   1      40.975  28.424  28.966  1.00  0.00     0.037 A 
ATOM     51  C   UNL A   1      47.405  28.255  27.909  1.00  0.00     0.049 A 
ATOM     52  C   UNL A   1      42.065  29.451  29.089  1.00  0.00     0.074 A 
ATOM     53  C   UNL A   1      48.312  29.295  28.002  1.00  0.00     0.029 A 
ATOM     54  N   UNL A   1      46.166  28.772  28.261  1.00  0.00    -0.354 N 
ATOM     55  N   UNL A   1      43.346  29.329  28.839  1.00  0.00    -0.248 NA
ATOM     56  C   UNL A   1      41.667  30.789  29.549  1.00  0.00     0.031 C 
ATOM     57  C   UNL A   1      47.630  30.432  28.451  1.00  0.00     0.029 A 
ATOM     58  C   UNL A   1      46.289  30.111  28.593  1.00  0.00     0.049 A 
ATOM     59  H   UNL A   1      45.324  28.262  28.272  1.00  0.00     0.167 HD
ATOM     60  C   UNL A   1      43.905  30.574  29.093  1.00  0.00     0.074 A 
ATOM     61  C   UNL A   1      42.818  31.444  29.499  1.00  0.00     0.031 C 
ATOM     62  C   UNL A   1      45.200  30.963  29.001  1.00  0.00     0.037 A 
BRANCH  49  63
ATOM     63  C   UNL A   1      49.054  26.451  27.259  1.00  0.00     0.057 A 
ATOM     64  C   UNL A   1      49.601  26.488  25.969  1.00  0.00     0.134 A 
ATOM     65  C   UNL A   1      49.879  25.997  28.296  1.00  0.00     0.134 A 
ATOM     66  F   UNL A   1      48.861  26.900  24.928  1.00  0.00    -0.206 F 
ATOM     67  C   UNL A   1      50.904  26.056  25.714  1.00  0.00     0.040 A 
ATOM     68  C   UNL A   1      51.194  25.590  28.058  1.00  0.00     0.040 A 
ATOM     69  F   UNL A   1      49.423  25.942  29.556  1.00  0.00    -0.206 F 
ATOM     70  C   UNL A   1      51.705  25.609  26.762  1.00  0.00     0.006 A 
ENDBRANCH  49  63
BRANCH  50  71
ATOM     71  C   UNL A   1      39.573  28.752  29.327  1.00  0.00     0.057 A 
ATOM     72  C   UNL A   1      39.094  28.549  30.626  1.00  0.00     0.134 A 
ATOM     73  C   UNL A   1      38.685  29.290  28.387  1.00  0.00     0.134 A 
ATOM     74  F   UNL A   1      39.892  28.022  31.565  1.00  0.00    -0.206 F 
ATOM     75  C   UNL A   1      37.778  28.856  30.976  1.00  0.00     0.040 A 
ATOM     76  C   UNL A   1      37.373  29.623  28.729  1.00  0.00     0.040 A 
ATOM     77  F   UNL A   1      39.087  29.516  27.128  1.00  0.00    -0.206 F 
ATOM     78  C   UNL A   1      36.916  29.401  30.026  1.00  0.00     0.006 A 
ENDBRANCH  50  71
BRANCH  62  79
ATOM     79  C   UNL A   1      45.510  32.395  29.327  1.00  0.00     0.057 A 
ATOM     80  C   UNL A   1      45.437  33.405  28.360  1.00  0.00     0.134 A 
ATOM     81  C   UNL A   1      45.857  32.771  30.631  1.00  0.00     0.134 A 
ATOM     82  F   UNL A   1      45.123  33.109  27.089  1.00  0.00    -0.206 F 
ATOM     83  C   UNL A   1      45.717  34.736  28.674  1.00  0.00     0.040 A 
ATOM     84  C   UNL A   1      46.115  34.101  30.963  1.00  0.00     0.040 A 
ATOM     85  F   UNL A   1      45.938  31.852  31.606  1.00  0.00    -0.206 F 
ATOM     86  C   UNL A   1      46.052  35.087  29.981  1.00  0.00     0.006 A 
ENDBRANCH  62  79
ENDBRANCH  36  37
ENDBRANCH  28  31
ENDBRANCH  26  27
ENDBRANCH  25  26
ENDBRANCH   1  25
TORSDOF 14
ENDMDL
MODEL 2
REMARK VINA RESULT:     -11.8      5.170      9.892
REMARK SMILES Nc1cccc(C(=O)N[C@@H]2C=C[C@@H](C(=O)NCCCCNC(=O)c3ccc(-c4c5nc(c(-c6c(F)cccc6F)c6ccc([nH]6)c(-c6c(F)cccc6F)c6nc(c(-c7c(F)cccc7F)c7ccc4[nH]7)C=C6)C=C5)cc3)C2)c1
REMARK SMILES IDX 18 1 17 2 16 3 14 4 15 5 13 7 10 8 11 9 78 10 12 11 9 12
REMARK SMILES IDX 7 13 8 14 6 16 2 17 3 18 79 19 4 20 5 21 1 22 19 25 20 26
REMARK SMILES IDX 21 27 22 28 23 30 24 31 25 32 77 33 26 34 76 35 27 36 28 37
REMARK SMILES IDX 29 38 70 39 30 40 75 41 69 42 71 43 31 44 74 45 68 46 67 47
REMARK SMILES IDX 32 49 58 50 41 51 57 52 42 53 45 54 56 55 72 56 43 57 44 58
REMARK SMILES IDX 55 60 73 61 46 62 33 63 34 64 39 65 35 66 36 67 38 68 40 69
REMARK SMILES IDX 37 70 59 71 60 72 65 73 61 74 62 75 64 76 66 77 63 78 47 79
REMARK SMILES IDX 48 80 53 81 49 82 50 83 52 84 54 85 51 86
REMARK H PARENT 16 6 9 15 1 23 1 24 21 29 71 48 45 59
REMARK Flexibility Score: inf
ROOT
ATOM      1  C   UNL A   1      34.300  30.351  27.597  1.00  0.00     0.023 C 
ENDROOT
BRANCH   1   2
ATOM      2  C   UNL A   1      33.965  28.990  26.985  1.00  0.00     0.116 C 
BRANCH   2   3
ATOM      3  N   UNL A   1      34.231  28.967  25.564  1.00  0.00    -0.356 N 
ATOM      4  C   UNL A   1      33.510  28.518  24.506  1.00  0.00     0.227 C 
ATOM      5  O   UNL A   1      34.035  28.656  23.395  1.00  0.00    -0.274 OA
ATOM      6  H   UNL A   1      35.104  29.350  25.317  1.00  0.00     0.163 HD
BRANCH   4   7
ATOM      7  C   UNL A   1      32.096  27.936  24.609  1.00  0.00     0.103 C 
ATOM      8  C   UNL A   1      30.224  28.111  23.005  1.00  0.00     0.106 C 
ATOM      9  C   UNL A   1      30.898  26.779  22.958  1.00  0.00    -0.006 C 
ATOM     10  C   UNL A   1      30.902  28.809  24.204  1.00  0.00     0.047 C 
ATOM     11  C   UNL A   1      31.936  26.696  23.794  1.00  0.00    -0.016 C 
BRANCH   8  12
ATOM     12  N   UNL A   1      28.788  27.988  23.133  1.00  0.00    -0.346 N 
ATOM     13  C   UNL A   1      27.792  28.937  23.070  1.00  0.00     0.251 C 
ATOM     14  O   UNL A   1      26.637  28.605  23.327  1.00  0.00    -0.269 OA
ATOM     15  H   UNL A   1      28.470  27.070  23.293  1.00  0.00     0.164 HD
BRANCH  13  16
ATOM     16  C   UNL A   1      28.061  30.316  22.586  1.00  0.00     0.041 A 
ATOM     17  C   UNL A   1      28.009  32.026  20.865  1.00  0.00     0.032 A 
ATOM     18  C   UNL A   1      28.263  32.993  21.840  1.00  0.00     0.025 A 
ATOM     19  C   UNL A   1      28.007  30.680  21.237  1.00  0.00     0.039 A 
ATOM     20  C   UNL A   1      28.434  32.630  23.177  1.00  0.00     0.003 A 
ATOM     21  C   UNL A   1      28.315  31.294  23.554  1.00  0.00     0.014 A 
BRANCH  17  22
ATOM     22  N   UNL A   1      27.848  32.388  19.538  1.00  0.00    -0.399 N 
ATOM     23  H   UNL A   1      28.447  32.017  18.850  1.00  0.00     0.156 HD
ATOM     24  H   UNL A   1      27.135  33.017  19.281  1.00  0.00     0.156 HD
ENDBRANCH  17  22
ENDBRANCH  13  16
ENDBRANCH   8  12
ENDBRANCH   4   7
ENDBRANCH   2   3
ENDBRANCH   1   2
BRANCH   1  25
ATOM     25  C   UNL A   1      33.659  31.540  26.875  1.00  0.00     0.023 C 
BRANCH  25  26
ATOM     26  C   UNL A   1      32.432  32.132  27.563  1.00  0.00     0.116 C 
BRANCH  26  27
ATOM     27  N   UNL A   1      32.472  33.584  27.641  1.00  0.00    -0.352 N 
ATOM     28  C   UNL A   1      33.352  34.389  28.325  1.00  0.00     0.251 C 
ATOM     29  H   UNL A   1      31.772  34.055  27.134  1.00  0.00     0.163 HD
ATOM     30  O   UNL A   1      33.161  35.597  28.386  1.00  0.00    -0.269 OA
BRANCH  28  31
ATOM     31  C   UNL A   1      34.512  33.785  29.015  1.00  0.00     0.039 A 
ATOM     32  C   UNL A   1      34.285  32.970  30.126  1.00  0.00     0.014 A 
ATOM     33  C   UNL A   1      35.814  34.004  28.555  1.00  0.00     0.014 A 
ATOM     34  C   UNL A   1      35.359  32.318  30.735  1.00  0.00     0.010 A 
ATOM     35  C   UNL A   1      36.872  33.297  29.117  1.00  0.00     0.010 A 
ATOM     36  C   UNL A   1      36.655  32.445  30.212  1.00  0.00    -0.014 A 
BRANCH  36  37
ATOM     37  C   UNL A   1      37.795  31.689  30.789  1.00  0.00     0.031 A 
ATOM     38  C   UNL A   1      38.295  32.008  32.170  1.00  0.00     0.074 A 
ATOM     39  C   UNL A   1      38.430  30.767  30.040  1.00  0.00     0.049 A 
ATOM     40  N   UNL A   1      39.317  31.507  32.816  1.00  0.00    -0.248 NA
ATOM     41  C   UNL A   1      37.567  33.050  32.911  1.00  0.00     0.031 C 
ATOM     42  C   UNL A   1      38.083  30.411  28.663  1.00  0.00     0.029 A 
ATOM     43  N   UNL A   1      39.511  29.974  30.326  1.00  0.00    -0.354 N 
ATOM     44  C   UNL A   1      39.363  32.180  34.030  1.00  0.00     0.074 A 
ATOM     45  C   UNL A   1      38.302  33.164  34.007  1.00  0.00     0.031 C 
ATOM     46  C   UNL A   1      38.927  29.462  28.229  1.00  0.00     0.029 A 
ATOM     47  C   UNL A   1      39.893  29.166  29.284  1.00  0.00     0.049 A 
ATOM     48  H   UNL A   1      39.971  29.983  31.197  1.00  0.00     0.167 HD
ATOM     49  C   UNL A   1      40.195  31.980  35.079  1.00  0.00     0.037 A 
ATOM     50  C   UNL A   1      40.910  28.291  29.183  1.00  0.00     0.037 A 
ATOM     51  C   UNL A   1      41.239  30.988  35.108  1.00  0.00     0.049 A 
ATOM     52  C   UNL A   1      41.816  28.076  30.362  1.00  0.00     0.074 A 
ATOM     53  C   UNL A   1      42.093  30.663  36.147  1.00  0.00     0.029 A 
ATOM     54  N   UNL A   1      41.573  30.164  34.043  1.00  0.00    -0.354 N 
ATOM     55  N   UNL A   1      41.799  28.663  31.534  1.00  0.00    -0.248 NA
ATOM     56  C   UNL A   1      42.877  27.070  30.210  1.00  0.00     0.031 C 
ATOM     57  C   UNL A   1      42.972  29.672  35.697  1.00  0.00     0.029 A 
ATOM     58  C   UNL A   1      42.635  29.346  34.392  1.00  0.00     0.049 A 
ATOM     59  H   UNL A   1      41.121  30.161  33.168  1.00  0.00     0.167 HD
ATOM     60  C   UNL A   1      42.831  28.089  32.264  1.00  0.00     0.074 A 
ATOM     61  C   UNL A   1      43.442  27.091  31.408  1.00  0.00     0.031 C 
ATOM     62  C   UNL A   1      43.237  28.362  33.528  1.00  0.00     0.037 A 
BRANCH  49  63
ATOM     63  C   UNL A   1      40.004  32.857  36.283  1.00  0.00     0.057 A 
ATOM     64  C   UNL A   1      39.059  32.556  37.274  1.00  0.00     0.134 A 
ATOM     65  C   UNL A   1      40.777  34.011  36.460  1.00  0.00     0.134 A 
ATOM     66  F   UNL A   1      38.276  31.471  37.160  1.00  0.00    -0.206 F 
ATOM     67  C   UNL A   1      38.864  33.389  38.377  1.00  0.00     0.040 A 
ATOM     68  C   UNL A   1      40.611  34.837  37.574  1.00  0.00     0.040 A 
ATOM     69  F   UNL A   1      41.705  34.357  35.555  1.00  0.00    -0.206 F 
ATOM     70  C   UNL A   1      39.646  34.531  38.531  1.00  0.00     0.006 A 
ENDBRANCH  49  63
BRANCH  50  71
ATOM     71  C   UNL A   1      41.111  27.538  27.919  1.00  0.00     0.057 A 
ATOM     72  C   UNL A   1      41.922  28.043  26.897  1.00  0.00     0.134 A 
ATOM     73  C   UNL A   1      40.510  26.291  27.711  1.00  0.00     0.134 A 
ATOM     74  F   UNL A   1      42.511  29.240  27.032  1.00  0.00    -0.206 F 
ATOM     75  C   UNL A   1      42.118  27.343  25.706  1.00  0.00     0.040 A 
ATOM     76  C   UNL A   1      40.716  25.568  26.535  1.00  0.00     0.040 A 
ATOM     77  F   UNL A   1      39.729  25.749  28.657  1.00  0.00    -0.206 F 
ATOM     78  C   UNL A   1      41.518  26.097  25.526  1.00  0.00     0.006 A 
ENDBRANCH  50  71
BRANCH  62  79
ATOM     79  C   UNL A   1      44.385  27.560  34.068  1.00  0.00     0.057 A 
ATOM     80  C   UNL A   1      45.706  28.021  33.997  1.00  0.00     0.134 A 
ATOM     81  C   UNL A   1      44.163  26.326  34.692  1.00  0.00     0.134 A 
ATOM     82  F   UNL A   1      45.987  29.189  33.400  1.00  0.00    -0.206 F 
ATOM     83  C   UNL A   1      46.767  27.273  34.510  1.00  0.00     0.040 A 
ATOM     84  C   UNL A   1      45.212  25.581  35.231  1.00  0.00     0.040 A 
ATOM     85  F   UNL A   1      42.920  25.830  34.798  1.00  0.00    -0.206 F 
ATOM     86  C   UNL A   1      46.520  26.051  35.134  1.00  0.00     0.006 A 
ENDBRANCH  62  79
ENDBRANCH  36  37
ENDBRANCH  28  31
ENDBRANCH  26  27
ENDBRANCH  25  26
ENDBRANCH   1  25
TORSDOF 14
ENDMDL
MODEL 3
REMARK VINA RESULT:     -11.8      1.021      6.429
REMARK SMILES Nc1cccc(C(=O)N[C@@H]2C=C[C@@H](C(=O)NCCCCNC(=O)c3ccc(-c4c5nc(c(-c6c(F)cccc6F)c6ccc([nH]6)c(-c6c(F)cccc6F)c6nc(c(-c7c(F)cccc7F)c7ccc4[nH]7)C=C6)C=C5)cc3)C2)c1
REMARK SMILES IDX 18 1 17 2 16 3 14 4 15 5 13 7 10 8 11 9 78 10 12 11 9 12
REMARK SMILES IDX 7 13 8 14 6 16 2 17 3 18 79 19 4 20 5 21 1 22 19 25 20 26
REMARK SMILES IDX 21 27 22 28 23 30 24 31 25 32 77 33 26 34 76 35 27 36 28 37
REMARK SMILES IDX 29 38 70 39 30 40 75 41 69 42 71 43 31 44 74 45 68 46 67 47
REMARK SMILES IDX 32 49 58 50 41 51 57 52 42 53 45 54 56 55 72 56 43 57 44 58
REMARK SMILES IDX 55 60 73 61 46 62 33 63 34 64 39 65 35 66 36 67 38 68 40 69
REMARK SMILES IDX 37 70 59 71 60 72 65 73 61 74 62 75 64 76 66 77 63 78 47 79
REMARK SMILES IDX 48 80 53 81 49 82 50 83 52 84 54 85 51 86
REMARK H PARENT 16 6 9 15 1 23 1 24 21 29 71 48 45 59
REMARK Flexibility Score: inf
ROOT
ATOM      1  C   UNL A   1      36.610  20.586  25.266  1.00  0.00     0.023 C 
ENDROOT
BRANCH   1   2
ATOM      2  C   UNL A   1      36.609  22.115  25.302  1.00  0.00     0.116 C 
BRANCH   2   3
ATOM      3  N   UNL A   1      36.207  22.675  24.031  1.00  0.00    -0.356 N 
ATOM      4  C   UNL A   1      34.990  22.954  23.499  1.00  0.00     0.227 C 
ATOM      5  O   UNL A   1      34.995  23.445  22.364  1.00  0.00    -0.274 OA
ATOM      6  H   UNL A   1      36.960  22.895  23.438  1.00  0.00     0.163 HD
BRANCH   4   7
ATOM      7  C   UNL A   1      33.660  22.766  24.237  1.00  0.00     0.103 C 
ATOM      8  C   UNL A   1      31.625  24.165  24.150  1.00  0.00     0.106 C 
ATOM      9  C   UNL A   1      31.495  22.910  23.349  1.00  0.00    -0.006 C 
ATOM     10  C   UNL A   1      32.981  23.988  24.867  1.00  0.00     0.047 C 
ATOM     11  C   UNL A   1      32.608  22.173  23.360  1.00  0.00    -0.016 C 
BRANCH   8  12
ATOM     12  N   UNL A   1      30.506  24.352  25.049  1.00  0.00    -0.346 N 
ATOM     13  C   UNL A   1      30.144  25.429  25.826  1.00  0.00     0.251 C 
ATOM     14  O   UNL A   1      29.203  25.311  26.607  1.00  0.00    -0.269 OA
ATOM     15  H   UNL A   1      29.902  23.578  25.116  1.00  0.00     0.164 HD
BRANCH  13  16
ATOM     16  C   UNL A   1      30.785  26.760  25.658  1.00  0.00     0.041 A 
ATOM     17  C   UNL A   1      31.048  28.876  24.500  1.00  0.00     0.032 A 
ATOM     18  C   UNL A   1      31.762  29.369  25.593  1.00  0.00     0.025 A 
ATOM     19  C   UNL A   1      30.648  27.538  24.505  1.00  0.00     0.039 A 
ATOM     20  C   UNL A   1      32.006  28.564  26.708  1.00  0.00     0.003 A 
ATOM     21  C   UNL A   1      31.502  27.265  26.749  1.00  0.00     0.014 A 
BRANCH  17  22
ATOM     22  N   UNL A   1      30.815  29.675  23.392  1.00  0.00    -0.399 N 
ATOM     23  H   UNL A   1      30.623  29.262  22.519  1.00  0.00     0.156 HD
ATOM     24  H   UNL A   1      30.840  30.655  23.477  1.00  0.00     0.156 HD
ENDBRANCH  17  22
ENDBRANCH  13  16
ENDBRANCH   8  12
ENDBRANCH   4   7
ENDBRANCH   2   3
ENDBRANCH   1   2
BRANCH   1  25
ATOM     25  C   UNL A   1      37.944  19.968  24.838  1.00  0.00     0.023 C 
BRANCH  25  26
ATOM     26  C   UNL A   1      39.125  20.272  25.756  1.00  0.00     0.116 C 
BRANCH  26  27
ATOM     27  N   UNL A   1      40.067  19.167  25.851  1.00  0.00    -0.352 N 
ATOM     28  C   UNL A   1      41.420  19.204  26.095  1.00  0.00     0.251 C 
ATOM     29  H   UNL A   1      39.683  18.270  25.722  1.00  0.00     0.163 HD
ATOM     30  O   UNL A   1      42.088  18.182  26.013  1.00  0.00    -0.269 OA
BRANCH  28  31
ATOM     31  C   UNL A   1      42.069  20.491  26.426  1.00  0.00     0.039 A 
ATOM     32  C   UNL A   1      42.556  21.286  25.386  1.00  0.00     0.014 A 
ATOM     33  C   UNL A   1      42.178  20.920  27.752  1.00  0.00     0.014 A 
ATOM     34  C   UNL A   1      43.089  22.545  25.670  1.00  0.00     0.010 A 
ATOM     35  C   UNL A   1      42.642  22.203  28.026  1.00  0.00     0.010 A 
ATOM     36  C   UNL A   1      43.101  23.029  26.987  1.00  0.00    -0.014 A 
BRANCH  36  37
ATOM     37  C   UNL A   1      43.581  24.399  27.299  1.00  0.00     0.031 A 
ATOM     38  C   UNL A   1      42.610  25.462  27.731  1.00  0.00     0.074 A 
ATOM     39  C   UNL A   1      44.879  24.707  27.118  1.00  0.00     0.049 A 
ATOM     40  N   UNL A   1      42.827  26.729  27.979  1.00  0.00    -0.248 NA
ATOM     41  C   UNL A   1      41.204  25.053  27.874  1.00  0.00     0.031 C 
ATOM     42  C   UNL A   1      45.910  23.782  26.641  1.00  0.00     0.029 A 
ATOM     43  N   UNL A   1      45.551  25.889  27.298  1.00  0.00    -0.354 N 
ATOM     44  C   UNL A   1      41.587  27.269  28.293  1.00  0.00     0.074 A 
ATOM     45  C   UNL A   1      40.615  26.207  28.148  1.00  0.00     0.031 C 
ATOM     46  C   UNL A   1      47.084  24.429  26.579  1.00  0.00     0.029 A 
ATOM     47  C   UNL A   1      46.885  25.819  26.980  1.00  0.00     0.049 A 
ATOM     48  H   UNL A   1      45.118  26.711  27.625  1.00  0.00     0.167 HD
ATOM     49  C   UNL A   1      41.287  28.529  28.691  1.00  0.00     0.037 A 
ATOM     50  C   UNL A   1      47.839  26.768  26.998  1.00  0.00     0.037 A 
ATOM     51  C   UNL A   1      42.258  29.580  28.852  1.00  0.00     0.049 A 
ATOM     52  C   UNL A   1      47.488  28.156  27.453  1.00  0.00     0.074 A 
ATOM     53  C   UNL A   1      42.065  30.870  29.313  1.00  0.00     0.029 A 
ATOM     54  N   UNL A   1      43.608  29.460  28.552  1.00  0.00    -0.354 N 
ATOM     55  N   UNL A   1      46.325  28.634  27.824  1.00  0.00    -0.248 NA
ATOM     56  C   UNL A   1      48.583  29.135  27.502  1.00  0.00     0.031 C 
ATOM     57  C   UNL A   1      43.290  31.545  29.250  1.00  0.00     0.029 A 
ATOM     58  C   UNL A   1      44.255  30.660  28.795  1.00  0.00     0.049 A 
ATOM     59  H   UNL A   1      44.041  28.643  28.215  1.00  0.00     0.167 HD
ATOM     60  C   UNL A   1      46.549  29.960  28.166  1.00  0.00     0.074 A 
ATOM     61  C   UNL A   1      47.966  30.207  27.978  1.00  0.00     0.031 C 
ATOM     62  C   UNL A   1      45.664  30.893  28.597  1.00  0.00     0.037 A 
BRANCH  49  63
ATOM     63  C   UNL A   1      39.846  28.832  28.980  1.00  0.00     0.057 A 
ATOM     64  C   UNL A   1      39.313  28.726  30.272  1.00  0.00     0.134 A 
ATOM     65  C   UNL A   1      38.980  29.241  27.958  1.00  0.00     0.134 A 
ATOM     66  F   UNL A   1      40.084  28.326  31.295  1.00  0.00    -0.206 F 
ATOM     67  C   UNL A   1      37.965  28.980  30.531  1.00  0.00     0.040 A 
ATOM     68  C   UNL A   1      37.636  29.527  28.210  1.00  0.00     0.040 A 
ATOM     69  F   UNL A   1      39.423  29.370  26.699  1.00  0.00    -0.206 F 
ATOM     70  C   UNL A   1      37.124  29.387  29.498  1.00  0.00     0.006 A 
ENDBRANCH  49  63
BRANCH  50  71
ATOM     71  C   UNL A   1      49.225  26.426  26.589  1.00  0.00     0.057 A 
ATOM     72  C   UNL A   1      49.665  26.636  25.278  1.00  0.00     0.134 A 
ATOM     73  C   UNL A   1      50.143  25.895  27.503  1.00  0.00     0.134 A 
ATOM     74  F   UNL A   1      48.826  27.127  24.354  1.00  0.00    -0.206 F 
ATOM     75  C   UNL A   1      50.966  26.319  24.885  1.00  0.00     0.040 A 
ATOM     76  C   UNL A   1      51.454  25.595  27.129  1.00  0.00     0.040 A 
ATOM     77  F   UNL A   1      49.784  25.679  28.777  1.00  0.00    -0.206 F 
ATOM     78  C   UNL A   1      51.867  25.803  25.815  1.00  0.00     0.006 A 
ENDBRANCH  50  71
BRANCH  62  79
ATOM     79  C   UNL A   1      46.203  32.257  28.910  1.00  0.00     0.057 A 
ATOM     80  C   UNL A   1      46.302  33.254  27.931  1.00  0.00     0.134 A 
ATOM     81  C   UNL A   1      46.600  32.587  30.212  1.00  0.00     0.134 A 
ATOM     82  F   UNL A   1      45.952  32.998  26.661  1.00  0.00    -0.206 F 
ATOM     83  C   UNL A   1      46.796  34.525  28.233  1.00  0.00     0.040 A 
ATOM     84  C   UNL A   1      47.071  33.861  30.531  1.00  0.00     0.040 A 
ATOM     85  F   UNL A   1      46.523  31.679  31.198  1.00  0.00    -0.206 F 
ATOM     86  C   UNL A   1      47.176  34.832  29.538  1.00  0.00     0.006 A 
ENDBRANCH  62  79
ENDBRANCH  36  37
ENDBRANCH  28  31
ENDBRANCH  26  27
ENDBRANCH  25  26
ENDBRANCH   1  25
TORSDOF 14
ENDMDL
