MODEL 1
REMARK VINA RESULT:     -11.7      0.000      0.000
REMARK SMILES Cc1ccc(S(=O)(=O)N[C@@H](C)C(=O)Oc2csc(C(=O)NCCCCNC(=O)c3ccc(-c4c5nc(c(-c6c(F)cccc6F)c6ccc([nH]6)c(-c6c(F)cccc6F)c6nc(c(-c7c(F)cccc7F)c7ccc4[nH]7)C=C6)C=C5)cc3)c2C)cc1
REMARK SMILES IDX 19 1 20 2 21 3 18 5 15 6 16 7 83 8 17 9 84 10 14 11 12 12
REMARK SMILES IDX 13 13 10 14 11 15 9 16 6 18 7 19 8 20 5 21 1 22 2 23 3 24
REMARK SMILES IDX 86 25 4 26 85 27 22 28 23 29 24 30 25 31 26 32 27 33 28 35
REMARK SMILES IDX 29 36 30 37 82 38 31 39 81 40 32 41 33 42 34 43 75 44 35 45
REMARK SMILES IDX 80 46 74 47 76 48 36 49 79 50 73 51 72 52 37 54 63 55 46 56
REMARK SMILES IDX 62 57 47 58 50 59 61 60 77 61 48 62 49 63 60 65 78 66 51 67
REMARK SMILES IDX 38 68 39 69 44 70 40 71 41 72 43 73 45 74 42 75 64 76 65 77
REMARK SMILES IDX 70 78 66 79 67 80 69 81 71 82 68 83 52 84 53 85 58 86 54 87
REMARK SMILES IDX 55 88 57 89 59 90 56 91
REMARK H PARENT 21 4 9 17 26 34 76 53 50 64
REMARK Flexibility Score: inf
ROOT
ATOM      1  C   UNL A   1      31.133  28.419  22.361  1.00  0.00     0.261 C 
ATOM      2  O   UNL A   1      30.263  29.062  21.756  1.00  0.00    -0.268 OA
ATOM      3  N   UNL A   1      32.258  29.176  22.582  1.00  0.00    -0.351 N 
ATOM      4  H   UNL A   1      32.180  30.082  22.206  1.00  0.00     0.163 HD
ENDROOT
BRANCH   1   5
ATOM      5  C   UNL A   1      30.922  27.027  22.793  1.00  0.00     0.099 A 
ATOM      6  C   UNL A   1      30.871  24.733  23.333  1.00  0.00     0.145 A 
ATOM      7  C   UNL A   1      29.756  25.150  24.002  1.00  0.00     0.113 A 
ATOM      8  C   UNL A   1      31.490  25.773  22.542  1.00  0.00     0.015 A 
ATOM      9  S   UNL A   1      29.543  26.827  23.855  1.00  0.00    -0.134 S 
ATOM     10  C   UNL A   1      32.554  25.405  21.575  1.00  0.00     0.050 C 
BRANCH   6  11
ATOM     11  O   UNL A   1      31.235  23.425  23.328  1.00  0.00    -0.424 OA
BRANCH  11  12
ATOM     12  C   UNL A   1      32.047  23.019  24.357  1.00  0.00     0.329 C 
ATOM     13  O   UNL A   1      31.913  23.330  25.537  1.00  0.00    -0.250 OA
BRANCH  12  14
ATOM     14  C   UNL A   1      33.141  22.069  23.869  1.00  0.00     0.177 C 
ATOM     15  C   UNL A   1      32.715  20.612  23.935  1.00  0.00     0.038 C 
BRANCH  14  16
ATOM     16  N   UNL A   1      34.362  22.354  24.625  1.00  0.00    -0.197 NA
ATOM     17  H   UNL A   1      34.051  22.654  25.549  1.00  0.00     0.142 HD
BRANCH  16  18
ATOM     18  S   UNL A   1      35.508  23.461  24.151  1.00  0.00     0.241 S 
ATOM     19  O   UNL A   1      35.091  24.759  24.659  1.00  0.00    -0.207 OA
ATOM     20  O   UNL A   1      35.712  23.233  22.748  1.00  0.00    -0.207 OA
BRANCH  18  21
ATOM     21  C   UNL A   1      37.012  23.029  24.986  1.00  0.00     0.082 A 
ATOM     22  C   UNL A   1      40.483  22.097  27.344  1.00  0.00     0.044 C 
ATOM     23  C   UNL A   1      39.274  22.414  26.512  1.00  0.00    -0.051 A 
ATOM     24  C   UNL A   1      38.732  23.704  26.543  1.00  0.00     0.005 A 
ATOM     25  C   UNL A   1      38.692  21.444  25.685  1.00  0.00     0.005 A 
ATOM     26  C   UNL A   1      37.596  24.009  25.792  1.00  0.00     0.022 A 
ATOM     27  C   UNL A   1      37.569  21.752  24.909  1.00  0.00     0.022 A 
ENDBRANCH  18  21
ENDBRANCH  16  18
ENDBRANCH  14  16
ENDBRANCH  12  14
ENDBRANCH  11  12
ENDBRANCH   6  11
ENDBRANCH   1   5
BRANCH   3  28
ATOM     28  C   UNL A   1      33.529  28.959  23.234  1.00  0.00     0.116 C 
BRANCH  28  29
ATOM     29  C   UNL A   1      33.357  28.785  24.752  1.00  0.00     0.023 C 
BRANCH  29  30
ATOM     30  C   UNL A   1      32.430  29.782  25.436  1.00  0.00     0.023 C 
BRANCH  30  31
ATOM     31  C   UNL A   1      32.728  29.955  26.912  1.00  0.00     0.116 C 
BRANCH  31  32
ATOM     32  N   UNL A   1      33.372  31.209  27.287  1.00  0.00    -0.352 N 
ATOM     33  C   UNL A   1      34.574  31.416  27.949  1.00  0.00     0.251 C 
ATOM     34  H   UNL A   1      32.882  32.025  27.036  1.00  0.00     0.163 HD
ATOM     35  O   UNL A   1      34.908  32.558  28.254  1.00  0.00    -0.269 OA
BRANCH  33  36
ATOM     36  C   UNL A   1      35.539  30.295  28.124  1.00  0.00     0.039 A 
ATOM     37  C   UNL A   1      35.664  29.753  29.410  1.00  0.00     0.014 A 
ATOM     38  C   UNL A   1      36.519  30.045  27.176  1.00  0.00     0.014 A 
ATOM     39  C   UNL A   1      36.906  29.296  29.834  1.00  0.00     0.010 A 
ATOM     40  C   UNL A   1      37.785  29.762  27.627  1.00  0.00     0.010 A 
ATOM     41  C   UNL A   1      37.985  29.464  28.975  1.00  0.00    -0.014 A 
BRANCH  41  42
ATOM     42  C   UNL A   1      39.375  29.385  29.382  1.00  0.00     0.031 A 
ATOM     43  C   UNL A   1      40.071  28.099  29.234  1.00  0.00     0.074 A 
ATOM     44  C   UNL A   1      40.025  30.521  29.715  1.00  0.00     0.049 A 
ATOM     45  N   UNL A   1      41.179  27.797  29.811  1.00  0.00    -0.248 NA
ATOM     46  C   UNL A   1      39.519  27.006  28.444  1.00  0.00     0.031 C 
ATOM     47  C   UNL A   1      41.462  30.727  29.865  1.00  0.00     0.029 A 
ATOM     48  N   UNL A   1      39.455  31.707  30.202  1.00  0.00    -0.354 N 
ATOM     49  C   UNL A   1      41.637  26.628  29.245  1.00  0.00     0.074 A 
ATOM     50  C   UNL A   1      40.518  26.125  28.493  1.00  0.00     0.031 C 
ATOM     51  C   UNL A   1      41.664  31.784  30.669  1.00  0.00     0.029 A 
ATOM     52  C   UNL A   1      40.362  32.188  31.173  1.00  0.00     0.049 A 
ATOM     53  H   UNL A   1      38.603  32.117  29.926  1.00  0.00     0.167 HD
ATOM     54  C   UNL A   1      42.962  26.331  29.375  1.00  0.00     0.037 A 
ATOM     55  C   UNL A   1      40.010  32.207  32.493  1.00  0.00     0.037 A 
ATOM     56  C   UNL A   1      43.581  27.240  30.351  1.00  0.00     0.049 A 
ATOM     57  C   UNL A   1      40.876  31.305  33.349  1.00  0.00     0.074 A 
ATOM     58  C   UNL A   1      44.361  28.377  30.221  1.00  0.00     0.029 A 
ATOM     59  N   UNL A   1      43.121  27.232  31.667  1.00  0.00    -0.354 N 
ATOM     60  N   UNL A   1      41.583  30.311  32.882  1.00  0.00    -0.248 NA
ATOM     61  C   UNL A   1      41.024  31.465  34.791  1.00  0.00     0.031 C 
ATOM     62  C   UNL A   1      44.279  29.106  31.440  1.00  0.00     0.029 A 
ATOM     63  C   UNL A   1      43.482  28.394  32.321  1.00  0.00     0.049 A 
ATOM     64  H   UNL A   1      42.608  26.497  32.076  1.00  0.00     0.167 HD
ATOM     65  C   UNL A   1      42.268  29.708  33.906  1.00  0.00     0.074 A 
ATOM     66  C   UNL A   1      41.894  30.480  35.080  1.00  0.00     0.031 C 
ATOM     67  C   UNL A   1      43.084  28.629  33.706  1.00  0.00     0.037 A 
BRANCH  54  68
ATOM     68  C   UNL A   1      43.752  25.443  28.423  1.00  0.00     0.057 A 
ATOM     69  C   UNL A   1      43.694  24.038  28.552  1.00  0.00     0.134 A 
ATOM     70  C   UNL A   1      44.654  25.874  27.431  1.00  0.00     0.134 A 
ATOM     71  F   UNL A   1      42.835  23.444  29.390  1.00  0.00    -0.206 F 
ATOM     72  C   UNL A   1      44.522  23.162  27.832  1.00  0.00     0.040 A 
ATOM     73  C   UNL A   1      45.504  25.012  26.721  1.00  0.00     0.040 A 
ATOM     74  F   UNL A   1      44.749  27.147  27.048  1.00  0.00    -0.206 F 
ATOM     75  C   UNL A   1      45.451  23.648  26.929  1.00  0.00     0.006 A 
ENDBRANCH  54  68
BRANCH  55  76
ATOM     76  C   UNL A   1      38.558  32.483  32.690  1.00  0.00     0.057 A 
ATOM     77  C   UNL A   1      38.086  33.780  32.399  1.00  0.00     0.134 A 
ATOM     78  C   UNL A   1      37.607  31.460  32.724  1.00  0.00     0.134 A 
ATOM     79  F   UNL A   1      38.942  34.815  32.363  1.00  0.00    -0.206 F 
ATOM     80  C   UNL A   1      36.767  34.019  32.006  1.00  0.00     0.040 A 
ATOM     81  C   UNL A   1      36.274  31.695  32.357  1.00  0.00     0.040 A 
ATOM     82  F   UNL A   1      37.973  30.196  32.980  1.00  0.00    -0.206 F 
ATOM     83  C   UNL A   1      35.864  32.963  31.946  1.00  0.00     0.006 A 
ENDBRANCH  55  76
BRANCH  67  84
ATOM     84  C   UNL A   1      43.663  27.736  34.785  1.00  0.00     0.057 A 
ATOM     85  C   UNL A   1      44.874  27.974  35.453  1.00  0.00     0.134 A 
ATOM     86  C   UNL A   1      42.912  26.651  35.298  1.00  0.00     0.134 A 
ATOM     87  F   UNL A   1      45.638  29.038  35.170  1.00  0.00    -0.206 F 
ATOM     88  C   UNL A   1      45.333  27.161  36.499  1.00  0.00     0.040 A 
ATOM     89  C   UNL A   1      43.330  25.875  36.383  1.00  0.00     0.040 A 
ATOM     90  F   UNL A   1      41.720  26.309  34.787  1.00  0.00    -0.206 F 
ATOM     91  C   UNL A   1      44.556  26.116  36.977  1.00  0.00     0.006 A 
ENDBRANCH  67  84
ENDBRANCH  41  42
ENDBRANCH  33  36
ENDBRANCH  31  32
ENDBRANCH  30  31
ENDBRANCH  29  30
ENDBRANCH  28  29
ENDBRANCH   3  28
TORSDOF 17
ENDMDL
MODEL 2
REMARK VINA RESULT:     -11.6      2.198      3.692
REMARK SMILES Cc1ccc(S(=O)(=O)N[C@@H](C)C(=O)Oc2csc(C(=O)NCCCCNC(=O)c3ccc(-c4c5nc(c(-c6c(F)cccc6F)c6ccc([nH]6)c(-c6c(F)cccc6F)c6nc(c(-c7c(F)cccc7F)c7ccc4[nH]7)C=C6)C=C5)cc3)c2C)cc1
REMARK SMILES IDX 19 1 20 2 21 3 18 5 15 6 16 7 83 8 17 9 84 10 14 11 12 12
REMARK SMILES IDX 13 13 10 14 11 15 9 16 6 18 7 19 8 20 5 21 1 22 2 23 3 24
REMARK SMILES IDX 86 25 4 26 85 27 22 28 23 29 24 30 25 31 26 32 27 33 28 35
REMARK SMILES IDX 29 36 30 37 82 38 31 39 81 40 32 41 33 42 34 43 75 44 35 45
REMARK SMILES IDX 80 46 74 47 76 48 36 49 79 50 73 51 72 52 37 54 63 55 46 56
REMARK SMILES IDX 62 57 47 58 50 59 61 60 77 61 48 62 49 63 60 65 78 66 51 67
REMARK SMILES IDX 38 68 39 69 44 70 40 71 41 72 43 73 45 74 42 75 64 76 65 77
REMARK SMILES IDX 70 78 66 79 67 80 69 81 71 82 68 83 52 84 53 85 58 86 54 87
REMARK SMILES IDX 55 88 57 89 59 90 56 91
REMARK H PARENT 21 4 9 17 26 34 76 53 50 64
REMARK Flexibility Score: inf
ROOT
ATOM      1  C   UNL A   1      30.656  29.390  24.064  1.00  0.00     0.261 C 
ATOM      2  O   UNL A   1      29.654  29.696  23.403  1.00  0.00    -0.268 OA
ATOM      3  N   UNL A   1      31.007  30.388  24.941  1.00  0.00    -0.351 N 
ATOM      4  H   UNL A   1      30.414  31.171  24.875  1.00  0.00     0.163 HD
ENDROOT
BRANCH   1   5
ATOM      5  C   UNL A   1      31.333  28.091  23.909  1.00  0.00     0.099 A 
ATOM      6  C   UNL A   1      32.696  26.181  23.694  1.00  0.00     0.145 A 
ATOM      7  C   UNL A   1      31.466  25.588  23.665  1.00  0.00     0.113 A 
ATOM      8  C   UNL A   1      32.639  27.625  23.721  1.00  0.00     0.015 A 
ATOM      9  S   UNL A   1      30.230  26.731  23.865  1.00  0.00    -0.134 S 
ATOM     10  C   UNL A   1      33.886  28.400  23.505  1.00  0.00     0.050 C 
BRANCH   6  11
ATOM     11  O   UNL A   1      33.831  25.446  23.563  1.00  0.00    -0.424 OA
BRANCH  11  12
ATOM     12  C   UNL A   1      34.377  24.961  24.724  1.00  0.00     0.329 C 
ATOM     13  O   UNL A   1      34.473  25.580  25.779  1.00  0.00    -0.250 OA
BRANCH  12  14
ATOM     14  C   UNL A   1      34.823  23.507  24.572  1.00  0.00     0.177 C 
ATOM     15  C   UNL A   1      36.311  23.384  24.287  1.00  0.00     0.038 C 
BRANCH  14  16
ATOM     16  N   UNL A   1      33.982  22.878  23.552  1.00  0.00    -0.197 NA
ATOM     17  H   UNL A   1      33.701  23.631  22.923  1.00  0.00     0.142 HD
BRANCH  16  18
ATOM     18  S   UNL A   1      32.592  22.030  23.891  1.00  0.00     0.241 S 
ATOM     19  O   UNL A   1      31.699  22.193  22.754  1.00  0.00    -0.207 OA
ATOM     20  O   UNL A   1      32.206  22.430  25.214  1.00  0.00    -0.207 OA
BRANCH  18  21
ATOM     21  C   UNL A   1      33.044  20.317  23.962  1.00  0.00     0.082 A 
ATOM     22  C   UNL A   1      34.145  16.168  23.741  1.00  0.00     0.044 C 
ATOM     23  C   UNL A   1      33.766  17.617  23.829  1.00  0.00    -0.051 A 
ATOM     24  C   UNL A   1      32.617  18.073  23.174  1.00  0.00     0.005 A 
ATOM     25  C   UNL A   1      34.533  18.520  24.579  1.00  0.00     0.005 A 
ATOM     26  C   UNL A   1      32.262  19.421  23.228  1.00  0.00     0.022 A 
ATOM     27  C   UNL A   1      34.167  19.868  24.659  1.00  0.00     0.022 A 
ENDBRANCH  18  21
ENDBRANCH  16  18
ENDBRANCH  14  16
ENDBRANCH  12  14
ENDBRANCH  11  12
ENDBRANCH   6  11
ENDBRANCH   1   5
BRANCH   3  28
ATOM     28  C   UNL A   1      32.040  30.564  25.936  1.00  0.00     0.116 C 
BRANCH  28  29
ATOM     29  C   UNL A   1      32.075  29.383  26.921  1.00  0.00     0.023 C 
BRANCH  29  30
ATOM     30  C   UNL A   1      33.419  29.105  27.580  1.00  0.00     0.023 C 
BRANCH  30  31
ATOM     31  C   UNL A   1      34.556  29.903  26.973  1.00  0.00     0.116 C 
BRANCH  31  32
ATOM     32  N   UNL A   1      35.192  30.876  27.854  1.00  0.00    -0.352 N 
ATOM     33  C   UNL A   1      36.353  30.755  28.605  1.00  0.00     0.251 C 
ATOM     34  H   UNL A   1      34.730  31.742  27.928  1.00  0.00     0.163 HD
ATOM     35  O   UNL A   1      36.682  31.665  29.362  1.00  0.00    -0.269 OA
BRANCH  33  36
ATOM     36  C   UNL A   1      37.290  29.623  28.364  1.00  0.00     0.039 A 
ATOM     37  C   UNL A   1      37.313  28.596  29.317  1.00  0.00     0.014 A 
ATOM     38  C   UNL A   1      38.336  29.744  27.462  1.00  0.00     0.014 A 
ATOM     39  C   UNL A   1      38.515  27.956  29.593  1.00  0.00     0.010 A 
ATOM     40  C   UNL A   1      39.561  29.250  27.835  1.00  0.00     0.010 A 
ATOM     41  C   UNL A   1      39.657  28.417  28.950  1.00  0.00    -0.014 A 
BRANCH  41  42
ATOM     42  C   UNL A   1      41.012  28.122  29.376  1.00  0.00     0.031 A 
ATOM     43  C   UNL A   1      41.700  26.977  28.762  1.00  0.00     0.074 A 
ATOM     44  C   UNL A   1      41.649  28.998  30.182  1.00  0.00     0.049 A 
ATOM     45  N   UNL A   1      42.757  26.422  29.235  1.00  0.00    -0.248 NA
ATOM     46  C   UNL A   1      41.193  26.321  27.563  1.00  0.00     0.031 C 
ATOM     47  C   UNL A   1      43.074  29.065  30.491  1.00  0.00     0.029 A 
ATOM     48  N   UNL A   1      41.061  29.909  31.071  1.00  0.00    -0.354 N 
ATOM     49  C   UNL A   1      43.241  25.563  28.273  1.00  0.00     0.074 A 
ATOM     50  C   UNL A   1      42.175  25.454  27.313  1.00  0.00     0.031 C 
ATOM     51  C   UNL A   1      43.230  29.698  31.666  1.00  0.00     0.029 A 
ATOM     52  C   UNL A   1      41.900  29.918  32.209  1.00  0.00     0.049 A 
ATOM     53  H   UNL A   1      40.238  30.431  30.933  1.00  0.00     0.167 HD
ATOM     54  C   UNL A   1      44.549  25.183  28.353  1.00  0.00     0.037 A 
ATOM     55  C   UNL A   1      41.451  29.416  33.398  1.00  0.00     0.037 A 
ATOM     56  C   UNL A   1      45.105  25.593  29.651  1.00  0.00     0.049 A 
ATOM     57  C   UNL A   1      42.239  28.210  33.866  1.00  0.00     0.074 A 
ATOM     58  C   UNL A   1      45.908  26.652  30.043  1.00  0.00     0.029 A 
ATOM     59  N   UNL A   1      44.549  25.073  30.819  1.00  0.00    -0.354 N 
ATOM     60  N   UNL A   1      42.966  27.460  33.080  1.00  0.00    -0.248 NA
ATOM     61  C   UNL A   1      42.282  27.767  35.254  1.00  0.00     0.031 C 
ATOM     62  C   UNL A   1      45.745  26.829  31.444  1.00  0.00     0.029 A 
ATOM     63  C   UNL A   1      44.876  25.856  31.910  1.00  0.00     0.049 A 
ATOM     64  H   UNL A   1      43.998  24.258  30.861  1.00  0.00     0.167 HD
ATOM     65  C   UNL A   1      43.565  26.467  33.813  1.00  0.00     0.074 A 
ATOM     66  C   UNL A   1      43.115  26.714  35.173  1.00  0.00     0.031 C 
ATOM     67  C   UNL A   1      44.380  25.527  33.243  1.00  0.00     0.037 A 
BRANCH  54  68
ATOM     68  C   UNL A   1      45.395  24.723  27.174  1.00  0.00     0.057 A 
ATOM     69  C   UNL A   1      46.157  25.658  26.440  1.00  0.00     0.134 A 
ATOM     70  C   UNL A   1      45.444  23.422  26.637  1.00  0.00     0.134 A 
ATOM     71  F   UNL A   1      46.291  26.928  26.846  1.00  0.00    -0.206 F 
ATOM     72  C   UNL A   1      46.820  25.345  25.243  1.00  0.00     0.040 A 
ATOM     73  C   UNL A   1      46.082  23.099  25.429  1.00  0.00     0.040 A 
ATOM     74  F   UNL A   1      44.919  22.366  27.258  1.00  0.00    -0.206 F 
ATOM     75  C   UNL A   1      46.763  24.066  24.717  1.00  0.00     0.006 A 
ENDBRANCH  54  68
BRANCH  55  76
ATOM     76  C   UNL A   1      39.992  29.650  33.599  1.00  0.00     0.057 A 
ATOM     77  C   UNL A   1      39.570  30.959  33.913  1.00  0.00     0.134 A 
ATOM     78  C   UNL A   1      39.025  28.783  33.085  1.00  0.00     0.134 A 
ATOM     79  F   UNL A   1      40.442  31.843  34.425  1.00  0.00    -0.206 F 
ATOM     80  C   UNL A   1      38.294  31.426  33.587  1.00  0.00     0.040 A 
ATOM     81  C   UNL A   1      37.733  29.235  32.779  1.00  0.00     0.040 A 
ATOM     82  F   UNL A   1      39.345  27.525  32.747  1.00  0.00    -0.206 F 
ATOM     83  C   UNL A   1      37.382  30.570  32.978  1.00  0.00     0.006 A 
ENDBRANCH  55  76
BRANCH  67  84
ATOM     84  C   UNL A   1      44.865  24.251  33.900  1.00  0.00     0.057 A 
ATOM     85  C   UNL A   1      44.045  23.160  34.225  1.00  0.00     0.134 A 
ATOM     86  C   UNL A   1      46.249  24.025  34.093  1.00  0.00     0.134 A 
ATOM     87  F   UNL A   1      42.728  23.170  33.981  1.00  0.00    -0.206 F 
ATOM     88  C   UNL A   1      44.551  21.967  34.762  1.00  0.00     0.040 A 
ATOM     89  C   UNL A   1      46.770  22.817  34.566  1.00  0.00     0.040 A 
ATOM     90  F   UNL A   1      47.167  24.959  33.806  1.00  0.00    -0.206 F 
ATOM     91  C   UNL A   1      45.917  21.786  34.922  1.00  0.00     0.006 A 
ENDBRANCH  67  84
ENDBRANCH  41  42
ENDBRANCH  33  36
ENDBRANCH  31  32
ENDBRANCH  30  31
ENDBRANCH  29  30
ENDBRANCH  28  29
ENDBRANCH   3  28
TORSDOF 17
ENDMDL
MODEL 3
REMARK VINA RESULT:     -11.6      1.903      2.704
REMARK SMILES Cc1ccc(S(=O)(=O)N[C@@H](C)C(=O)Oc2csc(C(=O)NCCCCNC(=O)c3ccc(-c4c5nc(c(-c6c(F)cccc6F)c6ccc([nH]6)c(-c6c(F)cccc6F)c6nc(c(-c7c(F)cccc7F)c7ccc4[nH]7)C=C6)C=C5)cc3)c2C)cc1
REMARK SMILES IDX 19 1 20 2 21 3 18 5 15 6 16 7 83 8 17 9 84 10 14 11 12 12
REMARK SMILES IDX 13 13 10 14 11 15 9 16 6 18 7 19 8 20 5 21 1 22 2 23 3 24
REMARK SMILES IDX 86 25 4 26 85 27 22 28 23 29 24 30 25 31 26 32 27 33 28 35
REMARK SMILES IDX 29 36 30 37 82 38 31 39 81 40 32 41 33 42 34 43 75 44 35 45
REMARK SMILES IDX 80 46 74 47 76 48 36 49 79 50 73 51 72 52 37 54 63 55 46 56
REMARK SMILES IDX 62 57 47 58 50 59 61 60 77 61 48 62 49 63 60 65 78 66 51 67
REMARK SMILES IDX 38 68 39 69 44 70 40 71 41 72 43 73 45 74 42 75 64 76 65 77
REMARK SMILES IDX 70 78 66 79 67 80 69 81 71 82 68 83 52 84 53 85 58 86 54 87
REMARK SMILES IDX 55 88 57 89 59 90 56 91
REMARK H PARENT 21 4 9 17 26 34 76 53 50 64
REMARK Flexibility Score: inf
ROOT
ATOM      1  C   UNL A   1      30.210  29.386  22.772  1.00  0.00     0.261 C 
ATOM      2  O   UNL A   1      30.136  29.625  21.558  1.00  0.00    -0.268 OA
ATOM      3  N   UNL A   1      30.195  30.540  23.517  1.00  0.00    -0.351 N 
ATOM      4  H   UNL A   1      30.147  31.347  22.956  1.00  0.00     0.163 HD
ENDROOT
BRANCH   1   5
ATOM      5  C   UNL A   1      30.275  28.011  23.298  1.00  0.00     0.099 A 
ATOM      6  C   UNL A   1      30.701  25.868  24.179  1.00  0.00     0.145 A 
ATOM      7  C   UNL A   1      29.343  25.798  24.055  1.00  0.00     0.113 A 
ATOM      8  C   UNL A   1      31.266  27.086  23.645  1.00  0.00     0.015 A 
ATOM      9  S   UNL A   1      28.703  27.260  23.482  1.00  0.00    -0.134 S 
ATOM     10  C   UNL A   1      32.738  27.190  23.487  1.00  0.00     0.050 C 
BRANCH   6  11
ATOM     11  O   UNL A   1      31.418  24.807  24.634  1.00  0.00    -0.424 OA
BRANCH  11  12
ATOM     12  C   UNL A   1      31.192  24.437  25.936  1.00  0.00     0.329 C 
ATOM     13  O   UNL A   1      31.374  25.145  26.920  1.00  0.00    -0.250 OA
BRANCH  12  14
ATOM     14  C   UNL A   1      30.626  23.019  26.026  1.00  0.00     0.177 C 
ATOM     15  C   UNL A   1      29.554  22.891  27.095  1.00  0.00     0.038 C 
BRANCH  14  16
ATOM     16  N   UNL A   1      31.746  22.094  26.211  1.00  0.00    -0.197 NA
ATOM     17  H   UNL A   1      32.498  22.648  26.619  1.00  0.00     0.142 HD
BRANCH  16  18
ATOM     18  S   UNL A   1      32.442  21.224  24.976  1.00  0.00     0.241 S 
ATOM     19  O   UNL A   1      32.018  21.834  23.726  1.00  0.00    -0.207 OA
ATOM     20  O   UNL A   1      32.169  19.846  25.270  1.00  0.00    -0.207 OA
BRANCH  18  21
ATOM     21  C   UNL A   1      34.194  21.461  25.109  1.00  0.00     0.082 A 
ATOM     22  C   UNL A   1      38.377  22.170  25.797  1.00  0.00     0.044 C 
ATOM     23  C   UNL A   1      36.919  21.913  25.549  1.00  0.00    -0.051 A 
ATOM     24  C   UNL A   1      35.998  22.956  25.700  1.00  0.00     0.005 A 
ATOM     25  C   UNL A   1      36.467  20.650  25.143  1.00  0.00     0.005 A 
ATOM     26  C   UNL A   1      34.637  22.729  25.494  1.00  0.00     0.022 A 
ATOM     27  C   UNL A   1      35.106  20.424  24.909  1.00  0.00     0.022 A 
ENDBRANCH  18  21
ENDBRANCH  16  18
ENDBRANCH  14  16
ENDBRANCH  12  14
ENDBRANCH  11  12
ENDBRANCH   6  11
ENDBRANCH   1   5
BRANCH   3  28
ATOM     28  C   UNL A   1      30.235  30.852  24.927  1.00  0.00     0.116 C 
BRANCH  28  29
ATOM     29  C   UNL A   1      31.574  30.430  25.556  1.00  0.00     0.023 C 
BRANCH  29  30
ATOM     30  C   UNL A   1      31.995  31.197  26.803  1.00  0.00     0.023 C 
BRANCH  30  31
ATOM     31  C   UNL A   1      33.312  30.716  27.380  1.00  0.00     0.116 C 
BRANCH  31  32
ATOM     32  N   UNL A   1      34.111  31.726  28.065  1.00  0.00    -0.352 N 
ATOM     33  C   UNL A   1      35.284  31.574  28.791  1.00  0.00     0.251 C 
ATOM     34  H   UNL A   1      33.769  32.647  28.003  1.00  0.00     0.163 HD
ATOM     35  O   UNL A   1      35.766  32.544  29.372  1.00  0.00    -0.269 OA
BRANCH  33  36
ATOM     36  C   UNL A   1      36.055  30.302  28.719  1.00  0.00     0.039 A 
ATOM     37  C   UNL A   1      36.334  29.653  29.929  1.00  0.00     0.014 A 
ATOM     38  C   UNL A   1      36.771  29.967  27.580  1.00  0.00     0.014 A 
ATOM     39  C   UNL A   1      37.537  28.970  30.068  1.00  0.00     0.010 A 
ATOM     40  C   UNL A   1      38.031  29.449  27.747  1.00  0.00     0.010 A 
ATOM     41  C   UNL A   1      38.438  29.024  29.012  1.00  0.00    -0.014 A 
BRANCH  41  42
ATOM     42  C   UNL A   1      39.845  28.690  29.120  1.00  0.00     0.031 A 
ATOM     43  C   UNL A   1      40.278  27.352  28.694  1.00  0.00     0.074 A 
ATOM     44  C   UNL A   1      40.726  29.664  29.439  1.00  0.00     0.049 A 
ATOM     45  N   UNL A   1      41.405  26.816  29.000  1.00  0.00    -0.248 NA
ATOM     46  C   UNL A   1      39.416  26.471  27.915  1.00  0.00     0.031 C 
ATOM     47  C   UNL A   1      42.180  29.638  29.318  1.00  0.00     0.029 A 
ATOM     48  N   UNL A   1      40.461  30.838  30.158  1.00  0.00    -0.354 N 
ATOM     49  C   UNL A   1      41.550  25.685  28.227  1.00  0.00     0.074 A 
ATOM     50  C   UNL A   1      40.246  25.458  27.665  1.00  0.00     0.031 C 
ATOM     51  C   UNL A   1      42.699  30.532  30.177  1.00  0.00     0.029 A 
ATOM     52  C   UNL A   1      41.596  31.043  30.974  1.00  0.00     0.049 A 
ATOM     53  H   UNL A   1      39.654  31.400  30.106  1.00  0.00     0.167 HD
ATOM     54  C   UNL A   1      42.809  25.186  28.054  1.00  0.00     0.037 A 
ATOM     55  C   UNL A   1      41.498  30.926  32.331  1.00  0.00     0.037 A 
ATOM     56  C   UNL A   1      43.737  25.851  28.980  1.00  0.00     0.049 A 
ATOM     57  C   UNL A   1      42.341  29.799  32.891  1.00  0.00     0.074 A 
ATOM     58  C   UNL A   1      44.660  26.872  28.822  1.00  0.00     0.029 A 
ATOM     59  N   UNL A   1      43.529  25.723  30.352  1.00  0.00    -0.354 N 
ATOM     60  N   UNL A   1      42.775  28.789  32.184  1.00  0.00    -0.248 NA
ATOM     61  C   UNL A   1      42.773  29.731  34.282  1.00  0.00     0.031 C 
ATOM     62  C   UNL A   1      44.924  27.425  30.105  1.00  0.00     0.029 A 
ATOM     63  C   UNL A   1      44.193  26.719  31.045  1.00  0.00     0.049 A 
ATOM     64  H   UNL A   1      42.983  25.019  30.773  1.00  0.00     0.167 HD
ATOM     65  C   UNL A   1      43.523  27.956  32.977  1.00  0.00     0.074 A 
ATOM     66  C   UNL A   1      43.503  28.601  34.280  1.00  0.00     0.031 C 
ATOM     67  C   UNL A   1      44.097  26.810  32.499  1.00  0.00     0.037 A 
BRANCH  54  68
ATOM     68  C   UNL A   1      43.252  24.337  26.870  1.00  0.00     0.057 A 
ATOM     69  C   UNL A   1      42.958  22.957  26.839  1.00  0.00     0.134 A 
ATOM     70  C   UNL A   1      44.042  24.763  25.785  1.00  0.00     0.134 A 
ATOM     71  F   UNL A   1      42.154  22.388  27.747  1.00  0.00    -0.206 F 
ATOM     72  C   UNL A   1      43.478  22.078  25.876  1.00  0.00     0.040 A 
ATOM     73  C   UNL A   1      44.589  23.893  24.828  1.00  0.00     0.040 A 
ATOM     74  F   UNL A   1      44.306  26.047  25.547  1.00  0.00    -0.206 F 
ATOM     75  C   UNL A   1      44.320  22.540  24.878  1.00  0.00     0.006 A 
ENDBRANCH  54  68
BRANCH  55  76
ATOM     76  C   UNL A   1      40.173  31.377  32.846  1.00  0.00     0.057 A 
ATOM     77  C   UNL A   1      39.247  30.389  33.242  1.00  0.00     0.134 A 
ATOM     78  C   UNL A   1      39.971  32.666  33.346  1.00  0.00     0.134 A 
ATOM     79  F   UNL A   1      39.370  29.131  32.788  1.00  0.00    -0.206 F 
ATOM     80  C   UNL A   1      38.268  30.635  34.208  1.00  0.00     0.040 A 
ATOM     81  C   UNL A   1      38.974  32.928  34.297  1.00  0.00     0.040 A 
ATOM     82  F   UNL A   1      40.813  33.660  33.030  1.00  0.00    -0.206 F 
ATOM     83  C   UNL A   1      38.156  31.902  34.769  1.00  0.00     0.006 A 
ENDBRANCH  55  76
BRANCH  67  84
ATOM     84  C   UNL A   1      44.704  25.701  33.334  1.00  0.00     0.057 A 
ATOM     85  C   UNL A   1      43.979  24.863  34.195  1.00  0.00     0.134 A 
ATOM     86  C   UNL A   1      46.064  25.342  33.171  1.00  0.00     0.134 A 
ATOM     87  F   UNL A   1      42.656  24.993  34.356  1.00  0.00    -0.206 F 
ATOM     88  C   UNL A   1      44.571  23.799  34.890  1.00  0.00     0.040 A 
ATOM     89  C   UNL A   1      46.649  24.243  33.807  1.00  0.00     0.040 A 
ATOM     90  F   UNL A   1      46.886  26.026  32.361  1.00  0.00    -0.206 F 
ATOM     91  C   UNL A   1      45.906  23.476  34.688  1.00  0.00     0.006 A 
ENDBRANCH  67  84
ENDBRANCH  41  42
ENDBRANCH  33  36
ENDBRANCH  31  32
ENDBRANCH  30  31
ENDBRANCH  29  30
ENDBRANCH  28  29
ENDBRANCH   3  28
TORSDOF 17
ENDMDL
