MODEL 1
REMARK VINA RESULT:     -13.2      0.000      0.000
REMARK SMILES CC(C)[C@H](NC(=O)c1cc2cc(Cl)ccc2n1C)C(=O)N[C@@H](C(=O)NCCCCNC(=O)c1ccc(-c2c3nc(c(-c4c(F)cccc4F)c4ccc([nH]4)c(-c4c(F)cccc4F)c4nc(c(-c5c(F)cccc5F)c5ccc2[nH]5)C=C4)C=C3)cc1)c1ccccc1
REMARK SMILES IDX 26 1 25 2 23 3 24 4 22 6 21 7 19 8 20 9 4 11 2 12 1 13 3 14
REMARK SMILES IDX 5 15 6 16 7 18 8 19 9 20 17 21 10 22 16 23 18 24 11 25 15 26
REMARK SMILES IDX 12 27 14 28 13 29 87 30 88 31 92 32 89 33 91 34 90 35 27 36
REMARK SMILES IDX 28 37 29 38 30 39 31 40 32 42 33 43 34 44 86 45 35 46 85 47
REMARK SMILES IDX 36 48 37 49 38 50 79 51 39 52 84 53 78 54 80 55 40 56 83 57
REMARK SMILES IDX 77 58 76 59 41 61 67 62 50 63 66 64 51 65 54 66 65 67 81 68
REMARK SMILES IDX 52 69 53 70 64 72 82 73 55 74 42 75 43 76 48 77 44 78 45 79
REMARK SMILES IDX 47 80 49 81 46 82 68 83 69 84 74 85 70 86 71 87 73 88 75 89
REMARK SMILES IDX 72 90 56 91 57 92 62 93 58 94 59 95 61 96 63 97 60 98
REMARK H PARENT 25 5 21 10 5 17 30 41 80 60 54 71
REMARK Flexibility Score: inf
ROOT
ATOM      1  C   UNL A   1      36.446  22.782  25.560  1.00  0.00     0.116 C 
ENDROOT
BRANCH   1   2
ATOM      2  N   UNL A   1      35.567  21.960  26.378  1.00  0.00    -0.354 N 
ATOM      3  C   UNL A   1      34.517  21.136  26.067  1.00  0.00     0.247 C 
ATOM      4  O   UNL A   1      33.691  21.020  26.983  1.00  0.00    -0.272 OA
ATOM      5  H   UNL A   1      35.765  22.005  27.340  1.00  0.00     0.163 HD
BRANCH   3   6
ATOM      6  C   UNL A   1      34.297  20.416  24.657  1.00  0.00     0.202 C 
BRANCH   6   7
ATOM      7  N   UNL A   1      33.091  20.944  24.010  1.00  0.00    -0.339 N 
ATOM      8  C   UNL A   1      32.689  22.066  23.373  1.00  0.00     0.243 C 
ATOM      9  O   UNL A   1      31.835  21.892  22.491  1.00  0.00    -0.273 OA
ATOM     10  H   UNL A   1      32.358  20.288  24.054  1.00  0.00     0.164 HD
BRANCH   8  11
ATOM     11  C   UNL A   1      33.172  23.484  23.638  1.00  0.00     0.174 C 
BRANCH  11  12
ATOM     12  C   UNL A   1      32.348  24.256  24.727  1.00  0.00     0.015 C 
ATOM     13  C   UNL A   1      31.036  23.615  25.204  1.00  0.00     0.010 C 
ATOM     14  C   UNL A   1      33.198  24.659  25.940  1.00  0.00     0.010 C 
ENDBRANCH  11  12
BRANCH  11  15
ATOM     15  N   UNL A   1      33.415  24.238  22.415  1.00  0.00    -0.339 N 
ATOM     16  C   UNL A   1      33.065  25.494  21.976  1.00  0.00     0.268 C 
ATOM     17  H   UNL A   1      33.950  23.737  21.756  1.00  0.00     0.164 HD
ATOM     18  O   UNL A   1      33.039  25.525  20.735  1.00  0.00    -0.268 OA
BRANCH  16  19
ATOM     19  C   UNL A   1      32.835  26.736  22.739  1.00  0.00     0.107 A 
ATOM     20  C   UNL A   1      33.855  27.291  23.537  1.00  0.00     0.042 A 
ATOM     21  N   UNL A   1      31.706  27.427  23.174  1.00  0.00    -0.340 N 
ATOM     22  C   UNL A   1      33.330  28.293  24.395  1.00  0.00     0.002 A 
ATOM     23  C   UNL A   1      32.043  28.532  23.951  1.00  0.00     0.048 A 
ATOM     24  C   UNL A   1      30.399  26.885  23.471  1.00  0.00     0.150 C 
ATOM     25  C   UNL A   1      33.784  28.986  25.533  1.00  0.00     0.030 A 
ATOM     26  C   UNL A   1      31.207  29.524  24.496  1.00  0.00     0.028 A 
ATOM     27  C   UNL A   1      32.915  29.891  26.161  1.00  0.00     0.041 A 
ATOM     28  C   UNL A   1      31.661  30.185  25.633  1.00  0.00     0.023 A 
ATOM     29  Cl  UNL A   1      33.371  30.616  27.653  1.00  0.00    -0.084 Cl
ENDBRANCH  16  19
ENDBRANCH  11  15
ENDBRANCH   8  11
ENDBRANCH   6   7
BRANCH   6  30
ATOM     30  C   UNL A   1      33.982  18.896  24.881  1.00  0.00    -0.016 A 
ATOM     31  C   UNL A   1      34.827  17.882  24.359  1.00  0.00     0.006 A 
ATOM     32  C   UNL A   1      32.787  18.474  25.479  1.00  0.00     0.006 A 
ATOM     33  C   UNL A   1      34.447  16.541  24.321  1.00  0.00     0.000 A 
ATOM     34  C   UNL A   1      32.406  17.125  25.444  1.00  0.00     0.000 A 
ATOM     35  C   UNL A   1      33.222  16.165  24.848  1.00  0.00     0.000 A 
ENDBRANCH   6  30
ENDBRANCH   3   6
ENDBRANCH   1   2
BRANCH   1  36
ATOM     36  C   UNL A   1      37.904  22.698  26.066  1.00  0.00     0.023 C 
BRANCH  36  37
ATOM     37  C   UNL A   1      38.725  21.457  25.696  1.00  0.00     0.023 C 
BRANCH  37  38
ATOM     38  C   UNL A   1      40.068  21.305  26.425  1.00  0.00     0.116 C 
BRANCH  38  39
ATOM     39  N   UNL A   1      41.195  21.938  25.754  1.00  0.00    -0.352 N 
ATOM     40  C   UNL A   1      42.007  22.981  26.101  1.00  0.00     0.251 C 
ATOM     41  H   UNL A   1      41.415  21.537  24.882  1.00  0.00     0.163 HD
ATOM     42  O   UNL A   1      43.173  22.956  25.666  1.00  0.00    -0.269 OA
BRANCH  40  43
ATOM     43  C   UNL A   1      41.576  24.189  26.852  1.00  0.00     0.039 A 
ATOM     44  C   UNL A   1      40.583  25.061  26.413  1.00  0.00     0.014 A 
ATOM     45  C   UNL A   1      42.353  24.559  27.970  1.00  0.00     0.014 A 
ATOM     46  C   UNL A   1      40.432  26.305  27.023  1.00  0.00     0.010 A 
ATOM     47  C   UNL A   1      42.205  25.802  28.583  1.00  0.00     0.010 A 
ATOM     48  C   UNL A   1      41.274  26.699  28.075  1.00  0.00    -0.014 A 
BRANCH  48  49
ATOM     49  C   UNL A   1      41.086  28.046  28.615  1.00  0.00     0.031 A 
ATOM     50  C   UNL A   1      42.167  29.014  28.279  1.00  0.00     0.074 A 
ATOM     51  C   UNL A   1      40.041  28.459  29.362  1.00  0.00     0.049 A 
ATOM     52  N   UNL A   1      43.062  29.504  29.074  1.00  0.00    -0.248 NA
ATOM     53  C   UNL A   1      42.336  29.398  26.873  1.00  0.00     0.031 C 
ATOM     54  C   UNL A   1      38.757  27.804  29.609  1.00  0.00     0.029 A 
ATOM     55  N   UNL A   1      39.916  29.640  30.039  1.00  0.00    -0.354 N 
ATOM     56  C   UNL A   1      43.825  30.382  28.310  1.00  0.00     0.074 A 
ATOM     57  C   UNL A   1      43.406  30.194  26.943  1.00  0.00     0.031 C 
ATOM     58  C   UNL A   1      37.914  28.679  30.208  1.00  0.00     0.029 A 
ATOM     59  C   UNL A   1      38.642  29.899  30.521  1.00  0.00     0.049 A 
ATOM     60  H   UNL A   1      40.672  30.257  30.175  1.00  0.00     0.167 HD
ATOM     61  C   UNL A   1      44.628  31.320  28.887  1.00  0.00     0.037 A 
ATOM     62  C   UNL A   1      38.212  31.049  31.098  1.00  0.00     0.037 A 
ATOM     63  C   UNL A   1      44.890  31.014  30.270  1.00  0.00     0.049 A 
ATOM     64  C   UNL A   1      39.401  31.774  31.614  1.00  0.00     0.074 A 
ATOM     65  C   UNL A   1      45.484  29.964  30.942  1.00  0.00     0.029 A 
ATOM     66  N   UNL A   1      44.215  31.726  31.232  1.00  0.00    -0.354 N 
ATOM     67  N   UNL A   1      40.105  31.380  32.637  1.00  0.00    -0.248 NA
ATOM     68  C   UNL A   1      40.066  32.710  30.721  1.00  0.00     0.031 C 
ATOM     69  C   UNL A   1      44.718  29.812  32.137  1.00  0.00     0.029 A 
ATOM     70  C   UNL A   1      43.742  30.808  32.133  1.00  0.00     0.049 A 
ATOM     71  H   UNL A   1      44.096  32.702  31.268  1.00  0.00     0.167 HD
ATOM     72  C   UNL A   1      41.418  31.655  32.286  1.00  0.00     0.074 A 
ATOM     73  C   UNL A   1      41.325  32.556  31.139  1.00  0.00     0.031 C 
ATOM     74  C   UNL A   1      42.455  30.915  32.776  1.00  0.00     0.037 A 
BRANCH  61  75
ATOM     75  C   UNL A   1      44.898  32.690  28.315  1.00  0.00     0.057 A 
ATOM     76  C   UNL A   1      43.990  33.762  28.389  1.00  0.00     0.134 A 
ATOM     77  C   UNL A   1      46.217  33.044  27.975  1.00  0.00     0.134 A 
ATOM     78  F   UNL A   1      42.712  33.597  28.750  1.00  0.00    -0.206 F 
ATOM     79  C   UNL A   1      44.374  35.093  28.195  1.00  0.00     0.040 A 
ATOM     80  C   UNL A   1      46.623  34.376  27.826  1.00  0.00     0.040 A 
ATOM     81  F   UNL A   1      47.177  32.112  27.864  1.00  0.00    -0.206 F 
ATOM     82  C   UNL A   1      45.702  35.407  27.953  1.00  0.00     0.006 A 
ENDBRANCH  61  75
BRANCH  62  83
ATOM     83  C   UNL A   1      36.885  31.694  30.985  1.00  0.00     0.057 A 
ATOM     84  C   UNL A   1      36.505  32.365  29.810  1.00  0.00     0.134 A 
ATOM     85  C   UNL A   1      36.073  31.914  32.108  1.00  0.00     0.134 A 
ATOM     86  F   UNL A   1      37.254  32.294  28.700  1.00  0.00    -0.206 F 
ATOM     87  C   UNL A   1      35.393  33.211  29.754  1.00  0.00     0.040 A 
ATOM     88  C   UNL A   1      34.959  32.765  32.067  1.00  0.00     0.040 A 
ATOM     89  F   UNL A   1      36.378  31.360  33.290  1.00  0.00    -0.206 F 
ATOM     90  C   UNL A   1      34.622  33.425  30.889  1.00  0.00     0.006 A 
ENDBRANCH  62  83
BRANCH  74  91
ATOM     91  C   UNL A   1      42.167  29.948  33.889  1.00  0.00     0.057 A 
ATOM     92  C   UNL A   1      42.461  30.320  35.206  1.00  0.00     0.134 A 
ATOM     93  C   UNL A   1      41.741  28.627  33.683  1.00  0.00     0.134 A 
ATOM     94  F   UNL A   1      42.931  31.549  35.472  1.00  0.00    -0.206 F 
ATOM     95  C   UNL A   1      42.325  29.428  36.272  1.00  0.00     0.040 A 
ATOM     96  C   UNL A   1      41.562  27.739  34.747  1.00  0.00     0.040 A 
ATOM     97  F   UNL A   1      41.543  28.145  32.450  1.00  0.00    -0.206 F 
ATOM     98  C   UNL A   1      41.861  28.136  36.046  1.00  0.00     0.006 A 
ENDBRANCH  74  91
ENDBRANCH  48  49
ENDBRANCH  40  43
ENDBRANCH  38  39
ENDBRANCH  37  38
ENDBRANCH  36  37
ENDBRANCH   1  36
TORSDOF 17
ENDMDL
MODEL 2
REMARK VINA RESULT:     -12.1      4.727      9.600
REMARK SMILES CC(C)[C@H](NC(=O)c1cc2cc(Cl)ccc2n1C)C(=O)N[C@@H](C(=O)NCCCCNC(=O)c1ccc(-c2c3nc(c(-c4c(F)cccc4F)c4ccc([nH]4)c(-c4c(F)cccc4F)c4nc(c(-c5c(F)cccc5F)c5ccc2[nH]5)C=C4)C=C3)cc1)c1ccccc1
REMARK SMILES IDX 26 1 25 2 23 3 24 4 22 6 21 7 19 8 20 9 4 11 2 12 1 13 3 14
REMARK SMILES IDX 5 15 6 16 7 18 8 19 9 20 17 21 10 22 16 23 18 24 11 25 15 26
REMARK SMILES IDX 12 27 14 28 13 29 87 30 88 31 92 32 89 33 91 34 90 35 27 36
REMARK SMILES IDX 28 37 29 38 30 39 31 40 32 42 33 43 34 44 86 45 35 46 85 47
REMARK SMILES IDX 36 48 37 49 38 50 79 51 39 52 84 53 78 54 80 55 40 56 83 57
REMARK SMILES IDX 77 58 76 59 41 61 67 62 50 63 66 64 51 65 54 66 65 67 81 68
REMARK SMILES IDX 52 69 53 70 64 72 82 73 55 74 42 75 43 76 48 77 44 78 45 79
REMARK SMILES IDX 47 80 49 81 46 82 68 83 69 84 74 85 70 86 71 87 73 88 75 89
REMARK SMILES IDX 72 90 56 91 57 92 62 93 58 94 59 95 61 96 63 97 60 98
REMARK H PARENT 25 5 21 10 5 17 30 41 80 60 54 71
REMARK Flexibility Score: inf
ROOT
ATOM      1  C   UNL A   1      48.820  25.265  27.129  1.00  0.00     0.116 C 
ENDROOT
BRANCH   1   2
ATOM      2  N   UNL A   1      48.303  25.510  25.790  1.00  0.00    -0.354 N 
ATOM      3  C   UNL A   1      47.248  24.980  25.094  1.00  0.00     0.247 C 
ATOM      4  O   UNL A   1      47.402  25.007  23.865  1.00  0.00    -0.272 OA
ATOM      5  H   UNL A   1      48.809  26.188  25.288  1.00  0.00     0.163 HD
BRANCH   3   6
ATOM      6  C   UNL A   1      45.947  24.323  25.752  1.00  0.00     0.202 C 
BRANCH   6   7
ATOM      7  N   UNL A   1      45.175  23.612  24.727  1.00  0.00    -0.339 N 
ATOM      8  C   UNL A   1      44.474  22.463  24.600  1.00  0.00     0.243 C 
ATOM      9  O   UNL A   1      43.520  22.515  23.810  1.00  0.00    -0.273 OA
ATOM     10  H   UNL A   1      45.166  24.120  23.884  1.00  0.00     0.164 HD
BRANCH   8  11
ATOM     11  C   UNL A   1      44.748  21.147  25.313  1.00  0.00     0.174 C 
BRANCH  11  12
ATOM     12  C   UNL A   1      45.664  20.156  24.513  1.00  0.00     0.015 C 
ATOM     13  C   UNL A   1      46.606  19.255  25.326  1.00  0.00     0.010 C 
ATOM     14  C   UNL A   1      44.880  19.308  23.502  1.00  0.00     0.010 C 
ENDBRANCH  11  12
BRANCH  11  15
ATOM     15  N   UNL A   1      43.546  20.544  25.872  1.00  0.00    -0.339 N 
ATOM     16  C   UNL A   1      42.536  20.997  26.691  1.00  0.00     0.268 C 
ATOM     17  H   UNL A   1      43.430  19.603  25.606  1.00  0.00     0.164 HD
ATOM     18  O   UNL A   1      42.023  20.048  27.305  1.00  0.00    -0.268 OA
BRANCH  16  19
ATOM     19  C   UNL A   1      41.969  22.350  26.837  1.00  0.00     0.107 A 
ATOM     20  C   UNL A   1      42.523  23.271  27.748  1.00  0.00     0.042 A 
ATOM     21  N   UNL A   1      40.748  22.944  26.519  1.00  0.00    -0.340 N 
ATOM     22  C   UNL A   1      41.653  24.377  27.934  1.00  0.00     0.002 A 
ATOM     23  C   UNL A   1      40.686  24.265  26.953  1.00  0.00     0.048 A 
ATOM     24  C   UNL A   1      39.456  22.304  26.417  1.00  0.00     0.150 C 
ATOM     25  C   UNL A   1      41.547  25.432  28.860  1.00  0.00     0.030 A 
ATOM     26  C   UNL A   1      39.676  25.222  26.748  1.00  0.00     0.028 A 
ATOM     27  C   UNL A   1      40.472  26.326  28.741  1.00  0.00     0.041 A 
ATOM     28  C   UNL A   1      39.570  26.247  27.683  1.00  0.00     0.023 A 
ATOM     29  Cl  UNL A   1      40.212  27.514  29.958  1.00  0.00    -0.084 Cl
ENDBRANCH  16  19
ENDBRANCH  11  15
ENDBRANCH   8  11
ENDBRANCH   6   7
BRANCH   6  30
ATOM     30  C   UNL A   1      44.980  25.452  26.252  1.00  0.00    -0.016 A 
ATOM     31  C   UNL A   1      43.907  25.916  25.446  1.00  0.00     0.006 A 
ATOM     32  C   UNL A   1      45.216  26.146  27.447  1.00  0.00     0.006 A 
ATOM     33  C   UNL A   1      43.195  27.076  25.749  1.00  0.00     0.000 A 
ATOM     34  C   UNL A   1      44.497  27.310  27.752  1.00  0.00     0.000 A 
ATOM     35  C   UNL A   1      43.506  27.786  26.896  1.00  0.00     0.000 A 
ENDBRANCH   6  30
ENDBRANCH   3   6
ENDBRANCH   1   2
BRANCH   1  36
ATOM     36  C   UNL A   1      48.962  26.588  27.913  1.00  0.00     0.023 C 
BRANCH  36  37
ATOM     37  C   UNL A   1      48.501  26.613  29.375  1.00  0.00     0.023 C 
BRANCH  37  38
ATOM     38  C   UNL A   1      47.675  25.403  29.834  1.00  0.00     0.116 C 
BRANCH  38  39
ATOM     39  N   UNL A   1      47.399  25.365  31.263  1.00  0.00    -0.352 N 
ATOM     40  C   UNL A   1      46.338  25.794  32.009  1.00  0.00     0.251 C 
ATOM     41  H   UNL A   1      48.117  24.950  31.795  1.00  0.00     0.163 HD
ATOM     42  O   UNL A   1      46.098  25.170  33.059  1.00  0.00    -0.269 OA
BRANCH  40  43
ATOM     43  C   UNL A   1      45.529  27.008  31.728  1.00  0.00     0.039 A 
ATOM     44  C   UNL A   1      46.028  28.307  31.801  1.00  0.00     0.014 A 
ATOM     45  C   UNL A   1      44.139  26.828  31.564  1.00  0.00     0.014 A 
ATOM     46  C   UNL A   1      45.150  29.389  31.798  1.00  0.00     0.010 A 
ATOM     47  C   UNL A   1      43.258  27.908  31.560  1.00  0.00     0.010 A 
ATOM     48  C   UNL A   1      43.761  29.192  31.728  1.00  0.00    -0.014 A 
BRANCH  48  49
ATOM     49  C   UNL A   1      42.911  30.380  31.794  1.00  0.00     0.031 A 
ATOM     50  C   UNL A   1      42.152  30.541  33.066  1.00  0.00     0.074 A 
ATOM     51  C   UNL A   1      42.774  31.309  30.824  1.00  0.00     0.049 A 
ATOM     52  N   UNL A   1      40.881  30.395  33.249  1.00  0.00    -0.248 NA
ATOM     53  C   UNL A   1      42.914  30.787  34.296  1.00  0.00     0.031 C 
ATOM     54  C   UNL A   1      43.578  31.523  29.621  1.00  0.00     0.029 A 
ATOM     55  N   UNL A   1      41.860  32.323  30.765  1.00  0.00    -0.354 N 
ATOM     56  C   UNL A   1      40.643  30.679  34.591  1.00  0.00     0.074 A 
ATOM     57  C   UNL A   1      41.940  30.805  35.210  1.00  0.00     0.031 C 
ATOM     58  C   UNL A   1      43.243  32.712  29.063  1.00  0.00     0.029 A 
ATOM     59  C   UNL A   1      42.106  33.267  29.780  1.00  0.00     0.049 A 
ATOM     60  H   UNL A   1      41.087  32.378  31.373  1.00  0.00     0.167 HD
ATOM     61  C   UNL A   1      39.393  30.956  35.054  1.00  0.00     0.037 A 
ATOM     62  C   UNL A   1      41.444  34.437  29.595  1.00  0.00     0.037 A 
ATOM     63  C   UNL A   1      38.378  30.522  34.129  1.00  0.00     0.049 A 
ATOM     64  C   UNL A   1      40.113  34.317  30.242  1.00  0.00     0.074 A 
ATOM     65  C   UNL A   1      38.005  29.307  33.587  1.00  0.00     0.029 A 
ATOM     66  N   UNL A   1      37.757  31.471  33.353  1.00  0.00    -0.354 N 
ATOM     67  N   UNL A   1      39.151  33.561  29.793  1.00  0.00    -0.248 NA
ATOM     68  C   UNL A   1      40.000  34.708  31.639  1.00  0.00     0.031 C 
ATOM     69  C   UNL A   1      37.628  29.604  32.244  1.00  0.00     0.029 A 
ATOM     70  C   UNL A   1      37.752  30.982  32.072  1.00  0.00     0.049 A 
ATOM     71  H   UNL A   1      37.388  32.331  33.656  1.00  0.00     0.167 HD
ATOM     72  C   UNL A   1      38.567  33.024  30.930  1.00  0.00     0.074 A 
ATOM     73  C   UNL A   1      39.069  33.836  32.036  1.00  0.00     0.031 C 
ATOM     74  C   UNL A   1      37.951  31.806  30.905  1.00  0.00     0.037 A 
BRANCH  61  75
ATOM     75  C   UNL A   1      39.083  31.922  36.171  1.00  0.00     0.057 A 
ATOM     76  C   UNL A   1      39.463  33.278  36.161  1.00  0.00     0.134 A 
ATOM     77  C   UNL A   1      38.105  31.581  37.124  1.00  0.00     0.134 A 
ATOM     78  F   UNL A   1      40.342  33.771  35.282  1.00  0.00    -0.206 F 
ATOM     79  C   UNL A   1      38.874  34.233  36.996  1.00  0.00     0.040 A 
ATOM     80  C   UNL A   1      37.475  32.536  37.930  1.00  0.00     0.040 A 
ATOM     81  F   UNL A   1      37.664  30.318  37.239  1.00  0.00    -0.206 F 
ATOM     82  C   UNL A   1      37.848  33.872  37.855  1.00  0.00     0.006 A 
ENDBRANCH  61  75
BRANCH  62  83
ATOM     83  C   UNL A   1      41.987  35.739  29.147  1.00  0.00     0.057 A 
ATOM     84  C   UNL A   1      41.739  36.217  27.848  1.00  0.00     0.134 A 
ATOM     85  C   UNL A   1      42.985  36.410  29.869  1.00  0.00     0.134 A 
ATOM     86  F   UNL A   1      40.866  35.600  27.039  1.00  0.00    -0.206 F 
ATOM     87  C   UNL A   1      42.446  37.290  27.295  1.00  0.00     0.040 A 
ATOM     88  C   UNL A   1      43.705  37.483  29.324  1.00  0.00     0.040 A 
ATOM     89  F   UNL A   1      43.332  36.000  31.097  1.00  0.00    -0.206 F 
ATOM     90  C   UNL A   1      43.443  37.919  28.028  1.00  0.00     0.006 A 
ENDBRANCH  62  83
BRANCH  74  91
ATOM     91  C   UNL A   1      37.711  31.165  29.568  1.00  0.00     0.057 A 
ATOM     92  C   UNL A   1      36.409  31.125  29.057  1.00  0.00     0.134 A 
ATOM     93  C   UNL A   1      38.697  30.474  28.848  1.00  0.00     0.134 A 
ATOM     94  F   UNL A   1      35.403  31.712  29.724  1.00  0.00    -0.206 F 
ATOM     95  C   UNL A   1      36.100  30.444  27.878  1.00  0.00     0.040 A 
ATOM     96  C   UNL A   1      38.408  29.824  27.645  1.00  0.00     0.040 A 
ATOM     97  F   UNL A   1      39.947  30.360  29.314  1.00  0.00    -0.206 F 
ATOM     98  C   UNL A   1      37.104  29.801  27.160  1.00  0.00     0.006 A 
ENDBRANCH  74  91
ENDBRANCH  48  49
ENDBRANCH  40  43
ENDBRANCH  38  39
ENDBRANCH  37  38
ENDBRANCH  36  37
ENDBRANCH   1  36
TORSDOF 17
ENDMDL
MODEL 3
REMARK VINA RESULT:     -12.0      1.609      5.209
REMARK SMILES CC(C)[C@H](NC(=O)c1cc2cc(Cl)ccc2n1C)C(=O)N[C@@H](C(=O)NCCCCNC(=O)c1ccc(-c2c3nc(c(-c4c(F)cccc4F)c4ccc([nH]4)c(-c4c(F)cccc4F)c4nc(c(-c5c(F)cccc5F)c5ccc2[nH]5)C=C4)C=C3)cc1)c1ccccc1
REMARK SMILES IDX 26 1 25 2 23 3 24 4 22 6 21 7 19 8 20 9 4 11 2 12 1 13 3 14
REMARK SMILES IDX 5 15 6 16 7 18 8 19 9 20 17 21 10 22 16 23 18 24 11 25 15 26
REMARK SMILES IDX 12 27 14 28 13 29 87 30 88 31 92 32 89 33 91 34 90 35 27 36
REMARK SMILES IDX 28 37 29 38 30 39 31 40 32 42 33 43 34 44 86 45 35 46 85 47
REMARK SMILES IDX 36 48 37 49 38 50 79 51 39 52 84 53 78 54 80 55 40 56 83 57
REMARK SMILES IDX 77 58 76 59 41 61 67 62 50 63 66 64 51 65 54 66 65 67 81 68
REMARK SMILES IDX 52 69 53 70 64 72 82 73 55 74 42 75 43 76 48 77 44 78 45 79
REMARK SMILES IDX 47 80 49 81 46 82 68 83 69 84 74 85 70 86 71 87 73 88 75 89
REMARK SMILES IDX 72 90 56 91 57 92 62 93 58 94 59 95 61 96 63 97 60 98
REMARK H PARENT 25 5 21 10 5 17 30 41 80 60 54 71
REMARK Flexibility Score: inf
ROOT
ATOM      1  C   UNL A   1      36.270  22.851  25.900  1.00  0.00     0.116 C 
ENDROOT
BRANCH   1   2
ATOM      2  N   UNL A   1      35.289  22.025  26.588  1.00  0.00    -0.354 N 
ATOM      3  C   UNL A   1      34.291  21.202  26.135  1.00  0.00     0.247 C 
ATOM      4  O   UNL A   1      33.350  21.081  26.931  1.00  0.00    -0.272 OA
ATOM      5  H   UNL A   1      35.356  22.064  27.569  1.00  0.00     0.163 HD
BRANCH   3   6
ATOM      6  C   UNL A   1      34.263  20.490  24.704  1.00  0.00     0.202 C 
BRANCH   6   7
ATOM      7  N   UNL A   1      33.110  20.966  23.932  1.00  0.00    -0.339 N 
ATOM      8  C   UNL A   1      32.738  22.062  23.234  1.00  0.00     0.243 C 
ATOM      9  O   UNL A   1      31.979  21.844  22.278  1.00  0.00    -0.273 OA
ATOM     10  H   UNL A   1      32.396  20.288  23.920  1.00  0.00     0.164 HD
BRANCH   8  11
ATOM     11  C   UNL A   1      33.150  23.500  23.514  1.00  0.00     0.174 C 
BRANCH  11  12
ATOM     12  C   UNL A   1      32.260  24.234  24.576  1.00  0.00     0.015 C 
ATOM     13  C   UNL A   1      31.011  23.495  25.082  1.00  0.00     0.010 C 
ATOM     14  C   UNL A   1      33.070  24.758  25.770  1.00  0.00     0.010 C 
ENDBRANCH  11  12
BRANCH  11  15
ATOM     15  N   UNL A   1      33.398  24.265  22.299  1.00  0.00    -0.339 N 
ATOM     16  C   UNL A   1      33.038  25.520  21.864  1.00  0.00     0.268 C 
ATOM     17  H   UNL A   1      33.946  23.775  21.643  1.00  0.00     0.164 HD
ATOM     18  O   UNL A   1      33.026  25.558  20.622  1.00  0.00    -0.268 OA
BRANCH  16  19
ATOM     19  C   UNL A   1      32.785  26.753  22.632  1.00  0.00     0.107 A 
ATOM     20  C   UNL A   1      33.797  27.331  23.424  1.00  0.00     0.042 A 
ATOM     21  N   UNL A   1      31.643  27.417  23.078  1.00  0.00    -0.340 N 
ATOM     22  C   UNL A   1      33.255  28.317  24.289  1.00  0.00     0.002 A 
ATOM     23  C   UNL A   1      31.959  28.527  23.855  1.00  0.00     0.048 A 
ATOM     24  C   UNL A   1      30.352  26.843  23.382  1.00  0.00     0.150 C 
ATOM     25  C   UNL A   1      33.701  29.017  25.425  1.00  0.00     0.030 A 
ATOM     26  C   UNL A   1      31.105  29.498  24.409  1.00  0.00     0.028 A 
ATOM     27  C   UNL A   1      32.816  29.900  26.062  1.00  0.00     0.041 A 
ATOM     28  C   UNL A   1      31.551  30.166  25.544  1.00  0.00     0.023 A 
ATOM     29  Cl  UNL A   1      33.266  30.631  27.553  1.00  0.00    -0.084 Cl
ENDBRANCH  16  19
ENDBRANCH  11  15
ENDBRANCH   8  11
ENDBRANCH   6   7
BRANCH   6  30
ATOM     30  C   UNL A   1      34.002  18.954  24.882  1.00  0.00    -0.016 A 
ATOM     31  C   UNL A   1      34.972  17.990  24.499  1.00  0.00     0.006 A 
ATOM     32  C   UNL A   1      32.753  18.463  25.289  1.00  0.00     0.006 A 
ATOM     33  C   UNL A   1      34.677  16.631  24.408  1.00  0.00     0.000 A 
ATOM     34  C   UNL A   1      32.458  17.095  25.200  1.00  0.00     0.000 A 
ATOM     35  C   UNL A   1      33.408  16.185  24.740  1.00  0.00     0.000 A 
ENDBRANCH   6  30
ENDBRANCH   3   6
ENDBRANCH   1   2
BRANCH   1  36
ATOM     36  C   UNL A   1      37.576  22.063  25.656  1.00  0.00     0.023 C 
BRANCH  36  37
ATOM     37  C   UNL A   1      38.899  22.710  26.080  1.00  0.00     0.023 C 
BRANCH  37  38
ATOM     38  C   UNL A   1      40.043  21.739  26.405  1.00  0.00     0.116 C 
BRANCH  38  39
ATOM     39  N   UNL A   1      41.236  21.914  25.589  1.00  0.00    -0.352 N 
ATOM     40  C   UNL A   1      42.484  22.395  25.873  1.00  0.00     0.251 C 
ATOM     41  H   UNL A   1      41.123  21.633  24.653  1.00  0.00     0.163 HD
ATOM     42  O   UNL A   1      43.430  21.934  25.207  1.00  0.00    -0.269 OA
BRANCH  40  43
ATOM     43  C   UNL A   1      42.781  23.499  26.823  1.00  0.00     0.039 A 
ATOM     44  C   UNL A   1      41.829  24.086  27.652  1.00  0.00     0.014 A 
ATOM     45  C   UNL A   1      44.056  24.096  26.731  1.00  0.00     0.014 A 
ATOM     46  C   UNL A   1      42.117  25.284  28.301  1.00  0.00     0.010 A 
ATOM     47  C   UNL A   1      44.349  25.295  27.379  1.00  0.00     0.010 A 
ATOM     48  C   UNL A   1      43.358  25.918  28.128  1.00  0.00    -0.014 A 
BRANCH  48  49
ATOM     49  C   UNL A   1      43.554  27.204  28.797  1.00  0.00     0.031 A 
ATOM     50  C   UNL A   1      43.782  27.120  30.267  1.00  0.00     0.074 A 
ATOM     51  C   UNL A   1      43.549  28.414  28.201  1.00  0.00     0.049 A 
ATOM     52  N   UNL A   1      42.970  27.467  31.212  1.00  0.00    -0.248 NA
ATOM     53  C   UNL A   1      45.013  26.474  30.738  1.00  0.00     0.031 C 
ATOM     54  C   UNL A   1      43.607  28.750  26.779  1.00  0.00     0.029 A 
ATOM     55  N   UNL A   1      43.539  29.641  28.804  1.00  0.00    -0.354 N 
ATOM     56  C   UNL A   1      43.638  27.230  32.410  1.00  0.00     0.074 A 
ATOM     57  C   UNL A   1      44.843  26.517  32.062  1.00  0.00     0.031 C 
ATOM     58  C   UNL A   1      43.830  30.080  26.640  1.00  0.00     0.029 A 
ATOM     59  C   UNL A   1      43.781  30.707  27.951  1.00  0.00     0.049 A 
ATOM     60  H   UNL A   1      43.372  29.757  29.768  1.00  0.00     0.167 HD
ATOM     61  C   UNL A   1      43.227  27.789  33.582  1.00  0.00     0.037 A 
ATOM     62  C   UNL A   1      43.964  32.003  28.308  1.00  0.00     0.037 A 
ATOM     63  C   UNL A   1      41.870  28.263  33.494  1.00  0.00     0.049 A 
ATOM     64  C   UNL A   1      43.355  32.201  29.647  1.00  0.00     0.074 A 
ATOM     65  C   UNL A   1      40.645  27.677  33.241  1.00  0.00     0.029 A 
ATOM     66  N   UNL A   1      41.661  29.614  33.357  1.00  0.00    -0.354 N 
ATOM     67  N   UNL A   1      42.072  32.195  29.870  1.00  0.00    -0.248 NA
ATOM     68  C   UNL A   1      44.194  31.974  30.815  1.00  0.00     0.031 C 
ATOM     69  C   UNL A   1      39.928  28.641  32.472  1.00  0.00     0.029 A 
ATOM     70  C   UNL A   1      40.745  29.765  32.349  1.00  0.00     0.049 A 
ATOM     71  H   UNL A   1      42.085  30.332  33.880  1.00  0.00     0.167 HD
ATOM     72  C   UNL A   1      41.929  31.535  31.081  1.00  0.00     0.074 A 
ATOM     73  C   UNL A   1      43.271  31.505  31.659  1.00  0.00     0.031 C 
ATOM     74  C   UNL A   1      40.797  30.831  31.379  1.00  0.00     0.037 A 
BRANCH  61  75
ATOM     75  C   UNL A   1      44.146  28.223  34.697  1.00  0.00     0.057 A 
ATOM     76  C   UNL A   1      45.092  29.259  34.573  1.00  0.00     0.134 A 
ATOM     77  C   UNL A   1      43.860  27.828  36.017  1.00  0.00     0.134 A 
ATOM     78  F   UNL A   1      45.433  29.781  33.389  1.00  0.00    -0.206 F 
ATOM     79  C   UNL A   1      45.668  29.892  35.679  1.00  0.00     0.040 A 
ATOM     80  C   UNL A   1      44.393  28.487  37.131  1.00  0.00     0.040 A 
ATOM     81  F   UNL A   1      42.981  26.845  36.268  1.00  0.00    -0.206 F 
ATOM     82  C   UNL A   1      45.289  29.535  36.963  1.00  0.00     0.006 A 
ENDBRANCH  61  75
BRANCH  62  83
ATOM     83  C   UNL A   1      44.870  33.004  27.699  1.00  0.00     0.057 A 
ATOM     84  C   UNL A   1      44.360  34.153  27.071  1.00  0.00     0.134 A 
ATOM     85  C   UNL A   1      46.226  32.728  27.469  1.00  0.00     0.134 A 
ATOM     86  F   UNL A   1      43.060  34.467  27.153  1.00  0.00    -0.206 F 
ATOM     87  C   UNL A   1      45.145  34.973  26.254  1.00  0.00     0.040 A 
ATOM     88  C   UNL A   1      47.023  33.539  26.647  1.00  0.00     0.040 A 
ATOM     89  F   UNL A   1      46.796  31.628  27.982  1.00  0.00    -0.206 F 
ATOM     90  C   UNL A   1      46.479  34.661  26.028  1.00  0.00     0.006 A 
ENDBRANCH  62  83
BRANCH  74  91
ATOM     91  C   UNL A   1      39.613  30.984  30.467  1.00  0.00     0.057 A 
ATOM     92  C   UNL A   1      38.581  31.855  30.833  1.00  0.00     0.134 A 
ATOM     93  C   UNL A   1      39.405  30.199  29.323  1.00  0.00     0.134 A 
ATOM     94  F   UNL A   1      38.684  32.593  31.950  1.00  0.00    -0.206 F 
ATOM     95  C   UNL A   1      37.403  31.956  30.090  1.00  0.00     0.040 A 
ATOM     96  C   UNL A   1      38.248  30.321  28.549  1.00  0.00     0.040 A 
ATOM     97  F   UNL A   1      40.284  29.257  28.957  1.00  0.00    -0.206 F 
ATOM     98  C   UNL A   1      37.239  31.197  28.936  1.00  0.00     0.006 A 
ENDBRANCH  74  91
ENDBRANCH  48  49
ENDBRANCH  40  43
ENDBRANCH  38  39
ENDBRANCH  37  38
ENDBRANCH  36  37
ENDBRANCH   1  36
TORSDOF 17
ENDMDL
