MODEL 1
REMARK VINA RESULT:     -13.4      0.000      0.000
REMARK SMILES O=C(NCCCCNC(=O)c1cc(N2C(=O)[C@H]3[C@@H]4C=C[C@@H]([C@@H]5C[C@H]45)[C@@H]3C2=O)ccc1Cl)c1ccc(-c2c3nc(c(-c4c(F)cccc4F)c4ccc([nH]4)c(-c4c(F)cccc4F)c4nc(c(-c5c(F)cccc5F)c5ccc2[nH]5)C=C4)C=C3)cc1
REMARK SMILES IDX 5 1 4 2 3 3 1 4 2 5 32 7 33 8 85 9 34 10 84 11 35 12 36 13
REMARK SMILES IDX 37 14 78 15 38 16 83 17 77 18 79 19 39 20 82 21 76 22 75 23
REMARK SMILES IDX 40 25 66 26 49 27 65 28 50 29 53 30 64 31 80 32 51 33 52 34
REMARK SMILES IDX 63 36 81 37 54 38 41 39 42 40 47 41 43 42 44 43 46 44 48 45
REMARK SMILES IDX 45 46 67 47 68 48 73 49 69 50 70 51 72 52 74 53 71 54 55 55
REMARK SMILES IDX 56 56 61 57 57 58 58 59 60 60 62 61 59 62 6 63 7 64 8 65
REMARK SMILES IDX 9 66 10 68 11 69 12 70 30 71 13 72 29 73 31 74 28 75 14 76
REMARK SMILES IDX 15 77 26 78 16 79 17 80 25 81 27 82 18 83 21 84 19 85 24 86
REMARK SMILES IDX 20 87 22 88 23 89
REMARK H PARENT 3 6 79 24 53 35 8 67
REMARK Flexibility Score: inf
ROOT
ATOM      1  C   UNL A   1      37.838  19.739  25.004  1.00  0.00     0.023 C 
ENDROOT
BRANCH   1   2
ATOM      2  C   UNL A   1      39.037  20.145  25.853  1.00  0.00     0.116 C 
BRANCH   2   3
ATOM      3  N   UNL A   1      40.106  19.160  25.820  1.00  0.00    -0.352 N 
ATOM      4  O   UNL A   1      42.229  18.401  25.755  1.00  0.00    -0.269 OA
ATOM      5  C   UNL A   1      41.458  19.330  25.983  1.00  0.00     0.251 C 
ATOM      6  H   UNL A   1      39.817  18.233  25.658  1.00  0.00     0.163 HD
BRANCH   5   7
ATOM      7  C   UNL A   1      41.993  20.641  26.406  1.00  0.00     0.039 A 
ATOM      8  C   UNL A   1      42.214  20.926  27.756  1.00  0.00     0.014 A 
ATOM      9  C   UNL A   1      42.289  21.593  25.428  1.00  0.00     0.014 A 
ATOM     10  C   UNL A   1      42.601  22.206  28.140  1.00  0.00     0.010 A 
ATOM     11  C   UNL A   1      42.754  22.853  25.811  1.00  0.00     0.010 A 
ATOM     12  C   UNL A   1      42.884  23.179  27.171  1.00  0.00    -0.014 A 
BRANCH  12  13
ATOM     13  C   UNL A   1      43.365  24.523  27.572  1.00  0.00     0.031 A 
ATOM     14  C   UNL A   1      42.397  25.586  28.003  1.00  0.00     0.074 A 
ATOM     15  C   UNL A   1      44.682  24.797  27.502  1.00  0.00     0.049 A 
ATOM     16  N   UNL A   1      42.619  26.847  28.276  1.00  0.00    -0.248 NA
ATOM     17  C   UNL A   1      40.989  25.182  28.131  1.00  0.00     0.031 C 
ATOM     18  C   UNL A   1      45.719  23.845  27.101  1.00  0.00     0.029 A 
ATOM     19  N   UNL A   1      45.368  25.958  27.743  1.00  0.00    -0.354 N 
ATOM     20  C   UNL A   1      41.380  27.393  28.583  1.00  0.00     0.074 A 
ATOM     21  C   UNL A   1      40.406  26.332  28.436  1.00  0.00     0.031 C 
ATOM     22  C   UNL A   1      46.909  24.459  27.124  1.00  0.00     0.029 A 
ATOM     23  C   UNL A   1      46.711  25.861  27.475  1.00  0.00     0.049 A 
ATOM     24  H   UNL A   1      44.941  26.780  28.077  1.00  0.00     0.167 HD
ATOM     25  C   UNL A   1      41.086  28.663  28.953  1.00  0.00     0.037 A 
ATOM     26  C   UNL A   1      47.673  26.802  27.468  1.00  0.00     0.037 A 
ATOM     27  C   UNL A   1      42.066  29.710  29.092  1.00  0.00     0.049 A 
ATOM     28  C   UNL A   1      47.320  28.216  27.829  1.00  0.00     0.074 A 
ATOM     29  C   UNL A   1      41.878  31.020  29.500  1.00  0.00     0.029 A 
ATOM     30  N   UNL A   1      43.419  29.571  28.810  1.00  0.00    -0.354 N 
ATOM     31  N   UNL A   1      46.151  28.715  28.152  1.00  0.00    -0.248 NA
ATOM     32  C   UNL A   1      48.413  29.195  27.827  1.00  0.00     0.031 C 
ATOM     33  C   UNL A   1      43.101  31.688  29.401  1.00  0.00     0.029 A 
ATOM     34  C   UNL A   1      44.069  30.780  29.003  1.00  0.00     0.049 A 
ATOM     35  H   UNL A   1      43.851  28.738  28.516  1.00  0.00     0.167 HD
ATOM     36  C   UNL A   1      46.373  30.059  28.422  1.00  0.00     0.074 A 
ATOM     37  C   UNL A   1      47.787  30.296  28.223  1.00  0.00     0.031 C 
ATOM     38  C   UNL A   1      45.482  31.004  28.810  1.00  0.00     0.037 A 
BRANCH  25  39
ATOM     39  C   UNL A   1      39.639  28.997  29.189  1.00  0.00     0.057 A 
ATOM     40  C   UNL A   1      39.057  28.949  30.463  1.00  0.00     0.134 A 
ATOM     41  C   UNL A   1      38.816  29.381  28.121  1.00  0.00     0.134 A 
ATOM     42  F   UNL A   1      39.784  28.583  31.529  1.00  0.00    -0.206 F 
ATOM     43  C   UNL A   1      37.702  29.225  30.659  1.00  0.00     0.040 A 
ATOM     44  C   UNL A   1      37.468  29.691  28.311  1.00  0.00     0.040 A 
ATOM     45  F   UNL A   1      39.307  29.462  26.875  1.00  0.00    -0.206 F 
ATOM     46  C   UNL A   1      36.904  29.601  29.582  1.00  0.00     0.006 A 
ENDBRANCH  25  39
BRANCH  26  47
ATOM     47  C   UNL A   1      49.054  26.420  27.088  1.00  0.00     0.057 A 
ATOM     48  C   UNL A   1      49.982  26.007  28.049  1.00  0.00     0.134 A 
ATOM     49  C   UNL A   1      49.460  26.400  25.746  1.00  0.00     0.134 A 
ATOM     50  F   UNL A   1      49.656  26.016  29.350  1.00  0.00    -0.206 F 
ATOM     51  C   UNL A   1      51.266  25.592  27.693  1.00  0.00     0.040 A 
ATOM     52  C   UNL A   1      50.730  25.962  25.373  1.00  0.00     0.040 A 
ATOM     53  F   UNL A   1      48.611  26.772  24.777  1.00  0.00    -0.206 F 
ATOM     54  C   UNL A   1      51.639  25.559  26.349  1.00  0.00     0.006 A 
ENDBRANCH  26  47
BRANCH  38  55
ATOM     55  C   UNL A   1      46.010  32.378  29.104  1.00  0.00     0.057 A 
ATOM     56  C   UNL A   1      46.516  32.729  30.360  1.00  0.00     0.134 A 
ATOM     57  C   UNL A   1      46.084  33.336  28.085  1.00  0.00     0.134 A 
ATOM     58  F   UNL A   1      46.462  31.863  31.383  1.00  0.00    -0.206 F 
ATOM     59  C   UNL A   1      47.074  33.988  30.594  1.00  0.00     0.040 A 
ATOM     60  C   UNL A   1      46.664  34.588  28.299  1.00  0.00     0.040 A 
ATOM     61  F   UNL A   1      45.621  33.061  26.856  1.00  0.00    -0.206 F 
ATOM     62  C   UNL A   1      47.161  34.916  29.558  1.00  0.00     0.006 A 
ENDBRANCH  38  55
ENDBRANCH  12  13
ENDBRANCH   5   7
ENDBRANCH   2   3
ENDBRANCH   1   2
BRANCH   1  63
ATOM     63  C   UNL A   1      37.026  20.897  24.423  1.00  0.00     0.023 C 
BRANCH  63  64
ATOM     64  C   UNL A   1      36.834  22.086  25.359  1.00  0.00     0.116 C 
BRANCH  64  65
ATOM     65  N   UNL A   1      35.970  21.777  26.483  1.00  0.00    -0.352 N 
ATOM     66  C   UNL A   1      34.605  21.669  26.514  1.00  0.00     0.252 C 
ATOM     67  H   UNL A   1      36.428  21.624  27.342  1.00  0.00     0.163 HD
ATOM     68  O   UNL A   1      34.024  21.454  27.574  1.00  0.00    -0.269 OA
BRANCH  66  69
ATOM     69  C   UNL A   1      33.810  21.870  25.292  1.00  0.00     0.060 A 
ATOM     70  C   UNL A   1      33.441  23.193  24.995  1.00  0.00     0.042 A 
ATOM     71  C   UNL A   1      33.356  20.809  24.498  1.00  0.00     0.053 A 
ATOM     72  C   UNL A   1      32.591  23.447  23.921  1.00  0.00     0.053 A 
ATOM     73  C   UNL A   1      32.581  21.080  23.371  1.00  0.00     0.023 A 
ATOM     74  Cl  UNL A   1      33.653  19.149  24.866  1.00  0.00    -0.083 Cl
ATOM     75  C   UNL A   1      32.180  22.387  23.100  1.00  0.00     0.028 A 
BRANCH  72  76
ATOM     76  N   UNL A   1      32.182  24.756  23.605  1.00  0.00    -0.250 N 
ATOM     77  C   UNL A   1      31.182  25.435  24.322  1.00  0.00     0.238 C 
ATOM     78  C   UNL A   1      32.950  25.624  22.801  1.00  0.00     0.238 C 
ATOM     79  O   UNL A   1      30.470  25.046  25.230  1.00  0.00    -0.274 OA
ATOM     80  C   UNL A   1      31.180  26.802  23.715  1.00  0.00     0.100 C 
ATOM     81  C   UNL A   1      32.679  26.940  23.433  1.00  0.00     0.100 C 
ATOM     82  O   UNL A   1      33.782  25.376  21.952  1.00  0.00    -0.274 OA
ATOM     83  C   UNL A   1      30.649  28.129  24.281  1.00  0.00     0.028 C 
ATOM     84  C   UNL A   1      33.011  28.398  23.159  1.00  0.00     0.028 C 
ATOM     85  C   UNL A   1      30.653  28.988  22.991  1.00  0.00    -0.026 C 
ATOM     86  C   UNL A   1      31.604  28.875  25.233  1.00  0.00     0.001 C 
ATOM     87  C   UNL A   1      31.863  29.070  22.388  1.00  0.00    -0.026 C 
ATOM     88  C   UNL A   1      32.988  29.054  24.589  1.00  0.00     0.001 C 
ATOM     89  C   UNL A   1      32.818  28.340  25.934  1.00  0.00     0.009 C 
ENDBRANCH  72  76
ENDBRANCH  66  69
ENDBRANCH  64  65
ENDBRANCH  63  64
ENDBRANCH   1  63
TORSDOF 12
ENDMDL
MODEL 2
REMARK VINA RESULT:     -13.3      4.892     10.102
REMARK SMILES O=C(NCCCCNC(=O)c1cc(N2C(=O)[C@H]3[C@@H]4C=C[C@@H]([C@@H]5C[C@H]45)[C@@H]3C2=O)ccc1Cl)c1ccc(-c2c3nc(c(-c4c(F)cccc4F)c4ccc([nH]4)c(-c4c(F)cccc4F)c4nc(c(-c5c(F)cccc5F)c5ccc2[nH]5)C=C4)C=C3)cc1
REMARK SMILES IDX 5 1 4 2 3 3 1 4 2 5 32 7 33 8 85 9 34 10 84 11 35 12 36 13
REMARK SMILES IDX 37 14 78 15 38 16 83 17 77 18 79 19 39 20 82 21 76 22 75 23
REMARK SMILES IDX 40 25 66 26 49 27 65 28 50 29 53 30 64 31 80 32 51 33 52 34
REMARK SMILES IDX 63 36 81 37 54 38 41 39 42 40 47 41 43 42 44 43 46 44 48 45
REMARK SMILES IDX 45 46 67 47 68 48 73 49 69 50 70 51 72 52 74 53 71 54 55 55
REMARK SMILES IDX 56 56 61 57 57 58 58 59 60 60 62 61 59 62 6 63 7 64 8 65
REMARK SMILES IDX 9 66 10 68 11 69 12 70 30 71 13 72 29 73 31 74 28 75 14 76
REMARK SMILES IDX 15 77 26 78 16 79 17 80 25 81 27 82 18 83 21 84 19 85 24 86
REMARK SMILES IDX 20 87 22 88 23 89
REMARK H PARENT 3 6 79 24 53 35 8 67
REMARK Flexibility Score: inf
ROOT
ATOM      1  C   UNL A   1      31.434  31.943  26.494  1.00  0.00     0.023 C 
ENDROOT
BRANCH   1   2
ATOM      2  C   UNL A   1      32.671  32.518  27.175  1.00  0.00     0.116 C 
BRANCH   2   3
ATOM      3  N   UNL A   1      32.476  33.885  27.629  1.00  0.00    -0.352 N 
ATOM      4  O   UNL A   1      32.736  35.689  28.958  1.00  0.00    -0.269 OA
ATOM      5  C   UNL A   1      33.152  34.594  28.591  1.00  0.00     0.251 C 
ATOM      6  H   UNL A   1      31.750  34.377  27.180  1.00  0.00     0.163 HD
BRANCH   5   7
ATOM      7  C   UNL A   1      34.369  34.026  29.207  1.00  0.00     0.039 A 
ATOM      8  C   UNL A   1      35.641  34.425  28.788  1.00  0.00     0.014 A 
ATOM      9  C   UNL A   1      34.229  33.088  30.233  1.00  0.00     0.014 A 
ATOM     10  C   UNL A   1      36.770  33.789  29.296  1.00  0.00     0.010 A 
ATOM     11  C   UNL A   1      35.366  32.508  30.798  1.00  0.00     0.010 A 
ATOM     12  C   UNL A   1      36.644  32.832  30.312  1.00  0.00    -0.014 A 
BRANCH  12  13
ATOM     13  C   UNL A   1      37.847  32.202  30.907  1.00  0.00     0.031 A 
ATOM     14  C   UNL A   1      38.571  31.101  30.188  1.00  0.00     0.074 A 
ATOM     15  C   UNL A   1      38.262  32.599  32.125  1.00  0.00     0.049 A 
ATOM     16  N   UNL A   1      39.565  30.356  30.601  1.00  0.00    -0.248 NA
ATOM     17  C   UNL A   1      38.105  30.784  28.830  1.00  0.00     0.031 C 
ATOM     18  C   UNL A   1      37.642  33.662  32.919  1.00  0.00     0.029 A 
ATOM     19  N   UNL A   1      39.284  32.142  32.916  1.00  0.00    -0.354 N 
ATOM     20  C   UNL A   1      39.829  29.468  29.567  1.00  0.00     0.074 A 
ATOM     21  C   UNL A   1      38.871  29.749  28.518  1.00  0.00     0.031 C 
ATOM     22  C   UNL A   1      38.297  33.776  34.083  1.00  0.00     0.029 A 
ATOM     23  C   UNL A   1      39.335  32.753  34.145  1.00  0.00     0.049 A 
ATOM     24  H   UNL A   1      39.919  31.446  32.631  1.00  0.00     0.167 HD
ATOM     25  C   UNL A   1      40.783  28.507  29.502  1.00  0.00     0.037 A 
ATOM     26  C   UNL A   1      40.100  32.493  35.221  1.00  0.00     0.037 A 
ATOM     27  C   UNL A   1      41.727  28.236  30.555  1.00  0.00     0.049 A 
ATOM     28  C   UNL A   1      41.116  31.391  35.150  1.00  0.00     0.074 A 
ATOM     29  C   UNL A   1      42.759  27.312  30.573  1.00  0.00     0.029 A 
ATOM     30  N   UNL A   1      41.746  28.878  31.786  1.00  0.00    -0.354 N 
ATOM     31  N   UNL A   1      41.382  30.579  34.155  1.00  0.00    -0.248 NA
ATOM     32  C   UNL A   1      41.939  31.167  36.344  1.00  0.00     0.031 C 
ATOM     33  C   UNL A   1      43.357  27.350  31.836  1.00  0.00     0.029 A 
ATOM     34  C   UNL A   1      42.749  28.347  32.582  1.00  0.00     0.049 A 
ATOM     35  H   UNL A   1      41.137  29.603  32.055  1.00  0.00     0.167 HD
ATOM     36  C   UNL A   1      42.421  29.769  34.591  1.00  0.00     0.074 A 
ATOM     37  C   UNL A   1      42.737  30.187  35.941  1.00  0.00     0.031 C 
ATOM     38  C   UNL A   1      43.061  28.777  33.924  1.00  0.00     0.037 A 
BRANCH  25  39
ATOM     39  C   UNL A   1      40.818  27.651  28.266  1.00  0.00     0.057 A 
ATOM     40  C   UNL A   1      41.586  27.988  27.143  1.00  0.00     0.134 A 
ATOM     41  C   UNL A   1      40.076  26.464  28.203  1.00  0.00     0.134 A 
ATOM     42  F   UNL A   1      42.316  29.114  27.131  1.00  0.00    -0.206 F 
ATOM     43  C   UNL A   1      41.578  27.202  25.989  1.00  0.00     0.040 A 
ATOM     44  C   UNL A   1      40.087  25.652  27.067  1.00  0.00     0.040 A 
ATOM     45  F   UNL A   1      39.328  26.070  29.245  1.00  0.00    -0.206 F 
ATOM     46  C   UNL A   1      40.830  26.028  25.950  1.00  0.00     0.006 A 
ENDBRANCH  25  39
BRANCH  26  47
ATOM     47  C   UNL A   1      39.908  33.294  36.453  1.00  0.00     0.057 A 
ATOM     48  C   UNL A   1      40.629  34.473  36.672  1.00  0.00     0.134 A 
ATOM     49  C   UNL A   1      38.955  32.931  37.414  1.00  0.00     0.134 A 
ATOM     50  F   UNL A   1      41.562  34.865  35.793  1.00  0.00    -0.206 F 
ATOM     51  C   UNL A   1      40.412  35.261  37.802  1.00  0.00     0.040 A 
ATOM     52  C   UNL A   1      38.709  33.723  38.536  1.00  0.00     0.040 A 
ATOM     53  F   UNL A   1      38.223  31.819  37.255  1.00  0.00    -0.206 F 
ATOM     54  C   UNL A   1      39.442  34.891  38.734  1.00  0.00     0.006 A 
ENDBRANCH  26  47
BRANCH  38  55
ATOM     55  C   UNL A   1      44.210  28.102  34.616  1.00  0.00     0.057 A 
ATOM     56  C   UNL A   1      45.510  28.618  34.579  1.00  0.00     0.134 A 
ATOM     57  C   UNL A   1      43.988  26.961  35.398  1.00  0.00     0.134 A 
ATOM     58  F   UNL A   1      45.793  29.699  33.837  1.00  0.00    -0.206 F 
ATOM     59  C   UNL A   1      46.551  28.020  35.291  1.00  0.00     0.040 A 
ATOM     60  C   UNL A   1      45.014  26.371  36.137  1.00  0.00     0.040 A 
ATOM     61  F   UNL A   1      42.763  26.420  35.481  1.00  0.00    -0.206 F 
ATOM     62  C   UNL A   1      46.301  26.901  36.084  1.00  0.00     0.006 A 
ENDBRANCH  38  55
ENDBRANCH  12  13
ENDBRANCH   5   7
ENDBRANCH   2   3
ENDBRANCH   1   2
BRANCH   1  63
ATOM     63  C   UNL A   1      31.421  30.422  26.340  1.00  0.00     0.023 C 
BRANCH  63  64
ATOM     64  C   UNL A   1      32.789  29.780  26.132  1.00  0.00     0.116 C 
BRANCH  64  65
ATOM     65  N   UNL A   1      33.204  29.789  24.741  1.00  0.00    -0.352 N 
ATOM     66  C   UNL A   1      32.778  28.992  23.712  1.00  0.00     0.252 C 
ATOM     67  H   UNL A   1      33.885  30.460  24.505  1.00  0.00     0.163 HD
ATOM     68  O   UNL A   1      33.280  29.098  22.597  1.00  0.00    -0.269 OA
BRANCH  66  69
ATOM     69  C   UNL A   1      31.757  27.957  23.940  1.00  0.00     0.060 A 
ATOM     70  C   UNL A   1      32.227  26.687  24.316  1.00  0.00     0.042 A 
ATOM     71  C   UNL A   1      30.392  28.172  23.715  1.00  0.00     0.053 A 
ATOM     72  C   UNL A   1      31.330  25.627  24.435  1.00  0.00     0.053 A 
ATOM     73  C   UNL A   1      29.490  27.130  23.925  1.00  0.00     0.023 A 
ATOM     74  Cl  UNL A   1      29.747  29.662  23.126  1.00  0.00    -0.083 Cl
ATOM     75  C   UNL A   1      29.959  25.860  24.257  1.00  0.00     0.028 A 
BRANCH  72  76
ATOM     76  N   UNL A   1      31.765  24.336  24.788  1.00  0.00    -0.250 N 
ATOM     77  C   UNL A   1      32.335  23.445  23.863  1.00  0.00     0.238 C 
ATOM     78  C   UNL A   1      32.000  23.948  26.124  1.00  0.00     0.238 C 
ATOM     79  O   UNL A   1      32.486  23.557  22.660  1.00  0.00    -0.274 OA
ATOM     80  C   UNL A   1      32.743  22.278  24.705  1.00  0.00     0.100 C 
ATOM     81  C   UNL A   1      33.157  23.031  25.972  1.00  0.00     0.100 C 
ATOM     82  O   UNL A   1      31.541  24.385  27.160  1.00  0.00    -0.274 OA
ATOM     83  C   UNL A   1      33.770  21.169  24.418  1.00  0.00     0.028 C 
ATOM     84  C   UNL A   1      33.975  22.110  26.864  1.00  0.00     0.028 C 
ATOM     85  C   UNL A   1      33.386  20.160  25.528  1.00  0.00    -0.026 C 
ATOM     86  C   UNL A   1      35.237  21.527  24.724  1.00  0.00     0.001 C 
ATOM     87  C   UNL A   1      33.437  20.672  26.781  1.00  0.00    -0.026 C 
ATOM     88  C   UNL A   1      35.380  22.067  26.156  1.00  0.00     0.001 C 
ATOM     89  C   UNL A   1      35.832  22.887  24.944  1.00  0.00     0.009 C 
ENDBRANCH  72  76
ENDBRANCH  66  69
ENDBRANCH  64  65
ENDBRANCH  63  64
ENDBRANCH   1  63
TORSDOF 12
ENDMDL
MODEL 3
REMARK VINA RESULT:     -13.3      4.983     10.128
REMARK SMILES O=C(NCCCCNC(=O)c1cc(N2C(=O)[C@H]3[C@@H]4C=C[C@@H]([C@@H]5C[C@H]45)[C@@H]3C2=O)ccc1Cl)c1ccc(-c2c3nc(c(-c4c(F)cccc4F)c4ccc([nH]4)c(-c4c(F)cccc4F)c4nc(c(-c5c(F)cccc5F)c5ccc2[nH]5)C=C4)C=C3)cc1
REMARK SMILES IDX 5 1 4 2 3 3 1 4 2 5 32 7 33 8 85 9 34 10 84 11 35 12 36 13
REMARK SMILES IDX 37 14 78 15 38 16 83 17 77 18 79 19 39 20 82 21 76 22 75 23
REMARK SMILES IDX 40 25 66 26 49 27 65 28 50 29 53 30 64 31 80 32 51 33 52 34
REMARK SMILES IDX 63 36 81 37 54 38 41 39 42 40 47 41 43 42 44 43 46 44 48 45
REMARK SMILES IDX 45 46 67 47 68 48 73 49 69 50 70 51 72 52 74 53 71 54 55 55
REMARK SMILES IDX 56 56 61 57 57 58 58 59 60 60 62 61 59 62 6 63 7 64 8 65
REMARK SMILES IDX 9 66 10 68 11 69 12 70 30 71 13 72 29 73 31 74 28 75 14 76
REMARK SMILES IDX 15 77 26 78 16 79 17 80 25 81 27 82 18 83 21 84 19 85 24 86
REMARK SMILES IDX 20 87 22 88 23 89
REMARK H PARENT 3 6 79 24 53 35 8 67
REMARK Flexibility Score: inf
ROOT
ATOM      1  C   UNL A   1      31.337  31.580  26.695  1.00  0.00     0.023 C 
ENDROOT
BRANCH   1   2
ATOM      2  C   UNL A   1      32.619  32.385  26.877  1.00  0.00     0.116 C 
BRANCH   2   3
ATOM      3  N   UNL A   1      32.370  33.733  27.361  1.00  0.00    -0.352 N 
ATOM      4  O   UNL A   1      32.528  35.502  28.751  1.00  0.00    -0.269 OA
ATOM      5  C   UNL A   1      32.987  34.429  28.371  1.00  0.00     0.251 C 
ATOM      6  H   UNL A   1      31.652  34.220  26.895  1.00  0.00     0.163 HD
BRANCH   5   7
ATOM      7  C   UNL A   1      34.192  33.872  29.022  1.00  0.00     0.039 A 
ATOM      8  C   UNL A   1      35.466  34.349  28.705  1.00  0.00     0.014 A 
ATOM      9  C   UNL A   1      34.035  32.865  29.977  1.00  0.00     0.014 A 
ATOM     10  C   UNL A   1      36.591  33.728  29.238  1.00  0.00     0.010 A 
ATOM     11  C   UNL A   1      35.163  32.296  30.572  1.00  0.00     0.010 A 
ATOM     12  C   UNL A   1      36.450  32.703  30.184  1.00  0.00    -0.014 A 
BRANCH  12  13
ATOM     13  C   UNL A   1      37.645  32.086  30.809  1.00  0.00     0.031 A 
ATOM     14  C   UNL A   1      38.416  31.014  30.095  1.00  0.00     0.074 A 
ATOM     15  C   UNL A   1      38.007  32.466  32.049  1.00  0.00     0.049 A 
ATOM     16  N   UNL A   1      39.411  30.282  30.529  1.00  0.00    -0.248 NA
ATOM     17  C   UNL A   1      38.006  30.716  28.715  1.00  0.00     0.031 C 
ATOM     18  C   UNL A   1      37.338  33.499  32.842  1.00  0.00     0.029 A 
ATOM     19  N   UNL A   1      39.010  32.014  32.867  1.00  0.00    -0.354 N 
ATOM     20  C   UNL A   1      39.730  29.420  29.488  1.00  0.00     0.074 A 
ATOM     21  C   UNL A   1      38.804  29.703  28.410  1.00  0.00     0.031 C 
ATOM     22  C   UNL A   1      37.948  33.603  34.030  1.00  0.00     0.029 A 
ATOM     23  C   UNL A   1      39.005  32.600  34.109  1.00  0.00     0.049 A 
ATOM     24  H   UNL A   1      39.669  31.336  32.591  1.00  0.00     0.167 HD
ATOM     25  C   UNL A   1      40.705  28.481  29.438  1.00  0.00     0.037 A 
ATOM     26  C   UNL A   1      39.737  32.334  35.206  1.00  0.00     0.037 A 
ATOM     27  C   UNL A   1      41.617  28.207  30.519  1.00  0.00     0.049 A 
ATOM     28  C   UNL A   1      40.777  31.254  35.150  1.00  0.00     0.074 A 
ATOM     29  C   UNL A   1      42.667  27.304  30.556  1.00  0.00     0.029 A 
ATOM     30  N   UNL A   1      41.579  28.824  31.762  1.00  0.00    -0.354 N 
ATOM     31  N   UNL A   1      41.095  30.468  34.149  1.00  0.00    -0.248 NA
ATOM     32  C   UNL A   1      41.561  31.022  36.369  1.00  0.00     0.031 C 
ATOM     33  C   UNL A   1      43.218  27.328  31.839  1.00  0.00     0.029 A 
ATOM     34  C   UNL A   1      42.564  28.297  32.583  1.00  0.00     0.049 A 
ATOM     35  H   UNL A   1      40.945  29.530  32.023  1.00  0.00     0.167 HD
ATOM     36  C   UNL A   1      42.135  29.671  34.606  1.00  0.00     0.074 A 
ATOM     37  C   UNL A   1      42.394  30.067  35.975  1.00  0.00     0.031 C 
ATOM     38  C   UNL A   1      42.819  28.706  33.943  1.00  0.00     0.037 A 
BRANCH  25  39
ATOM     39  C   UNL A   1      40.803  27.651  28.187  1.00  0.00     0.057 A 
ATOM     40  C   UNL A   1      40.126  26.432  28.043  1.00  0.00     0.134 A 
ATOM     41  C   UNL A   1      41.581  28.086  27.106  1.00  0.00     0.134 A 
ATOM     42  F   UNL A   1      39.369  25.952  29.040  1.00  0.00    -0.206 F 
ATOM     43  C   UNL A   1      40.257  25.655  26.889  1.00  0.00     0.040 A 
ATOM     44  C   UNL A   1      41.692  27.334  25.934  1.00  0.00     0.040 A 
ATOM     45  F   UNL A   1      42.246  29.249  27.167  1.00  0.00    -0.206 F 
ATOM     46  C   UNL A   1      41.039  26.108  25.829  1.00  0.00     0.006 A 
ENDBRANCH  25  39
BRANCH  26  47
ATOM     47  C   UNL A   1      39.484  33.105  36.446  1.00  0.00     0.057 A 
ATOM     48  C   UNL A   1      40.165  34.298  36.710  1.00  0.00     0.134 A 
ATOM     49  C   UNL A   1      38.511  32.698  37.370  1.00  0.00     0.134 A 
ATOM     50  F   UNL A   1      41.115  34.732  35.869  1.00  0.00    -0.206 F 
ATOM     51  C   UNL A   1      39.892  35.058  37.848  1.00  0.00     0.040 A 
ATOM     52  C   UNL A   1      38.209  33.462  38.497  1.00  0.00     0.040 A 
ATOM     53  F   UNL A   1      37.815  31.571  37.166  1.00  0.00    -0.206 F 
ATOM     54  C   UNL A   1      38.903  34.645  38.740  1.00  0.00     0.006 A 
ENDBRANCH  26  47
BRANCH  38  55
ATOM     55  C   UNL A   1      43.956  28.041  34.663  1.00  0.00     0.057 A 
ATOM     56  C   UNL A   1      43.796  26.835  35.356  1.00  0.00     0.134 A 
ATOM     57  C   UNL A   1      45.247  28.579  34.588  1.00  0.00     0.134 A 
ATOM     58  F   UNL A   1      42.584  26.275  35.477  1.00  0.00    -0.206 F 
ATOM     59  C   UNL A   1      44.881  26.191  35.954  1.00  0.00     0.040 A 
ATOM     60  C   UNL A   1      46.344  27.930  35.159  1.00  0.00     0.040 A 
ATOM     61  F   UNL A   1      45.470  29.729  33.934  1.00  0.00    -0.206 F 
ATOM     62  C   UNL A   1      46.161  26.732  35.845  1.00  0.00     0.006 A 
ENDBRANCH  38  55
ENDBRANCH  12  13
ENDBRANCH   5   7
ENDBRANCH   2   3
ENDBRANCH   1   2
BRANCH   1  63
ATOM     63  C   UNL A   1      31.209  30.849  25.358  1.00  0.00     0.023 C 
BRANCH  63  64
ATOM     64  C   UNL A   1      29.838  30.945  24.697  1.00  0.00     0.116 C 
BRANCH  64  65
ATOM     65  N   UNL A   1      29.906  30.828  23.251  1.00  0.00    -0.352 N 
ATOM     66  C   UNL A   1      29.984  29.697  22.484  1.00  0.00     0.252 C 
ATOM     67  H   UNL A   1      29.895  31.678  22.755  1.00  0.00     0.163 HD
ATOM     68  O   UNL A   1      30.092  29.782  21.263  1.00  0.00    -0.269 OA
BRANCH  66  69
ATOM     69  C   UNL A   1      30.002  28.365  23.110  1.00  0.00     0.060 A 
ATOM     70  C   UNL A   1      31.265  27.775  23.291  1.00  0.00     0.042 A 
ATOM     71  C   UNL A   1      28.836  27.663  23.437  1.00  0.00     0.053 A 
ATOM     72  C   UNL A   1      31.354  26.469  23.769  1.00  0.00     0.053 A 
ATOM     73  C   UNL A   1      28.936  26.392  24.001  1.00  0.00     0.023 A 
ATOM     74  Cl  UNL A   1      27.246  28.261  23.126  1.00  0.00    -0.083 Cl
ATOM     75  C   UNL A   1      30.185  25.790  24.142  1.00  0.00     0.028 A 
BRANCH  72  76
ATOM     76  N   UNL A   1      32.599  25.837  23.943  1.00  0.00    -0.250 N 
ATOM     77  C   UNL A   1      33.111  25.497  25.206  1.00  0.00     0.238 C 
ATOM     78  C   UNL A   1      33.273  25.177  22.894  1.00  0.00     0.238 C 
ATOM     79  O   UNL A   1      32.667  25.725  26.317  1.00  0.00    -0.274 OA
ATOM     80  C   UNL A   1      34.369  24.753  24.888  1.00  0.00     0.100 C 
ATOM     81  C   UNL A   1      33.910  24.044  23.611  1.00  0.00     0.100 C 
ATOM     82  O   UNL A   1      33.203  25.338  21.692  1.00  0.00    -0.274 OA
ATOM     83  C   UNL A   1      35.175  23.768  25.751  1.00  0.00     0.028 C 
ATOM     84  C   UNL A   1      34.877  22.918  23.281  1.00  0.00     0.028 C 
ATOM     85  C   UNL A   1      36.487  23.710  24.930  1.00  0.00    -0.026 C 
ATOM     86  C   UNL A   1      34.665  22.314  25.751  1.00  0.00     0.001 C 
ATOM     87  C   UNL A   1      36.315  23.328  23.642  1.00  0.00    -0.026 C 
ATOM     88  C   UNL A   1      34.497  21.793  24.315  1.00  0.00     0.001 C 
ATOM     89  C   UNL A   1      33.327  21.801  25.304  1.00  0.00     0.009 C 
ENDBRANCH  72  76
ENDBRANCH  66  69
ENDBRANCH  64  65
ENDBRANCH  63  64
ENDBRANCH   1  63
TORSDOF 12
ENDMDL
