MODEL 1
REMARK VINA RESULT:     -13.7      0.000      0.000
REMARK SMILES O=CN[C@@H](CCS[C@@H]1CCO[C@]2(CCOC2)C1)C(=O)NCCCCNC(=O)c1ccc(-c2c3nc(c(-c4c(F)cccc4F)c4ccc([nH]4)c(-c4c(F)cccc4F)c4nc(c(-c5c(F)cccc5F)c5ccc2[nH]5)C=C4)C=C3)cc1
REMARK SMILES IDX 21 1 20 2 18 3 19 4 4 6 3 7 1 8 2 9 5 11 6 12 7 13 8 14 9 15
REMARK SMILES IDX 17 16 10 17 12 18 11 19 13 20 16 21 14 22 15 23 22 24 23 25
REMARK SMILES IDX 24 26 25 27 26 28 27 30 28 31 29 32 81 33 30 34 80 35 31 36
REMARK SMILES IDX 32 37 33 38 74 39 34 40 79 41 73 42 75 43 35 44 78 45 72 46
REMARK SMILES IDX 71 47 36 49 62 50 45 51 61 52 46 53 49 54 60 55 76 56 47 57
REMARK SMILES IDX 48 58 59 60 77 61 50 62 37 63 38 64 43 65 39 66 40 67 42 68
REMARK SMILES IDX 44 69 41 70 63 71 64 72 69 73 65 74 66 75 68 76 70 77 67 78
REMARK SMILES IDX 51 79 52 80 57 81 53 82 54 83 56 84 58 85 55 86
REMARK H PARENT 20 5 3 10 25 29 75 48 49 59
REMARK Flexibility Score: inf
ROOT
ATOM      1  C   UNL A   1      33.315  29.745  26.217  1.00  0.00     0.116 C 
ENDROOT
BRANCH   1   2
ATOM      2  N   UNL A   1      33.643  29.265  24.802  1.00  0.00    -0.354 N 
ATOM      3  C   UNL A   1      33.186  28.884  23.424  1.00  0.00     0.242 C 
ATOM      4  O   UNL A   1      33.882  28.950  22.373  1.00  0.00    -0.273 OA
ATOM      5  H   UNL A   1      34.621  29.150  24.791  1.00  0.00     0.163 HD
BRANCH   3   6
ATOM      6  C   UNL A   1      31.748  28.528  22.982  1.00  0.00     0.171 C 
BRANCH   6   7
ATOM      7  N   UNL A   1      30.498  29.834  21.919  1.00  0.00    -0.347 N 
ATOM      8  O   UNL A   1      29.007  31.123  20.806  1.00  0.00    -0.279 OA
ATOM      9  C   UNL A   1      29.231  30.447  21.807  1.00  0.00     0.337 C 
ATOM     10  H   UNL A   1      31.031  30.169  21.162  1.00  0.00     0.164 HD
ENDBRANCH   6   7
BRANCH   6  11
ATOM     11  C   UNL A   1      32.952  27.118  22.746  1.00  0.00     0.046 C 
BRANCH  11  12
ATOM     12  C   UNL A   1      32.339  25.479  22.014  1.00  0.00     0.072 C 
BRANCH  12  13
ATOM     13  S   UNL A   1      33.390  23.459  21.863  1.00  0.00    -0.158 SA
BRANCH  13  14
ATOM     14  C   UNL A   1      33.834  22.612  23.914  1.00  0.00     0.052 C 
ATOM     15  C   UNL A   1      33.156  21.262  24.051  1.00  0.00     0.043 C 
ATOM     16  C   UNL A   1      33.780  23.230  25.583  1.00  0.00     0.052 C 
ATOM     17  C   UNL A   1      32.091  21.346  25.143  1.00  0.00     0.162 C 
ATOM     18  C   UNL A   1      32.414  23.855  26.203  1.00  0.00     0.095 C 
ATOM     19  O   UNL A   1      31.698  22.682  25.430  1.00  0.00    -0.372 OA
ATOM     20  C   UNL A   1      32.568  25.931  25.929  1.00  0.00     0.066 C 
ATOM     21  C   UNL A   1      30.508  23.647  26.764  1.00  0.00     0.195 C 
ATOM     22  C   UNL A   1      30.713  26.716  26.140  1.00  0.00     0.163 C 
ATOM     23  O   UNL A   1      29.579  25.273  26.527  1.00  0.00    -0.378 OA
ENDBRANCH  13  14
ENDBRANCH  12  13
ENDBRANCH  11  12
ENDBRANCH   6  11
ENDBRANCH   3   6
ENDBRANCH   1   2
BRANCH   1  24
ATOM     24  C   UNL A   1      31.861  30.191  26.457  1.00  0.00     0.023 C 
BRANCH  24  25
ATOM     25  C   UNL A   1      31.628  31.669  26.799  1.00  0.00     0.023 C 
BRANCH  25  26
ATOM     26  C   UNL A   1      32.870  32.462  27.177  1.00  0.00     0.116 C 
BRANCH  26  27
ATOM     27  N   UNL A   1      32.560  33.830  27.560  1.00  0.00    -0.352 N 
ATOM     28  C   UNL A   1      33.149  34.631  28.501  1.00  0.00     0.251 C 
ATOM     29  H   UNL A   1      31.813  34.242  27.069  1.00  0.00     0.163 HD
ATOM     30  O   UNL A   1      32.671  35.732  28.751  1.00  0.00    -0.269 OA
BRANCH  28  31
ATOM     31  C   UNL A   1      34.323  34.143  29.246  1.00  0.00     0.039 A 
ATOM     32  C   UNL A   1      34.104  33.344  30.370  1.00  0.00     0.014 A 
ATOM     33  C   UNL A   1      35.623  34.443  28.829  1.00  0.00     0.014 A 
ATOM     34  C   UNL A   1      35.191  32.785  31.037  1.00  0.00     0.010 A 
ATOM     35  C   UNL A   1      36.703  33.827  29.454  1.00  0.00     0.010 A 
ATOM     36  C   UNL A   1      36.496  32.986  30.558  1.00  0.00    -0.014 A 
BRANCH  36  37
ATOM     37  C   UNL A   1      37.646  32.293  31.188  1.00  0.00     0.031 A 
ATOM     38  C   UNL A   1      38.349  31.178  30.470  1.00  0.00     0.074 A 
ATOM     39  C   UNL A   1      38.022  32.643  32.433  1.00  0.00     0.049 A 
ATOM     40  N   UNL A   1      39.348  30.437  30.877  1.00  0.00    -0.248 NA
ATOM     41  C   UNL A   1      37.851  30.835  29.129  1.00  0.00     0.031 C 
ATOM     42  C   UNL A   1      37.386  33.682  33.247  1.00  0.00     0.029 A 
ATOM     43  N   UNL A   1      39.025  32.162  33.235  1.00  0.00    -0.354 N 
ATOM     44  C   UNL A   1      39.595  29.539  29.847  1.00  0.00     0.074 A 
ATOM     45  C   UNL A   1      38.608  29.792  28.819  1.00  0.00     0.031 C 
ATOM     46  C   UNL A   1      38.031  33.775  34.421  1.00  0.00     0.029 A 
ATOM     47  C   UNL A   1      39.094  32.779  34.461  1.00  0.00     0.049 A 
ATOM     48  H   UNL A   1      39.638  31.443  32.958  1.00  0.00     0.167 HD
ATOM     49  C   UNL A   1      40.570  28.604  29.758  1.00  0.00     0.037 A 
ATOM     50  C   UNL A   1      39.916  32.557  35.504  1.00  0.00     0.037 A 
ATOM     51  C   UNL A   1      41.555  28.364  30.780  1.00  0.00     0.049 A 
ATOM     52  C   UNL A   1      40.970  31.491  35.391  1.00  0.00     0.074 A 
ATOM     53  C   UNL A   1      42.623  27.483  30.758  1.00  0.00     0.029 A 
ATOM     54  N   UNL A   1      41.587  29.001  32.011  1.00  0.00    -0.354 N 
ATOM     55  N   UNL A   1      41.244  30.704  34.378  1.00  0.00    -0.248 NA
ATOM     56  C   UNL A   1      41.829  31.282  36.564  1.00  0.00     0.031 C 
ATOM     57  C   UNL A   1      43.266  27.546  31.998  1.00  0.00     0.029 A 
ATOM     58  C   UNL A   1      42.633  28.506  32.773  1.00  0.00     0.049 A 
ATOM     59  H   UNL A   1      40.960  29.702  32.302  1.00  0.00     0.167 HD
ATOM     60  C   UNL A   1      42.316  29.919  34.785  1.00  0.00     0.074 A 
ATOM     61  C   UNL A   1      42.657  30.344  36.127  1.00  0.00     0.031 C 
ATOM     62  C   UNL A   1      42.956  28.934  34.111  1.00  0.00     0.037 A 
BRANCH  49  63
ATOM     63  C   UNL A   1      40.617  27.767  28.512  1.00  0.00     0.057 A 
ATOM     64  C   UNL A   1      39.911  26.560  28.405  1.00  0.00     0.134 A 
ATOM     65  C   UNL A   1      41.345  28.189  27.393  1.00  0.00     0.134 A 
ATOM     66  F   UNL A   1      39.203  26.092  29.443  1.00  0.00    -0.206 F 
ATOM     67  C   UNL A   1      39.949  25.793  27.239  1.00  0.00     0.040 A 
ATOM     68  C   UNL A   1      41.368  27.443  26.212  1.00  0.00     0.040 A 
ATOM     69  F   UNL A   1      42.038  29.337  27.424  1.00  0.00    -0.206 F 
ATOM     70  C   UNL A   1      40.674  26.238  26.136  1.00  0.00     0.006 A 
ENDBRANCH  49  63
BRANCH  50  71
ATOM     71  C   UNL A   1      39.781  33.364  36.743  1.00  0.00     0.057 A 
ATOM     72  C   UNL A   1      40.542  34.522  36.940  1.00  0.00     0.134 A 
ATOM     73  C   UNL A   1      38.895  32.993  37.764  1.00  0.00     0.134 A 
ATOM     74  F   UNL A   1      41.420  34.918  36.008  1.00  0.00    -0.206 F 
ATOM     75  C   UNL A   1      40.444  35.271  38.113  1.00  0.00     0.040 A 
ATOM     76  C   UNL A   1      38.766  33.748  38.929  1.00  0.00     0.040 A 
ATOM     77  F   UNL A   1      38.131  31.899  37.634  1.00  0.00    -0.206 F 
ATOM     78  C   UNL A   1      39.549  34.888  39.110  1.00  0.00     0.006 A 
ENDBRANCH  50  71
BRANCH  62  79
ATOM     79  C   UNL A   1      44.098  28.254  34.811  1.00  0.00     0.057 A 
ATOM     80  C   UNL A   1      45.398  28.773  34.774  1.00  0.00     0.134 A 
ATOM     81  C   UNL A   1      43.887  27.088  35.559  1.00  0.00     0.134 A 
ATOM     82  F   UNL A   1      45.668  29.880  34.065  1.00  0.00    -0.206 F 
ATOM     83  C   UNL A   1      46.454  28.145  35.437  1.00  0.00     0.040 A 
ATOM     84  C   UNL A   1      44.929  26.467  36.249  1.00  0.00     0.040 A 
ATOM     85  F   UNL A   1      42.665  26.543  35.641  1.00  0.00    -0.206 F 
ATOM     86  C   UNL A   1      46.217  26.992  36.184  1.00  0.00     0.006 A 
ENDBRANCH  62  79
ENDBRANCH  36  37
ENDBRANCH  28  31
ENDBRANCH  26  27
ENDBRANCH  25  26
ENDBRANCH  24  25
ENDBRANCH   1  24
TORSDOF 16
ENDMDL
MODEL 2
REMARK VINA RESULT:     -13.6      5.221      9.632
REMARK SMILES O=CN[C@@H](CCS[C@@H]1CCO[C@]2(CCOC2)C1)C(=O)NCCCCNC(=O)c1ccc(-c2c3nc(c(-c4c(F)cccc4F)c4ccc([nH]4)c(-c4c(F)cccc4F)c4nc(c(-c5c(F)cccc5F)c5ccc2[nH]5)C=C4)C=C3)cc1
REMARK SMILES IDX 21 1 20 2 18 3 19 4 4 6 3 7 1 8 2 9 5 11 6 12 7 13 8 14 9 15
REMARK SMILES IDX 17 16 10 17 12 18 11 19 13 20 16 21 14 22 15 23 22 24 23 25
REMARK SMILES IDX 24 26 25 27 26 28 27 30 28 31 29 32 81 33 30 34 80 35 31 36
REMARK SMILES IDX 32 37 33 38 74 39 34 40 79 41 73 42 75 43 35 44 78 45 72 46
REMARK SMILES IDX 71 47 36 49 62 50 45 51 61 52 46 53 49 54 60 55 76 56 47 57
REMARK SMILES IDX 48 58 59 60 77 61 50 62 37 63 38 64 43 65 39 66 40 67 42 68
REMARK SMILES IDX 44 69 41 70 63 71 64 72 69 73 65 74 66 75 68 76 70 77 67 78
REMARK SMILES IDX 51 79 52 80 57 81 53 82 54 83 56 84 58 85 55 86
REMARK H PARENT 20 5 3 10 25 29 75 48 49 59
REMARK Flexibility Score: inf
ROOT
ATOM      1  C   UNL A   1      37.172  21.904  24.224  1.00  0.00     0.116 C 
ENDROOT
BRANCH   1   2
ATOM      2  N   UNL A   1      36.168  23.012  24.543  1.00  0.00    -0.354 N 
ATOM      3  C   UNL A   1      34.774  23.434  24.909  1.00  0.00     0.242 C 
ATOM      4  O   UNL A   1      34.461  24.492  25.521  1.00  0.00    -0.273 OA
ATOM      5  H   UNL A   1      36.680  23.850  24.475  1.00  0.00     0.163 HD
BRANCH   3   6
ATOM      6  C   UNL A   1      33.483  22.591  24.791  1.00  0.00     0.171 C 
BRANCH   6   7
ATOM      7  N   UNL A   1      31.864  22.748  26.116  1.00  0.00    -0.347 N 
ATOM      8  O   UNL A   1      30.117  23.103  27.510  1.00  0.00    -0.279 OA
ATOM      9  C   UNL A   1      30.627  23.355  26.421  1.00  0.00     0.337 C 
ATOM     10  H   UNL A   1      32.048  22.117  26.849  1.00  0.00     0.164 HD
ENDBRANCH   6   7
BRANCH   6  11
ATOM     11  C   UNL A   1      34.103  23.207  23.139  1.00  0.00     0.046 C 
BRANCH  11  12
ATOM     12  C   UNL A   1      32.932  24.173  22.003  1.00  0.00     0.072 C 
BRANCH  12  13
ATOM     13  S   UNL A   1      32.545  26.418  21.868  1.00  0.00    -0.158 SA
BRANCH  13  14
ATOM     14  C   UNL A   1      30.752  27.016  23.112  1.00  0.00     0.052 C 
ATOM     15  C   UNL A   1      30.053  28.187  22.446  1.00  0.00     0.043 C 
ATOM     16  C   UNL A   1      30.453  27.334  24.839  1.00  0.00     0.052 C 
ATOM     17  C   UNL A   1      30.148  29.410  23.357  1.00  0.00     0.162 C 
ATOM     18  C   UNL A   1      31.312  28.451  25.649  1.00  0.00     0.095 C 
ATOM     19  O   UNL A   1      31.183  29.300  24.326  1.00  0.00    -0.372 OA
ATOM     20  C   UNL A   1      32.866  27.396  26.586  1.00  0.00     0.066 C 
ATOM     21  C   UNL A   1      31.868  30.350  25.924  1.00  0.00     0.195 C 
ATOM     22  C   UNL A   1      34.280  28.741  27.127  1.00  0.00     0.163 C 
ATOM     23  O   UNL A   1      33.629  30.420  26.599  1.00  0.00    -0.378 OA
ENDBRANCH  13  14
ENDBRANCH  12  13
ENDBRANCH  11  12
ENDBRANCH   6  11
ENDBRANCH   3   6
ENDBRANCH   1   2
BRANCH   1  24
ATOM     24  C   UNL A   1      36.993  20.588  25.003  1.00  0.00     0.023 C 
BRANCH  24  25
ATOM     25  C   UNL A   1      38.165  19.597  24.987  1.00  0.00     0.023 C 
BRANCH  25  26
ATOM     26  C   UNL A   1      39.330  19.939  25.903  1.00  0.00     0.116 C 
BRANCH  26  27
ATOM     27  N   UNL A   1      40.368  18.922  25.883  1.00  0.00    -0.352 N 
ATOM     28  C   UNL A   1      41.715  19.042  26.096  1.00  0.00     0.251 C 
ATOM     29  H   UNL A   1      40.056  18.010  25.687  1.00  0.00     0.163 HD
ATOM     30  O   UNL A   1      42.448  18.072  25.931  1.00  0.00    -0.269 OA
BRANCH  28  31
ATOM     31  C   UNL A   1      42.285  20.349  26.470  1.00  0.00     0.039 A 
ATOM     32  C   UNL A   1      42.823  21.145  25.457  1.00  0.00     0.014 A 
ATOM     33  C   UNL A   1      42.263  20.798  27.793  1.00  0.00     0.014 A 
ATOM     34  C   UNL A   1      43.278  22.427  25.760  1.00  0.00     0.010 A 
ATOM     35  C   UNL A   1      42.652  22.103  28.080  1.00  0.00     0.010 A 
ATOM     36  C   UNL A   1      43.155  22.931  27.065  1.00  0.00    -0.014 A 
BRANCH  36  37
ATOM     37  C   UNL A   1      43.520  24.336  27.368  1.00  0.00     0.031 A 
ATOM     38  C   UNL A   1      44.952  24.782  27.305  1.00  0.00     0.074 A 
ATOM     39  C   UNL A   1      42.557  25.198  27.749  1.00  0.00     0.049 A 
ATOM     40  N   UNL A   1      45.462  25.958  27.569  1.00  0.00    -0.248 NA
ATOM     41  C   UNL A   1      45.945  23.768  26.915  1.00  0.00     0.031 C 
ATOM     42  C   UNL A   1      41.136  24.868  27.890  1.00  0.00     0.029 A 
ATOM     43  N   UNL A   1      42.626  26.524  28.093  1.00  0.00    -0.354 N 
ATOM     44  C   UNL A   1      46.831  25.825  27.383  1.00  0.00     0.074 A 
ATOM     45  C   UNL A   1      47.079  24.442  27.036  1.00  0.00     0.031 C 
ATOM     46  C   UNL A   1      40.466  25.969  28.266  1.00  0.00     0.029 A 
ATOM     47  C   UNL A   1      41.410  27.067  28.434  1.00  0.00     0.049 A 
ATOM     48  H   UNL A   1      43.465  27.037  28.094  1.00  0.00     0.167 HD
ATOM     49  C   UNL A   1      47.791  26.776  27.472  1.00  0.00     0.037 A 
ATOM     50  C   UNL A   1      41.095  28.310  28.846  1.00  0.00     0.037 A 
ATOM     51  C   UNL A   1      47.536  28.153  27.808  1.00  0.00     0.049 A 
ATOM     52  C   UNL A   1      42.185  29.338  28.967  1.00  0.00     0.074 A 
ATOM     53  C   UNL A   1      48.431  29.206  27.862  1.00  0.00     0.029 A 
ATOM     54  N   UNL A   1      46.295  28.664  28.156  1.00  0.00    -0.354 N 
ATOM     55  N   UNL A   1      43.466  29.220  28.710  1.00  0.00    -0.248 NA
ATOM     56  C   UNL A   1      41.788  30.673  29.436  1.00  0.00     0.031 C 
ATOM     57  C   UNL A   1      47.743  30.342  28.299  1.00  0.00     0.029 A 
ATOM     58  C   UNL A   1      46.408  30.010  28.464  1.00  0.00     0.049 A 
ATOM     59  H   UNL A   1      45.457  28.148  28.182  1.00  0.00     0.167 HD
ATOM     60  C   UNL A   1      44.023  30.466  28.968  1.00  0.00     0.074 A 
ATOM     61  C   UNL A   1      42.936  31.332  29.378  1.00  0.00     0.031 C 
ATOM     62  C   UNL A   1      45.317  30.857  28.879  1.00  0.00     0.037 A 
BRANCH  49  63
ATOM     63  C   UNL A   1      49.208  26.358  27.205  1.00  0.00     0.057 A 
ATOM     64  C   UNL A   1      49.740  26.330  25.908  1.00  0.00     0.134 A 
ATOM     65  C   UNL A   1      50.064  26.015  28.259  1.00  0.00     0.134 A 
ATOM     66  F   UNL A   1      48.972  26.636  24.851  1.00  0.00    -0.206 F 
ATOM     67  C   UNL A   1      51.062  25.952  25.668  1.00  0.00     0.040 A 
ATOM     68  C   UNL A   1      51.396  25.662  28.034  1.00  0.00     0.040 A 
ATOM     69  F   UNL A   1      49.623  26.026  29.526  1.00  0.00    -0.206 F 
ATOM     70  C   UNL A   1      51.896  25.624  26.735  1.00  0.00     0.006 A 
ENDBRANCH  49  63
BRANCH  50  71
ATOM     71  C   UNL A   1      39.687  28.653  29.169  1.00  0.00     0.057 A 
ATOM     72  C   UNL A   1      38.835  29.198  28.202  1.00  0.00     0.134 A 
ATOM     73  C   UNL A   1      39.162  28.453  30.453  1.00  0.00     0.134 A 
ATOM     74  F   UNL A   1      39.284  29.430  26.961  1.00  0.00    -0.206 F 
ATOM     75  C   UNL A   1      37.518  29.551  28.503  1.00  0.00     0.040 A 
ATOM     76  C   UNL A   1      37.840  28.775  30.759  1.00  0.00     0.040 A 
ATOM     77  F   UNL A   1      39.924  27.926  31.422  1.00  0.00    -0.206 F 
ATOM     78  C   UNL A   1      37.016  29.334  29.784  1.00  0.00     0.006 A 
ENDBRANCH  50  71
BRANCH  62  79
ATOM     79  C   UNL A   1      45.626  32.286  29.220  1.00  0.00     0.057 A 
ATOM     80  C   UNL A   1      46.017  32.667  30.510  1.00  0.00     0.134 A 
ATOM     81  C   UNL A   1      45.567  33.285  28.240  1.00  0.00     0.134 A 
ATOM     82  F   UNL A   1      46.081  31.760  31.497  1.00  0.00    -0.206 F 
ATOM     83  C   UNL A   1      46.317  33.995  30.819  1.00  0.00     0.040 A 
ATOM     84  C   UNL A   1      45.891  34.611  28.530  1.00  0.00     0.040 A 
ATOM     85  F   UNL A   1      45.207  32.987  26.984  1.00  0.00    -0.206 F 
ATOM     86  C   UNL A   1      46.261  34.970  29.824  1.00  0.00     0.006 A 
ENDBRANCH  62  79
ENDBRANCH  36  37
ENDBRANCH  28  31
ENDBRANCH  26  27
ENDBRANCH  25  26
ENDBRANCH  24  25
ENDBRANCH   1  24
TORSDOF 16
ENDMDL
MODEL 3
REMARK VINA RESULT:     -13.6      0.494      6.255
REMARK SMILES O=CN[C@@H](CCS[C@@H]1CCO[C@]2(CCOC2)C1)C(=O)NCCCCNC(=O)c1ccc(-c2c3nc(c(-c4c(F)cccc4F)c4ccc([nH]4)c(-c4c(F)cccc4F)c4nc(c(-c5c(F)cccc5F)c5ccc2[nH]5)C=C4)C=C3)cc1
REMARK SMILES IDX 21 1 20 2 18 3 19 4 4 6 3 7 1 8 2 9 5 11 6 12 7 13 8 14 9 15
REMARK SMILES IDX 17 16 10 17 12 18 11 19 13 20 16 21 14 22 15 23 22 24 23 25
REMARK SMILES IDX 24 26 25 27 26 28 27 30 28 31 29 32 81 33 30 34 80 35 31 36
REMARK SMILES IDX 32 37 33 38 74 39 34 40 79 41 73 42 75 43 35 44 78 45 72 46
REMARK SMILES IDX 71 47 36 49 62 50 45 51 61 52 46 53 49 54 60 55 76 56 47 57
REMARK SMILES IDX 48 58 59 60 77 61 50 62 37 63 38 64 43 65 39 66 40 67 42 68
REMARK SMILES IDX 44 69 41 70 63 71 64 72 69 73 65 74 66 75 68 76 70 77 67 78
REMARK SMILES IDX 51 79 52 80 57 81 53 82 54 83 56 84 58 85 55 86
REMARK H PARENT 20 5 3 10 25 29 75 48 49 59
REMARK Flexibility Score: inf
ROOT
ATOM      1  C   UNL A   1      33.083  29.818  25.981  1.00  0.00     0.116 C 
ENDROOT
BRANCH   1   2
ATOM      2  N   UNL A   1      33.458  29.281  24.599  1.00  0.00    -0.354 N 
ATOM      3  C   UNL A   1      33.049  28.846  23.222  1.00  0.00     0.242 C 
ATOM      4  O   UNL A   1      33.781  28.869  22.194  1.00  0.00    -0.273 OA
ATOM      5  H   UNL A   1      34.435  29.164  24.626  1.00  0.00     0.163 HD
BRANCH   3   6
ATOM      6  C   UNL A   1      31.626  28.474  22.745  1.00  0.00     0.171 C 
BRANCH   6   7
ATOM      7  N   UNL A   1      30.341  29.807  21.760  1.00  0.00    -0.347 N 
ATOM      8  O   UNL A   1      28.818  31.189  20.815  1.00  0.00    -0.279 OA
ATOM      9  C   UNL A   1      29.289  30.743  21.858  1.00  0.00     0.337 C 
ATOM     10  H   UNL A   1      30.577  29.760  20.805  1.00  0.00     0.164 HD
ENDBRANCH   6   7
BRANCH   6  11
ATOM     11  C   UNL A   1      32.876  27.121  22.427  1.00  0.00     0.046 C 
BRANCH  11  12
ATOM     12  C   UNL A   1      32.275  25.361  22.060  1.00  0.00     0.072 C 
BRANCH  12  13
ATOM     13  S   UNL A   1      33.453  23.412  21.916  1.00  0.00    -0.158 SA
BRANCH  13  14
ATOM     14  C   UNL A   1      33.763  22.490  23.959  1.00  0.00     0.052 C 
ATOM     15  C   UNL A   1      32.983  21.191  24.042  1.00  0.00     0.043 C 
ATOM     16  C   UNL A   1      33.697  23.074  25.640  1.00  0.00     0.052 C 
ATOM     17  C   UNL A   1      31.889  21.330  25.100  1.00  0.00     0.162 C 
ATOM     18  C   UNL A   1      32.360  23.785  26.230  1.00  0.00     0.095 C 
ATOM     19  O   UNL A   1      31.586  22.685  25.407  1.00  0.00    -0.372 OA
ATOM     20  C   UNL A   1      32.676  25.849  26.012  1.00  0.00     0.066 C 
ATOM     21  C   UNL A   1      30.426  23.707  26.724  1.00  0.00     0.195 C 
ATOM     22  C   UNL A   1      30.878  26.765  26.181  1.00  0.00     0.163 C 
ATOM     23  O   UNL A   1      29.628  25.403  26.496  1.00  0.00    -0.378 OA
ENDBRANCH  13  14
ENDBRANCH  12  13
ENDBRANCH  11  12
ENDBRANCH   6  11
ENDBRANCH   3   6
ENDBRANCH   1   2
BRANCH   1  24
ATOM     24  C   UNL A   1      31.648  30.357  26.128  1.00  0.00     0.023 C 
BRANCH  24  25
ATOM     25  C   UNL A   1      31.488  31.801  26.623  1.00  0.00     0.023 C 
BRANCH  25  26
ATOM     26  C   UNL A   1      32.733  32.432  27.229  1.00  0.00     0.116 C 
BRANCH  26  27
ATOM     27  N   UNL A   1      32.518  33.814  27.624  1.00  0.00    -0.352 N 
ATOM     28  C   UNL A   1      33.198  34.582  28.530  1.00  0.00     0.251 C 
ATOM     29  H   UNL A   1      31.770  34.266  27.172  1.00  0.00     0.163 HD
ATOM     30  O   UNL A   1      32.795  35.708  28.802  1.00  0.00    -0.269 OA
BRANCH  28  31
ATOM     31  C   UNL A   1      34.383  34.032  29.214  1.00  0.00     0.039 A 
ATOM     32  C   UNL A   1      34.178  33.195  30.313  1.00  0.00     0.014 A 
ATOM     33  C   UNL A   1      35.676  34.310  28.762  1.00  0.00     0.014 A 
ATOM     34  C   UNL A   1      35.270  32.579  30.919  1.00  0.00     0.010 A 
ATOM     35  C   UNL A   1      36.757  33.638  29.325  1.00  0.00     0.010 A 
ATOM     36  C   UNL A   1      36.563  32.761  30.402  1.00  0.00    -0.014 A 
BRANCH  36  37
ATOM     37  C   UNL A   1      37.713  32.010  30.963  1.00  0.00     0.031 A 
ATOM     38  C   UNL A   1      38.242  32.337  32.329  1.00  0.00     0.074 A 
ATOM     39  C   UNL A   1      38.308  31.064  30.212  1.00  0.00     0.049 A 
ATOM     40  N   UNL A   1      39.256  31.812  32.967  1.00  0.00    -0.248 NA
ATOM     41  C   UNL A   1      37.555  33.408  33.067  1.00  0.00     0.031 C 
ATOM     42  C   UNL A   1      37.911  30.690  28.852  1.00  0.00     0.029 A 
ATOM     43  N   UNL A   1      39.377  30.248  30.481  1.00  0.00    -0.354 N 
ATOM     44  C   UNL A   1      39.333  32.490  34.176  1.00  0.00     0.074 A 
ATOM     45  C   UNL A   1      38.297  33.500  34.161  1.00  0.00     0.031 C 
ATOM     46  C   UNL A   1      38.710  29.702  28.418  1.00  0.00     0.029 A 
ATOM     47  C   UNL A   1      39.699  29.403  29.446  1.00  0.00     0.049 A 
ATOM     48  H   UNL A   1      39.867  30.267  31.334  1.00  0.00     0.167 HD
ATOM     49  C   UNL A   1      40.177  32.274  35.212  1.00  0.00     0.037 A 
ATOM     50  C   UNL A   1      40.687  28.495  29.336  1.00  0.00     0.037 A 
ATOM     51  C   UNL A   1      41.200  31.261  35.224  1.00  0.00     0.049 A 
ATOM     52  C   UNL A   1      41.631  28.298  30.490  1.00  0.00     0.074 A 
ATOM     53  C   UNL A   1      42.064  30.921  36.250  1.00  0.00     0.029 A 
ATOM     54  N   UNL A   1      41.502  30.431  34.155  1.00  0.00    -0.354 N 
ATOM     55  N   UNL A   1      41.641  28.891  31.659  1.00  0.00    -0.248 NA
ATOM     56  C   UNL A   1      42.700  27.306  30.309  1.00  0.00     0.031 C 
ATOM     57  C   UNL A   1      42.927  29.925  35.783  1.00  0.00     0.029 A 
ATOM     58  C   UNL A   1      42.565  29.605  34.484  1.00  0.00     0.049 A 
ATOM     59  H   UNL A   1      41.032  30.428  33.291  1.00  0.00     0.167 HD
ATOM     60  C   UNL A   1      42.704  28.334  32.360  1.00  0.00     0.074 A 
ATOM     61  C   UNL A   1      43.298  27.337  31.492  1.00  0.00     0.031 C 
ATOM     62  C   UNL A   1      43.150  28.623  33.605  1.00  0.00     0.037 A 
BRANCH  49  63
ATOM     63  C   UNL A   1      40.033  33.156  36.420  1.00  0.00     0.057 A 
ATOM     64  C   UNL A   1      39.125  32.860  37.447  1.00  0.00     0.134 A 
ATOM     65  C   UNL A   1      40.834  34.292  36.576  1.00  0.00     0.134 A 
ATOM     66  F   UNL A   1      38.319  31.792  37.356  1.00  0.00    -0.206 F 
ATOM     67  C   UNL A   1      39.004  33.677  38.572  1.00  0.00     0.040 A 
ATOM     68  C   UNL A   1      40.742  35.102  37.711  1.00  0.00     0.040 A 
ATOM     69  F   UNL A   1      41.728  34.631  35.635  1.00  0.00    -0.206 F 
ATOM     70  C   UNL A   1      39.820  34.798  38.709  1.00  0.00     0.006 A 
ENDBRANCH  49  63
BRANCH  50  71
ATOM     71  C   UNL A   1      40.833  27.700  28.090  1.00  0.00     0.057 A 
ATOM     72  C   UNL A   1      40.229  26.445  27.958  1.00  0.00     0.134 A 
ATOM     73  C   UNL A   1      41.586  28.171  27.006  1.00  0.00     0.134 A 
ATOM     74  F   UNL A   1      39.510  25.932  28.967  1.00  0.00    -0.206 F 
ATOM     75  C   UNL A   1      40.383  25.676  26.803  1.00  0.00     0.040 A 
ATOM     76  C   UNL A   1      41.726  27.426  25.835  1.00  0.00     0.040 A 
ATOM     77  F   UNL A   1      42.184  29.369  27.066  1.00  0.00    -0.206 F 
ATOM     78  C   UNL A   1      41.129  26.170  25.734  1.00  0.00     0.006 A 
ENDBRANCH  50  71
BRANCH  62  79
ATOM     79  C   UNL A   1      44.332  27.844  34.108  1.00  0.00     0.057 A 
ATOM     80  C   UNL A   1      44.183  26.602  34.736  1.00  0.00     0.134 A 
ATOM     81  C   UNL A   1      45.635  28.327  33.931  1.00  0.00     0.134 A 
ATOM     82  F   UNL A   1      42.960  26.090  34.948  1.00  0.00    -0.206 F 
ATOM     83  C   UNL A   1      45.286  25.876  35.190  1.00  0.00     0.040 A 
ATOM     84  C   UNL A   1      46.747  27.598  34.355  1.00  0.00     0.040 A 
ATOM     85  F   UNL A   1      45.849  29.507  33.331  1.00  0.00    -0.206 F 
ATOM     86  C   UNL A   1      46.573  26.372  34.992  1.00  0.00     0.006 A 
ENDBRANCH  62  79
ENDBRANCH  36  37
ENDBRANCH  28  31
ENDBRANCH  26  27
ENDBRANCH  25  26
ENDBRANCH  24  25
ENDBRANCH   1  24
TORSDOF 16
ENDMDL
