MODEL 1
REMARK VINA RESULT:     -12.2      0.000      0.000
REMARK SMILES C[C@H](NC(=O)c1ccc(C(C)(C)C)cc1)C(=O)N[C@@H](C(=O)NCCCCNC(=O)c1ccc(-c2c3nc(c(-c4c(F)cccc4F)c4ccc([nH]4)c(-c4c(F)cccc4F)c4nc(c(-c5c(F)cccc5F)c5ccc2[nH]5)C=C4)C=C3)cc1)[C@H](C)O
REMARK SMILES IDX 23 1 22 2 20 3 21 4 19 6 18 7 16 8 17 9 2 11 1 12 3 13 4 14
REMARK SMILES IDX 5 16 6 17 7 18 15 19 8 20 14 21 9 22 10 23 11 24 12 25 13 26
REMARK SMILES IDX 84 27 85 28 86 29 24 31 25 32 26 33 27 34 28 35 29 37 30 38
REMARK SMILES IDX 31 39 83 40 32 41 82 42 33 43 34 44 35 45 76 46 36 47 81 48
REMARK SMILES IDX 75 49 77 50 37 51 80 52 74 53 73 54 38 56 64 57 47 58 63 59
REMARK SMILES IDX 48 60 51 61 62 62 78 63 49 64 50 65 61 67 79 68 52 69 39 70
REMARK SMILES IDX 40 71 45 72 41 73 42 74 44 75 46 76 43 77 65 78 66 79 71 80
REMARK SMILES IDX 67 81 68 82 70 83 72 84 69 85 53 86 54 87 59 88 55 89 56 90
REMARK SMILES IDX 58 91 60 92 57 93
REMARK H PARENT 22 5 18 10 3 15 86 30 27 36 77 55 51 66
REMARK Flexibility Score: inf
ROOT
ATOM      1  C   UNL A   1      36.011  23.077  24.906  1.00  0.00     0.116 C 
ENDROOT
BRANCH   1   2
ATOM      2  N   UNL A   1      35.607  22.558  26.192  1.00  0.00    -0.354 N 
ATOM      3  C   UNL A   1      34.380  22.138  26.613  1.00  0.00     0.245 C 
ATOM      4  O   UNL A   1      34.362  21.466  27.652  1.00  0.00    -0.273 OA
ATOM      5  H   UNL A   1      36.324  22.498  26.864  1.00  0.00     0.163 HD
BRANCH   3   6
ATOM      6  C   UNL A   1      33.101  22.304  25.744  1.00  0.00     0.200 C 
BRANCH   6   7
ATOM      7  N   UNL A   1      31.908  22.722  26.479  1.00  0.00    -0.340 N 
ATOM      8  C   UNL A   1      31.081  23.791  26.316  1.00  0.00     0.243 C 
ATOM      9  O   UNL A   1      30.179  23.906  27.156  1.00  0.00    -0.273 OA
ATOM     10  H   UNL A   1      31.659  22.125  27.222  1.00  0.00     0.164 HD
BRANCH   8  11
ATOM     11  C   UNL A   1      31.171  24.810  25.141  1.00  0.00     0.168 C 
ATOM     12  C   UNL A   1      30.591  24.206  23.878  1.00  0.00     0.041 C 
BRANCH  11  13
ATOM     13  N   UNL A   1      32.397  25.637  25.046  1.00  0.00    -0.341 N 
ATOM     14  C   UNL A   1      32.792  26.796  24.426  1.00  0.00     0.251 C 
ATOM     15  H   UNL A   1      33.130  25.248  25.574  1.00  0.00     0.164 HD
ATOM     16  O   UNL A   1      33.993  27.012  24.283  1.00  0.00    -0.269 OA
BRANCH  14  17
ATOM     17  C   UNL A   1      31.822  27.763  23.893  1.00  0.00     0.039 A 
ATOM     18  C   UNL A   1      31.206  27.510  22.670  1.00  0.00     0.014 A 
ATOM     19  C   UNL A   1      31.498  28.908  24.609  1.00  0.00     0.014 A 
ATOM     20  C   UNL A   1      30.104  28.276  22.288  1.00  0.00     0.005 A 
ATOM     21  C   UNL A   1      30.388  29.666  24.229  1.00  0.00     0.005 A 
ATOM     22  C   UNL A   1      29.616  29.310  23.109  1.00  0.00    -0.043 A 
BRANCH  22  23
ATOM     23  C   UNL A   1      28.263  29.974  22.797  1.00  0.00    -0.013 C 
ATOM     24  C   UNL A   1      28.208  30.360  21.310  1.00  0.00     0.016 C 
ATOM     25  C   UNL A   1      27.104  28.998  23.112  1.00  0.00     0.016 C 
ATOM     26  C   UNL A   1      27.998  31.243  23.639  1.00  0.00     0.016 C 
ENDBRANCH  22  23
ENDBRANCH  14  17
ENDBRANCH  11  13
ENDBRANCH   8  11
ENDBRANCH   6   7
BRANCH   6  27
ATOM     27  C   UNL A   1      32.841  21.017  24.912  1.00  0.00     0.143 C 
ATOM     28  C   UNL A   1      32.559  21.253  23.431  1.00  0.00     0.041 C 
BRANCH  27  29
ATOM     29  O   UNL A   1      31.754  20.258  25.451  1.00  0.00    -0.391 OA
ATOM     30  H   UNL A   1      31.172  19.972  24.731  1.00  0.00     0.211 HD
ENDBRANCH  27  29
ENDBRANCH   6  27
ENDBRANCH   3   6
ENDBRANCH   1   2
BRANCH   1  31
ATOM     31  C   UNL A   1      36.878  22.101  24.122  1.00  0.00     0.023 C 
BRANCH  31  32
ATOM     32  C   UNL A   1      37.344  20.899  24.939  1.00  0.00     0.023 C 
BRANCH  32  33
ATOM     33  C   UNL A   1      38.668  21.091  25.672  1.00  0.00     0.116 C 
BRANCH  33  34
ATOM     34  N   UNL A   1      39.546  19.932  25.604  1.00  0.00    -0.352 N 
ATOM     35  C   UNL A   1      40.874  19.846  25.964  1.00  0.00     0.251 C 
ATOM     36  H   UNL A   1      39.141  19.106  25.255  1.00  0.00     0.163 HD
ATOM     37  O   UNL A   1      41.516  18.831  25.765  1.00  0.00    -0.269 OA
BRANCH  35  38
ATOM     38  C   UNL A   1      41.517  21.037  26.559  1.00  0.00     0.039 A 
ATOM     39  C   UNL A   1      42.084  21.988  25.710  1.00  0.00     0.014 A 
ATOM     40  C   UNL A   1      41.479  21.244  27.940  1.00  0.00     0.014 A 
ATOM     41  C   UNL A   1      42.545  23.193  26.243  1.00  0.00     0.010 A 
ATOM     42  C   UNL A   1      41.870  22.474  28.459  1.00  0.00     0.010 A 
ATOM     43  C   UNL A   1      42.400  23.462  27.614  1.00  0.00    -0.014 A 
BRANCH  43  44
ATOM     44  C   UNL A   1      42.783  24.777  28.186  1.00  0.00     0.031 A 
ATOM     45  C   UNL A   1      41.739  25.835  28.399  1.00  0.00     0.074 A 
ATOM     46  C   UNL A   1      44.078  25.044  28.439  1.00  0.00     0.049 A 
ATOM     47  N   UNL A   1      41.884  27.068  28.809  1.00  0.00    -0.248 NA
ATOM     48  C   UNL A   1      40.350  25.466  28.081  1.00  0.00     0.031 C 
ATOM     49  C   UNL A   1      45.194  24.120  28.221  1.00  0.00     0.029 A 
ATOM     50  N   UNL A   1      44.678  26.179  28.925  1.00  0.00    -0.354 N 
ATOM     51  C   UNL A   1      40.613  27.627  28.779  1.00  0.00     0.074 A 
ATOM     52  C   UNL A   1      39.717  26.616  28.264  1.00  0.00     0.031 C 
ATOM     53  C   UNL A   1      46.338  24.718  28.593  1.00  0.00     0.029 A 
ATOM     54  C   UNL A   1      46.042  26.074  29.041  1.00  0.00     0.049 A 
ATOM     55  H   UNL A   1      44.177  26.991  29.167  1.00  0.00     0.167 HD
ATOM     56  C   UNL A   1      40.223  28.864  29.168  1.00  0.00     0.037 A 
ATOM     57  C   UNL A   1      46.953  26.974  29.460  1.00  0.00     0.037 A 
ATOM     58  C   UNL A   1      41.110  29.858  29.711  1.00  0.00     0.049 A 
ATOM     59  C   UNL A   1      46.493  28.335  29.900  1.00  0.00     0.074 A 
ATOM     60  C   UNL A   1      40.800  31.116  30.197  1.00  0.00     0.029 A 
ATOM     61  N   UNL A   1      42.481  29.704  29.843  1.00  0.00    -0.354 N 
ATOM     62  N   UNL A   1      45.279  28.827  29.931  1.00  0.00    -0.248 NA
ATOM     63  C   UNL A   1      47.530  29.266  30.369  1.00  0.00     0.031 C 
ATOM     64  C   UNL A   1      41.990  31.737  30.592  1.00  0.00     0.029 A 
ATOM     65  C   UNL A   1      43.035  30.850  30.388  1.00  0.00     0.049 A 
ATOM     66  H   UNL A   1      42.987  28.898  29.587  1.00  0.00     0.167 HD
ATOM     67  C   UNL A   1      45.401  30.111  30.445  1.00  0.00     0.074 A 
ATOM     68  C   UNL A   1      46.807  30.318  30.723  1.00  0.00     0.031 C 
ATOM     69  C   UNL A   1      44.436  31.036  30.667  1.00  0.00     0.037 A 
BRANCH  56  70
ATOM     70  C   UNL A   1      38.770  29.204  29.026  1.00  0.00     0.057 A 
ATOM     71  C   UNL A   1      38.221  29.590  27.795  1.00  0.00     0.134 A 
ATOM     72  C   UNL A   1      37.904  29.121  30.122  1.00  0.00     0.134 A 
ATOM     73  F   UNL A   1      39.000  29.702  26.709  1.00  0.00    -0.206 F 
ATOM     74  C   UNL A   1      36.868  29.908  27.668  1.00  0.00     0.040 A 
ATOM     75  C   UNL A   1      36.544  29.410  30.002  1.00  0.00     0.040 A 
ATOM     76  F   UNL A   1      38.364  28.753  31.328  1.00  0.00    -0.206 F 
ATOM     77  C   UNL A   1      36.024  29.812  28.773  1.00  0.00     0.006 A 
ENDBRANCH  56  70
BRANCH  57  78
ATOM     78  C   UNL A   1      48.390  26.608  29.512  1.00  0.00     0.057 A 
ATOM     79  C   UNL A   1      49.235  26.859  28.424  1.00  0.00     0.134 A 
ATOM     80  C   UNL A   1      48.951  25.995  30.639  1.00  0.00     0.134 A 
ATOM     81  F   UNL A   1      48.751  27.426  27.311  1.00  0.00    -0.206 F 
ATOM     82  C   UNL A   1      50.583  26.497  28.447  1.00  0.00     0.040 A 
ATOM     83  C   UNL A   1      50.302  25.647  30.683  1.00  0.00     0.040 A 
ATOM     84  F   UNL A   1      48.195  25.735  31.714  1.00  0.00    -0.206 F 
ATOM     85  C   UNL A   1      51.121  25.892  29.582  1.00  0.00     0.006 A 
ENDBRANCH  57  78
BRANCH  69  86
ATOM     86  C   UNL A   1      44.862  32.340  31.269  1.00  0.00     0.057 A 
ATOM     87  C   UNL A   1      45.209  33.440  30.475  1.00  0.00     0.134 A 
ATOM     88  C   UNL A   1      44.885  32.510  32.659  1.00  0.00     0.134 A 
ATOM     89  F   UNL A   1      45.219  33.337  29.137  1.00  0.00    -0.206 F 
ATOM     90  C   UNL A   1      45.582  34.659  31.043  1.00  0.00     0.040 A 
ATOM     91  C   UNL A   1      45.234  33.730  33.239  1.00  0.00     0.040 A 
ATOM     92  F   UNL A   1      44.557  31.497  33.474  1.00  0.00    -0.206 F 
ATOM     93  C   UNL A   1      45.588  34.807  32.429  1.00  0.00     0.006 A 
ENDBRANCH  69  86
ENDBRANCH  43  44
ENDBRANCH  35  38
ENDBRANCH  33  34
ENDBRANCH  32  33
ENDBRANCH  31  32
ENDBRANCH   1  31
TORSDOF 18
ENDMDL
MODEL 2
REMARK VINA RESULT:     -11.8      1.493      6.228
REMARK SMILES C[C@H](NC(=O)c1ccc(C(C)(C)C)cc1)C(=O)N[C@@H](C(=O)NCCCCNC(=O)c1ccc(-c2c3nc(c(-c4c(F)cccc4F)c4ccc([nH]4)c(-c4c(F)cccc4F)c4nc(c(-c5c(F)cccc5F)c5ccc2[nH]5)C=C4)C=C3)cc1)[C@H](C)O
REMARK SMILES IDX 23 1 22 2 20 3 21 4 19 6 18 7 16 8 17 9 2 11 1 12 3 13 4 14
REMARK SMILES IDX 5 16 6 17 7 18 15 19 8 20 14 21 9 22 10 23 11 24 12 25 13 26
REMARK SMILES IDX 84 27 85 28 86 29 24 31 25 32 26 33 27 34 28 35 29 37 30 38
REMARK SMILES IDX 31 39 83 40 32 41 82 42 33 43 34 44 35 45 76 46 36 47 81 48
REMARK SMILES IDX 75 49 77 50 37 51 80 52 74 53 73 54 38 56 64 57 47 58 63 59
REMARK SMILES IDX 48 60 51 61 62 62 78 63 49 64 50 65 61 67 79 68 52 69 39 70
REMARK SMILES IDX 40 71 45 72 41 73 42 74 44 75 46 76 43 77 65 78 66 79 71 80
REMARK SMILES IDX 67 81 68 82 70 83 72 84 69 85 53 86 54 87 59 88 55 89 56 90
REMARK SMILES IDX 58 91 60 92 57 93
REMARK H PARENT 22 5 18 10 3 15 86 30 27 36 77 55 51 66
REMARK Flexibility Score: inf
ROOT
ATOM      1  C   UNL A   1      36.049  21.441  24.698  1.00  0.00     0.116 C 
ENDROOT
BRANCH   1   2
ATOM      2  N   UNL A   1      35.498  21.487  26.033  1.00  0.00    -0.354 N 
ATOM      3  C   UNL A   1      34.288  21.949  26.458  1.00  0.00     0.245 C 
ATOM      4  O   UNL A   1      33.943  21.604  27.594  1.00  0.00    -0.273 OA
ATOM      5  H   UNL A   1      36.083  21.130  26.739  1.00  0.00     0.163 HD
BRANCH   3   6
ATOM      6  C   UNL A   1      33.300  22.688  25.510  1.00  0.00     0.200 C 
BRANCH   6   7
ATOM      7  N   UNL A   1      32.477  23.709  26.156  1.00  0.00    -0.340 N 
ATOM      8  C   UNL A   1      32.600  25.064  26.205  1.00  0.00     0.243 C 
ATOM      9  O   UNL A   1      31.765  25.656  26.900  1.00  0.00    -0.273 OA
ATOM     10  H   UNL A   1      31.696  23.355  26.639  1.00  0.00     0.164 HD
BRANCH   8  11
ATOM     11  C   UNL A   1      33.666  25.886  25.418  1.00  0.00     0.168 C 
ATOM     12  C   UNL A   1      33.899  27.223  26.094  1.00  0.00     0.041 C 
BRANCH  11  13
ATOM     13  N   UNL A   1      33.619  25.826  23.939  1.00  0.00    -0.341 N 
ATOM     14  C   UNL A   1      32.741  26.162  22.939  1.00  0.00     0.251 C 
ATOM     15  H   UNL A   1      34.445  25.438  23.572  1.00  0.00     0.164 HD
ATOM     16  O   UNL A   1      32.882  25.652  21.830  1.00  0.00    -0.269 OA
BRANCH  14  17
ATOM     17  C   UNL A   1      31.617  27.080  23.166  1.00  0.00     0.039 A 
ATOM     18  C   UNL A   1      31.858  28.450  23.240  1.00  0.00     0.014 A 
ATOM     19  C   UNL A   1      30.320  26.598  23.281  1.00  0.00     0.014 A 
ATOM     20  C   UNL A   1      30.783  29.338  23.188  1.00  0.00     0.005 A 
ATOM     21  C   UNL A   1      29.246  27.489  23.219  1.00  0.00     0.005 A 
ATOM     22  C   UNL A   1      29.458  28.872  23.082  1.00  0.00    -0.043 A 
BRANCH  22  23
ATOM     23  C   UNL A   1      28.314  29.855  22.777  1.00  0.00    -0.013 C 
ATOM     24  C   UNL A   1      28.529  31.158  23.564  1.00  0.00     0.016 C 
ATOM     25  C   UNL A   1      28.274  30.176  21.264  1.00  0.00     0.016 C 
ATOM     26  C   UNL A   1      26.918  29.295  23.135  1.00  0.00     0.016 C 
ENDBRANCH  22  23
ENDBRANCH  14  17
ENDBRANCH  11  13
ENDBRANCH   8  11
ENDBRANCH   6   7
BRANCH   6  27
ATOM     27  C   UNL A   1      32.434  21.663  24.726  1.00  0.00     0.143 C 
ATOM     28  C   UNL A   1      31.740  22.220  23.486  1.00  0.00     0.041 C 
BRANCH  27  29
ATOM     29  O   UNL A   1      31.433  21.077  25.564  1.00  0.00    -0.391 OA
ATOM     30  H   UNL A   1      30.586  21.065  25.094  1.00  0.00     0.211 HD
ENDBRANCH  27  29
ENDBRANCH   6  27
ENDBRANCH   3   6
ENDBRANCH   1   2
BRANCH   1  31
ATOM     31  C   UNL A   1      37.571  21.466  24.688  1.00  0.00     0.023 C 
BRANCH  31  32
ATOM     32  C   UNL A   1      38.211  20.118  25.007  1.00  0.00     0.023 C 
BRANCH  32  33
ATOM     33  C   UNL A   1      39.298  20.156  26.077  1.00  0.00     0.116 C 
BRANCH  33  34
ATOM     34  N   UNL A   1      40.265  19.073  25.965  1.00  0.00    -0.352 N 
ATOM     35  C   UNL A   1      41.637  19.141  26.075  1.00  0.00     0.251 C 
ATOM     36  H   UNL A   1      39.891  18.180  25.789  1.00  0.00     0.163 HD
ATOM     37  O   UNL A   1      42.334  18.166  25.865  1.00  0.00    -0.269 OA
BRANCH  35  38
ATOM     38  C   UNL A   1      42.250  20.444  26.409  1.00  0.00     0.039 A 
ATOM     39  C   UNL A   1      42.685  21.268  25.369  1.00  0.00     0.014 A 
ATOM     40  C   UNL A   1      42.312  20.876  27.736  1.00  0.00     0.014 A 
ATOM     41  C   UNL A   1      43.110  22.565  25.656  1.00  0.00     0.010 A 
ATOM     42  C   UNL A   1      42.666  22.193  28.011  1.00  0.00     0.010 A 
ATOM     43  C   UNL A   1      43.061  23.052  26.973  1.00  0.00    -0.014 A 
BRANCH  43  44
ATOM     44  C   UNL A   1      43.405  24.460  27.287  1.00  0.00     0.031 A 
ATOM     45  C   UNL A   1      44.834  24.917  27.218  1.00  0.00     0.074 A 
ATOM     46  C   UNL A   1      42.445  25.305  27.709  1.00  0.00     0.049 A 
ATOM     47  N   UNL A   1      45.346  26.079  27.532  1.00  0.00    -0.248 NA
ATOM     48  C   UNL A   1      45.823  23.926  26.764  1.00  0.00     0.031 C 
ATOM     49  C   UNL A   1      41.029  24.967  27.873  1.00  0.00     0.029 A 
ATOM     50  N   UNL A   1      42.517  26.622  28.090  1.00  0.00    -0.354 N 
ATOM     51  C   UNL A   1      46.715  25.952  27.333  1.00  0.00     0.074 A 
ATOM     52  C   UNL A   1      46.960  24.588  26.920  1.00  0.00     0.031 C 
ATOM     53  C   UNL A   1      40.364  26.054  28.299  1.00  0.00     0.029 A 
ATOM     54  C   UNL A   1      41.310  27.152  28.471  1.00  0.00     0.049 A 
ATOM     55  H   UNL A   1      43.356  27.137  28.090  1.00  0.00     0.167 HD
ATOM     56  C   UNL A   1      47.679  26.895  27.459  1.00  0.00     0.037 A 
ATOM     57  C   UNL A   1      41.000  28.386  28.913  1.00  0.00     0.037 A 
ATOM     58  C   UNL A   1      47.431  28.260  27.838  1.00  0.00     0.049 A 
ATOM     59  C   UNL A   1      42.085  29.419  29.031  1.00  0.00     0.074 A 
ATOM     60  C   UNL A   1      48.331  29.307  27.928  1.00  0.00     0.029 A 
ATOM     61  N   UNL A   1      46.189  28.768  28.186  1.00  0.00    -0.354 N 
ATOM     62  N   UNL A   1      43.365  29.305  28.774  1.00  0.00    -0.248 NA
ATOM     63  C   UNL A   1      41.683  30.754  29.497  1.00  0.00     0.031 C 
ATOM     64  C   UNL A   1      47.639  30.442  28.365  1.00  0.00     0.029 A 
ATOM     65  C   UNL A   1      46.301  30.110  28.508  1.00  0.00     0.049 A 
ATOM     66  H   UNL A   1      45.350  28.251  28.202  1.00  0.00     0.167 HD
ATOM     67  C   UNL A   1      43.916  30.556  29.020  1.00  0.00     0.074 A 
ATOM     68  C   UNL A   1      42.829  31.417  29.436  1.00  0.00     0.031 C 
ATOM     69  C   UNL A   1      45.206  30.955  28.911  1.00  0.00     0.037 A 
BRANCH  56  70
ATOM     70  C   UNL A   1      49.091  26.477  27.176  1.00  0.00     0.057 A 
ATOM     71  C   UNL A   1      49.944  26.027  28.193  1.00  0.00     0.134 A 
ATOM     72  C   UNL A   1      49.597  26.502  25.871  1.00  0.00     0.134 A 
ATOM     73  F   UNL A   1      49.524  25.992  29.466  1.00  0.00    -0.206 F 
ATOM     74  C   UNL A   1      51.258  25.641  27.924  1.00  0.00     0.040 A 
ATOM     75  C   UNL A   1      50.901  26.094  25.586  1.00  0.00     0.040 A 
ATOM     76  F   UNL A   1      48.831  26.918  24.851  1.00  0.00    -0.206 F 
ATOM     77  C   UNL A   1      51.738  25.668  26.616  1.00  0.00     0.006 A 
ENDBRANCH  56  70
BRANCH  57  78
ATOM     78  C   UNL A   1      39.595  28.725  29.250  1.00  0.00     0.057 A 
ATOM     79  C   UNL A   1      39.105  28.547  30.549  1.00  0.00     0.134 A 
ATOM     80  C   UNL A   1      38.710  29.223  28.287  1.00  0.00     0.134 A 
ATOM     81  F   UNL A   1      39.901  28.056  31.509  1.00  0.00    -0.206 F 
ATOM     82  C   UNL A   1      37.779  28.835  30.876  1.00  0.00     0.040 A 
ATOM     83  C   UNL A   1      37.386  29.536  28.605  1.00  0.00     0.040 A 
ATOM     84  F   UNL A   1      39.121  29.421  27.027  1.00  0.00    -0.206 F 
ATOM     85  C   UNL A   1      36.916  29.335  29.901  1.00  0.00     0.006 A 
ENDBRANCH  57  78
BRANCH  69  86
ATOM     86  C   UNL A   1      45.507  32.392  29.214  1.00  0.00     0.057 A 
ATOM     87  C   UNL A   1      45.398  33.390  28.238  1.00  0.00     0.134 A 
ATOM     88  C   UNL A   1      45.871  32.786  30.508  1.00  0.00     0.134 A 
ATOM     89  F   UNL A   1      45.067  33.075  26.977  1.00  0.00    -0.206 F 
ATOM     90  C   UNL A   1      45.658  34.729  28.535  1.00  0.00     0.040 A 
ATOM     91  C   UNL A   1      46.111  34.124  30.822  1.00  0.00     0.040 A 
ATOM     92  F   UNL A   1      45.986  31.878  31.489  1.00  0.00    -0.206 F 
ATOM     93  C   UNL A   1      46.008  35.099  29.831  1.00  0.00     0.006 A 
ENDBRANCH  69  86
ENDBRANCH  43  44
ENDBRANCH  35  38
ENDBRANCH  33  34
ENDBRANCH  32  33
ENDBRANCH  31  32
ENDBRANCH   1  31
TORSDOF 18
ENDMDL
MODEL 3
REMARK VINA RESULT:     -11.8      0.722      6.102
REMARK SMILES C[C@H](NC(=O)c1ccc(C(C)(C)C)cc1)C(=O)N[C@@H](C(=O)NCCCCNC(=O)c1ccc(-c2c3nc(c(-c4c(F)cccc4F)c4ccc([nH]4)c(-c4c(F)cccc4F)c4nc(c(-c5c(F)cccc5F)c5ccc2[nH]5)C=C4)C=C3)cc1)[C@H](C)O
REMARK SMILES IDX 23 1 22 2 20 3 21 4 19 6 18 7 16 8 17 9 2 11 1 12 3 13 4 14
REMARK SMILES IDX 5 16 6 17 7 18 15 19 8 20 14 21 9 22 10 23 11 24 12 25 13 26
REMARK SMILES IDX 84 27 85 28 86 29 24 31 25 32 26 33 27 34 28 35 29 37 30 38
REMARK SMILES IDX 31 39 83 40 32 41 82 42 33 43 34 44 35 45 76 46 36 47 81 48
REMARK SMILES IDX 75 49 77 50 37 51 80 52 74 53 73 54 38 56 64 57 47 58 63 59
REMARK SMILES IDX 48 60 51 61 62 62 78 63 49 64 50 65 61 67 79 68 52 69 39 70
REMARK SMILES IDX 40 71 45 72 41 73 42 74 44 75 46 76 43 77 65 78 66 79 71 80
REMARK SMILES IDX 67 81 68 82 70 83 72 84 69 85 53 86 54 87 59 88 55 89 56 90
REMARK SMILES IDX 58 91 60 92 57 93
REMARK H PARENT 22 5 18 10 3 15 86 30 27 36 77 55 51 66
REMARK Flexibility Score: inf
ROOT
ATOM      1  C   UNL A   1      35.428  21.368  25.526  1.00  0.00     0.116 C 
ENDROOT
BRANCH   1   2
ATOM      2  N   UNL A   1      35.259  22.404  24.534  1.00  0.00    -0.354 N 
ATOM      3  C   UNL A   1      34.114  22.958  24.042  1.00  0.00     0.245 C 
ATOM      4  O   UNL A   1      34.246  24.023  23.427  1.00  0.00    -0.273 OA
ATOM      5  H   UNL A   1      36.094  22.764  24.158  1.00  0.00     0.163 HD
BRANCH   3   6
ATOM      6  C   UNL A   1      32.704  22.410  24.401  1.00  0.00     0.200 C 
BRANCH   6   7
ATOM      7  N   UNL A   1      32.199  22.821  25.710  1.00  0.00    -0.340 N 
ATOM      8  C   UNL A   1      31.739  24.021  26.159  1.00  0.00     0.243 C 
ATOM      9  O   UNL A   1      31.440  24.068  27.359  1.00  0.00    -0.273 OA
ATOM     10  H   UNL A   1      32.190  22.105  26.385  1.00  0.00     0.164 HD
BRANCH   8  11
ATOM     11  C   UNL A   1      31.523  25.279  25.263  1.00  0.00     0.168 C 
ATOM     12  C   UNL A   1      30.545  24.967  24.149  1.00  0.00     0.041 C 
BRANCH  11  13
ATOM     13  N   UNL A   1      32.709  26.117  24.967  1.00  0.00    -0.341 N 
ATOM     14  C   UNL A   1      32.993  27.252  24.250  1.00  0.00     0.251 C 
ATOM     15  H   UNL A   1      33.515  25.762  25.407  1.00  0.00     0.164 HD
ATOM     16  O   UNL A   1      34.159  27.479  23.936  1.00  0.00    -0.269 OA
BRANCH  14  17
ATOM     17  C   UNL A   1      31.941  28.181  23.814  1.00  0.00     0.039 A 
ATOM     18  C   UNL A   1      31.484  28.128  22.500  1.00  0.00     0.014 A 
ATOM     19  C   UNL A   1      31.384  29.090  24.705  1.00  0.00     0.014 A 
ATOM     20  C   UNL A   1      30.318  28.812  22.153  1.00  0.00     0.005 A 
ATOM     21  C   UNL A   1      30.212  29.765  24.357  1.00  0.00     0.005 A 
ATOM     22  C   UNL A   1      29.607  29.569  23.103  1.00  0.00    -0.043 A 
BRANCH  22  23
ATOM     23  C   UNL A   1      28.204  30.107  22.773  1.00  0.00    -0.013 C 
ATOM     24  C   UNL A   1      28.133  30.482  21.283  1.00  0.00     0.016 C 
ATOM     25  C   UNL A   1      27.134  29.031  23.078  1.00  0.00     0.016 C 
ATOM     26  C   UNL A   1      27.816  31.349  23.606  1.00  0.00     0.016 C 
ENDBRANCH  22  23
ENDBRANCH  14  17
ENDBRANCH  11  13
ENDBRANCH   8  11
ENDBRANCH   6   7
BRANCH   6  27
ATOM     27  C   UNL A   1      32.665  20.865  24.231  1.00  0.00     0.143 C 
ATOM     28  C   UNL A   1      32.201  20.379  22.860  1.00  0.00     0.041 C 
BRANCH  27  29
ATOM     29  O   UNL A   1      31.831  20.252  25.218  1.00  0.00    -0.391 OA
ATOM     30  H   UNL A   1      31.338  20.937  25.695  1.00  0.00     0.211 HD
ENDBRANCH  27  29
ENDBRANCH   6  27
ENDBRANCH   3   6
ENDBRANCH   1   2
BRANCH   1  31
ATOM     31  C   UNL A   1      36.353  20.252  25.061  1.00  0.00     0.023 C 
BRANCH  31  32
ATOM     32  C   UNL A   1      37.745  20.733  24.659  1.00  0.00     0.023 C 
BRANCH  32  33
ATOM     33  C   UNL A   1      38.772  20.750  25.786  1.00  0.00     0.116 C 
BRANCH  33  34
ATOM     34  N   UNL A   1      39.746  19.671  25.705  1.00  0.00    -0.352 N 
ATOM     35  C   UNL A   1      41.086  19.706  26.022  1.00  0.00     0.251 C 
ATOM     36  H   UNL A   1      39.403  18.806  25.382  1.00  0.00     0.163 HD
ATOM     37  O   UNL A   1      41.808  18.748  25.815  1.00  0.00    -0.269 OA
BRANCH  35  38
ATOM     38  C   UNL A   1      41.642  20.959  26.578  1.00  0.00     0.039 A 
ATOM     39  C   UNL A   1      42.161  21.911  25.699  1.00  0.00     0.014 A 
ATOM     40  C   UNL A   1      41.568  21.216  27.949  1.00  0.00     0.014 A 
ATOM     41  C   UNL A   1      42.534  23.163  26.190  1.00  0.00     0.010 A 
ATOM     42  C   UNL A   1      41.872  22.488  28.423  1.00  0.00     0.010 A 
ATOM     43  C   UNL A   1      42.350  23.475  27.547  1.00  0.00    -0.014 A 
BRANCH  43  44
ATOM     44  C   UNL A   1      42.639  24.833  28.072  1.00  0.00     0.031 A 
ATOM     45  C   UNL A   1      44.033  25.192  28.498  1.00  0.00     0.074 A 
ATOM     46  C   UNL A   1      41.633  25.713  28.236  1.00  0.00     0.049 A 
ATOM     47  N   UNL A   1      44.469  26.293  29.054  1.00  0.00    -0.248 NA
ATOM     48  C   UNL A   1      45.070  24.166  28.300  1.00  0.00     0.031 C 
ATOM     49  C   UNL A   1      40.226  25.466  27.913  1.00  0.00     0.029 A 
ATOM     50  N   UNL A   1      41.639  26.995  28.729  1.00  0.00    -0.354 N 
ATOM     51  C   UNL A   1      45.822  26.084  29.290  1.00  0.00     0.074 A 
ATOM     52  C   UNL A   1      46.124  24.736  28.863  1.00  0.00     0.031 C 
ATOM     53  C   UNL A   1      39.510  26.566  28.195  1.00  0.00     0.029 A 
ATOM     54  C   UNL A   1      40.398  27.582  28.750  1.00  0.00     0.049 A 
ATOM     55  H   UNL A   1      42.456  27.449  29.038  1.00  0.00     0.167 HD
ATOM     56  C   UNL A   1      46.735  26.947  29.795  1.00  0.00     0.037 A 
ATOM     57  C   UNL A   1      40.019  28.804  29.172  1.00  0.00     0.037 A 
ATOM     58  C   UNL A   1      46.441  28.299  30.187  1.00  0.00     0.049 A 
ATOM     59  C   UNL A   1      41.054  29.748  29.715  1.00  0.00     0.074 A 
ATOM     60  C   UNL A   1      47.311  29.272  30.646  1.00  0.00     0.029 A 
ATOM     61  N   UNL A   1      45.177  28.869  30.165  1.00  0.00    -0.354 N 
ATOM     62  N   UNL A   1      42.342  29.562  29.869  1.00  0.00    -0.248 NA
ATOM     63  C   UNL A   1      40.584  31.075  30.138  1.00  0.00     0.031 C 
ATOM     64  C   UNL A   1      46.567  30.422  30.934  1.00  0.00     0.029 A 
ATOM     65  C   UNL A   1      45.241  30.176  30.616  1.00  0.00     0.049 A 
ATOM     66  H   UNL A   1      44.356  28.412  29.870  1.00  0.00     0.167 HD
ATOM     67  C   UNL A   1      42.841  30.753  30.380  1.00  0.00     0.074 A 
ATOM     68  C   UNL A   1      41.718  31.659  30.500  1.00  0.00     0.031 C 
ATOM     69  C   UNL A   1      44.114  31.068  30.720  1.00  0.00     0.037 A 
BRANCH  56  70
ATOM     70  C   UNL A   1      48.143  26.451  29.940  1.00  0.00     0.057 A 
ATOM     71  C   UNL A   1      48.575  25.790  31.098  1.00  0.00     0.134 A 
ATOM     72  C   UNL A   1      49.071  26.613  28.904  1.00  0.00     0.134 A 
ATOM     73  F   UNL A   1      47.739  25.614  32.132  1.00  0.00    -0.206 F 
ATOM     74  C   UNL A   1      49.887  25.332  31.230  1.00  0.00     0.040 A 
ATOM     75  C   UNL A   1      50.377  26.137  29.013  1.00  0.00     0.040 A 
ATOM     76  F   UNL A   1      48.720  27.234  27.767  1.00  0.00    -0.206 F 
ATOM     77  C   UNL A   1      50.791  25.500  30.183  1.00  0.00     0.006 A 
ENDBRANCH  56  70
BRANCH  57  78
ATOM     78  C   UNL A   1      38.597  29.217  29.072  1.00  0.00     0.057 A 
ATOM     79  C   UNL A   1      38.064  29.671  27.860  1.00  0.00     0.134 A 
ATOM     80  C   UNL A   1      37.742  29.176  30.179  1.00  0.00     0.134 A 
ATOM     81  F   UNL A   1      38.840  29.750  26.770  1.00  0.00    -0.206 F 
ATOM     82  C   UNL A   1      36.736  30.088  27.756  1.00  0.00     0.040 A 
ATOM     83  C   UNL A   1      36.406  29.569  30.084  1.00  0.00     0.040 A 
ATOM     84  F   UNL A   1      38.191  28.744  31.366  1.00  0.00    -0.206 F 
ATOM     85  C   UNL A   1      35.902  30.034  28.871  1.00  0.00     0.006 A 
ENDBRANCH  57  78
BRANCH  69  86
ATOM     86  C   UNL A   1      44.366  32.457  31.222  1.00  0.00     0.057 A 
ATOM     87  C   UNL A   1      44.336  32.765  32.588  1.00  0.00     0.134 A 
ATOM     88  C   UNL A   1      44.683  33.490  30.330  1.00  0.00     0.134 A 
ATOM     89  F   UNL A   1      44.025  31.823  33.491  1.00  0.00    -0.206 F 
ATOM     90  C   UNL A   1      44.595  34.057  33.048  1.00  0.00     0.040 A 
ATOM     91  C   UNL A   1      44.966  34.780  30.780  1.00  0.00     0.040 A 
ATOM     92  F   UNL A   1      44.735  33.258  29.010  1.00  0.00    -0.206 F 
ATOM     93  C   UNL A   1      44.917  35.066  32.143  1.00  0.00     0.006 A 
ENDBRANCH  69  86
ENDBRANCH  43  44
ENDBRANCH  35  38
ENDBRANCH  33  34
ENDBRANCH  32  33
ENDBRANCH  31  32
ENDBRANCH   1  31
TORSDOF 18
ENDMDL
