MODEL 1
REMARK VINA RESULT:     -13.4      0.000      0.000
REMARK SMILES Cc1ccc2[nH]cc([C@@H](C(=O)NCCCCNC(=O)c3ccc(-c4c5nc(c(-c6c(F)cccc6F)c6ccc([nH]6)c(-c6c(F)cccc6F)c6nc(c(-c7c(F)cccc7F)c7ccc4[nH]7)C=C6)C=C5)cc3)[NH+]3CCN(c4cccc(Cl)c4)CC3)c2c1
REMARK SMILES IDX 14 1 13 2 12 3 10 4 11 5 9 7 8 8 1 9 2 10 3 11 88 12 4 13
REMARK SMILES IDX 87 14 5 15 6 16 7 17 74 19 75 20 86 21 76 23 85 24 77 25
REMARK SMILES IDX 78 26 79 27 84 28 80 29 82 30 81 31 83 32 15 33 16 34 17 35
REMARK SMILES IDX 18 36 19 38 20 39 21 40 73 41 22 42 72 43 23 44 24 45 25 46
REMARK SMILES IDX 66 47 26 48 71 49 65 50 67 51 27 52 70 53 64 54 63 55 28 57
REMARK SMILES IDX 54 58 37 59 53 60 38 61 41 62 52 63 68 64 39 65 40 66 51 68
REMARK SMILES IDX 69 69 42 70 29 71 30 72 35 73 31 74 32 75 34 76 36 77 33 78
REMARK SMILES IDX 55 79 56 80 61 81 57 82 58 83 60 84 62 85 59 86 43 87 44 88
REMARK SMILES IDX 49 89 45 90 46 91 48 92 50 93 47 94
REMARK H PARENT 12 6 6 18 74 22 17 37 67 56 41 67
REMARK Flexibility Score: inf
ROOT
ATOM      1  C   UNL A   1      37.015  21.087  24.295  1.00  0.00     0.023 C 
ENDROOT
BRANCH   1   2
ATOM      2  C   UNL A   1      36.524  22.183  25.242  1.00  0.00     0.116 C 
BRANCH   2   3
ATOM      3  N   UNL A   1      35.766  23.199  24.543  1.00  0.00    -0.351 N 
ATOM      4  C   UNL A   1      34.416  23.256  24.295  1.00  0.00     0.283 C 
ATOM      5  O   UNL A   1      34.041  24.220  23.620  1.00  0.00    -0.268 OA
ATOM      6  H   UNL A   1      36.292  23.954  24.195  1.00  0.00     0.163 HD
BRANCH   4   7
ATOM      7  C   UNL A   1      33.461  22.177  24.916  1.00  0.00     0.307 C 
BRANCH   7   8
ATOM      8  C   UNL A   1      32.889  21.233  23.886  1.00  0.00     0.044 A 
ATOM      9  C   UNL A   1      34.865  16.621  24.980  1.00  0.00     0.044 C 
ATOM     10  C   UNL A   1      33.955  17.548  24.227  1.00  0.00    -0.050 A 
ATOM     11  C   UNL A   1      33.227  17.093  23.124  1.00  0.00     0.005 A 
ATOM     12  C   UNL A   1      33.873  18.899  24.603  1.00  0.00     0.014 A 
ATOM     13  C   UNL A   1      32.441  17.964  22.361  1.00  0.00     0.027 A 
ATOM     14  C   UNL A   1      33.113  19.807  23.831  1.00  0.00     0.009 A 
ATOM     15  C   UNL A   1      32.428  19.314  22.721  1.00  0.00     0.046 A 
ATOM     16  N   UNL A   1      31.819  20.384  22.113  1.00  0.00    -0.361 N 
ATOM     17  C   UNL A   1      32.153  21.545  22.754  1.00  0.00     0.094 A 
ATOM     18  H   UNL A   1      31.227  20.324  21.329  1.00  0.00     0.166 HD
ENDBRANCH   7   8
BRANCH   7  19
ATOM     19  N   UNL A   1      32.442  22.761  25.821  1.00  0.00    -0.318 N 
ATOM     20  C   UNL A   1      32.827  23.891  26.682  1.00  0.00     0.284 C 
ATOM     21  C   UNL A   1      31.131  23.017  25.200  1.00  0.00     0.284 C 
ATOM     22  H   UNL A   1      32.359  21.973  26.463  1.00  0.00     0.349 HD
ATOM     23  C   UNL A   1      32.637  25.318  26.126  1.00  0.00     0.178 C 
ATOM     24  C   UNL A   1      30.942  24.398  24.529  1.00  0.00     0.178 C 
ATOM     25  N   UNL A   1      31.365  25.490  25.417  1.00  0.00    -0.360 N 
BRANCH  25  26
ATOM     26  C   UNL A   1      31.078  26.774  24.954  1.00  0.00     0.038 A 
ATOM     27  C   UNL A   1      30.289  27.012  23.817  1.00  0.00     0.026 A 
ATOM     28  C   UNL A   1      31.598  27.875  25.640  1.00  0.00     0.046 A 
ATOM     29  C   UNL A   1      30.059  28.309  23.355  1.00  0.00     0.004 A 
ATOM     30  C   UNL A   1      31.375  29.170  25.176  1.00  0.00     0.043 A 
ATOM     31  C   UNL A   1      30.613  29.393  24.031  1.00  0.00     0.020 A 
ATOM     32  Cl  UNL A   1      32.062  30.507  26.016  1.00  0.00    -0.084 Cl
ENDBRANCH  25  26
ENDBRANCH   7  19
ENDBRANCH   4   7
ENDBRANCH   2   3
ENDBRANCH   1   2
BRANCH   1  33
ATOM     33  C   UNL A   1      37.750  19.936  24.974  1.00  0.00     0.023 C 
BRANCH  33  34
ATOM     34  C   UNL A   1      38.959  20.359  25.788  1.00  0.00     0.116 C 
BRANCH  34  35
ATOM     35  N   UNL A   1      40.033  19.379  25.762  1.00  0.00    -0.352 N 
ATOM     36  C   UNL A   1      41.357  19.555  26.081  1.00  0.00     0.251 C 
ATOM     37  H   UNL A   1      39.779  18.471  25.477  1.00  0.00     0.163 HD
ATOM     38  O   UNL A   1      42.171  18.665  25.894  1.00  0.00    -0.269 OA
BRANCH  36  39
ATOM     39  C   UNL A   1      41.787  20.862  26.620  1.00  0.00     0.039 A 
ATOM     40  C   UNL A   1      42.230  21.842  25.731  1.00  0.00     0.014 A 
ATOM     41  C   UNL A   1      41.704  21.127  27.989  1.00  0.00     0.014 A 
ATOM     42  C   UNL A   1      42.539  23.112  26.213  1.00  0.00     0.010 A 
ATOM     43  C   UNL A   1      41.927  22.415  28.455  1.00  0.00     0.010 A 
ATOM     44  C   UNL A   1      42.361  23.417  27.574  1.00  0.00    -0.014 A 
BRANCH  44  45
ATOM     45  C   UNL A   1      42.651  24.771  28.098  1.00  0.00     0.031 A 
ATOM     46  C   UNL A   1      44.056  25.133  28.494  1.00  0.00     0.074 A 
ATOM     47  C   UNL A   1      41.646  25.651  28.269  1.00  0.00     0.049 A 
ATOM     48  N   UNL A   1      44.507  26.248  29.011  1.00  0.00    -0.248 NA
ATOM     49  C   UNL A   1      45.084  24.095  28.316  1.00  0.00     0.031 C 
ATOM     50  C   UNL A   1      40.234  25.394  27.979  1.00  0.00     0.029 A 
ATOM     51  N   UNL A   1      41.660  26.941  28.735  1.00  0.00    -0.354 N 
ATOM     52  C   UNL A   1      45.862  26.037  29.233  1.00  0.00     0.074 A 
ATOM     53  C   UNL A   1      46.147  24.671  28.853  1.00  0.00     0.031 C 
ATOM     54  C   UNL A   1      39.523  26.501  28.245  1.00  0.00     0.029 A 
ATOM     55  C   UNL A   1      40.421  27.533  28.753  1.00  0.00     0.049 A 
ATOM     56  H   UNL A   1      42.481  27.398  29.029  1.00  0.00     0.167 HD
ATOM     57  C   UNL A   1      46.790  26.912  29.683  1.00  0.00     0.037 A 
ATOM     58  C   UNL A   1      40.055  28.771  29.133  1.00  0.00     0.037 A 
ATOM     59  C   UNL A   1      46.508  28.279  30.029  1.00  0.00     0.049 A 
ATOM     60  C   UNL A   1      41.109  29.731  29.611  1.00  0.00     0.074 A 
ATOM     61  C   UNL A   1      47.388  29.266  30.437  1.00  0.00     0.029 A 
ATOM     62  N   UNL A   1      45.245  28.852  30.003  1.00  0.00    -0.354 N 
ATOM     63  N   UNL A   1      42.399  29.542  29.746  1.00  0.00    -0.248 NA
ATOM     64  C   UNL A   1      40.656  31.080  29.978  1.00  0.00     0.031 C 
ATOM     65  C   UNL A   1      46.651  30.427  30.696  1.00  0.00     0.029 A 
ATOM     66  C   UNL A   1      45.320  30.176  30.404  1.00  0.00     0.049 A 
ATOM     67  H   UNL A   1      44.418  28.387  29.740  1.00  0.00     0.167 HD
ATOM     68  C   UNL A   1      42.917  30.755  30.184  1.00  0.00     0.074 A 
ATOM     69  C   UNL A   1      41.802  31.674  30.277  1.00  0.00     0.031 C 
ATOM     70  C   UNL A   1      44.199  31.078  30.481  1.00  0.00     0.037 A 
BRANCH  57  71
ATOM     71  C   UNL A   1      48.200  26.414  29.817  1.00  0.00     0.057 A 
ATOM     72  C   UNL A   1      49.132  26.544  28.777  1.00  0.00     0.134 A 
ATOM     73  C   UNL A   1      48.638  25.814  31.004  1.00  0.00     0.134 A 
ATOM     74  F   UNL A   1      48.772  27.095  27.608  1.00  0.00    -0.206 F 
ATOM     75  C   UNL A   1      50.439  26.071  28.904  1.00  0.00     0.040 A 
ATOM     76  C   UNL A   1      49.951  25.364  31.152  1.00  0.00     0.040 A 
ATOM     77  F   UNL A   1      47.800  25.661  32.040  1.00  0.00    -0.206 F 
ATOM     78  C   UNL A   1      50.854  25.486  30.097  1.00  0.00     0.006 A 
ENDBRANCH  57  71
BRANCH  58  79
ATOM     79  C   UNL A   1      38.633  29.187  29.041  1.00  0.00     0.057 A 
ATOM     80  C   UNL A   1      37.793  29.135  30.160  1.00  0.00     0.134 A 
ATOM     81  C   UNL A   1      38.078  29.639  27.838  1.00  0.00     0.134 A 
ATOM     82  F   UNL A   1      38.263  28.696  31.337  1.00  0.00    -0.206 F 
ATOM     83  C   UNL A   1      36.446  29.494  30.081  1.00  0.00     0.040 A 
ATOM     84  C   UNL A   1      36.740  30.024  27.750  1.00  0.00     0.040 A 
ATOM     85  F   UNL A   1      38.834  29.721  26.733  1.00  0.00    -0.206 F 
ATOM     86  C   UNL A   1      35.917  29.944  28.873  1.00  0.00     0.006 A 
ENDBRANCH  58  79
BRANCH  70  87
ATOM     87  C   UNL A   1      44.468  32.494  30.896  1.00  0.00     0.057 A 
ATOM     88  C   UNL A   1      44.463  32.886  32.241  1.00  0.00     0.134 A 
ATOM     89  C   UNL A   1      44.765  33.471  29.937  1.00  0.00     0.134 A 
ATOM     90  F   UNL A   1      44.174  32.000  33.206  1.00  0.00    -0.206 F 
ATOM     91  C   UNL A   1      44.720  34.205  32.615  1.00  0.00     0.040 A 
ATOM     92  C   UNL A   1      45.050  34.787  30.301  1.00  0.00     0.040 A 
ATOM     93  F   UNL A   1      44.796  33.160  28.632  1.00  0.00    -0.206 F 
ATOM     94  C   UNL A   1      45.020  35.159  31.644  1.00  0.00     0.006 A 
ENDBRANCH  70  87
ENDBRANCH  44  45
ENDBRANCH  36  39
ENDBRANCH  34  35
ENDBRANCH  33  34
ENDBRANCH   1  33
TORSDOF 14
ENDMDL
MODEL 2
REMARK VINA RESULT:     -13.2      4.275      9.648
REMARK SMILES Cc1ccc2[nH]cc([C@@H](C(=O)NCCCCNC(=O)c3ccc(-c4c5nc(c(-c6c(F)cccc6F)c6ccc([nH]6)c(-c6c(F)cccc6F)c6nc(c(-c7c(F)cccc7F)c7ccc4[nH]7)C=C6)C=C5)cc3)[NH+]3CCN(c4cccc(Cl)c4)CC3)c2c1
REMARK SMILES IDX 14 1 13 2 12 3 10 4 11 5 9 7 8 8 1 9 2 10 3 11 88 12 4 13
REMARK SMILES IDX 87 14 5 15 6 16 7 17 74 19 75 20 86 21 76 23 85 24 77 25
REMARK SMILES IDX 78 26 79 27 84 28 80 29 82 30 81 31 83 32 15 33 16 34 17 35
REMARK SMILES IDX 18 36 19 38 20 39 21 40 73 41 22 42 72 43 23 44 24 45 25 46
REMARK SMILES IDX 66 47 26 48 71 49 65 50 67 51 27 52 70 53 64 54 63 55 28 57
REMARK SMILES IDX 54 58 37 59 53 60 38 61 41 62 52 63 68 64 39 65 40 66 51 68
REMARK SMILES IDX 69 69 42 70 29 71 30 72 35 73 31 74 32 75 34 76 36 77 33 78
REMARK SMILES IDX 55 79 56 80 61 81 57 82 58 83 60 84 62 85 59 86 43 87 44 88
REMARK SMILES IDX 49 89 45 90 46 91 48 92 50 93 47 94
REMARK H PARENT 12 6 6 18 74 22 17 37 67 56 41 67
REMARK Flexibility Score: inf
ROOT
ATOM      1  C   UNL A   1      31.557  30.826  25.873  1.00  0.00     0.023 C 
ENDROOT
BRANCH   1   2
ATOM      2  C   UNL A   1      32.430  29.682  26.388  1.00  0.00     0.116 C 
BRANCH   2   3
ATOM      3  N   UNL A   1      31.640  28.532  26.772  1.00  0.00    -0.351 N 
ATOM      4  C   UNL A   1      31.403  27.372  26.076  1.00  0.00     0.283 C 
ATOM      5  O   UNL A   1      30.638  26.572  26.624  1.00  0.00    -0.268 OA
ATOM      6  H   UNL A   1      31.212  28.589  27.657  1.00  0.00     0.163 HD
BRANCH   4   7
ATOM      7  C   UNL A   1      32.141  27.111  24.716  1.00  0.00     0.307 C 
BRANCH   7   8
ATOM      8  C   UNL A   1      31.787  28.121  23.651  1.00  0.00     0.044 A 
ATOM      9  C   UNL A   1      26.656  28.194  23.451  1.00  0.00     0.044 C 
ATOM     10  C   UNL A   1      28.022  28.691  23.074  1.00  0.00    -0.050 A 
ATOM     11  C   UNL A   1      28.182  29.640  22.061  1.00  0.00     0.005 A 
ATOM     12  C   UNL A   1      29.156  28.157  23.710  1.00  0.00     0.014 A 
ATOM     13  C   UNL A   1      29.451  30.049  21.641  1.00  0.00     0.027 A 
ATOM     14  C   UNL A   1      30.451  28.528  23.283  1.00  0.00     0.009 A 
ATOM     15  C   UNL A   1      30.562  29.456  22.248  1.00  0.00     0.046 A 
ATOM     16  N   UNL A   1      31.900  29.607  21.981  1.00  0.00    -0.361 N 
ATOM     17  C   UNL A   1      32.636  28.756  22.758  1.00  0.00     0.094 A 
ATOM     18  H   UNL A   1      32.276  30.239  21.325  1.00  0.00     0.166 HD
ENDBRANCH   7   8
BRANCH   7  19
ATOM     19  N   UNL A   1      32.036  25.704  24.263  1.00  0.00    -0.318 N 
ATOM     20  C   UNL A   1      32.883  25.257  23.145  1.00  0.00     0.284 C 
ATOM     21  C   UNL A   1      32.046  24.700  25.341  1.00  0.00     0.284 C 
ATOM     22  H   UNL A   1      31.100  25.755  23.863  1.00  0.00     0.349 HD
ATOM     23  C   UNL A   1      34.272  24.674  23.479  1.00  0.00     0.178 C 
ATOM     24  C   UNL A   1      33.432  24.176  25.785  1.00  0.00     0.178 C 
ATOM     25  N   UNL A   1      34.248  23.769  24.633  1.00  0.00    -0.360 N 
BRANCH  25  26
ATOM     26  C   UNL A   1      35.449  23.135  24.952  1.00  0.00     0.038 A 
ATOM     27  C   UNL A   1      36.579  23.834  25.403  1.00  0.00     0.026 A 
ATOM     28  C   UNL A   1      35.540  21.747  24.815  1.00  0.00     0.046 A 
ATOM     29  C   UNL A   1      37.780  23.172  25.671  1.00  0.00     0.004 A 
ATOM     30  C   UNL A   1      36.739  21.086  25.075  1.00  0.00     0.043 A 
ATOM     31  C   UNL A   1      37.863  21.794  25.496  1.00  0.00     0.020 A 
ATOM     32  Cl  UNL A   1      36.838  19.381  24.858  1.00  0.00    -0.084 Cl
ENDBRANCH  25  26
ENDBRANCH   7  19
ENDBRANCH   4   7
ENDBRANCH   2   3
ENDBRANCH   1   2
BRANCH   1  33
ATOM     33  C   UNL A   1      31.374  31.984  26.849  1.00  0.00     0.023 C 
BRANCH  33  34
ATOM     34  C   UNL A   1      32.662  32.690  27.229  1.00  0.00     0.116 C 
BRANCH  34  35
ATOM     35  N   UNL A   1      32.454  34.067  27.648  1.00  0.00    -0.352 N 
ATOM     36  C   UNL A   1      33.141  34.784  28.596  1.00  0.00     0.251 C 
ATOM     37  H   UNL A   1      31.724  34.547  27.193  1.00  0.00     0.163 HD
ATOM     38  O   UNL A   1      32.772  35.899  28.929  1.00  0.00    -0.269 OA
BRANCH  36  39
ATOM     39  C   UNL A   1      34.316  34.162  29.239  1.00  0.00     0.039 A 
ATOM     40  C   UNL A   1      34.111  33.245  30.271  1.00  0.00     0.014 A 
ATOM     41  C   UNL A   1      35.607  34.449  28.789  1.00  0.00     0.014 A 
ATOM     42  C   UNL A   1      35.203  32.572  30.815  1.00  0.00     0.010 A 
ATOM     43  C   UNL A   1      36.683  33.716  29.270  1.00  0.00     0.010 A 
ATOM     44  C   UNL A   1      36.493  32.781  30.298  1.00  0.00    -0.014 A 
BRANCH  44  45
ATOM     45  C   UNL A   1      37.662  32.050  30.841  1.00  0.00     0.031 A 
ATOM     46  C   UNL A   1      38.197  32.402  32.201  1.00  0.00     0.074 A 
ATOM     47  C   UNL A   1      38.271  31.113  30.090  1.00  0.00     0.049 A 
ATOM     48  N   UNL A   1      39.231  31.911  32.834  1.00  0.00    -0.248 NA
ATOM     49  C   UNL A   1      37.497  33.471  32.933  1.00  0.00     0.031 C 
ATOM     50  C   UNL A   1      37.881  30.726  28.732  1.00  0.00     0.029 A 
ATOM     51  N   UNL A   1      39.354  30.316  30.364  1.00  0.00    -0.354 N 
ATOM     52  C   UNL A   1      39.313  32.620  34.026  1.00  0.00     0.074 A 
ATOM     53  C   UNL A   1      38.264  33.615  34.002  1.00  0.00     0.031 C 
ATOM     54  C   UNL A   1      38.693  29.748  28.304  1.00  0.00     0.029 A 
ATOM     55  C   UNL A   1      39.678  29.459  29.341  1.00  0.00     0.049 A 
ATOM     56  H   UNL A   1      39.851  30.356  31.212  1.00  0.00     0.167 HD
ATOM     57  C   UNL A   1      40.167  32.437  35.061  1.00  0.00     0.037 A 
ATOM     58  C   UNL A   1      40.660  28.541  29.255  1.00  0.00     0.037 A 
ATOM     59  C   UNL A   1      41.188  31.426  35.094  1.00  0.00     0.049 A 
ATOM     60  C   UNL A   1      41.582  28.345  30.426  1.00  0.00     0.074 A 
ATOM     61  C   UNL A   1      42.064  31.117  36.119  1.00  0.00     0.029 A 
ATOM     62  N   UNL A   1      41.465  30.554  34.051  1.00  0.00    -0.354 N 
ATOM     63  N   UNL A   1      41.601  28.971  31.577  1.00  0.00    -0.248 NA
ATOM     64  C   UNL A   1      42.610  27.304  30.290  1.00  0.00     0.031 C 
ATOM     65  C   UNL A   1      42.899  30.082  35.682  1.00  0.00     0.029 A 
ATOM     66  C   UNL A   1      42.511  29.716  34.403  1.00  0.00     0.049 A 
ATOM     67  H   UNL A   1      40.990  30.534  33.189  1.00  0.00     0.167 HD
ATOM     68  C   UNL A   1      42.622  28.382  32.314  1.00  0.00     0.074 A 
ATOM     69  C   UNL A   1      43.186  27.339  31.483  1.00  0.00     0.031 C 
ATOM     70  C   UNL A   1      43.052  28.677  33.564  1.00  0.00     0.037 A 
BRANCH  57  71
ATOM     71  C   UNL A   1      40.021  33.351  36.243  1.00  0.00     0.057 A 
ATOM     72  C   UNL A   1      40.773  34.527  36.365  1.00  0.00     0.134 A 
ATOM     73  C   UNL A   1      39.105  33.062  37.262  1.00  0.00     0.134 A 
ATOM     74  F   UNL A   1      41.680  34.854  35.431  1.00  0.00    -0.206 F 
ATOM     75  C   UNL A   1      40.639  35.368  37.471  1.00  0.00     0.040 A 
ATOM     76  C   UNL A   1      38.943  33.911  38.359  1.00  0.00     0.040 A 
ATOM     77  F   UNL A   1      38.351  31.954  37.207  1.00  0.00    -0.206 F 
ATOM     78  C   UNL A   1      39.716  35.064  38.468  1.00  0.00     0.006 A 
ENDBRANCH  57  71
BRANCH  58  79
ATOM     79  C   UNL A   1      40.797  27.712  28.032  1.00  0.00     0.057 A 
ATOM     80  C   UNL A   1      40.158  26.470  27.927  1.00  0.00     0.134 A 
ATOM     81  C   UNL A   1      41.572  28.133  26.944  1.00  0.00     0.134 A 
ATOM     82  F   UNL A   1      39.414  26.006  28.942  1.00  0.00    -0.206 F 
ATOM     83  C   UNL A   1      40.303  25.666  26.795  1.00  0.00     0.040 A 
ATOM     84  C   UNL A   1      41.707  27.350  25.797  1.00  0.00     0.040 A 
ATOM     85  F   UNL A   1      42.202  29.316  26.980  1.00  0.00    -0.206 F 
ATOM     86  C   UNL A   1      41.077  26.108  25.724  1.00  0.00     0.006 A 
ENDBRANCH  58  79
BRANCH  70  87
ATOM     87  C   UNL A   1      44.161  27.835  34.122  1.00  0.00     0.057 A 
ATOM     88  C   UNL A   1      45.504  28.218  34.024  1.00  0.00     0.134 A 
ATOM     89  C   UNL A   1      43.875  26.638  34.793  1.00  0.00     0.134 A 
ATOM     90  F   UNL A   1      45.844  29.347  33.383  1.00  0.00    -0.206 F 
ATOM     91  C   UNL A   1      46.527  27.428  34.550  1.00  0.00     0.040 A 
ATOM     92  C   UNL A   1      44.887  25.854  35.347  1.00  0.00     0.040 A 
ATOM     93  F   UNL A   1      42.608  26.219  34.931  1.00  0.00    -0.206 F 
ATOM     94  C   UNL A   1      46.218  26.245  35.220  1.00  0.00     0.006 A 
ENDBRANCH  70  87
ENDBRANCH  44  45
ENDBRANCH  36  39
ENDBRANCH  34  35
ENDBRANCH  33  34
ENDBRANCH   1  33
TORSDOF 14
ENDMDL
MODEL 3
REMARK VINA RESULT:     -13.2      1.549      2.413
REMARK SMILES Cc1ccc2[nH]cc([C@@H](C(=O)NCCCCNC(=O)c3ccc(-c4c5nc(c(-c6c(F)cccc6F)c6ccc([nH]6)c(-c6c(F)cccc6F)c6nc(c(-c7c(F)cccc7F)c7ccc4[nH]7)C=C6)C=C5)cc3)[NH+]3CCN(c4cccc(Cl)c4)CC3)c2c1
REMARK SMILES IDX 14 1 13 2 12 3 10 4 11 5 9 7 8 8 1 9 2 10 3 11 88 12 4 13
REMARK SMILES IDX 87 14 5 15 6 16 7 17 74 19 75 20 86 21 76 23 85 24 77 25
REMARK SMILES IDX 78 26 79 27 84 28 80 29 82 30 81 31 83 32 15 33 16 34 17 35
REMARK SMILES IDX 18 36 19 38 20 39 21 40 73 41 22 42 72 43 23 44 24 45 25 46
REMARK SMILES IDX 66 47 26 48 71 49 65 50 67 51 27 52 70 53 64 54 63 55 28 57
REMARK SMILES IDX 54 58 37 59 53 60 38 61 41 62 52 63 68 64 39 65 40 66 51 68
REMARK SMILES IDX 69 69 42 70 29 71 30 72 35 73 31 74 32 75 34 76 36 77 33 78
REMARK SMILES IDX 55 79 56 80 61 81 57 82 58 83 60 84 62 85 59 86 43 87 44 88
REMARK SMILES IDX 49 89 45 90 46 91 48 92 50 93 47 94
REMARK H PARENT 12 6 6 18 74 22 17 37 67 56 41 67
REMARK Flexibility Score: inf
ROOT
ATOM      1  C   UNL A   1      36.738  20.686  24.994  1.00  0.00     0.023 C 
ENDROOT
BRANCH   1   2
ATOM      2  C   UNL A   1      36.816  22.191  24.734  1.00  0.00     0.116 C 
BRANCH   2   3
ATOM      3  N   UNL A   1      36.097  22.569  23.536  1.00  0.00    -0.351 N 
ATOM      4  C   UNL A   1      34.786  22.953  23.398  1.00  0.00     0.283 C 
ATOM      5  O   UNL A   1      34.416  23.169  22.239  1.00  0.00    -0.268 OA
ATOM      6  H   UNL A   1      36.622  22.548  22.704  1.00  0.00     0.163 HD
BRANCH   4   7
ATOM      7  C   UNL A   1      33.891  23.154  24.670  1.00  0.00     0.307 C 
BRANCH   7   8
ATOM      8  C   UNL A   1      33.606  21.863  25.400  1.00  0.00     0.044 A 
ATOM      9  C   UNL A   1      32.153  18.513  21.790  1.00  0.00     0.044 C 
ATOM     10  C   UNL A   1      32.528  18.898  23.192  1.00  0.00    -0.050 A 
ATOM     11  C   UNL A   1      32.382  17.991  24.245  1.00  0.00     0.005 A 
ATOM     12  C   UNL A   1      32.982  20.201  23.457  1.00  0.00     0.014 A 
ATOM     13  C   UNL A   1      32.647  18.361  25.567  1.00  0.00     0.027 A 
ATOM     14  C   UNL A   1      33.225  20.612  24.787  1.00  0.00     0.009 A 
ATOM     15  C   UNL A   1      33.036  19.682  25.808  1.00  0.00     0.046 A 
ATOM     16  N   UNL A   1      33.278  20.328  26.995  1.00  0.00    -0.361 N 
ATOM     17  C   UNL A   1      33.542  21.650  26.768  1.00  0.00     0.094 A 
ATOM     18  H   UNL A   1      33.265  19.900  27.883  1.00  0.00     0.166 HD
ENDBRANCH   7   8
BRANCH   7  19
ATOM     19  N   UNL A   1      32.681  23.967  24.403  1.00  0.00    -0.318 N 
ATOM     20  C   UNL A   1      31.831  24.363  25.538  1.00  0.00     0.284 C 
ATOM     21  C   UNL A   1      32.886  25.111  23.498  1.00  0.00     0.284 C 
ATOM     22  H   UNL A   1      32.136  23.253  23.920  1.00  0.00     0.349 HD
ATOM     23  C   UNL A   1      32.143  25.702  26.240  1.00  0.00     0.178 C 
ATOM     24  C   UNL A   1      33.315  26.445  24.155  1.00  0.00     0.178 C 
ATOM     25  N   UNL A   1      32.454  26.782  25.298  1.00  0.00    -0.360 N 
BRANCH  25  26
ATOM     26  C   UNL A   1      32.669  28.046  25.847  1.00  0.00     0.038 A 
ATOM     27  C   UNL A   1      33.744  28.328  26.705  1.00  0.00     0.026 A 
ATOM     28  C   UNL A   1      31.778  29.078  25.540  1.00  0.00     0.046 A 
ATOM     29  C   UNL A   1      33.902  29.594  27.273  1.00  0.00     0.004 A 
ATOM     30  C   UNL A   1      31.931  30.340  26.112  1.00  0.00     0.043 A 
ATOM     31  C   UNL A   1      32.986  30.601  26.984  1.00  0.00     0.020 A 
ATOM     32  Cl  UNL A   1      30.796  31.583  25.751  1.00  0.00    -0.084 Cl
ENDBRANCH  25  26
ENDBRANCH   7  19
ENDBRANCH   4   7
ENDBRANCH   2   3
ENDBRANCH   1   2
BRANCH   1  33
ATOM     33  C   UNL A   1      38.039  19.926  24.760  1.00  0.00     0.023 C 
BRANCH  33  34
ATOM     34  C   UNL A   1      39.092  20.145  25.830  1.00  0.00     0.116 C 
BRANCH  34  35
ATOM     35  N   UNL A   1      40.125  19.121  25.829  1.00  0.00    -0.352 N 
ATOM     36  C   UNL A   1      41.475  19.271  26.030  1.00  0.00     0.251 C 
ATOM     37  H   UNL A   1      39.816  18.202  25.661  1.00  0.00     0.163 HD
ATOM     38  O   UNL A   1      42.239  18.331  25.878  1.00  0.00    -0.269 OA
BRANCH  36  39
ATOM     39  C   UNL A   1      41.992  20.606  26.395  1.00  0.00     0.039 A 
ATOM     40  C   UNL A   1      42.292  21.511  25.376  1.00  0.00     0.014 A 
ATOM     41  C   UNL A   1      42.132  20.970  27.735  1.00  0.00     0.014 A 
ATOM     42  C   UNL A   1      42.680  22.808  25.707  1.00  0.00     0.010 A 
ATOM     43  C   UNL A   1      42.433  22.285  28.063  1.00  0.00     0.010 A 
ATOM     44  C   UNL A   1      42.725  23.213  27.052  1.00  0.00    -0.014 A 
BRANCH  44  45
ATOM     45  C   UNL A   1      43.102  24.597  27.421  1.00  0.00     0.031 A 
ATOM     46  C   UNL A   1      44.546  25.014  27.378  1.00  0.00     0.074 A 
ATOM     47  C   UNL A   1      42.157  25.456  27.846  1.00  0.00     0.049 A 
ATOM     48  N   UNL A   1      45.085  26.162  27.702  1.00  0.00    -0.248 NA
ATOM     49  C   UNL A   1      45.518  23.996  26.946  1.00  0.00     0.031 C 
ATOM     50  C   UNL A   1      40.732  25.150  27.988  1.00  0.00     0.029 A 
ATOM     51  N   UNL A   1      42.255  26.766  28.241  1.00  0.00    -0.354 N 
ATOM     52  C   UNL A   1      46.453  25.997  27.527  1.00  0.00     0.074 A 
ATOM     53  C   UNL A   1      46.669  24.623  27.130  1.00  0.00     0.031 C 
ATOM     54  C   UNL A   1      40.087  26.248  28.410  1.00  0.00     0.029 A 
ATOM     55  C   UNL A   1      41.053  27.325  28.598  1.00  0.00     0.049 A 
ATOM     56  H   UNL A   1      43.108  27.258  28.268  1.00  0.00     0.167 HD
ATOM     57  C   UNL A   1      47.438  26.916  27.657  1.00  0.00     0.037 A 
ATOM     58  C   UNL A   1      40.765  28.569  29.024  1.00  0.00     0.037 A 
ATOM     59  C   UNL A   1      47.216  28.288  28.022  1.00  0.00     0.049 A 
ATOM     60  C   UNL A   1      41.875  29.577  29.141  1.00  0.00     0.074 A 
ATOM     61  C   UNL A   1      48.137  29.315  28.121  1.00  0.00     0.029 A 
ATOM     62  N   UNL A   1      45.978  28.826  28.344  1.00  0.00    -0.354 N 
ATOM     63  N   UNL A   1      43.155  29.429  28.901  1.00  0.00    -0.248 NA
ATOM     64  C   UNL A   1      41.497  30.929  29.576  1.00  0.00     0.031 C 
ATOM     65  C   UNL A   1      47.463  30.467  28.542  1.00  0.00     0.029 A 
ATOM     66  C   UNL A   1      46.115  30.168  28.659  1.00  0.00     0.049 A 
ATOM     67  H   UNL A   1      45.129  28.328  28.349  1.00  0.00     0.167 HD
ATOM     68  C   UNL A   1      43.731  30.673  29.127  1.00  0.00     0.074 A 
ATOM     69  C   UNL A   1      42.657  31.566  29.508  1.00  0.00     0.031 C 
ATOM     70  C   UNL A   1      45.031  31.043  29.026  1.00  0.00     0.037 A 
BRANCH  57  71
ATOM     71  C   UNL A   1      48.844  26.461  27.393  1.00  0.00     0.057 A 
ATOM     72  C   UNL A   1      49.674  25.992  28.421  1.00  0.00     0.134 A 
ATOM     73  C   UNL A   1      49.369  26.473  26.095  1.00  0.00     0.134 A 
ATOM     74  F   UNL A   1      49.238  25.970  29.690  1.00  0.00    -0.206 F 
ATOM     75  C   UNL A   1      50.983  25.578  28.171  1.00  0.00     0.040 A 
ATOM     76  C   UNL A   1      50.667  26.034  25.829  1.00  0.00     0.040 A 
ATOM     77  F   UNL A   1      48.627  26.906  25.064  1.00  0.00    -0.206 F 
ATOM     78  C   UNL A   1      51.481  25.592  26.871  1.00  0.00     0.006 A 
ENDBRANCH  57  71
BRANCH  58  79
ATOM     79  C   UNL A   1      39.363  28.944  29.335  1.00  0.00     0.057 A 
ATOM     80  C   UNL A   1      38.530  29.495  28.354  1.00  0.00     0.134 A 
ATOM     81  C   UNL A   1      38.824  28.767  30.615  1.00  0.00     0.134 A 
ATOM     82  F   UNL A   1      38.994  29.703  27.114  1.00  0.00    -0.206 F 
ATOM     83  C   UNL A   1      37.219  29.880  28.641  1.00  0.00     0.040 A 
ATOM     84  C   UNL A   1      37.508  29.125  30.909  1.00  0.00     0.040 A 
ATOM     85  F   UNL A   1      39.569  28.234  31.596  1.00  0.00    -0.206 F 
ATOM     86  C   UNL A   1      36.703  29.691  29.922  1.00  0.00     0.006 A 
ENDBRANCH  58  79
BRANCH  70  87
ATOM     87  C   UNL A   1      45.354  32.483  29.295  1.00  0.00     0.057 A 
ATOM     88  C   UNL A   1      45.725  32.934  30.568  1.00  0.00     0.134 A 
ATOM     89  C   UNL A   1      45.322  33.424  28.257  1.00  0.00     0.134 A 
ATOM     90  F   UNL A   1      45.763  32.085  31.606  1.00  0.00    -0.206 F 
ATOM     91  C   UNL A   1      46.028  34.275  30.805  1.00  0.00     0.040 A 
ATOM     92  C   UNL A   1      45.649  34.762  28.476  1.00  0.00     0.040 A 
ATOM     93  F   UNL A   1      44.985  33.055  27.012  1.00  0.00    -0.206 F 
ATOM     94  C   UNL A   1      45.997  35.193  29.755  1.00  0.00     0.006 A 
ENDBRANCH  70  87
ENDBRANCH  44  45
ENDBRANCH  36  39
ENDBRANCH  34  35
ENDBRANCH  33  34
ENDBRANCH   1  33
TORSDOF 14
ENDMDL
