MODEL 1
REMARK VINA RESULT:     -10.9      0.000      0.000
REMARK SMILES O=C(C[N@@H+](Cc1c(F)cccc1Cl)C1CC1)NCCCCNC(=O)c1ccc(-c2c3nc(c(-c4c(F)cccc4F)c4ccc([nH]4)c(-c4c(F)cccc4F)c4nc(c(-c5c(F)cccc5F)c5ccc2[nH]5)C=C4)C=C3)cc1
REMARK SMILES IDX 19 1 18 2 17 3 1 4 2 5 3 7 4 8 5 10 6 11 7 12 12 13 8 14
REMARK SMILES IDX 9 15 11 16 13 17 10 18 14 19 15 20 16 21 20 22 21 23 22 24
REMARK SMILES IDX 23 25 24 27 25 28 26 29 78 30 27 31 77 32 28 33 29 34 30 35
REMARK SMILES IDX 71 36 31 37 76 38 70 39 72 40 32 41 75 42 69 43 68 44 33 46
REMARK SMILES IDX 59 47 42 48 58 49 43 50 46 51 57 52 73 53 44 54 45 55 56 57
REMARK SMILES IDX 74 58 47 59 34 60 35 61 40 62 36 63 37 64 39 65 41 66 38 67
REMARK SMILES IDX 60 68 61 69 66 70 62 71 63 72 65 73 67 74 64 75 48 76 49 77
REMARK SMILES IDX 54 78 50 79 51 80 53 81 55 82 52 83
REMARK H PARENT 17 6 4 9 22 26 72 45 46 56
REMARK Flexibility Score: inf
ROOT
ATOM      1  C   UNL A   1      31.449  30.850  26.129  1.00  0.00     0.023 C 
ENDROOT
BRANCH   1   2
ATOM      2  C   UNL A   1      32.329  30.042  27.080  1.00  0.00     0.116 C 
BRANCH   2   3
ATOM      3  N   UNL A   1      32.798  28.804  26.491  1.00  0.00    -0.351 N 
ATOM      4  O   UNL A   1      31.400  27.453  27.707  1.00  0.00    -0.269 OA
ATOM      5  C   UNL A   1      32.266  27.583  26.845  1.00  0.00     0.275 C 
ATOM      6  H   UNL A   1      33.518  28.836  25.820  1.00  0.00     0.163 HD
BRANCH   5   7
ATOM      7  C   UNL A   1      32.869  26.373  26.126  1.00  0.00     0.364 C 
BRANCH   7   8
ATOM      8  N   UNL A   1      31.863  25.538  25.422  1.00  0.00    -0.321 N 
ATOM      9  H   UNL A   1      30.948  25.791  25.798  1.00  0.00     0.349 HD
BRANCH   8  10
ATOM     10  C   UNL A   1      31.841  25.849  23.969  1.00  0.00     0.304 C 
BRANCH  10  11
ATOM     11  C   UNL A   1      31.058  27.072  23.531  1.00  0.00     0.061 A 
ATOM     12  C   UNL A   1      29.656  27.065  23.588  1.00  0.00     0.133 A 
ATOM     13  C   UNL A   1      31.667  28.244  23.051  1.00  0.00     0.052 A 
ATOM     14  F   UNL A   1      29.006  26.017  24.110  1.00  0.00    -0.206 F 
ATOM     15  C   UNL A   1      28.885  28.131  23.129  1.00  0.00     0.040 A 
ATOM     16  C   UNL A   1      30.897  29.329  22.605  1.00  0.00     0.021 A 
ATOM     17  Cl  UNL A   1      33.385  28.431  22.977  1.00  0.00    -0.084 Cl
ATOM     18  C   UNL A   1      29.505  29.267  22.628  1.00  0.00     0.005 A 
ENDBRANCH  10  11
ENDBRANCH   8  10
BRANCH   8  19
ATOM     19  C   UNL A   1      31.975  24.094  25.720  1.00  0.00     0.185 C 
ATOM     20  C   UNL A   1      30.892  23.465  26.566  1.00  0.00     0.071 C 
ATOM     21  C   UNL A   1      31.020  23.086  25.128  1.00  0.00     0.071 C 
ENDBRANCH   8  19
ENDBRANCH   7   8
ENDBRANCH   5   7
ENDBRANCH   2   3
ENDBRANCH   1   2
BRANCH   1  22
ATOM     22  C   UNL A   1      31.336  32.339  26.464  1.00  0.00     0.023 C 
BRANCH  22  23
ATOM     23  C   UNL A   1      32.511  32.924  27.242  1.00  0.00     0.116 C 
BRANCH  23  24
ATOM     24  N   UNL A   1      32.286  34.294  27.676  1.00  0.00    -0.352 N 
ATOM     25  C   UNL A   1      32.949  35.028  28.630  1.00  0.00     0.251 C 
ATOM     26  H   UNL A   1      31.552  34.764  27.219  1.00  0.00     0.163 HD
ATOM     27  O   UNL A   1      32.529  36.136  28.954  1.00  0.00    -0.269 OA
BRANCH  25  28
ATOM     28  C   UNL A   1      34.149  34.475  29.298  1.00  0.00     0.039 A 
ATOM     29  C   UNL A   1      34.015  33.924  30.575  1.00  0.00     0.014 A 
ATOM     30  C   UNL A   1      35.398  34.493  28.673  1.00  0.00     0.014 A 
ATOM     31  C   UNL A   1      35.116  33.324  31.193  1.00  0.00     0.010 A 
ATOM     32  C   UNL A   1      36.476  33.826  29.255  1.00  0.00     0.010 A 
ATOM     33  C   UNL A   1      36.346  33.231  30.520  1.00  0.00    -0.014 A 
BRANCH  33  34
ATOM     34  C   UNL A   1      37.498  32.505  31.116  1.00  0.00     0.031 A 
ATOM     35  C   UNL A   1      38.120  32.985  32.400  1.00  0.00     0.074 A 
ATOM     36  C   UNL A   1      38.029  31.449  30.469  1.00  0.00     0.049 A 
ATOM     37  N   UNL A   1      39.167  32.522  33.036  1.00  0.00    -0.248 NA
ATOM     38  C   UNL A   1      37.497  34.154  33.040  1.00  0.00     0.031 C 
ATOM     39  C   UNL A   1      37.550  30.907  29.196  1.00  0.00     0.029 A 
ATOM     40  N   UNL A   1      39.096  30.645  30.787  1.00  0.00    -0.354 N 
ATOM     41  C   UNL A   1      39.336  33.349  34.140  1.00  0.00     0.074 A 
ATOM     42  C   UNL A   1      38.317  34.374  34.058  1.00  0.00     0.031 C 
ATOM     43  C   UNL A   1      38.301  29.848  28.856  1.00  0.00     0.029 A 
ATOM     44  C   UNL A   1      39.342  29.660  29.861  1.00  0.00     0.049 A 
ATOM     45  H   UNL A   1      39.634  30.764  31.603  1.00  0.00     0.167 HD
ATOM     46  C   UNL A   1      40.242  33.252  35.141  1.00  0.00     0.037 A 
ATOM     47  C   UNL A   1      40.304  28.719  29.819  1.00  0.00     0.037 A 
ATOM     48  C   UNL A   1      41.244  32.220  35.231  1.00  0.00     0.049 A 
ATOM     49  C   UNL A   1      41.314  28.647  30.932  1.00  0.00     0.074 A 
ATOM     50  C   UNL A   1      42.167  32.002  36.239  1.00  0.00     0.029 A 
ATOM     51  N   UNL A   1      41.457  31.239  34.275  1.00  0.00    -0.354 N 
ATOM     52  N   UNL A   1      41.416  29.392  32.006  1.00  0.00    -0.248 NA
ATOM     53  C   UNL A   1      42.341  27.600  30.829  1.00  0.00     0.031 C 
ATOM     54  C   UNL A   1      42.976  30.925  35.865  1.00  0.00     0.029 A 
ATOM     55  C   UNL A   1      42.517  30.432  34.655  1.00  0.00     0.049 A 
ATOM     56  H   UNL A   1      40.934  31.132  33.448  1.00  0.00     0.167 HD
ATOM     57  C   UNL A   1      42.494  28.883  32.721  1.00  0.00     0.074 A 
ATOM     58  C   UNL A   1      43.004  27.759  31.965  1.00  0.00     0.031 C 
ATOM     59  C   UNL A   1      43.012  29.309  33.898  1.00  0.00     0.037 A 
BRANCH  46  60
ATOM     60  C   UNL A   1      40.197  34.293  36.224  1.00  0.00     0.057 A 
ATOM     61  C   UNL A   1      40.932  35.483  36.139  1.00  0.00     0.134 A 
ATOM     62  C   UNL A   1      39.376  34.121  37.346  1.00  0.00     0.134 A 
ATOM     63  F   UNL A   1      41.746  35.707  35.097  1.00  0.00    -0.206 F 
ATOM     64  C   UNL A   1      40.873  36.451  37.143  1.00  0.00     0.040 A 
ATOM     65  C   UNL A   1      39.285  35.096  38.341  1.00  0.00     0.040 A 
ATOM     66  F   UNL A   1      38.638  33.010  37.487  1.00  0.00    -0.206 F 
ATOM     67  C   UNL A   1      40.040  36.262  38.245  1.00  0.00     0.006 A 
ENDBRANCH  46  60
BRANCH  47  68
ATOM     68  C   UNL A   1      40.354  27.751  28.693  1.00  0.00     0.057 A 
ATOM     69  C   UNL A   1      41.096  28.025  27.538  1.00  0.00     0.134 A 
ATOM     70  C   UNL A   1      39.649  26.542  28.732  1.00  0.00     0.134 A 
ATOM     71  F   UNL A   1      41.778  29.175  27.430  1.00  0.00    -0.206 F 
ATOM     72  C   UNL A   1      41.117  27.146  26.453  1.00  0.00     0.040 A 
ATOM     73  C   UNL A   1      39.684  25.639  27.667  1.00  0.00     0.040 A 
ATOM     74  F   UNL A   1      38.925  26.215  29.812  1.00  0.00    -0.206 F 
ATOM     75  C   UNL A   1      40.412  25.946  26.520  1.00  0.00     0.006 A 
ENDBRANCH  47  68
BRANCH  59  76
ATOM     76  C   UNL A   1      44.165  28.531  34.467  1.00  0.00     0.057 A 
ATOM     77  C   UNL A   1      43.976  27.400  35.271  1.00  0.00     0.134 A 
ATOM     78  C   UNL A   1      45.484  28.899  34.170  1.00  0.00     0.134 A 
ATOM     79  F   UNL A   1      42.738  27.002  35.604  1.00  0.00    -0.206 F 
ATOM     80  C   UNL A   1      45.056  26.680  35.783  1.00  0.00     0.040 A 
ATOM     81  C   UNL A   1      46.572  28.168  34.650  1.00  0.00     0.040 A 
ATOM     82  F   UNL A   1      45.738  29.966  33.397  1.00  0.00    -0.206 F 
ATOM     83  C   UNL A   1      46.360  27.059  35.465  1.00  0.00     0.006 A 
ENDBRANCH  59  76
ENDBRANCH  33  34
ENDBRANCH  25  28
ENDBRANCH  23  24
ENDBRANCH  22  23
ENDBRANCH   1  22
TORSDOF 15
ENDMDL
MODEL 2
REMARK VINA RESULT:     -10.9      0.611      6.376
REMARK SMILES O=C(C[N@@H+](Cc1c(F)cccc1Cl)C1CC1)NCCCCNC(=O)c1ccc(-c2c3nc(c(-c4c(F)cccc4F)c4ccc([nH]4)c(-c4c(F)cccc4F)c4nc(c(-c5c(F)cccc5F)c5ccc2[nH]5)C=C4)C=C3)cc1
REMARK SMILES IDX 19 1 18 2 17 3 1 4 2 5 3 7 4 8 5 10 6 11 7 12 12 13 8 14
REMARK SMILES IDX 9 15 11 16 13 17 10 18 14 19 15 20 16 21 20 22 21 23 22 24
REMARK SMILES IDX 23 25 24 27 25 28 26 29 78 30 27 31 77 32 28 33 29 34 30 35
REMARK SMILES IDX 71 36 31 37 76 38 70 39 72 40 32 41 75 42 69 43 68 44 33 46
REMARK SMILES IDX 59 47 42 48 58 49 43 50 46 51 57 52 73 53 44 54 45 55 56 57
REMARK SMILES IDX 74 58 47 59 34 60 35 61 40 62 36 63 37 64 39 65 41 66 38 67
REMARK SMILES IDX 60 68 61 69 66 70 62 71 63 72 65 73 67 74 64 75 48 76 49 77
REMARK SMILES IDX 54 78 50 79 51 80 53 81 55 82 52 83
REMARK H PARENT 17 6 4 9 22 26 72 45 46 56
REMARK Flexibility Score: inf
ROOT
ATOM      1  C   UNL A   1      31.659  30.509  26.091  1.00  0.00     0.023 C 
ENDROOT
BRANCH   1   2
ATOM      2  C   UNL A   1      32.071  29.572  27.224  1.00  0.00     0.116 C 
BRANCH   2   3
ATOM      3  N   UNL A   1      32.332  28.222  26.765  1.00  0.00    -0.351 N 
ATOM      4  O   UNL A   1      34.488  28.640  26.108  1.00  0.00    -0.269 OA
ATOM      5  C   UNL A   1      33.556  27.852  26.253  1.00  0.00     0.275 C 
ATOM      6  H   UNL A   1      31.613  27.552  26.820  1.00  0.00     0.163 HD
BRANCH   5   7
ATOM      7  C   UNL A   1      33.669  26.388  25.819  1.00  0.00     0.364 C 
BRANCH   7   8
ATOM      8  N   UNL A   1      32.377  25.793  25.392  1.00  0.00    -0.321 N 
ATOM      9  H   UNL A   1      31.637  26.310  25.867  1.00  0.00     0.349 HD
BRANCH   8  10
ATOM     10  C   UNL A   1      32.170  25.975  23.931  1.00  0.00     0.304 C 
BRANCH  10  11
ATOM     11  C   UNL A   1      31.285  27.127  23.492  1.00  0.00     0.061 A 
ATOM     12  C   UNL A   1      29.894  27.040  23.645  1.00  0.00     0.133 A 
ATOM     13  C   UNL A   1      31.788  28.307  22.918  1.00  0.00     0.052 A 
ATOM     14  F   UNL A   1      29.345  25.983  24.258  1.00  0.00    -0.206 F 
ATOM     15  C   UNL A   1      29.029  28.034  23.191  1.00  0.00     0.040 A 
ATOM     16  C   UNL A   1      30.925  29.321  22.477  1.00  0.00     0.021 A 
ATOM     17  Cl  UNL A   1      33.482  28.591  22.719  1.00  0.00    -0.084 Cl
ATOM     18  C   UNL A   1      29.544  29.179  22.598  1.00  0.00     0.005 A 
ENDBRANCH  10  11
ENDBRANCH   8  10
BRANCH   8  19
ATOM     19  C   UNL A   1      32.182  24.402  25.852  1.00  0.00     0.185 C 
ATOM     20  C   UNL A   1      30.886  24.070  26.556  1.00  0.00     0.071 C 
ATOM     21  C   UNL A   1      31.165  23.490  25.209  1.00  0.00     0.071 C 
ENDBRANCH   8  19
ENDBRANCH   7   8
ENDBRANCH   5   7
ENDBRANCH   2   3
ENDBRANCH   1   2
BRANCH   1  22
ATOM     22  C   UNL A   1      31.395  31.956  26.516  1.00  0.00     0.023 C 
BRANCH  22  23
ATOM     23  C   UNL A   1      32.549  32.644  27.237  1.00  0.00     0.116 C 
BRANCH  23  24
ATOM     24  N   UNL A   1      32.285  34.044  27.536  1.00  0.00    -0.352 N 
ATOM     25  C   UNL A   1      32.919  34.883  28.420  1.00  0.00     0.251 C 
ATOM     26  H   UNL A   1      31.543  34.448  27.030  1.00  0.00     0.163 HD
ATOM     27  O   UNL A   1      32.468  36.006  28.633  1.00  0.00    -0.269 OA
BRANCH  25  28
ATOM     28  C   UNL A   1      34.127  34.428  29.146  1.00  0.00     0.039 A 
ATOM     29  C   UNL A   1      33.976  33.860  30.414  1.00  0.00     0.014 A 
ATOM     30  C   UNL A   1      35.400  34.556  28.586  1.00  0.00     0.014 A 
ATOM     31  C   UNL A   1      35.091  33.351  31.085  1.00  0.00     0.010 A 
ATOM     32  C   UNL A   1      36.499  33.978  29.220  1.00  0.00     0.010 A 
ATOM     33  C   UNL A   1      36.356  33.365  30.475  1.00  0.00    -0.014 A 
BRANCH  33  34
ATOM     34  C   UNL A   1      37.534  32.735  31.128  1.00  0.00     0.031 A 
ATOM     35  C   UNL A   1      38.210  31.547  30.496  1.00  0.00     0.074 A 
ATOM     36  C   UNL A   1      37.959  33.191  32.322  1.00  0.00     0.049 A 
ATOM     37  N   UNL A   1      39.207  30.827  30.947  1.00  0.00    -0.248 NA
ATOM     38  C   UNL A   1      37.680  31.095  29.201  1.00  0.00     0.031 C 
ATOM     39  C   UNL A   1      37.366  34.307  33.062  1.00  0.00     0.029 A 
ATOM     40  N   UNL A   1      38.984  32.767  33.132  1.00  0.00    -0.354 N 
ATOM     41  C   UNL A   1      39.414  29.832  30.000  1.00  0.00     0.074 A 
ATOM     42  C   UNL A   1      38.405  30.008  28.977  1.00  0.00     0.031 C 
ATOM     43  C   UNL A   1      38.052  34.495  34.201  1.00  0.00     0.029 A 
ATOM     44  C   UNL A   1      39.104  33.488  34.295  1.00  0.00     0.049 A 
ATOM     45  H   UNL A   1      39.577  32.016  32.900  1.00  0.00     0.167 HD
ATOM     46  C   UNL A   1      40.368  28.872  29.973  1.00  0.00     0.037 A 
ATOM     47  C   UNL A   1      39.957  33.348  35.328  1.00  0.00     0.037 A 
ATOM     48  C   UNL A   1      41.383  28.709  30.983  1.00  0.00     0.049 A 
ATOM     49  C   UNL A   1      40.994  32.259  35.284  1.00  0.00     0.074 A 
ATOM     50  C   UNL A   1      42.431  27.806  31.012  1.00  0.00     0.029 A 
ATOM     51  N   UNL A   1      41.473  29.463  32.143  1.00  0.00    -0.354 N 
ATOM     52  N   UNL A   1      41.222  31.371  34.347  1.00  0.00    -0.248 NA
ATOM     53  C   UNL A   1      41.895  32.155  36.441  1.00  0.00     0.031 C 
ATOM     54  C   UNL A   1      43.120  27.974  32.217  1.00  0.00     0.029 A 
ATOM     55  C   UNL A   1      42.540  29.024  32.910  1.00  0.00     0.049 A 
ATOM     56  H   UNL A   1      40.868  30.200  32.387  1.00  0.00     0.167 HD
ATOM     57  C   UNL A   1      42.311  30.627  34.785  1.00  0.00     0.074 A 
ATOM     58  C   UNL A   1      42.705  31.176  36.066  1.00  0.00     0.031 C 
ATOM     59  C   UNL A   1      42.929  29.584  34.180  1.00  0.00     0.037 A 
BRANCH  46  60
ATOM     60  C   UNL A   1      40.361  27.916  28.814  1.00  0.00     0.057 A 
ATOM     61  C   UNL A   1      39.630  26.720  28.843  1.00  0.00     0.134 A 
ATOM     62  C   UNL A   1      41.061  28.214  27.637  1.00  0.00     0.134 A 
ATOM     63  F   UNL A   1      38.946  26.368  29.941  1.00  0.00    -0.206 F 
ATOM     64  C   UNL A   1      39.618  25.845  27.756  1.00  0.00     0.040 A 
ATOM     65  C   UNL A   1      41.032  27.362  26.533  1.00  0.00     0.040 A 
ATOM     66  F   UNL A   1      41.774  29.346  27.537  1.00  0.00    -0.206 F 
ATOM     67  C   UNL A   1      40.314  26.169  26.593  1.00  0.00     0.006 A 
ENDBRANCH  46  60
BRANCH  47  68
ATOM     68  C   UNL A   1      39.885  34.273  36.488  1.00  0.00     0.057 A 
ATOM     69  C   UNL A   1      39.132  33.951  37.623  1.00  0.00     0.134 A 
ATOM     70  C   UNL A   1      40.547  35.507  36.485  1.00  0.00     0.134 A 
ATOM     71  F   UNL A   1      38.458  32.792  37.679  1.00  0.00    -0.206 F 
ATOM     72  C   UNL A   1      39.018  34.829  38.702  1.00  0.00     0.040 A 
ATOM     73  C   UNL A   1      40.467  36.384  37.569  1.00  0.00     0.040 A 
ATOM     74  F   UNL A   1      41.292  35.874  35.432  1.00  0.00    -0.206 F 
ATOM     75  C   UNL A   1      39.692  36.049  38.678  1.00  0.00     0.006 A 
ENDBRANCH  47  68
BRANCH  59  76
ATOM     76  C   UNL A   1      44.125  28.993  34.872  1.00  0.00     0.057 A 
ATOM     77  C   UNL A   1      44.014  27.917  35.761  1.00  0.00     0.134 A 
ATOM     78  C   UNL A   1      45.410  29.487  34.613  1.00  0.00     0.134 A 
ATOM     79  F   UNL A   1      42.811  27.405  36.064  1.00  0.00    -0.206 F 
ATOM     80  C   UNL A   1      45.135  27.371  36.389  1.00  0.00     0.040 A 
ATOM     81  C   UNL A   1      46.542  28.928  35.210  1.00  0.00     0.040 A 
ATOM     82  F   UNL A   1      45.591  30.510  33.763  1.00  0.00    -0.206 F 
ATOM     83  C   UNL A   1      46.405  27.872  36.106  1.00  0.00     0.006 A 
ENDBRANCH  59  76
ENDBRANCH  33  34
ENDBRANCH  25  28
ENDBRANCH  23  24
ENDBRANCH  22  23
ENDBRANCH   1  22
TORSDOF 15
ENDMDL
MODEL 3
REMARK VINA RESULT:     -10.8      5.739      9.996
REMARK SMILES O=C(C[N@@H+](Cc1c(F)cccc1Cl)C1CC1)NCCCCNC(=O)c1ccc(-c2c3nc(c(-c4c(F)cccc4F)c4ccc([nH]4)c(-c4c(F)cccc4F)c4nc(c(-c5c(F)cccc5F)c5ccc2[nH]5)C=C4)C=C3)cc1
REMARK SMILES IDX 19 1 18 2 17 3 1 4 2 5 3 7 4 8 5 10 6 11 7 12 12 13 8 14
REMARK SMILES IDX 9 15 11 16 13 17 10 18 14 19 15 20 16 21 20 22 21 23 22 24
REMARK SMILES IDX 23 25 24 27 25 28 26 29 78 30 27 31 77 32 28 33 29 34 30 35
REMARK SMILES IDX 71 36 31 37 76 38 70 39 72 40 32 41 75 42 69 43 68 44 33 46
REMARK SMILES IDX 59 47 42 48 58 49 43 50 46 51 57 52 73 53 44 54 45 55 56 57
REMARK SMILES IDX 74 58 47 59 34 60 35 61 40 62 36 63 37 64 39 65 41 66 38 67
REMARK SMILES IDX 60 68 61 69 66 70 62 71 63 72 65 73 67 74 64 75 48 76 49 77
REMARK SMILES IDX 54 78 50 79 51 80 53 81 55 82 52 83
REMARK H PARENT 17 6 4 9 22 26 72 45 46 56
REMARK Flexibility Score: inf
ROOT
ATOM      1  C   UNL A   1      36.945  20.782  24.910  1.00  0.00     0.023 C 
ENDROOT
BRANCH   1   2
ATOM      2  C   UNL A   1      37.450  22.216  25.051  1.00  0.00     0.116 C 
BRANCH   2   3
ATOM      3  N   UNL A   1      36.373  23.179  25.170  1.00  0.00    -0.351 N 
ATOM      4  O   UNL A   1      35.982  23.334  22.916  1.00  0.00    -0.269 OA
ATOM      5  C   UNL A   1      35.696  23.653  24.068  1.00  0.00     0.275 C 
ATOM      6  H   UNL A   1      36.120  23.504  26.064  1.00  0.00     0.163 HD
BRANCH   5   7
ATOM      7  C   UNL A   1      34.582  24.660  24.367  1.00  0.00     0.364 C 
BRANCH   7   8
ATOM      8  N   UNL A   1      33.325  24.394  23.624  1.00  0.00    -0.321 N 
ATOM      9  H   UNL A   1      33.571  23.828  22.811  1.00  0.00     0.349 HD
BRANCH   8  10
ATOM     10  C   UNL A   1      32.383  23.592  24.448  1.00  0.00     0.304 C 
BRANCH  10  11
ATOM     11  C   UNL A   1      32.636  22.099  24.539  1.00  0.00     0.061 A 
ATOM     12  C   UNL A   1      32.386  21.278  23.429  1.00  0.00     0.133 A 
ATOM     13  C   UNL A   1      33.112  21.468  25.700  1.00  0.00     0.052 A 
ATOM     14  F   UNL A   1      32.009  21.814  22.261  1.00  0.00    -0.206 F 
ATOM     15  C   UNL A   1      32.528  19.892  23.479  1.00  0.00     0.040 A 
ATOM     16  C   UNL A   1      33.277  20.076  25.752  1.00  0.00     0.021 A 
ATOM     17  Cl  UNL A   1      33.524  22.351  27.130  1.00  0.00    -0.084 Cl
ATOM     18  C   UNL A   1      32.969  19.285  24.647  1.00  0.00     0.005 A 
ENDBRANCH  10  11
ENDBRANCH   8  10
BRANCH   8  19
ATOM     19  C   UNL A   1      32.716  25.605  23.033  1.00  0.00     0.185 C 
ATOM     20  C   UNL A   1      32.578  25.660  21.528  1.00  0.00     0.071 C 
ATOM     21  C   UNL A   1      31.355  25.569  22.380  1.00  0.00     0.071 C 
ENDBRANCH   8  19
ENDBRANCH   7   8
ENDBRANCH   5   7
ENDBRANCH   2   3
ENDBRANCH   1   2
BRANCH   1  22
ATOM     22  C   UNL A   1      38.026  19.705  25.020  1.00  0.00     0.023 C 
BRANCH  22  23
ATOM     23  C   UNL A   1      39.297  20.129  25.750  1.00  0.00     0.116 C 
BRANCH  23  24
ATOM     24  N   UNL A   1      40.280  19.061  25.855  1.00  0.00    -0.352 N 
ATOM     25  C   UNL A   1      41.629  19.138  26.105  1.00  0.00     0.251 C 
ATOM     26  H   UNL A   1      39.927  18.151  25.728  1.00  0.00     0.163 HD
ATOM     27  O   UNL A   1      42.327  18.130  26.027  1.00  0.00    -0.269 OA
BRANCH  25  28
ATOM     28  C   UNL A   1      42.254  20.439  26.437  1.00  0.00     0.039 A 
ATOM     29  C   UNL A   1      42.863  21.173  25.415  1.00  0.00     0.014 A 
ATOM     30  C   UNL A   1      42.242  20.937  27.742  1.00  0.00     0.014 A 
ATOM     31  C   UNL A   1      43.389  22.439  25.687  1.00  0.00     0.010 A 
ATOM     32  C   UNL A   1      42.695  22.230  27.996  1.00  0.00     0.010 A 
ATOM     33  C   UNL A   1      43.271  22.997  26.971  1.00  0.00    -0.014 A 
BRANCH  33  34
ATOM     34  C   UNL A   1      43.730  24.383  27.254  1.00  0.00     0.031 A 
ATOM     35  C   UNL A   1      42.743  25.444  27.662  1.00  0.00     0.074 A 
ATOM     36  C   UNL A   1      45.027  24.704  27.082  1.00  0.00     0.049 A 
ATOM     37  N   UNL A   1      42.946  26.718  27.888  1.00  0.00    -0.248 NA
ATOM     38  C   UNL A   1      41.342  25.023  27.813  1.00  0.00     0.031 C 
ATOM     39  C   UNL A   1      46.078  23.782  26.649  1.00  0.00     0.029 A 
ATOM     40  N   UNL A   1      45.684  25.900  27.241  1.00  0.00    -0.354 N 
ATOM     41  C   UNL A   1      41.699  27.251  28.192  1.00  0.00     0.074 A 
ATOM     42  C   UNL A   1      40.740  26.175  28.070  1.00  0.00     0.031 C 
ATOM     43  C   UNL A   1      47.248  24.437  26.602  1.00  0.00     0.029 A 
ATOM     44  C   UNL A   1      47.027  25.834  26.958  1.00  0.00     0.049 A 
ATOM     45  H   UNL A   1      45.234  26.726  27.531  1.00  0.00     0.167 HD
ATOM     46  C   UNL A   1      41.385  28.516  28.560  1.00  0.00     0.037 A 
ATOM     47  C   UNL A   1      47.972  26.793  26.973  1.00  0.00     0.037 A 
ATOM     48  C   UNL A   1      42.344  29.582  28.700  1.00  0.00     0.049 A 
ATOM     49  C   UNL A   1      47.593  28.196  27.363  1.00  0.00     0.074 A 
ATOM     50  C   UNL A   1      42.132  30.881  29.127  1.00  0.00     0.029 A 
ATOM     51  N   UNL A   1      43.695  29.474  28.408  1.00  0.00    -0.354 N 
ATOM     52  N   UNL A   1      46.422  28.668  27.718  1.00  0.00    -0.248 NA
ATOM     53  C   UNL A   1      48.668  29.199  27.357  1.00  0.00     0.031 C 
ATOM     54  C   UNL A   1      43.343  31.574  29.039  1.00  0.00     0.029 A 
ATOM     55  C   UNL A   1      44.323  30.692  28.617  1.00  0.00     0.049 A 
ATOM     56  H   UNL A   1      44.143  28.654  28.098  1.00  0.00     0.167 HD
ATOM     57  C   UNL A   1      46.627  30.011  28.011  1.00  0.00     0.074 A 
ATOM     58  C   UNL A   1      48.035  30.275  27.803  1.00  0.00     0.031 C 
ATOM     59  C   UNL A   1      45.728  30.941  28.416  1.00  0.00     0.037 A 
BRANCH  46  60
ATOM     60  C   UNL A   1      39.940  28.822  28.837  1.00  0.00     0.057 A 
ATOM     61  C   UNL A   1      39.057  29.214  27.822  1.00  0.00     0.134 A 
ATOM     62  C   UNL A   1      39.415  28.681  30.129  1.00  0.00     0.134 A 
ATOM     63  F   UNL A   1      39.496  29.378  26.565  1.00  0.00    -0.206 F 
ATOM     64  C   UNL A   1      37.713  29.482  28.086  1.00  0.00     0.040 A 
ATOM     65  C   UNL A   1      38.066  28.916  30.399  1.00  0.00     0.040 A 
ATOM     66  F   UNL A   1      40.202  28.299  31.147  1.00  0.00    -0.206 F 
ATOM     67  C   UNL A   1      37.212  29.325  29.378  1.00  0.00     0.006 A 
ENDBRANCH  46  60
BRANCH  47  68
ATOM     68  C   UNL A   1      49.378  26.463  26.625  1.00  0.00     0.057 A 
ATOM     69  C   UNL A   1      49.842  26.577  25.309  1.00  0.00     0.134 A 
ATOM     70  C   UNL A   1      50.285  26.006  27.589  1.00  0.00     0.134 A 
ATOM     71  F   UNL A   1      49.017  26.990  24.335  1.00  0.00    -0.206 F 
ATOM     72  C   UNL A   1      51.148  26.228  24.958  1.00  0.00     0.040 A 
ATOM     73  C   UNL A   1      51.603  25.681  27.259  1.00  0.00     0.040 A 
ATOM     74  F   UNL A   1      49.907  25.881  28.869  1.00  0.00    -0.206 F 
ATOM     75  C   UNL A   1      52.033  25.782  25.937  1.00  0.00     0.006 A 
ENDBRANCH  47  68
BRANCH  59  76
ATOM     76  C   UNL A   1      46.246  32.322  28.705  1.00  0.00     0.057 A 
ATOM     77  C   UNL A   1      46.726  32.687  29.969  1.00  0.00     0.134 A 
ATOM     78  C   UNL A   1      46.300  33.286  27.691  1.00  0.00     0.134 A 
ATOM     79  F   UNL A   1      46.690  31.815  30.988  1.00  0.00    -0.206 F 
ATOM     80  C   UNL A   1      47.215  33.970  30.221  1.00  0.00     0.040 A 
ATOM     81  C   UNL A   1      46.816  34.563  27.922  1.00  0.00     0.040 A 
ATOM     82  F   UNL A   1      45.866  33.001  26.453  1.00  0.00    -0.206 F 
ATOM     83  C   UNL A   1      47.269  34.909  29.192  1.00  0.00     0.006 A 
ENDBRANCH  59  76
ENDBRANCH  33  34
ENDBRANCH  25  28
ENDBRANCH  23  24
ENDBRANCH  22  23
ENDBRANCH   1  22
TORSDOF 15
ENDMDL
