MODEL 1
REMARK VINA RESULT:     -12.1      0.000      0.000
REMARK SMILES Cc1ccccc1[C@H](C(=O)NC[C@H]1CC[C@@H](C(=O)NCCCCNC(=O)c2ccc(-c3c4nc(c(-c5c(F)cccc5F)c5ccc([nH]5)c(-c5c(F)cccc5F)c5nc(c(-c6c(F)cccc6F)c6ccc3[nH]6)C=C5)C=C4)cc2)CC1)[NH+](C)C
REMARK SMILES IDX 20 1 19 2 17 3 18 4 16 6 13 7 14 8 82 9 15 10 81 11 12 12
REMARK SMILES IDX 11 13 9 14 10 15 8 17 7 18 1 19 2 20 3 21 4 22 6 23 5 24
REMARK SMILES IDX 83 25 84 26 85 27 21 29 22 30 23 31 24 32 25 33 26 35 27 36
REMARK SMILES IDX 28 37 80 38 29 39 79 40 30 41 31 42 32 43 73 44 33 45 78 46
REMARK SMILES IDX 72 47 74 48 34 49 77 50 71 51 70 52 35 54 61 55 44 56 60 57
REMARK SMILES IDX 45 58 48 59 59 60 75 61 46 62 47 63 58 65 76 66 49 67 36 68
REMARK SMILES IDX 37 69 42 70 38 71 39 72 41 73 43 74 40 75 62 76 63 77 68 78
REMARK SMILES IDX 64 79 65 80 67 81 69 82 66 83 50 84 51 85 56 86 52 87 53 88
REMARK SMILES IDX 55 89 57 90 54 91
REMARK H PARENT 19 5 11 16 83 28 24 34 74 53 48 64
REMARK Flexibility Score: inf
ROOT
ATOM      1  C   UNL A   1      35.051  32.156  28.520  1.00  0.00     0.116 C 
ENDROOT
BRANCH   1   2
ATOM      2  N   UNL A   1      34.189  30.970  28.502  1.00  0.00    -0.356 N 
ATOM      3  C   UNL A   1      34.330  30.067  27.464  1.00  0.00     0.223 C 
ATOM      4  O   UNL A   1      35.462  29.671  27.172  1.00  0.00    -0.275 OA
ATOM      5  H   UNL A   1      33.524  30.820  29.213  1.00  0.00     0.163 HD
BRANCH   3   6
ATOM      6  C   UNL A   1      33.069  29.456  26.782  1.00  0.00     0.078 C 
ATOM      7  C   UNL A   1      33.100  27.059  24.777  1.00  0.00     0.008 C 
ATOM      8  C   UNL A   1      33.040  26.824  26.300  1.00  0.00     0.006 C 
ATOM      9  C   UNL A   1      33.453  28.497  24.412  1.00  0.00     0.006 C 
ATOM     10  C   UNL A   1      32.803  28.008  27.256  1.00  0.00     0.014 C 
ATOM     11  C   UNL A   1      32.856  29.603  25.276  1.00  0.00     0.014 C 
BRANCH   7  12
ATOM     12  C   UNL A   1      34.017  25.958  24.101  1.00  0.00     0.119 C 
BRANCH  12  13
ATOM     13  N   UNL A   1      34.132  24.661  24.779  1.00  0.00    -0.350 N 
ATOM     14  C   UNL A   1      33.513  23.438  24.664  1.00  0.00     0.283 C 
ATOM     15  O   UNL A   1      34.136  22.519  25.227  1.00  0.00    -0.268 OA
ATOM     16  H   UNL A   1      34.817  24.669  25.487  1.00  0.00     0.163 HD
BRANCH  14  17
ATOM     17  C   UNL A   1      32.096  23.117  24.007  1.00  0.00     0.305 C 
BRANCH  17  18
ATOM     18  C   UNL A   1      31.001  24.137  24.283  1.00  0.00     0.022 A 
ATOM     19  C   UNL A   1      30.850  23.176  26.619  1.00  0.00     0.045 C 
ATOM     20  C   UNL A   1      30.549  24.256  25.607  1.00  0.00    -0.041 A 
ATOM     21  C   UNL A   1      29.865  25.427  25.956  1.00  0.00     0.004 A 
ATOM     22  C   UNL A   1      29.417  26.345  25.020  1.00  0.00     0.000 A 
ATOM     23  C   UNL A   1      30.534  25.062  23.329  1.00  0.00     0.011 A 
ATOM     24  C   UNL A   1      29.722  26.136  23.694  1.00  0.00     0.001 A 
ENDBRANCH  17  18
BRANCH  17  25
ATOM     25  N   UNL A   1      32.213  22.566  22.632  1.00  0.00    -0.326 N 
ATOM     26  C   UNL A   1      33.264  23.166  21.822  1.00  0.00     0.333 C 
ATOM     27  C   UNL A   1      32.069  21.135  22.516  1.00  0.00     0.333 C 
ATOM     28  H   UNL A   1      31.360  22.895  22.178  1.00  0.00     0.348 HD
ENDBRANCH  17  25
ENDBRANCH  14  17
ENDBRANCH  12  13
ENDBRANCH   7  12
ENDBRANCH   3   6
ENDBRANCH   1   2
BRANCH   1  29
ATOM     29  C   UNL A   1      34.501  33.387  27.802  1.00  0.00     0.023 C 
BRANCH  29  30
ATOM     30  C   UNL A   1      33.501  34.237  28.626  1.00  0.00     0.023 C 
BRANCH  30  31
ATOM     31  C   UNL A   1      33.938  35.607  29.170  1.00  0.00     0.116 C 
BRANCH  31  32
ATOM     32  N   UNL A   1      33.649  35.879  30.573  1.00  0.00    -0.352 N 
ATOM     33  C   UNL A   1      34.055  35.232  31.728  1.00  0.00     0.251 C 
ATOM     34  H   UNL A   1      33.064  36.657  30.725  1.00  0.00     0.163 HD
ATOM     35  O   UNL A   1      33.552  35.606  32.796  1.00  0.00    -0.269 OA
BRANCH  33  36
ATOM     36  C   UNL A   1      35.091  34.152  31.778  1.00  0.00     0.039 A 
ATOM     37  C   UNL A   1      34.816  32.953  32.483  1.00  0.00     0.014 A 
ATOM     38  C   UNL A   1      36.350  34.291  31.216  1.00  0.00     0.014 A 
ATOM     39  C   UNL A   1      35.802  31.967  32.677  1.00  0.00     0.010 A 
ATOM     40  C   UNL A   1      37.329  33.349  31.431  1.00  0.00     0.010 A 
ATOM     41  C   UNL A   1      37.073  32.190  32.165  1.00  0.00    -0.014 A 
BRANCH  41  42
ATOM     42  C   UNL A   1      38.250  31.330  32.262  1.00  0.00     0.031 A 
ATOM     43  C   UNL A   1      38.396  30.159  31.365  1.00  0.00     0.074 A 
ATOM     44  C   UNL A   1      39.372  31.958  32.675  1.00  0.00     0.049 A 
ATOM     45  N   UNL A   1      39.394  29.340  31.399  1.00  0.00    -0.248 NA
ATOM     46  C   UNL A   1      37.412  29.836  30.334  1.00  0.00     0.031 C 
ATOM     47  C   UNL A   1      40.724  31.815  32.144  1.00  0.00     0.029 A 
ATOM     48  N   UNL A   1      39.523  32.803  33.764  1.00  0.00    -0.354 N 
ATOM     49  C   UNL A   1      39.351  28.610  30.234  1.00  0.00     0.074 A 
ATOM     50  C   UNL A   1      38.060  28.893  29.645  1.00  0.00     0.031 C 
ATOM     51  C   UNL A   1      41.590  32.350  33.019  1.00  0.00     0.029 A 
ATOM     52  C   UNL A   1      40.839  32.656  34.225  1.00  0.00     0.049 A 
ATOM     53  H   UNL A   1      38.835  33.397  34.143  1.00  0.00     0.167 HD
ATOM     54  C   UNL A   1      40.460  27.962  29.776  1.00  0.00     0.037 A 
ATOM     55  C   UNL A   1      41.166  32.250  35.486  1.00  0.00     0.037 A 
ATOM     56  C   UNL A   1      41.627  28.211  30.613  1.00  0.00     0.049 A 
ATOM     57  C   UNL A   1      42.043  31.024  35.504  1.00  0.00     0.074 A 
ATOM     58  C   UNL A   1      42.681  29.102  30.489  1.00  0.00     0.029 A 
ATOM     59  N   UNL A   1      41.673  27.728  31.914  1.00  0.00    -0.354 N 
ATOM     60  N   UNL A   1      42.240  30.265  34.465  1.00  0.00    -0.248 NA
ATOM     61  C   UNL A   1      42.651  30.484  36.717  1.00  0.00     0.031 C 
ATOM     62  C   UNL A   1      43.347  29.177  31.734  1.00  0.00     0.029 A 
ATOM     63  C   UNL A   1      42.700  28.331  32.618  1.00  0.00     0.049 A 
ATOM     64  H   UNL A   1      41.062  27.051  32.284  1.00  0.00     0.167 HD
ATOM     65  C   UNL A   1      42.828  29.100  34.868  1.00  0.00     0.074 A 
ATOM     66  C   UNL A   1      43.131  29.312  36.269  1.00  0.00     0.031 C 
ATOM     67  C   UNL A   1      42.926  28.034  34.025  1.00  0.00     0.037 A 
BRANCH  54  68
ATOM     68  C   UNL A   1      40.523  27.357  28.397  1.00  0.00     0.057 A 
ATOM     69  C   UNL A   1      39.955  26.102  28.108  1.00  0.00     0.134 A 
ATOM     70  C   UNL A   1      41.154  27.983  27.307  1.00  0.00     0.134 A 
ATOM     71  F   UNL A   1      39.259  25.412  29.020  1.00  0.00    -0.206 F 
ATOM     72  C   UNL A   1      40.085  25.479  26.860  1.00  0.00     0.040 A 
ATOM     73  C   UNL A   1      41.331  27.352  26.067  1.00  0.00     0.040 A 
ATOM     74  F   UNL A   1      41.609  29.242  27.402  1.00  0.00    -0.206 F 
ATOM     75  C   UNL A   1      40.802  26.089  25.843  1.00  0.00     0.006 A 
ENDBRANCH  54  68
BRANCH  55  76
ATOM     76  C   UNL A   1      40.066  32.452  36.464  1.00  0.00     0.057 A 
ATOM     77  C   UNL A   1      39.913  33.713  37.054  1.00  0.00     0.134 A 
ATOM     78  C   UNL A   1      38.946  31.608  36.429  1.00  0.00     0.134 A 
ATOM     79  F   UNL A   1      40.942  34.572  37.100  1.00  0.00    -0.206 F 
ATOM     80  C   UNL A   1      38.659  34.168  37.457  1.00  0.00     0.040 A 
ATOM     81  C   UNL A   1      37.685  32.067  36.813  1.00  0.00     0.040 A 
ATOM     82  F   UNL A   1      39.027  30.390  35.878  1.00  0.00    -0.206 F 
ATOM     83  C   UNL A   1      37.532  33.367  37.289  1.00  0.00     0.006 A 
ENDBRANCH  55  76
BRANCH  67  84
ATOM     84  C   UNL A   1      43.285  26.641  34.454  1.00  0.00     0.057 A 
ATOM     85  C   UNL A   1      42.379  25.745  35.040  1.00  0.00     0.134 A 
ATOM     86  C   UNL A   1      44.557  26.110  34.156  1.00  0.00     0.134 A 
ATOM     87  F   UNL A   1      41.100  26.081  35.257  1.00  0.00    -0.206 F 
ATOM     88  C   UNL A   1      42.737  24.437  35.384  1.00  0.00     0.040 A 
ATOM     89  C   UNL A   1      44.908  24.790  34.446  1.00  0.00     0.040 A 
ATOM     90  F   UNL A   1      45.501  26.849  33.553  1.00  0.00    -0.206 F 
ATOM     91  C   UNL A   1      44.003  23.953  35.082  1.00  0.00     0.006 A 
ENDBRANCH  67  84
ENDBRANCH  41  42
ENDBRANCH  33  36
ENDBRANCH  31  32
ENDBRANCH  30  31
ENDBRANCH  29  30
ENDBRANCH   1  29
TORSDOF 16
ENDMDL
MODEL 2
REMARK VINA RESULT:     -12.1      2.605      4.823
REMARK SMILES Cc1ccccc1[C@H](C(=O)NC[C@H]1CC[C@@H](C(=O)NCCCCNC(=O)c2ccc(-c3c4nc(c(-c5c(F)cccc5F)c5ccc([nH]5)c(-c5c(F)cccc5F)c5nc(c(-c6c(F)cccc6F)c6ccc3[nH]6)C=C5)C=C4)cc2)CC1)[NH+](C)C
REMARK SMILES IDX 20 1 19 2 17 3 18 4 16 6 13 7 14 8 82 9 15 10 81 11 12 12
REMARK SMILES IDX 11 13 9 14 10 15 8 17 7 18 1 19 2 20 3 21 4 22 6 23 5 24
REMARK SMILES IDX 83 25 84 26 85 27 21 29 22 30 23 31 24 32 25 33 26 35 27 36
REMARK SMILES IDX 28 37 80 38 29 39 79 40 30 41 31 42 32 43 73 44 33 45 78 46
REMARK SMILES IDX 72 47 74 48 34 49 77 50 71 51 70 52 35 54 61 55 44 56 60 57
REMARK SMILES IDX 45 58 48 59 59 60 75 61 46 62 47 63 58 65 76 66 49 67 36 68
REMARK SMILES IDX 37 69 42 70 38 71 39 72 41 73 43 74 40 75 62 76 63 77 68 78
REMARK SMILES IDX 64 79 65 80 67 81 69 82 66 83 50 84 51 85 56 86 52 87 53 88
REMARK SMILES IDX 55 89 57 90 54 91
REMARK H PARENT 19 5 11 16 83 28 24 34 74 53 48 64
REMARK Flexibility Score: inf
ROOT
ATOM      1  C   UNL A   1      31.560  29.452  24.244  1.00  0.00     0.116 C 
ENDROOT
BRANCH   1   2
ATOM      2  N   UNL A   1      31.953  28.624  23.100  1.00  0.00    -0.356 N 
ATOM      3  C   UNL A   1      30.985  27.859  22.474  1.00  0.00     0.223 C 
ATOM      4  O   UNL A   1      29.920  28.395  22.158  1.00  0.00    -0.275 OA
ATOM      5  H   UNL A   1      32.886  28.612  22.784  1.00  0.00     0.163 HD
BRANCH   3   6
ATOM      6  C   UNL A   1      31.300  26.393  22.050  1.00  0.00     0.078 C 
ATOM      7  C   UNL A   1      33.432  24.553  23.406  1.00  0.00     0.008 C 
ATOM      8  C   UNL A   1      31.994  24.645  23.955  1.00  0.00     0.006 C 
ATOM      9  C   UNL A   1      33.752  25.648  22.393  1.00  0.00     0.006 C 
ATOM     10  C   UNL A   1      30.905  25.379  23.149  1.00  0.00     0.014 C 
ATOM     11  C   UNL A   1      32.646  26.042  21.419  1.00  0.00     0.014 C 
BRANCH   7  12
ATOM     12  C   UNL A   1      34.457  24.442  24.609  1.00  0.00     0.119 C 
BRANCH  12  13
ATOM     13  N   UNL A   1      35.085  23.136  24.847  1.00  0.00    -0.350 N 
ATOM     14  C   UNL A   1      34.634  21.843  24.983  1.00  0.00     0.283 C 
ATOM     15  O   UNL A   1      35.537  20.995  24.860  1.00  0.00    -0.268 OA
ATOM     16  H   UNL A   1      36.064  23.202  24.928  1.00  0.00     0.163 HD
BRANCH  14  17
ATOM     17  C   UNL A   1      33.166  21.356  25.370  1.00  0.00     0.305 C 
BRANCH  17  18
ATOM     18  C   UNL A   1      32.760  20.000  24.813  1.00  0.00     0.022 A 
ATOM     19  C   UNL A   1      32.072  21.201  22.694  1.00  0.00     0.045 C 
ATOM     20  C   UNL A   1      32.404  19.939  23.456  1.00  0.00    -0.041 A 
ATOM     21  C   UNL A   1      32.426  18.684  22.834  1.00  0.00     0.004 A 
ATOM     22  C   UNL A   1      32.546  17.498  23.539  1.00  0.00     0.000 A 
ATOM     23  C   UNL A   1      32.868  18.793  25.532  1.00  0.00     0.011 A 
ATOM     24  C   UNL A   1      32.728  17.556  24.902  1.00  0.00     0.001 A 
ENDBRANCH  17  18
BRANCH  17  25
ATOM     25  N   UNL A   1      32.808  21.674  26.775  1.00  0.00    -0.326 N 
ATOM     26  C   UNL A   1      33.937  21.737  27.694  1.00  0.00     0.333 C 
ATOM     27  C   UNL A   1      31.798  22.689  26.950  1.00  0.00     0.333 C 
ATOM     28  H   UNL A   1      32.311  20.837  27.083  1.00  0.00     0.348 HD
ENDBRANCH  17  25
ENDBRANCH  14  17
ENDBRANCH  12  13
ENDBRANCH   7  12
ENDBRANCH   3   6
ENDBRANCH   1   2
BRANCH   1  29
ATOM     29  C   UNL A   1      31.496  28.735  25.591  1.00  0.00     0.023 C 
BRANCH  29  30
ATOM     30  C   UNL A   1      32.707  27.822  25.909  1.00  0.00     0.023 C 
BRANCH  30  31
ATOM     31  C   UNL A   1      33.832  28.342  26.819  1.00  0.00     0.116 C 
BRANCH  31  32
ATOM     32  N   UNL A   1      33.810  29.764  27.142  1.00  0.00    -0.352 N 
ATOM     33  C   UNL A   1      34.712  30.555  27.833  1.00  0.00     0.251 C 
ATOM     34  H   UNL A   1      33.016  30.244  26.811  1.00  0.00     0.163 HD
ATOM     35  O   UNL A   1      34.378  31.723  28.072  1.00  0.00    -0.269 OA
BRANCH  33  36
ATOM     36  C   UNL A   1      36.075  30.109  28.266  1.00  0.00     0.039 A 
ATOM     37  C   UNL A   1      37.170  30.249  27.378  1.00  0.00     0.014 A 
ATOM     38  C   UNL A   1      36.313  29.498  29.488  1.00  0.00     0.014 A 
ATOM     39  C   UNL A   1      38.441  29.721  27.681  1.00  0.00     0.010 A 
ATOM     40  C   UNL A   1      37.541  28.949  29.777  1.00  0.00     0.010 A 
ATOM     41  C   UNL A   1      38.608  29.046  28.882  1.00  0.00    -0.014 A 
BRANCH  41  42
ATOM     42  C   UNL A   1      39.814  28.400  29.396  1.00  0.00     0.031 A 
ATOM     43  C   UNL A   1      40.263  27.103  28.837  1.00  0.00     0.074 A 
ATOM     44  C   UNL A   1      40.754  29.252  29.857  1.00  0.00     0.049 A 
ATOM     45  N   UNL A   1      41.305  26.458  29.246  1.00  0.00    -0.248 NA
ATOM     46  C   UNL A   1      39.561  26.438  27.741  1.00  0.00     0.031 C 
ATOM     47  C   UNL A   1      42.196  29.197  29.640  1.00  0.00     0.029 A 
ATOM     48  N   UNL A   1      40.584  30.316  30.731  1.00  0.00    -0.354 N 
ATOM     49  C   UNL A   1      41.585  25.506  28.294  1.00  0.00     0.074 A 
ATOM     50  C   UNL A   1      40.430  25.476  27.423  1.00  0.00     0.031 C 
ATOM     51  C   UNL A   1      42.797  30.019  30.515  1.00  0.00     0.029 A 
ATOM     52  C   UNL A   1      41.777  30.455  31.454  1.00  0.00     0.049 A 
ATOM     53  H   UNL A   1      39.776  30.871  30.826  1.00  0.00     0.167 HD
ATOM     54  C   UNL A   1      42.824  24.943  28.216  1.00  0.00     0.037 A 
ATOM     55  C   UNL A   1      41.861  30.368  32.813  1.00  0.00     0.037 A 
ATOM     56  C   UNL A   1      43.753  25.522  29.178  1.00  0.00     0.049 A 
ATOM     57  C   UNL A   1      42.828  29.309  33.279  1.00  0.00     0.074 A 
ATOM     58  C   UNL A   1      44.717  26.509  29.055  1.00  0.00     0.029 A 
ATOM     59  N   UNL A   1      43.564  25.328  30.541  1.00  0.00    -0.354 N 
ATOM     60  N   UNL A   1      43.318  28.389  32.498  1.00  0.00    -0.248 NA
ATOM     61  C   UNL A   1      43.209  29.122  34.676  1.00  0.00     0.031 C 
ATOM     62  C   UNL A   1      45.088  26.932  30.352  1.00  0.00     0.029 A 
ATOM     63  C   UNL A   1      44.351  26.202  31.268  1.00  0.00     0.049 A 
ATOM     64  H   UNL A   1      42.956  24.661  30.934  1.00  0.00     0.167 HD
ATOM     65  C   UNL A   1      43.915  27.428  33.262  1.00  0.00     0.074 A 
ATOM     66  C   UNL A   1      43.886  27.963  34.609  1.00  0.00     0.031 C 
ATOM     67  C   UNL A   1      44.296  26.236  32.722  1.00  0.00     0.037 A 
BRANCH  54  68
ATOM     68  C   UNL A   1      43.242  24.082  27.051  1.00  0.00     0.057 A 
ATOM     69  C   UNL A   1      43.828  24.629  25.894  1.00  0.00     0.134 A 
ATOM     70  C   UNL A   1      43.073  22.687  27.023  1.00  0.00     0.134 A 
ATOM     71  F   UNL A   1      44.119  25.932  25.795  1.00  0.00    -0.206 F 
ATOM     72  C   UNL A   1      44.136  23.861  24.763  1.00  0.00     0.040 A 
ATOM     73  C   UNL A   1      43.333  21.913  25.883  1.00  0.00     0.040 A 
ATOM     74  F   UNL A   1      42.663  22.018  28.112  1.00  0.00    -0.206 F 
ATOM     75  C   UNL A   1      43.859  22.504  24.742  1.00  0.00     0.006 A 
ENDBRANCH  54  68
BRANCH  55  76
ATOM     76  C   UNL A   1      40.562  30.609  33.492  1.00  0.00     0.057 A 
ATOM     77  C   UNL A   1      40.156  31.929  33.721  1.00  0.00     0.134 A 
ATOM     78  C   UNL A   1      39.569  29.618  33.454  1.00  0.00     0.134 A 
ATOM     79  F   UNL A   1      41.057  32.922  33.749  1.00  0.00    -0.206 F 
ATOM     80  C   UNL A   1      38.805  32.266  33.763  1.00  0.00     0.040 A 
ATOM     81  C   UNL A   1      38.215  29.954  33.475  1.00  0.00     0.040 A 
ATOM     82  F   UNL A   1      39.892  28.336  33.237  1.00  0.00    -0.206 F 
ATOM     83  C   UNL A   1      37.830  31.288  33.587  1.00  0.00     0.006 A 
ENDBRANCH  55  76
BRANCH  67  84
ATOM     84  C   UNL A   1      44.687  25.026  33.520  1.00  0.00     0.057 A 
ATOM     85  C   UNL A   1      46.000  24.541  33.612  1.00  0.00     0.134 A 
ATOM     86  C   UNL A   1      43.742  24.380  34.344  1.00  0.00     0.134 A 
ATOM     87  F   UNL A   1      47.017  25.145  32.982  1.00  0.00    -0.206 F 
ATOM     88  C   UNL A   1      46.336  23.438  34.404  1.00  0.00     0.040 A 
ATOM     89  C   UNL A   1      44.077  23.313  35.179  1.00  0.00     0.040 A 
ATOM     90  F   UNL A   1      42.461  24.777  34.384  1.00  0.00    -0.206 F 
ATOM     91  C   UNL A   1      45.376  22.823  35.197  1.00  0.00     0.006 A 
ENDBRANCH  67  84
ENDBRANCH  41  42
ENDBRANCH  33  36
ENDBRANCH  31  32
ENDBRANCH  30  31
ENDBRANCH  29  30
ENDBRANCH   1  29
TORSDOF 16
ENDMDL
MODEL 3
REMARK VINA RESULT:     -12.0      1.164      2.264
REMARK SMILES Cc1ccccc1[C@H](C(=O)NC[C@H]1CC[C@@H](C(=O)NCCCCNC(=O)c2ccc(-c3c4nc(c(-c5c(F)cccc5F)c5ccc([nH]5)c(-c5c(F)cccc5F)c5nc(c(-c6c(F)cccc6F)c6ccc3[nH]6)C=C5)C=C4)cc2)CC1)[NH+](C)C
REMARK SMILES IDX 20 1 19 2 17 3 18 4 16 6 13 7 14 8 82 9 15 10 81 11 12 12
REMARK SMILES IDX 11 13 9 14 10 15 8 17 7 18 1 19 2 20 3 21 4 22 6 23 5 24
REMARK SMILES IDX 83 25 84 26 85 27 21 29 22 30 23 31 24 32 25 33 26 35 27 36
REMARK SMILES IDX 28 37 80 38 29 39 79 40 30 41 31 42 32 43 73 44 33 45 78 46
REMARK SMILES IDX 72 47 74 48 34 49 77 50 71 51 70 52 35 54 61 55 44 56 60 57
REMARK SMILES IDX 45 58 48 59 59 60 75 61 46 62 47 63 58 65 76 66 49 67 36 68
REMARK SMILES IDX 37 69 42 70 38 71 39 72 41 73 43 74 40 75 62 76 63 77 68 78
REMARK SMILES IDX 64 79 65 80 67 81 69 82 66 83 50 84 51 85 56 86 52 87 53 88
REMARK SMILES IDX 55 89 57 90 54 91
REMARK H PARENT 19 5 11 16 83 28 24 34 74 53 48 64
REMARK Flexibility Score: inf
ROOT
ATOM      1  C   UNL A   1      34.985  31.866  28.474  1.00  0.00     0.116 C 
ENDROOT
BRANCH   1   2
ATOM      2  N   UNL A   1      33.930  30.857  28.336  1.00  0.00    -0.356 N 
ATOM      3  C   UNL A   1      34.131  29.807  27.459  1.00  0.00     0.223 C 
ATOM      4  O   UNL A   1      35.195  29.184  27.513  1.00  0.00    -0.275 OA
ATOM      5  H   UNL A   1      33.097  30.925  28.857  1.00  0.00     0.163 HD
BRANCH   3   6
ATOM      6  C   UNL A   1      32.976  29.335  26.525  1.00  0.00     0.078 C 
ATOM      7  C   UNL A   1      33.130  26.900  24.572  1.00  0.00     0.008 C 
ATOM      8  C   UNL A   1      32.724  26.714  26.048  1.00  0.00     0.006 C 
ATOM      9  C   UNL A   1      33.727  28.275  24.290  1.00  0.00     0.006 C 
ATOM     10  C   UNL A   1      32.440  27.943  26.932  1.00  0.00     0.014 C 
ATOM     11  C   UNL A   1      33.103  29.468  25.009  1.00  0.00     0.014 C 
BRANCH   7  12
ATOM     12  C   UNL A   1      34.026  25.679  24.105  1.00  0.00     0.119 C 
BRANCH  12  13
ATOM     13  N   UNL A   1      33.337  24.491  23.589  1.00  0.00    -0.350 N 
ATOM     14  C   UNL A   1      32.913  23.295  24.122  1.00  0.00     0.283 C 
ATOM     15  O   UNL A   1      32.089  22.702  23.401  1.00  0.00    -0.268 OA
ATOM     16  H   UNL A   1      33.128  24.567  22.630  1.00  0.00     0.163 HD
BRANCH  14  17
ATOM     17  C   UNL A   1      33.427  22.582  25.453  1.00  0.00     0.305 C 
BRANCH  17  18
ATOM     18  C   UNL A   1      34.929  22.362  25.538  1.00  0.00     0.022 A 
ATOM     19  C   UNL A   1      34.504  19.961  24.858  1.00  0.00     0.045 C 
ATOM     20  C   UNL A   1      35.430  21.136  25.071  1.00  0.00    -0.041 A 
ATOM     21  C   UNL A   1      36.794  21.067  24.762  1.00  0.00     0.004 A 
ATOM     22  C   UNL A   1      37.696  22.057  25.115  1.00  0.00     0.000 A 
ATOM     23  C   UNL A   1      35.848  23.363  25.909  1.00  0.00     0.011 A 
ATOM     24  C   UNL A   1      37.221  23.194  25.728  1.00  0.00     0.001 A 
ENDBRANCH  17  18
BRANCH  17  25
ATOM     25  N   UNL A   1      32.716  23.054  26.668  1.00  0.00    -0.326 N 
ATOM     26  C   UNL A   1      31.303  23.352  26.471  1.00  0.00     0.333 C 
ATOM     27  C   UNL A   1      33.049  22.371  27.895  1.00  0.00     0.333 C 
ATOM     28  H   UNL A   1      33.122  23.976  26.830  1.00  0.00     0.348 HD
ENDBRANCH  17  25
ENDBRANCH  14  17
ENDBRANCH  12  13
ENDBRANCH   7  12
ENDBRANCH   3   6
ENDBRANCH   1   2
BRANCH   1  29
ATOM     29  C   UNL A   1      34.702  33.216  27.818  1.00  0.00     0.023 C 
BRANCH  29  30
ATOM     30  C   UNL A   1      33.601  34.062  28.504  1.00  0.00     0.023 C 
BRANCH  30  31
ATOM     31  C   UNL A   1      33.929  35.485  28.989  1.00  0.00     0.116 C 
BRANCH  31  32
ATOM     32  N   UNL A   1      33.649  35.782  30.388  1.00  0.00    -0.352 N 
ATOM     33  C   UNL A   1      34.057  35.151  31.552  1.00  0.00     0.251 C 
ATOM     34  H   UNL A   1      33.071  36.567  30.530  1.00  0.00     0.163 HD
ATOM     35  O   UNL A   1      33.562  35.547  32.616  1.00  0.00    -0.269 OA
BRANCH  33  36
ATOM     36  C   UNL A   1      35.084  34.064  31.615  1.00  0.00     0.039 A 
ATOM     37  C   UNL A   1      34.795  32.870  32.323  1.00  0.00     0.014 A 
ATOM     38  C   UNL A   1      36.349  34.192  31.062  1.00  0.00     0.014 A 
ATOM     39  C   UNL A   1      35.773  31.878  32.529  1.00  0.00     0.010 A 
ATOM     40  C   UNL A   1      37.319  33.244  31.289  1.00  0.00     0.010 A 
ATOM     41  C   UNL A   1      37.049  32.090  32.025  1.00  0.00    -0.014 A 
BRANCH  41  42
ATOM     42  C   UNL A   1      38.219  31.221  32.135  1.00  0.00     0.031 A 
ATOM     43  C   UNL A   1      38.363  30.046  31.244  1.00  0.00     0.074 A 
ATOM     44  C   UNL A   1      39.342  31.843  32.554  1.00  0.00     0.049 A 
ATOM     45  N   UNL A   1      39.355  29.220  31.289  1.00  0.00    -0.248 NA
ATOM     46  C   UNL A   1      37.385  29.725  30.207  1.00  0.00     0.031 C 
ATOM     47  C   UNL A   1      40.697  31.688  32.035  1.00  0.00     0.029 A 
ATOM     48  N   UNL A   1      39.491  32.692  33.641  1.00  0.00    -0.354 N 
ATOM     49  C   UNL A   1      39.316  28.485  30.127  1.00  0.00     0.074 A 
ATOM     50  C   UNL A   1      38.032  28.775  29.527  1.00  0.00     0.031 C 
ATOM     51  C   UNL A   1      41.560  32.221  32.914  1.00  0.00     0.029 A 
ATOM     52  C   UNL A   1      40.802  32.537  34.113  1.00  0.00     0.049 A 
ATOM     53  H   UNL A   1      38.804  33.292  34.012  1.00  0.00     0.167 HD
ATOM     54  C   UNL A   1      40.424  27.828  29.681  1.00  0.00     0.037 A 
ATOM     55  C   UNL A   1      41.116  32.134  35.378  1.00  0.00     0.037 A 
ATOM     56  C   UNL A   1      41.586  28.072  30.525  1.00  0.00     0.049 A 
ATOM     57  C   UNL A   1      41.984  30.902  35.408  1.00  0.00     0.074 A 
ATOM     58  C   UNL A   1      42.647  28.955  30.406  1.00  0.00     0.029 A 
ATOM     59  N   UNL A   1      41.619  27.594  31.829  1.00  0.00    -0.354 N 
ATOM     60  N   UNL A   1      42.184  30.138  34.373  1.00  0.00    -0.248 NA
ATOM     61  C   UNL A   1      42.578  30.363  36.628  1.00  0.00     0.031 C 
ATOM     62  C   UNL A   1      43.304  29.030  31.656  1.00  0.00     0.029 A 
ATOM     63  C   UNL A   1      42.645  28.192  32.538  1.00  0.00     0.049 A 
ATOM     64  H   UNL A   1      41.000  26.922  32.197  1.00  0.00     0.167 HD
ATOM     65  C   UNL A   1      42.761  28.970  34.786  1.00  0.00     0.074 A 
ATOM     66  C   UNL A   1      43.054  29.185  36.189  1.00  0.00     0.031 C 
ATOM     67  C   UNL A   1      42.857  27.900  33.948  1.00  0.00     0.037 A 
BRANCH  54  68
ATOM     68  C   UNL A   1      40.494  27.216  28.304  1.00  0.00     0.057 A 
ATOM     69  C   UNL A   1      39.940  25.953  28.021  1.00  0.00     0.134 A 
ATOM     70  C   UNL A   1      41.117  27.844  27.211  1.00  0.00     0.134 A 
ATOM     71  F   UNL A   1      39.252  25.260  28.937  1.00  0.00    -0.206 F 
ATOM     72  C   UNL A   1      40.076  25.326  26.777  1.00  0.00     0.040 A 
ATOM     73  C   UNL A   1      41.301  27.209  25.975  1.00  0.00     0.040 A 
ATOM     74  F   UNL A   1      41.557  29.108  27.300  1.00  0.00    -0.206 F 
ATOM     75  C   UNL A   1      40.786  25.939  25.757  1.00  0.00     0.006 A 
ENDBRANCH  54  68
BRANCH  55  76
ATOM     76  C   UNL A   1      40.010  32.348  36.347  1.00  0.00     0.057 A 
ATOM     77  C   UNL A   1      39.876  33.606  36.948  1.00  0.00     0.134 A 
ATOM     78  C   UNL A   1      38.874  31.527  36.291  1.00  0.00     0.134 A 
ATOM     79  F   UNL A   1      40.921  34.444  37.014  1.00  0.00    -0.206 F 
ATOM     80  C   UNL A   1      38.627  34.082  37.342  1.00  0.00     0.040 A 
ATOM     81  C   UNL A   1      37.618  32.007  36.666  1.00  0.00     0.040 A 
ATOM     82  F   UNL A   1      38.937  30.313  35.728  1.00  0.00    -0.206 F 
ATOM     83  C   UNL A   1      37.487  33.305  37.154  1.00  0.00     0.006 A 
ENDBRANCH  55  76
BRANCH  67  84
ATOM     84  C   UNL A   1      43.203  26.506  34.385  1.00  0.00     0.057 A 
ATOM     85  C   UNL A   1      42.374  25.710  35.189  1.00  0.00     0.134 A 
ATOM     86  C   UNL A   1      44.356  25.867  33.883  1.00  0.00     0.134 A 
ATOM     87  F   UNL A   1      41.187  26.152  35.626  1.00  0.00    -0.206 F 
ATOM     88  C   UNL A   1      42.707  24.397  35.538  1.00  0.00     0.040 A 
ATOM     89  C   UNL A   1      44.671  24.540  34.181  1.00  0.00     0.040 A 
ATOM     90  F   UNL A   1      45.209  26.503  33.065  1.00  0.00    -0.206 F 
ATOM     91  C   UNL A   1      43.856  23.805  35.029  1.00  0.00     0.006 A 
ENDBRANCH  67  84
ENDBRANCH  41  42
ENDBRANCH  33  36
ENDBRANCH  31  32
ENDBRANCH  30  31
ENDBRANCH  29  30
ENDBRANCH   1  29
TORSDOF 16
ENDMDL
