MODEL 1
REMARK VINA RESULT:     -12.7      0.000      0.000
REMARK SMILES O=C(NCCCCNC(=O)[C@H]1[C@@H](C(=O)Nc2ccccc2-c2ccccc2)[C@@H]2C=C[C@H]1O2)c1ccc(-c2c3nc(c(-c4c(F)cccc4F)c4ccc([nH]4)c(-c4c(F)cccc4F)c4nc(c(-c5c(F)cccc5F)c5ccc2[nH]5)C=C4)C=C3)cc1
REMARK SMILES IDX 6 1 5 2 4 3 3 4 1 5 2 6 33 8 34 9 86 10 35 11 85 12 36 13
REMARK SMILES IDX 37 14 38 15 79 16 39 17 84 18 78 19 80 20 40 21 83 22 77 23
REMARK SMILES IDX 76 24 41 26 67 27 50 28 66 29 51 30 54 31 65 32 81 33 52 34
REMARK SMILES IDX 53 35 64 37 82 38 55 39 42 40 43 41 48 42 44 43 45 44 47 45
REMARK SMILES IDX 49 46 46 47 68 48 69 49 74 50 70 51 71 52 73 53 75 54 72 55
REMARK SMILES IDX 56 56 57 57 62 58 58 59 59 60 61 61 63 62 60 63 7 64 8 65
REMARK SMILES IDX 9 66 10 68 11 69 12 70 31 71 28 72 30 73 32 74 29 75 13 76
REMARK SMILES IDX 14 77 15 78 16 80 17 81 21 82 18 83 20 84 19 85 22 86 23 87
REMARK SMILES IDX 27 88 24 89 26 90 25 91
REMARK H PARENT 3 7 80 25 54 36 8 67 15 79
REMARK Flexibility Score: inf
ROOT
ATOM      1  C   UNL A   1      39.118  23.039  26.499  1.00  0.00     0.023 C 
ENDROOT
BRANCH   1   2
ATOM      2  C   UNL A   1      39.270  21.652  25.904  1.00  0.00     0.023 C 
BRANCH   2   3
ATOM      3  C   UNL A   1      40.035  20.710  26.824  1.00  0.00     0.116 C 
BRANCH   3   4
ATOM      4  N   UNL A   1      40.976  19.829  26.131  1.00  0.00    -0.352 N 
ATOM      5  O   UNL A   1      42.907  19.188  25.116  1.00  0.00    -0.269 OA
ATOM      6  C   UNL A   1      42.282  20.036  25.740  1.00  0.00     0.251 C 
ATOM      7  H   UNL A   1      40.617  18.940  25.908  1.00  0.00     0.163 HD
BRANCH   6   8
ATOM      8  C   UNL A   1      42.882  21.340  26.055  1.00  0.00     0.039 A 
ATOM      9  C   UNL A   1      43.110  21.629  27.390  1.00  0.00     0.014 A 
ATOM     10  C   UNL A   1      42.987  22.330  25.076  1.00  0.00     0.014 A 
ATOM     11  C   UNL A   1      43.052  22.948  27.780  1.00  0.00     0.010 A 
ATOM     12  C   UNL A   1      43.203  23.653  25.473  1.00  0.00     0.010 A 
ATOM     13  C   UNL A   1      43.177  23.980  26.835  1.00  0.00    -0.014 A 
BRANCH  13  14
ATOM     14  C   UNL A   1      43.392  25.351  27.360  1.00  0.00     0.031 A 
ATOM     15  C   UNL A   1      42.261  26.236  27.794  1.00  0.00     0.074 A 
ATOM     16  C   UNL A   1      44.674  25.744  27.517  1.00  0.00     0.049 A 
ATOM     17  N   UNL A   1      42.321  27.446  28.293  1.00  0.00    -0.248 NA
ATOM     18  C   UNL A   1      40.891  25.724  27.639  1.00  0.00     0.031 C 
ATOM     19  C   UNL A   1      45.850  24.959  27.112  1.00  0.00     0.029 A 
ATOM     20  N   UNL A   1      45.216  26.857  28.096  1.00  0.00    -0.354 N 
ATOM     21  C   UNL A   1      41.006  27.846  28.492  1.00  0.00     0.074 A 
ATOM     22  C   UNL A   1      40.164  26.764  28.029  1.00  0.00     0.031 C 
ATOM     23  C   UNL A   1      46.959  25.555  27.555  1.00  0.00     0.029 A 
ATOM     24  C   UNL A   1      46.589  26.837  28.123  1.00  0.00     0.049 A 
ATOM     25  H   UNL A   1      44.677  27.597  28.457  1.00  0.00     0.167 HD
ATOM     26  C   UNL A   1      40.554  29.011  29.020  1.00  0.00     0.037 A 
ATOM     27  C   UNL A   1      47.471  27.774  28.504  1.00  0.00     0.037 A 
ATOM     28  C   UNL A   1      41.416  30.077  29.470  1.00  0.00     0.049 A 
ATOM     29  C   UNL A   1      46.934  29.069  29.023  1.00  0.00     0.074 A 
ATOM     30  C   UNL A   1      41.064  31.299  30.016  1.00  0.00     0.029 A 
ATOM     31  N   UNL A   1      42.805  30.048  29.425  1.00  0.00    -0.354 N 
ATOM     32  N   UNL A   1      45.688  29.430  29.205  1.00  0.00    -0.248 NA
ATOM     33  C   UNL A   1      47.924  30.086  29.384  1.00  0.00     0.031 C 
ATOM     34  C   UNL A   1      42.234  32.032  30.243  1.00  0.00     0.029 A 
ATOM     35  C   UNL A   1      43.321  31.240  29.912  1.00  0.00     0.049 A 
ATOM     36  H   UNL A   1      43.344  29.292  29.097  1.00  0.00     0.167 HD
ATOM     37  C   UNL A   1      45.741  30.716  29.718  1.00  0.00     0.074 A 
ATOM     38  C   UNL A   1      47.146  31.048  29.856  1.00  0.00     0.031 C 
ATOM     39  C   UNL A   1      44.723  31.552  30.037  1.00  0.00     0.037 A 
BRANCH  26  40
ATOM     40  C   UNL A   1      39.067  29.207  29.122  1.00  0.00     0.057 A 
ATOM     41  C   UNL A   1      38.384  29.099  30.341  1.00  0.00     0.134 A 
ATOM     42  C   UNL A   1      38.313  29.573  27.997  1.00  0.00     0.134 A 
ATOM     43  F   UNL A   1      39.039  28.745  31.457  1.00  0.00    -0.206 F 
ATOM     44  C   UNL A   1      37.009  29.326  30.434  1.00  0.00     0.040 A 
ATOM     45  C   UNL A   1      36.944  29.832  28.083  1.00  0.00     0.040 A 
ATOM     46  F   UNL A   1      38.900  29.705  26.797  1.00  0.00    -0.206 F 
ATOM     47  C   UNL A   1      36.286  29.703  29.304  1.00  0.00     0.006 A 
ENDBRANCH  26  40
BRANCH  27  48
ATOM     48  C   UNL A   1      48.928  27.540  28.332  1.00  0.00     0.057 A 
ATOM     49  C   UNL A   1      49.582  27.853  27.138  1.00  0.00     0.134 A 
ATOM     50  C   UNL A   1      49.699  26.986  29.363  1.00  0.00     0.134 A 
ATOM     51  F   UNL A   1      48.900  28.384  26.112  1.00  0.00    -0.206 F 
ATOM     52  C   UNL A   1      50.941  27.586  26.960  1.00  0.00     0.040 A 
ATOM     53  C   UNL A   1      51.066  26.756  29.215  1.00  0.00     0.040 A 
ATOM     54  F   UNL A   1      49.140  26.681  30.545  1.00  0.00    -0.206 F 
ATOM     55  C   UNL A   1      51.687  27.041  28.003  1.00  0.00     0.006 A 
ENDBRANCH  27  48
BRANCH  39  56
ATOM     56  C   UNL A   1      45.111  32.886  30.605  1.00  0.00     0.057 A 
ATOM     57  C   UNL A   1      45.296  33.085  31.980  1.00  0.00     0.134 A 
ATOM     58  C   UNL A   1      45.279  33.993  29.764  1.00  0.00     0.134 A 
ATOM     59  F   UNL A   1      45.132  32.070  32.843  1.00  0.00    -0.206 F 
ATOM     60  C   UNL A   1      45.580  34.347  32.502  1.00  0.00     0.040 A 
ATOM     61  C   UNL A   1      45.608  35.250  30.270  1.00  0.00     0.040 A 
ATOM     62  F   UNL A   1      45.128  33.872  28.436  1.00  0.00    -0.206 F 
ATOM     63  C   UNL A   1      45.743  35.433  31.645  1.00  0.00     0.006 A 
ENDBRANCH  39  56
ENDBRANCH  13  14
ENDBRANCH   6   8
ENDBRANCH   3   4
ENDBRANCH   2   3
ENDBRANCH   1   2
BRANCH   1  64
ATOM     64  C   UNL A   1      37.835  23.752  26.067  1.00  0.00     0.116 C 
BRANCH  64  65
ATOM     65  N   UNL A   1      37.386  23.324  24.726  1.00  0.00    -0.356 N 
ATOM     66  C   UNL A   1      36.257  23.195  23.836  1.00  0.00     0.227 C 
ATOM     67  H   UNL A   1      38.178  22.993  24.243  1.00  0.00     0.163 HD
ATOM     68  O   UNL A   1      37.027  22.807  22.873  1.00  0.00    -0.275 OA
BRANCH  66  69
ATOM     69  C   UNL A   1      34.087  23.466  23.949  1.00  0.00     0.127 C 
ATOM     70  C   UNL A   1      33.025  24.967  23.711  1.00  0.00     0.127 C 
ATOM     71  C   UNL A   1      32.747  22.485  23.447  1.00  0.00     0.155 C 
ATOM     72  C   UNL A   1      31.691  24.383  23.212  1.00  0.00     0.155 C 
ATOM     73  C   UNL A   1      31.650  22.521  24.497  1.00  0.00     0.004 C 
ATOM     74  O   UNL A   1      32.120  23.273  22.410  1.00  0.00    -0.365 OA
ATOM     75  C   UNL A   1      31.010  23.683  24.342  1.00  0.00     0.004 C 
BRANCH  70  76
ATOM     76  C   UNL A   1      33.297  26.211  22.817  1.00  0.00     0.231 C 
ATOM     77  O   UNL A   1      33.593  26.122  21.621  1.00  0.00    -0.274 OA
ATOM     78  N   UNL A   1      33.163  27.488  23.305  1.00  0.00    -0.325 N 
ATOM     79  H   UNL A   1      33.191  28.196  22.621  1.00  0.00     0.169 HD
BRANCH  78  80
ATOM     80  C   UNL A   1      32.994  27.948  24.620  1.00  0.00     0.049 A 
ATOM     81  C   UNL A   1      34.038  27.700  25.524  1.00  0.00     0.027 A 
ATOM     82  C   UNL A   1      31.842  28.604  25.064  1.00  0.00     0.005 A 
ATOM     83  C   UNL A   1      33.995  28.203  26.826  1.00  0.00     0.002 A 
ATOM     84  C   UNL A   1      31.861  29.191  26.348  1.00  0.00     0.011 A 
ATOM     85  C   UNL A   1      32.919  28.979  27.230  1.00  0.00     0.001 A 
BRANCH  82  86
ATOM     86  C   UNL A   1      30.590  28.611  24.286  1.00  0.00    -0.016 A 
ATOM     87  C   UNL A   1      29.618  27.098  24.277  1.00  0.00     0.009 A 
ATOM     88  C   UNL A   1      29.902  30.121  23.461  1.00  0.00     0.009 A 
ATOM     89  C   UNL A   1      27.956  27.120  23.627  1.00  0.00     0.001 A 
ATOM     90  C   UNL A   1      28.273  30.079  22.726  1.00  0.00     0.001 A 
ATOM     91  C   UNL A   1      27.310  28.582  22.818  1.00  0.00     0.000 A 
ENDBRANCH  82  86
ENDBRANCH  78  80
ENDBRANCH  70  76
ENDBRANCH  66  69
ENDBRANCH  64  65
ENDBRANCH   1  64
TORSDOF 14
ENDMDL
MODEL 2
REMARK VINA RESULT:     -12.7      0.278      6.013
REMARK SMILES O=C(NCCCCNC(=O)[C@H]1[C@@H](C(=O)Nc2ccccc2-c2ccccc2)[C@@H]2C=C[C@H]1O2)c1ccc(-c2c3nc(c(-c4c(F)cccc4F)c4ccc([nH]4)c(-c4c(F)cccc4F)c4nc(c(-c5c(F)cccc5F)c5ccc2[nH]5)C=C4)C=C3)cc1
REMARK SMILES IDX 6 1 5 2 4 3 3 4 1 5 2 6 33 8 34 9 86 10 35 11 85 12 36 13
REMARK SMILES IDX 37 14 38 15 79 16 39 17 84 18 78 19 80 20 40 21 83 22 77 23
REMARK SMILES IDX 76 24 41 26 67 27 50 28 66 29 51 30 54 31 65 32 81 33 52 34
REMARK SMILES IDX 53 35 64 37 82 38 55 39 42 40 43 41 48 42 44 43 45 44 47 45
REMARK SMILES IDX 49 46 46 47 68 48 69 49 74 50 70 51 71 52 73 53 75 54 72 55
REMARK SMILES IDX 56 56 57 57 62 58 58 59 59 60 61 61 63 62 60 63 7 64 8 65
REMARK SMILES IDX 9 66 10 68 11 69 12 70 31 71 28 72 30 73 32 74 29 75 13 76
REMARK SMILES IDX 14 77 15 78 16 80 17 81 21 82 18 83 20 84 19 85 22 86 23 87
REMARK SMILES IDX 27 88 24 89 26 90 25 91
REMARK H PARENT 3 7 80 25 54 36 8 67 15 79
REMARK Flexibility Score: inf
ROOT
ATOM      1  C   UNL A   1      39.102  23.119  26.508  1.00  0.00     0.023 C 
ENDROOT
BRANCH   1   2
ATOM      2  C   UNL A   1      39.246  21.715  25.951  1.00  0.00     0.023 C 
BRANCH   2   3
ATOM      3  C   UNL A   1      40.056  20.810  26.870  1.00  0.00     0.116 C 
BRANCH   3   4
ATOM      4  N   UNL A   1      40.953  19.892  26.168  1.00  0.00    -0.352 N 
ATOM      5  O   UNL A   1      42.854  19.166  25.153  1.00  0.00    -0.269 OA
ATOM      6  C   UNL A   1      42.270  20.036  25.788  1.00  0.00     0.251 C 
ATOM      7  H   UNL A   1      40.549  19.027  25.928  1.00  0.00     0.163 HD
BRANCH   6   8
ATOM      8  C   UNL A   1      42.937  21.301  26.127  1.00  0.00     0.039 A 
ATOM      9  C   UNL A   1      43.243  21.521  27.460  1.00  0.00     0.014 A 
ATOM     10  C   UNL A   1      43.030  22.330  25.188  1.00  0.00     0.014 A 
ATOM     11  C   UNL A   1      43.256  22.822  27.909  1.00  0.00     0.010 A 
ATOM     12  C   UNL A   1      43.318  23.624  25.630  1.00  0.00     0.010 A 
ATOM     13  C   UNL A   1      43.374  23.890  27.005  1.00  0.00    -0.014 A 
BRANCH  13  14
ATOM     14  C   UNL A   1      43.669  25.227  27.577  1.00  0.00     0.031 A 
ATOM     15  C   UNL A   1      45.065  25.761  27.706  1.00  0.00     0.074 A 
ATOM     16  C   UNL A   1      42.605  25.993  27.902  1.00  0.00     0.049 A 
ATOM     17  N   UNL A   1      45.451  26.924  28.168  1.00  0.00    -0.248 NA
ATOM     18  C   UNL A   1      46.174  24.889  27.287  1.00  0.00     0.031 C 
ATOM     19  C   UNL A   1      41.202  25.560  27.825  1.00  0.00     0.029 A 
ATOM     20  N   UNL A   1      42.517  27.296  28.305  1.00  0.00    -0.354 N 
ATOM     21  C   UNL A   1      46.839  26.919  28.115  1.00  0.00     0.074 A 
ATOM     22  C   UNL A   1      47.233  25.622  27.607  1.00  0.00     0.031 C 
ATOM     23  C   UNL A   1      40.400  26.601  28.056  1.00  0.00     0.029 A 
ATOM     24  C   UNL A   1      41.221  27.727  28.458  1.00  0.00     0.049 A 
ATOM     25  H   UNL A   1      43.301  27.867  28.469  1.00  0.00     0.167 HD
ATOM     26  C   UNL A   1      47.695  27.913  28.456  1.00  0.00     0.037 A 
ATOM     27  C   UNL A   1      40.733  28.884  28.933  1.00  0.00     0.037 A 
ATOM     28  C   UNL A   1      47.276  29.196  28.965  1.00  0.00     0.049 A 
ATOM     29  C   UNL A   1      41.711  29.932  29.356  1.00  0.00     0.074 A 
ATOM     30  C   UNL A   1      48.059  30.272  29.345  1.00  0.00     0.029 A 
ATOM     31  N   UNL A   1      45.955  29.577  29.166  1.00  0.00    -0.354 N 
ATOM     32  N   UNL A   1      43.020  29.910  29.299  1.00  0.00    -0.248 NA
ATOM     33  C   UNL A   1      41.144  31.162  29.915  1.00  0.00     0.031 C 
ATOM     34  C   UNL A   1      47.217  31.277  29.832  1.00  0.00     0.029 A 
ATOM     35  C   UNL A   1      45.904  30.862  29.686  1.00  0.00     0.049 A 
ATOM     36  H   UNL A   1      45.169  29.018  28.968  1.00  0.00     0.167 HD
ATOM     37  C   UNL A   1      43.437  31.132  29.801  1.00  0.00     0.074 A 
ATOM     38  C   UNL A   1      42.237  31.882  30.116  1.00  0.00     0.031 C 
ATOM     39  C   UNL A   1      44.698  31.590  29.996  1.00  0.00     0.037 A 
BRANCH  26  40
ATOM     40  C   UNL A   1      49.170  27.652  28.313  1.00  0.00     0.057 A 
ATOM     41  C   UNL A   1      49.869  27.959  27.138  1.00  0.00     0.134 A 
ATOM     42  C   UNL A   1      49.915  27.144  29.387  1.00  0.00     0.134 A 
ATOM     43  F   UNL A   1      49.220  28.440  26.067  1.00  0.00    -0.206 F 
ATOM     44  C   UNL A   1      51.246  27.753  27.030  1.00  0.00     0.040 A 
ATOM     45  C   UNL A   1      51.297  26.963  29.301  1.00  0.00     0.040 A 
ATOM     46  F   UNL A   1      49.315  26.836  30.547  1.00  0.00    -0.206 F 
ATOM     47  C   UNL A   1      51.966  27.262  28.117  1.00  0.00     0.006 A 
ENDBRANCH  26  40
BRANCH  27  48
ATOM     48  C   UNL A   1      39.268  29.063  29.098  1.00  0.00     0.057 A 
ATOM     49  C   UNL A   1      38.459  29.479  28.038  1.00  0.00     0.134 A 
ATOM     50  C   UNL A   1      38.644  28.828  30.332  1.00  0.00     0.134 A 
ATOM     51  F   UNL A   1      38.995  29.723  26.832  1.00  0.00    -0.206 F 
ATOM     52  C   UNL A   1      37.091  29.695  28.207  1.00  0.00     0.040 A 
ATOM     53  C   UNL A   1      37.271  28.995  30.503  1.00  0.00     0.040 A 
ATOM     54  F   UNL A   1      39.358  28.405  31.387  1.00  0.00    -0.206 F 
ATOM     55  C   UNL A   1      36.493  29.448  29.442  1.00  0.00     0.006 A 
ENDBRANCH  27  48
BRANCH  39  56
ATOM     56  C   UNL A   1      44.824  32.985  30.535  1.00  0.00     0.057 A 
ATOM     57  C   UNL A   1      44.897  33.248  31.910  1.00  0.00     0.134 A 
ATOM     58  C   UNL A   1      44.849  34.081  29.665  1.00  0.00     0.134 A 
ATOM     59  F   UNL A   1      44.859  32.243  32.799  1.00  0.00    -0.206 F 
ATOM     60  C   UNL A   1      44.936  34.554  32.401  1.00  0.00     0.040 A 
ATOM     61  C   UNL A   1      44.933  35.389  30.142  1.00  0.00     0.040 A 
ATOM     62  F   UNL A   1      44.793  33.901  28.336  1.00  0.00    -0.206 F 
ATOM     63  C   UNL A   1      44.959  35.629  31.515  1.00  0.00     0.006 A 
ENDBRANCH  39  56
ENDBRANCH  13  14
ENDBRANCH   6   8
ENDBRANCH   3   4
ENDBRANCH   2   3
ENDBRANCH   1   2
BRANCH   1  64
ATOM     64  C   UNL A   1      37.795  23.805  26.107  1.00  0.00     0.116 C 
BRANCH  64  65
ATOM     65  N   UNL A   1      37.352  23.409  24.755  1.00  0.00    -0.356 N 
ATOM     66  C   UNL A   1      36.225  23.294  23.860  1.00  0.00     0.227 C 
ATOM     67  H   UNL A   1      38.147  23.097  24.265  1.00  0.00     0.163 HD
ATOM     68  O   UNL A   1      37.000  22.938  22.888  1.00  0.00    -0.275 OA
BRANCH  66  69
ATOM     69  C   UNL A   1      34.053  23.544  23.975  1.00  0.00     0.127 C 
ATOM     70  C   UNL A   1      32.976  25.031  23.725  1.00  0.00     0.127 C 
ATOM     71  C   UNL A   1      32.722  22.545  23.486  1.00  0.00     0.155 C 
ATOM     72  C   UNL A   1      31.646  24.430  23.235  1.00  0.00     0.155 C 
ATOM     73  C   UNL A   1      31.627  22.580  24.537  1.00  0.00     0.004 C 
ATOM     74  O   UNL A   1      32.085  23.317  22.443  1.00  0.00    -0.365 OA
ATOM     75  C   UNL A   1      30.975  23.734  24.373  1.00  0.00     0.004 C 
BRANCH  70  76
ATOM     76  C   UNL A   1      33.233  26.270  22.819  1.00  0.00     0.231 C 
ATOM     77  O   UNL A   1      33.495  26.173  21.615  1.00  0.00    -0.274 OA
ATOM     78  N   UNL A   1      33.122  27.550  23.305  1.00  0.00    -0.325 N 
ATOM     79  H   UNL A   1      33.137  28.255  22.618  1.00  0.00     0.169 HD
BRANCH  78  80
ATOM     80  C   UNL A   1      32.992  28.017  24.622  1.00  0.00     0.049 A 
ATOM     81  C   UNL A   1      34.057  27.762  25.499  1.00  0.00     0.027 A 
ATOM     82  C   UNL A   1      31.859  28.686  25.093  1.00  0.00     0.005 A 
ATOM     83  C   UNL A   1      34.053  28.269  26.800  1.00  0.00     0.002 A 
ATOM     84  C   UNL A   1      31.918  29.278  26.374  1.00  0.00     0.011 A 
ATOM     85  C   UNL A   1      32.996  29.058  27.229  1.00  0.00     0.001 A 
BRANCH  82  86
ATOM     86  C   UNL A   1      30.587  28.703  24.348  1.00  0.00    -0.016 A 
ATOM     87  C   UNL A   1      29.665  27.162  24.258  1.00  0.00     0.009 A 
ATOM     88  C   UNL A   1      29.828  30.241  23.647  1.00  0.00     0.009 A 
ATOM     89  C   UNL A   1      27.987  27.171  23.652  1.00  0.00     0.001 A 
ATOM     90  C   UNL A   1      28.183  30.194  22.951  1.00  0.00     0.001 A 
ATOM     91  C   UNL A   1      27.272  28.662  22.962  1.00  0.00     0.000 A 
ENDBRANCH  82  86
ENDBRANCH  78  80
ENDBRANCH  70  76
ENDBRANCH  66  69
ENDBRANCH  64  65
ENDBRANCH   1  64
TORSDOF 14
ENDMDL
MODEL 3
REMARK VINA RESULT:     -12.5      4.298      6.148
REMARK SMILES O=C(NCCCCNC(=O)[C@H]1[C@@H](C(=O)Nc2ccccc2-c2ccccc2)[C@@H]2C=C[C@H]1O2)c1ccc(-c2c3nc(c(-c4c(F)cccc4F)c4ccc([nH]4)c(-c4c(F)cccc4F)c4nc(c(-c5c(F)cccc5F)c5ccc2[nH]5)C=C4)C=C3)cc1
REMARK SMILES IDX 6 1 5 2 4 3 3 4 1 5 2 6 33 8 34 9 86 10 35 11 85 12 36 13
REMARK SMILES IDX 37 14 38 15 79 16 39 17 84 18 78 19 80 20 40 21 83 22 77 23
REMARK SMILES IDX 76 24 41 26 67 27 50 28 66 29 51 30 54 31 65 32 81 33 52 34
REMARK SMILES IDX 53 35 64 37 82 38 55 39 42 40 43 41 48 42 44 43 45 44 47 45
REMARK SMILES IDX 49 46 46 47 68 48 69 49 74 50 70 51 71 52 73 53 75 54 72 55
REMARK SMILES IDX 56 56 57 57 62 58 58 59 59 60 61 61 63 62 60 63 7 64 8 65
REMARK SMILES IDX 9 66 10 68 11 69 12 70 31 71 28 72 30 73 32 74 29 75 13 76
REMARK SMILES IDX 14 77 15 78 16 80 17 81 21 82 18 83 20 84 19 85 22 86 23 87
REMARK SMILES IDX 27 88 24 89 26 90 25 91
REMARK H PARENT 3 7 80 25 54 36 8 67 15 79
REMARK Flexibility Score: inf
ROOT
ATOM      1  C   UNL A   1      38.700  21.475  25.730  1.00  0.00     0.023 C 
ENDROOT
BRANCH   1   2
ATOM      2  C   UNL A   1      38.569  22.910  26.201  1.00  0.00     0.023 C 
BRANCH   2   3
ATOM      3  C   UNL A   1      39.828  23.406  26.900  1.00  0.00     0.116 C 
BRANCH   3   4
ATOM      4  N   UNL A   1      40.792  24.051  26.010  1.00  0.00    -0.352 N 
ATOM      5  O   UNL A   1      41.995  25.738  25.071  1.00  0.00    -0.269 OA
ATOM      6  C   UNL A   1      41.202  25.365  25.927  1.00  0.00     0.251 C 
ATOM      7  H   UNL A   1      41.221  23.446  25.362  1.00  0.00     0.163 HD
BRANCH   6   8
ATOM      8  C   UNL A   1      40.608  26.318  26.875  1.00  0.00     0.039 A 
ATOM      9  C   UNL A   1      40.988  27.645  26.764  1.00  0.00     0.014 A 
ATOM     10  C   UNL A   1      39.891  25.865  27.984  1.00  0.00     0.014 A 
ATOM     11  C   UNL A   1      40.998  28.408  27.910  1.00  0.00     0.010 A 
ATOM     12  C   UNL A   1      39.666  26.743  29.047  1.00  0.00     0.010 A 
ATOM     13  C   UNL A   1      40.271  28.007  29.043  1.00  0.00    -0.014 A 
BRANCH  13  14
ATOM     14  C   UNL A   1      40.099  29.010  30.122  1.00  0.00     0.031 A 
ATOM     15  C   UNL A   1      39.039  30.071  30.077  1.00  0.00     0.074 A 
ATOM     16  C   UNL A   1      40.892  28.873  31.207  1.00  0.00     0.049 A 
ATOM     17  N   UNL A   1      38.773  30.992  30.971  1.00  0.00    -0.248 NA
ATOM     18  C   UNL A   1      38.180  30.132  28.885  1.00  0.00     0.031 C 
ATOM     19  C   UNL A   1      41.965  27.877  31.343  1.00  0.00     0.029 A 
ATOM     20  N   UNL A   1      40.897  29.517  32.412  1.00  0.00    -0.354 N 
ATOM     21  C   UNL A   1      37.734  31.749  30.445  1.00  0.00     0.074 A 
ATOM     22  C   UNL A   1      37.438  31.204  29.137  1.00  0.00     0.031 C 
ATOM     23  C   UNL A   1      42.440  27.901  32.590  1.00  0.00     0.029 A 
ATOM     24  C   UNL A   1      41.829  29.016  33.288  1.00  0.00     0.049 A 
ATOM     25  H   UNL A   1      40.294  30.263  32.631  1.00  0.00     0.167 HD
ATOM     26  C   UNL A   1      37.090  32.798  31.013  1.00  0.00     0.037 A 
ATOM     27  C   UNL A   1      42.205  29.440  34.505  1.00  0.00     0.037 A 
ATOM     28  C   UNL A   1      37.407  33.326  32.318  1.00  0.00     0.049 A 
ATOM     29  C   UNL A   1      41.513  30.637  35.071  1.00  0.00     0.074 A 
ATOM     30  C   UNL A   1      36.821  34.387  32.986  1.00  0.00     0.029 A 
ATOM     31  N   UNL A   1      38.401  32.832  33.154  1.00  0.00    -0.354 N 
ATOM     32  N   UNL A   1      40.533  31.342  34.560  1.00  0.00    -0.248 NA
ATOM     33  C   UNL A   1      41.982  31.103  36.378  1.00  0.00     0.031 C 
ATOM     34  C   UNL A   1      37.499  34.572  34.195  1.00  0.00     0.029 A 
ATOM     35  C   UNL A   1      38.458  33.580  34.319  1.00  0.00     0.049 A 
ATOM     36  H   UNL A   1      38.980  32.061  32.949  1.00  0.00     0.167 HD
ATOM     37  C   UNL A   1      40.254  32.328  35.492  1.00  0.00     0.074 A 
ATOM     38  C   UNL A   1      41.143  32.099  36.615  1.00  0.00     0.031 C 
ATOM     39  C   UNL A   1      39.354  33.339  35.423  1.00  0.00     0.037 A 
BRANCH  26  40
ATOM     40  C   UNL A   1      35.993  33.461  30.225  1.00  0.00     0.057 A 
ATOM     41  C   UNL A   1      36.263  34.318  29.150  1.00  0.00     0.134 A 
ATOM     42  C   UNL A   1      34.646  33.191  30.505  1.00  0.00     0.134 A 
ATOM     43  F   UNL A   1      37.528  34.629  28.829  1.00  0.00    -0.206 F 
ATOM     44  C   UNL A   1      35.237  34.895  28.397  1.00  0.00     0.040 A 
ATOM     45  C   UNL A   1      33.613  33.737  29.741  1.00  0.00     0.040 A 
ATOM     46  F   UNL A   1      34.310  32.372  31.514  1.00  0.00    -0.206 F 
ATOM     47  C   UNL A   1      33.907  34.598  28.685  1.00  0.00     0.006 A 
ENDBRANCH  26  40
BRANCH  27  48
ATOM     48  C   UNL A   1      43.330  28.775  35.211  1.00  0.00     0.057 A 
ATOM     49  C   UNL A   1      43.107  27.771  36.157  1.00  0.00     0.134 A 
ATOM     50  C   UNL A   1      44.660  29.140  34.960  1.00  0.00     0.134 A 
ATOM     51  F   UNL A   1      41.857  27.378  36.445  1.00  0.00    -0.206 F 
ATOM     52  C   UNL A   1      44.161  27.182  36.856  1.00  0.00     0.040 A 
ATOM     53  C   UNL A   1      45.725  28.528  35.618  1.00  0.00     0.040 A 
ATOM     54  F   UNL A   1      44.948  30.082  34.049  1.00  0.00    -0.206 F 
ATOM     55  C   UNL A   1      45.475  27.557  36.583  1.00  0.00     0.006 A 
ENDBRANCH  27  48
BRANCH  39  56
ATOM     56  C   UNL A   1      39.269  34.237  36.623  1.00  0.00     0.057 A 
ATOM     57  C   UNL A   1      39.929  35.472  36.677  1.00  0.00     0.134 A 
ATOM     58  C   UNL A   1      38.533  33.848  37.749  1.00  0.00     0.134 A 
ATOM     59  F   UNL A   1      40.667  35.896  35.639  1.00  0.00    -0.206 F 
ATOM     60  C   UNL A   1      39.905  36.262  37.827  1.00  0.00     0.040 A 
ATOM     61  C   UNL A   1      38.465  34.650  38.887  1.00  0.00     0.040 A 
ATOM     62  F   UNL A   1      37.868  32.683  37.762  1.00  0.00    -0.206 F 
ATOM     63  C   UNL A   1      39.166  35.853  38.935  1.00  0.00     0.006 A 
ENDBRANCH  39  56
ENDBRANCH  13  14
ENDBRANCH   6   8
ENDBRANCH   3   4
ENDBRANCH   2   3
ENDBRANCH   1   2
BRANCH   1  64
ATOM     64  C   UNL A   1      37.457  20.953  25.005  1.00  0.00     0.116 C 
BRANCH  64  65
ATOM     65  N   UNL A   1      36.988  21.889  23.963  1.00  0.00    -0.356 N 
ATOM     66  C   UNL A   1      35.954  22.820  23.581  1.00  0.00     0.227 C 
ATOM     67  H   UNL A   1      37.649  21.870  23.233  1.00  0.00     0.163 HD
ATOM     68  O   UNL A   1      36.610  23.153  22.518  1.00  0.00    -0.275 OA
BRANCH  66  69
ATOM     69  C   UNL A   1      34.012  23.468  24.358  1.00  0.00     0.127 C 
ATOM     70  C   UNL A   1      33.129  25.094  24.250  1.00  0.00     0.127 C 
ATOM     71  C   UNL A   1      32.470  22.683  24.487  1.00  0.00     0.155 C 
ATOM     72  C   UNL A   1      31.643  24.698  24.317  1.00  0.00     0.155 C 
ATOM     73  C   UNL A   1      31.823  23.016  25.820  1.00  0.00     0.004 C 
ATOM     74  O   UNL A   1      31.623  23.452  23.604  1.00  0.00    -0.365 OA
ATOM     75  C   UNL A   1      31.319  24.247  25.703  1.00  0.00     0.004 C 
BRANCH  70  76
ATOM     76  C   UNL A   1      33.223  26.172  23.132  1.00  0.00     0.231 C 
ATOM     77  O   UNL A   1      33.407  25.888  21.944  1.00  0.00    -0.274 OA
ATOM     78  N   UNL A   1      33.046  27.507  23.406  1.00  0.00    -0.325 N 
ATOM     79  H   UNL A   1      32.957  28.082  22.612  1.00  0.00     0.169 HD
BRANCH  78  80
ATOM     80  C   UNL A   1      32.972  28.183  24.632  1.00  0.00     0.049 A 
ATOM     81  C   UNL A   1      34.041  28.008  25.525  1.00  0.00     0.027 A 
ATOM     82  C   UNL A   1      31.890  28.985  25.006  1.00  0.00     0.005 A 
ATOM     83  C   UNL A   1      34.095  28.715  26.728  1.00  0.00     0.002 A 
ATOM     84  C   UNL A   1      32.011  29.768  26.175  1.00  0.00     0.011 A 
ATOM     85  C   UNL A   1      33.095  29.623  27.040  1.00  0.00     0.001 A 
BRANCH  82  86
ATOM     86  C   UNL A   1      30.604  28.959  24.285  1.00  0.00    -0.016 A 
ATOM     87  C   UNL A   1      29.776  27.370  24.137  1.00  0.00     0.009 A 
ATOM     88  C   UNL A   1      29.740  30.479  23.673  1.00  0.00     0.009 A 
ATOM     89  C   UNL A   1      28.088  27.305  23.561  1.00  0.00     0.001 A 
ATOM     90  C   UNL A   1      28.087  30.364  23.003  1.00  0.00     0.001 A 
ATOM     91  C   UNL A   1      27.270  28.780  22.956  1.00  0.00     0.000 A 
ENDBRANCH  82  86
ENDBRANCH  78  80
ENDBRANCH  70  76
ENDBRANCH  66  69
ENDBRANCH  64  65
ENDBRANCH   1  64
TORSDOF 14
ENDMDL
