MODEL 1
REMARK VINA RESULT:     -10.3      0.000      0.000
REMARK SMILES Cc1csc(CSCC[C@H]([NH3+])C(=O)NCCCCNC(=O)c2ccc(-c3c4nc(c(-c5c(F)cccc5F)c5ccc([nH]5)c(-c5c(F)cccc5F)c5nc(c(-c6c(F)cccc6F)c6ccc3[nH]6)C=C5)C=C4)cc2)n1
REMARK SMILES IDX 15 1 14 2 12 3 13 4 10 6 9 7 8 8 7 9 6 10 5 11 1 12 2 13
REMARK SMILES IDX 3 14 76 15 4 16 11 17 16 21 17 22 18 23 19 24 20 25 21 27
REMARK SMILES IDX 22 28 23 29 75 30 24 31 74 32 25 33 26 34 27 35 68 36 28 37
REMARK SMILES IDX 73 38 67 39 69 40 29 41 72 42 66 43 65 44 30 46 56 47 39 48
REMARK SMILES IDX 55 49 40 50 43 51 54 52 70 53 41 54 42 55 53 57 71 58 44 59
REMARK SMILES IDX 31 60 32 61 37 62 33 63 34 64 36 65 38 66 35 67 57 68 58 69
REMARK SMILES IDX 63 70 59 71 60 72 62 73 64 74 61 75 45 76 46 77 51 78 47 79
REMARK SMILES IDX 48 80 50 81 52 82 49 83
REMARK H PARENT 14 5 11 18 11 19 11 20 19 26 69 45 43 56
REMARK Flexibility Score: inf
ROOT
ATOM      1  C   UNL A   1      35.597  20.059  24.997  1.00  0.00     0.116 C 
ENDROOT
BRANCH   1   2
ATOM      2  N   UNL A   1      35.546  18.628  24.751  1.00  0.00    -0.351 N 
ATOM      3  C   UNL A   1      34.505  17.760  24.618  1.00  0.00     0.278 C 
ATOM      4  O   UNL A   1      34.784  16.605  24.277  1.00  0.00    -0.268 OA
ATOM      5  H   UNL A   1      36.431  18.205  24.664  1.00  0.00     0.163 HD
BRANCH   3   6
ATOM      6  C   UNL A   1      33.037  18.130  24.905  1.00  0.00     0.271 C 
BRANCH   6   7
ATOM      7  C   UNL A   1      32.282  19.078  23.952  1.00  0.00     0.086 C 
BRANCH   7   8
ATOM      8  C   UNL A   1      32.256  20.583  24.221  1.00  0.00     0.076 C 
BRANCH   8   9
ATOM      9  S   UNL A   1      32.256  21.631  22.729  1.00  0.00    -0.154 SA
BRANCH   9  10
ATOM     10  C   UNL A   1      31.809  23.256  23.422  1.00  0.00     0.137 C 
BRANCH  10  11
ATOM     11  C   UNL A   1      32.898  23.971  24.172  1.00  0.00     0.103 A 
ATOM     12  C   UNL A   1      36.191  24.076  25.601  1.00  0.00     0.067 C 
ATOM     13  C   UNL A   1      34.818  24.423  25.181  1.00  0.00     0.049 A 
ATOM     14  C   UNL A   1      34.123  25.558  25.541  1.00  0.00     0.090 A 
ATOM     15  N   UNL A   1      34.135  23.550  24.358  1.00  0.00    -0.246 NA
ATOM     16  S   UNL A   1      32.525  25.469  24.948  1.00  0.00    -0.126 S 
ENDBRANCH  10  11
ENDBRANCH   9  10
ENDBRANCH   8   9
ENDBRANCH   7   8
ENDBRANCH   6   7
BRANCH   6  17
ATOM     17  N   UNL A   1      32.853  18.494  26.328  1.00  0.00    -0.347 N 
ATOM     18  H   UNL A   1      32.911  19.509  26.429  1.00  0.00     0.345 HD
ATOM     19  H   UNL A   1      33.584  18.055  26.888  1.00  0.00     0.345 HD
ATOM     20  H   UNL A   1      31.940  18.172  26.646  1.00  0.00     0.345 HD
ENDBRANCH   6  17
ENDBRANCH   3   6
ENDBRANCH   1   2
BRANCH   1  21
ATOM     21  C   UNL A   1      37.023  20.610  24.958  1.00  0.00     0.023 C 
BRANCH  21  22
ATOM     22  C   UNL A   1      38.135  19.550  24.978  1.00  0.00     0.023 C 
BRANCH  22  23
ATOM     23  C   UNL A   1      39.409  19.924  25.746  1.00  0.00     0.116 C 
BRANCH  23  24
ATOM     24  N   UNL A   1      40.399  18.861  25.787  1.00  0.00    -0.352 N 
ATOM     25  C   UNL A   1      41.750  18.938  26.058  1.00  0.00     0.251 C 
ATOM     26  H   UNL A   1      40.059  17.957  25.594  1.00  0.00     0.163 HD
ATOM     27  O   UNL A   1      42.453  17.937  26.002  1.00  0.00    -0.269 OA
BRANCH  25  28
ATOM     28  C   UNL A   1      42.362  20.243  26.394  1.00  0.00     0.039 A 
ATOM     29  C   UNL A   1      43.073  20.944  25.424  1.00  0.00     0.014 A 
ATOM     30  C   UNL A   1      42.243  20.774  27.675  1.00  0.00     0.014 A 
ATOM     31  C   UNL A   1      43.586  22.215  25.722  1.00  0.00     0.010 A 
ATOM     32  C   UNL A   1      42.671  22.080  27.942  1.00  0.00     0.010 A 
ATOM     33  C   UNL A   1      43.342  22.833  26.966  1.00  0.00    -0.014 A 
BRANCH  33  34
ATOM     34  C   UNL A   1      43.740  24.260  27.204  1.00  0.00     0.031 A 
ATOM     35  C   UNL A   1      42.751  25.316  27.643  1.00  0.00     0.074 A 
ATOM     36  C   UNL A   1      45.015  24.645  26.971  1.00  0.00     0.049 A 
ATOM     37  N   UNL A   1      42.957  26.588  27.898  1.00  0.00    -0.248 NA
ATOM     38  C   UNL A   1      41.345  24.911  27.773  1.00  0.00     0.031 C 
ATOM     39  C   UNL A   1      46.073  23.790  26.431  1.00  0.00     0.029 A 
ATOM     40  N   UNL A   1      45.642  25.856  27.162  1.00  0.00    -0.354 N 
ATOM     41  C   UNL A   1      41.711  27.134  28.182  1.00  0.00     0.074 A 
ATOM     42  C   UNL A   1      40.746  26.069  28.013  1.00  0.00     0.031 C 
ATOM     43  C   UNL A   1      47.224  24.476  26.395  1.00  0.00     0.029 A 
ATOM     44  C   UNL A   1      46.985  25.837  26.870  1.00  0.00     0.049 A 
ATOM     45  H   UNL A   1      45.172  26.660  27.480  1.00  0.00     0.167 HD
ATOM     46  C   UNL A   1      41.392  28.393  28.581  1.00  0.00     0.037 A 
ATOM     47  C   UNL A   1      47.932  26.791  26.975  1.00  0.00     0.037 A 
ATOM     48  C   UNL A   1      42.343  29.449  28.817  1.00  0.00     0.049 A 
ATOM     49  C   UNL A   1      47.574  28.151  27.502  1.00  0.00     0.074 A 
ATOM     50  C   UNL A   1      42.114  30.716  29.331  1.00  0.00     0.029 A 
ATOM     51  N   UNL A   1      43.701  29.367  28.559  1.00  0.00    -0.354 N 
ATOM     52  N   UNL A   1      46.405  28.612  27.871  1.00  0.00    -0.248 NA
ATOM     53  C   UNL A   1      48.672  29.122  27.636  1.00  0.00     0.031 C 
ATOM     54  C   UNL A   1      43.328  31.413  29.350  1.00  0.00     0.029 A 
ATOM     55  C   UNL A   1      44.319  30.565  28.888  1.00  0.00     0.049 A 
ATOM     56  H   UNL A   1      44.161  28.575  28.196  1.00  0.00     0.167 HD
ATOM     57  C   UNL A   1      46.628  29.917  28.295  1.00  0.00     0.074 A 
ATOM     58  C   UNL A   1      48.046  30.168  28.157  1.00  0.00     0.031 C 
ATOM     59  C   UNL A   1      45.730  30.822  28.753  1.00  0.00     0.037 A 
BRANCH  46  60
ATOM     60  C   UNL A   1      39.938  28.699  28.816  1.00  0.00     0.057 A 
ATOM     61  C   UNL A   1      39.343  28.534  30.076  1.00  0.00     0.134 A 
ATOM     62  C   UNL A   1      39.135  29.208  27.787  1.00  0.00     0.134 A 
ATOM     63  F   UNL A   1      40.054  28.049  31.105  1.00  0.00    -0.206 F 
ATOM     64  C   UNL A   1      37.995  28.826  30.292  1.00  0.00     0.040 A 
ATOM     65  C   UNL A   1      37.793  29.534  28.000  1.00  0.00     0.040 A 
ATOM     66  F   UNL A   1      39.643  29.410  26.562  1.00  0.00    -0.206 F 
ATOM     67  C   UNL A   1      37.217  29.333  29.252  1.00  0.00     0.006 A 
ENDBRANCH  46  60
BRANCH  47  68
ATOM     68  C   UNL A   1      49.334  26.474  26.607  1.00  0.00     0.057 A 
ATOM     69  C   UNL A   1      49.840  26.800  25.344  1.00  0.00     0.134 A 
ATOM     70  C   UNL A   1      50.202  25.848  27.510  1.00  0.00     0.134 A 
ATOM     71  F   UNL A   1      49.049  27.384  24.431  1.00  0.00    -0.206 F 
ATOM     72  C   UNL A   1      51.156  26.505  24.985  1.00  0.00     0.040 A 
ATOM     73  C   UNL A   1      51.527  25.570  27.172  1.00  0.00     0.040 A 
ATOM     74  F   UNL A   1      49.779  25.520  28.739  1.00  0.00    -0.206 F 
ATOM     75  C   UNL A   1      52.005  25.893  25.904  1.00  0.00     0.006 A 
ENDBRANCH  47  68
BRANCH  59  76
ATOM     76  C   UNL A   1      46.252  32.168  29.162  1.00  0.00     0.057 A 
ATOM     77  C   UNL A   1      46.314  33.241  28.264  1.00  0.00     0.134 A 
ATOM     78  C   UNL A   1      46.665  32.405  30.479  1.00  0.00     0.134 A 
ATOM     79  F   UNL A   1      45.947  33.078  26.984  1.00  0.00    -0.206 F 
ATOM     80  C   UNL A   1      46.789  34.495  28.655  1.00  0.00     0.040 A 
ATOM     81  C   UNL A   1      47.119  33.660  30.888  1.00  0.00     0.040 A 
ATOM     82  F   UNL A   1      46.627  31.423  31.393  1.00  0.00    -0.206 F 
ATOM     83  C   UNL A   1      47.187  34.709  29.974  1.00  0.00     0.006 A 
ENDBRANCH  59  76
ENDBRANCH  33  34
ENDBRANCH  25  28
ENDBRANCH  23  24
ENDBRANCH  22  23
ENDBRANCH  21  22
ENDBRANCH   1  21
TORSDOF 17
ENDMDL
MODEL 2
REMARK VINA RESULT:     -10.3      5.109      7.275
REMARK SMILES Cc1csc(CSCC[C@H]([NH3+])C(=O)NCCCCNC(=O)c2ccc(-c3c4nc(c(-c5c(F)cccc5F)c5ccc([nH]5)c(-c5c(F)cccc5F)c5nc(c(-c6c(F)cccc6F)c6ccc3[nH]6)C=C5)C=C4)cc2)n1
REMARK SMILES IDX 15 1 14 2 12 3 13 4 10 6 9 7 8 8 7 9 6 10 5 11 1 12 2 13
REMARK SMILES IDX 3 14 76 15 4 16 11 17 16 21 17 22 18 23 19 24 20 25 21 27
REMARK SMILES IDX 22 28 23 29 75 30 24 31 74 32 25 33 26 34 27 35 68 36 28 37
REMARK SMILES IDX 73 38 67 39 69 40 29 41 72 42 66 43 65 44 30 46 56 47 39 48
REMARK SMILES IDX 55 49 40 50 43 51 54 52 70 53 41 54 42 55 53 57 71 58 44 59
REMARK SMILES IDX 31 60 32 61 37 62 33 63 34 64 36 65 38 66 35 67 57 68 58 69
REMARK SMILES IDX 63 70 59 71 60 72 62 73 64 74 61 75 45 76 46 77 51 78 47 79
REMARK SMILES IDX 48 80 50 81 52 82 49 83
REMARK H PARENT 14 5 11 18 11 19 11 20 19 26 69 45 43 56
REMARK Flexibility Score: inf
ROOT
ATOM      1  C   UNL A   1      35.960  21.345  25.417  1.00  0.00     0.116 C 
ENDROOT
BRANCH   1   2
ATOM      2  N   UNL A   1      35.521  20.048  24.930  1.00  0.00    -0.351 N 
ATOM      3  C   UNL A   1      34.295  19.461  24.873  1.00  0.00     0.278 C 
ATOM      4  O   UNL A   1      34.222  18.383  24.272  1.00  0.00    -0.268 OA
ATOM      5  H   UNL A   1      36.249  19.489  24.573  1.00  0.00     0.163 HD
BRANCH   3   6
ATOM      6  C   UNL A   1      33.033  20.041  25.540  1.00  0.00     0.271 C 
BRANCH   6   7
ATOM      7  C   UNL A   1      32.213  21.130  24.819  1.00  0.00     0.086 C 
BRANCH   7   8
ATOM      8  C   UNL A   1      32.725  21.747  23.517  1.00  0.00     0.076 C 
BRANCH   8   9
ATOM      9  S   UNL A   1      32.957  23.555  23.562  1.00  0.00    -0.154 SA
BRANCH   9  10
ATOM     10  C   UNL A   1      32.007  24.009  25.050  1.00  0.00     0.137 C 
BRANCH  10  11
ATOM     11  C   UNL A   1      32.354  25.333  25.670  1.00  0.00     0.103 A 
ATOM     12  C   UNL A   1      31.512  28.177  27.696  1.00  0.00     0.067 C 
ATOM     13  C   UNL A   1      32.220  27.226  26.814  1.00  0.00     0.049 A 
ATOM     14  C   UNL A   1      33.438  27.439  26.204  1.00  0.00     0.090 A 
ATOM     15  N   UNL A   1      31.634  26.004  26.550  1.00  0.00    -0.246 NA
ATOM     16  S   UNL A   1      33.798  26.135  25.163  1.00  0.00    -0.126 S 
ENDBRANCH  10  11
ENDBRANCH   9  10
ENDBRANCH   8   9
ENDBRANCH   7   8
ENDBRANCH   6   7
BRANCH   6  17
ATOM     17  N   UNL A   1      33.293  20.375  26.958  1.00  0.00    -0.347 N 
ATOM     18  H   UNL A   1      32.885  19.656  27.557  1.00  0.00     0.345 HD
ATOM     19  H   UNL A   1      32.872  21.278  27.177  1.00  0.00     0.345 HD
ATOM     20  H   UNL A   1      34.298  20.421  27.118  1.00  0.00     0.345 HD
ENDBRANCH   6  17
ENDBRANCH   3   6
ENDBRANCH   1   2
BRANCH   1  21
ATOM     21  C   UNL A   1      36.407  22.275  24.289  1.00  0.00     0.023 C 
BRANCH  21  22
ATOM     22  C   UNL A   1      36.928  23.648  24.741  1.00  0.00     0.023 C 
BRANCH  22  23
ATOM     23  C   UNL A   1      37.679  23.677  26.078  1.00  0.00     0.116 C 
BRANCH  23  24
ATOM     24  N   UNL A   1      39.082  23.314  25.968  1.00  0.00    -0.352 N 
ATOM     25  C   UNL A   1      40.189  23.936  26.508  1.00  0.00     0.251 C 
ATOM     26  H   UNL A   1      39.270  22.509  25.433  1.00  0.00     0.163 HD
ATOM     27  O   UNL A   1      41.315  23.517  26.271  1.00  0.00    -0.269 OA
BRANCH  25  28
ATOM     28  C   UNL A   1      40.020  25.137  27.357  1.00  0.00     0.039 A 
ATOM     29  C   UNL A   1      39.290  25.053  28.539  1.00  0.00     0.014 A 
ATOM     30  C   UNL A   1      40.578  26.355  26.980  1.00  0.00     0.014 A 
ATOM     31  C   UNL A   1      39.197  26.171  29.379  1.00  0.00     0.010 A 
ATOM     32  C   UNL A   1      40.565  27.442  27.864  1.00  0.00     0.010 A 
ATOM     33  C   UNL A   1      39.884  27.368  29.088  1.00  0.00    -0.014 A 
BRANCH  33  34
ATOM     34  C   UNL A   1      39.922  28.491  30.083  1.00  0.00     0.031 A 
ATOM     35  C   UNL A   1      38.917  29.620  30.071  1.00  0.00     0.074 A 
ATOM     36  C   UNL A   1      40.916  28.538  30.998  1.00  0.00     0.049 A 
ATOM     37  N   UNL A   1      38.822  30.653  30.879  1.00  0.00    -0.248 NA
ATOM     38  C   UNL A   1      37.917  29.622  28.995  1.00  0.00     0.031 C 
ATOM     39  C   UNL A   1      42.038  27.600  31.080  1.00  0.00     0.029 A 
ATOM     40  N   UNL A   1      41.144  29.409  32.039  1.00  0.00    -0.354 N 
ATOM     41  C   UNL A   1      37.781  31.434  30.390  1.00  0.00     0.074 A 
ATOM     42  C   UNL A   1      37.313  30.788  29.183  1.00  0.00     0.031 C 
ATOM     43  C   UNL A   1      42.793  27.904  32.145  1.00  0.00     0.029 A 
ATOM     44  C   UNL A   1      42.239  29.084  32.805  1.00  0.00     0.049 A 
ATOM     45  H   UNL A   1      40.575  30.192  32.220  1.00  0.00     0.167 HD
ATOM     46  C   UNL A   1      37.237  32.565  30.907  1.00  0.00     0.037 A 
ATOM     47  C   UNL A   1      42.748  29.652  33.916  1.00  0.00     0.037 A 
ATOM     48  C   UNL A   1      37.646  33.189  32.140  1.00  0.00     0.049 A 
ATOM     49  C   UNL A   1      42.078  30.852  34.523  1.00  0.00     0.074 A 
ATOM     50  C   UNL A   1      37.072  34.269  32.792  1.00  0.00     0.029 A 
ATOM     51  N   UNL A   1      38.727  32.792  32.911  1.00  0.00    -0.354 N 
ATOM     52  N   UNL A   1      41.026  31.509  34.103  1.00  0.00    -0.248 NA
ATOM     53  C   UNL A   1      42.662  31.383  35.764  1.00  0.00     0.031 C 
ATOM     54  C   UNL A   1      37.827  34.548  33.937  1.00  0.00     0.029 A 
ATOM     55  C   UNL A   1      38.845  33.615  34.021  1.00  0.00     0.049 A 
ATOM     56  H   UNL A   1      39.322  32.036  32.702  1.00  0.00     0.167 HD
ATOM     57  C   UNL A   1      40.812  32.518  35.035  1.00  0.00     0.074 A 
ATOM     58  C   UNL A   1      41.831  32.374  36.052  1.00  0.00     0.031 C 
ATOM     59  C   UNL A   1      39.856  33.478  35.037  1.00  0.00     0.037 A 
BRANCH  46  60
ATOM     60  C   UNL A   1      36.105  33.201  30.147  1.00  0.00     0.057 A 
ATOM     61  C   UNL A   1      34.770  33.057  30.551  1.00  0.00     0.134 A 
ATOM     62  C   UNL A   1      36.355  34.006  29.027  1.00  0.00     0.134 A 
ATOM     63  F   UNL A   1      34.461  32.299  31.614  1.00  0.00    -0.206 F 
ATOM     64  C   UNL A   1      33.724  33.654  29.847  1.00  0.00     0.040 A 
ATOM     65  C   UNL A   1      35.318  34.636  28.334  1.00  0.00     0.040 A 
ATOM     66  F   UNL A   1      37.609  34.206  28.596  1.00  0.00    -0.206 F 
ATOM     67  C   UNL A   1      33.998  34.452  28.737  1.00  0.00     0.006 A 
ENDBRANCH  46  60
BRANCH  47  68
ATOM     68  C   UNL A   1      43.947  29.058  34.558  1.00  0.00     0.057 A 
ATOM     69  C   UNL A   1      45.236  29.445  34.176  1.00  0.00     0.134 A 
ATOM     70  C   UNL A   1      43.833  28.100  35.573  1.00  0.00     0.134 A 
ATOM     71  F   UNL A   1      45.408  30.346  33.197  1.00  0.00    -0.206 F 
ATOM     72  C   UNL A   1      46.372  28.892  34.771  1.00  0.00     0.040 A 
ATOM     73  C   UNL A   1      44.959  27.557  36.192  1.00  0.00     0.040 A 
ATOM     74  F   UNL A   1      42.624  27.696  35.989  1.00  0.00    -0.206 F 
ATOM     75  C   UNL A   1      46.233  27.949  35.787  1.00  0.00     0.006 A 
ENDBRANCH  47  68
BRANCH  59  76
ATOM     76  C   UNL A   1      39.848  34.443  36.187  1.00  0.00     0.057 A 
ATOM     77  C   UNL A   1      40.543  35.657  36.139  1.00  0.00     0.134 A 
ATOM     78  C   UNL A   1      39.106  34.169  37.344  1.00  0.00     0.134 A 
ATOM     79  F   UNL A   1      41.284  35.974  35.065  1.00  0.00    -0.206 F 
ATOM     80  C   UNL A   1      40.519  36.556  37.207  1.00  0.00     0.040 A 
ATOM     81  C   UNL A   1      39.055  35.070  38.409  1.00  0.00     0.040 A 
ATOM     82  F   UNL A   1      38.412  33.027  37.455  1.00  0.00    -0.206 F 
ATOM     83  C   UNL A   1      39.767  36.266  38.345  1.00  0.00     0.006 A 
ENDBRANCH  59  76
ENDBRANCH  33  34
ENDBRANCH  25  28
ENDBRANCH  23  24
ENDBRANCH  22  23
ENDBRANCH  21  22
ENDBRANCH   1  21
TORSDOF 17
ENDMDL
MODEL 3
REMARK VINA RESULT:     -10.3      6.275     10.484
REMARK SMILES Cc1csc(CSCC[C@H]([NH3+])C(=O)NCCCCNC(=O)c2ccc(-c3c4nc(c(-c5c(F)cccc5F)c5ccc([nH]5)c(-c5c(F)cccc5F)c5nc(c(-c6c(F)cccc6F)c6ccc3[nH]6)C=C5)C=C4)cc2)n1
REMARK SMILES IDX 15 1 14 2 12 3 13 4 10 6 9 7 8 8 7 9 6 10 5 11 1 12 2 13
REMARK SMILES IDX 3 14 76 15 4 16 11 17 16 21 17 22 18 23 19 24 20 25 21 27
REMARK SMILES IDX 22 28 23 29 75 30 24 31 74 32 25 33 26 34 27 35 68 36 28 37
REMARK SMILES IDX 73 38 67 39 69 40 29 41 72 42 66 43 65 44 30 46 56 47 39 48
REMARK SMILES IDX 55 49 40 50 43 51 54 52 70 53 41 54 42 55 53 57 71 58 44 59
REMARK SMILES IDX 31 60 32 61 37 62 33 63 34 64 36 65 38 66 35 67 57 68 58 69
REMARK SMILES IDX 63 70 59 71 60 72 62 73 64 74 61 75 45 76 46 77 51 78 47 79
REMARK SMILES IDX 48 80 50 81 52 82 49 83
REMARK H PARENT 14 5 11 18 11 19 11 20 19 26 69 45 43 56
REMARK Flexibility Score: inf
ROOT
ATOM      1  C   UNL A   1      31.516  30.074  25.118  1.00  0.00     0.116 C 
ENDROOT
BRANCH   1   2
ATOM      2  N   UNL A   1      30.283  30.635  24.594  1.00  0.00    -0.351 N 
ATOM      3  C   UNL A   1      29.521  30.316  23.511  1.00  0.00     0.278 C 
ATOM      4  O   UNL A   1      28.439  30.903  23.401  1.00  0.00    -0.268 OA
ATOM      5  H   UNL A   1      29.930  31.388  25.121  1.00  0.00     0.163 HD
BRANCH   3   6
ATOM      6  C   UNL A   1      29.952  29.314  22.424  1.00  0.00     0.271 C 
BRANCH   6   7
ATOM      7  C   UNL A   1      30.164  27.830  22.784  1.00  0.00     0.086 C 
BRANCH   7   8
ATOM      8  C   UNL A   1      31.324  27.045  22.174  1.00  0.00     0.076 C 
BRANCH   8   9
ATOM      9  S   UNL A   1      31.546  25.361  22.838  1.00  0.00    -0.154 SA
BRANCH   9  10
ATOM     10  C   UNL A   1      32.742  25.652  24.182  1.00  0.00     0.137 C 
BRANCH  10  11
ATOM     11  C   UNL A   1      33.907  24.704  24.240  1.00  0.00     0.103 A 
ATOM     12  C   UNL A   1      37.124  23.743  25.516  1.00  0.00     0.067 C 
ATOM     13  C   UNL A   1      35.853  23.782  24.764  1.00  0.00     0.049 A 
ATOM     14  C   UNL A   1      35.485  22.925  23.748  1.00  0.00     0.090 A 
ATOM     15  N   UNL A   1      34.927  24.758  25.076  1.00  0.00    -0.246 NA
ATOM     16  S   UNL A   1      34.004  23.435  23.071  1.00  0.00    -0.126 S 
ENDBRANCH  10  11
ENDBRANCH   9  10
ENDBRANCH   8   9
ENDBRANCH   7   8
ENDBRANCH   6   7
BRANCH   6  17
ATOM     17  N   UNL A   1      31.063  29.862  21.612  1.00  0.00    -0.347 N 
ATOM     18  H   UNL A   1      30.681  30.430  20.854  1.00  0.00     0.345 HD
ATOM     19  H   UNL A   1      31.607  29.094  21.219  1.00  0.00     0.345 HD
ATOM     20  H   UNL A   1      31.662  30.439  22.201  1.00  0.00     0.345 HD
ENDBRANCH   6  17
ENDBRANCH   3   6
ENDBRANCH   1   2
BRANCH   1  21
ATOM     21  C   UNL A   1      31.784  30.494  26.563  1.00  0.00     0.023 C 
BRANCH  21  22
ATOM     22  C   UNL A   1      31.479  31.965  26.885  1.00  0.00     0.023 C 
BRANCH  22  23
ATOM     23  C   UNL A   1      32.685  32.841  27.245  1.00  0.00     0.116 C 
BRANCH  23  24
ATOM     24  N   UNL A   1      32.327  34.188  27.660  1.00  0.00    -0.352 N 
ATOM     25  C   UNL A   1      32.945  35.010  28.578  1.00  0.00     0.251 C 
ATOM     26  H   UNL A   1      31.530  34.566  27.223  1.00  0.00     0.163 HD
ATOM     27  O   UNL A   1      32.474  36.109  28.843  1.00  0.00    -0.269 OA
BRANCH  25  28
ATOM     28  C   UNL A   1      34.171  34.554  29.271  1.00  0.00     0.039 A 
ATOM     29  C   UNL A   1      34.077  33.951  30.521  1.00  0.00     0.014 A 
ATOM     30  C   UNL A   1      35.422  34.730  28.686  1.00  0.00     0.014 A 
ATOM     31  C   UNL A   1      35.231  33.451  31.141  1.00  0.00     0.010 A 
ATOM     32  C   UNL A   1      36.559  34.146  29.260  1.00  0.00     0.010 A 
ATOM     33  C   UNL A   1      36.484  33.484  30.494  1.00  0.00    -0.014 A 
BRANCH  33  34
ATOM     34  C   UNL A   1      37.671  32.784  31.089  1.00  0.00     0.031 A 
ATOM     35  C   UNL A   1      38.289  33.209  32.403  1.00  0.00     0.074 A 
ATOM     36  C   UNL A   1      38.256  31.770  30.414  1.00  0.00     0.049 A 
ATOM     37  N   UNL A   1      39.312  32.688  33.043  1.00  0.00    -0.248 NA
ATOM     38  C   UNL A   1      37.721  34.390  33.065  1.00  0.00     0.031 C 
ATOM     39  C   UNL A   1      37.869  31.306  29.079  1.00  0.00     0.029 A 
ATOM     40  N   UNL A   1      39.299  30.940  30.756  1.00  0.00    -0.354 N 
ATOM     41  C   UNL A   1      39.524  33.494  34.155  1.00  0.00     0.074 A 
ATOM     42  C   UNL A   1      38.562  34.572  34.073  1.00  0.00     0.031 C 
ATOM     43  C   UNL A   1      38.614  30.243  28.746  1.00  0.00     0.029 A 
ATOM     44  C   UNL A   1      39.563  29.967  29.821  1.00  0.00     0.049 A 
ATOM     45  H   UNL A   1      39.808  31.033  31.594  1.00  0.00     0.167 HD
ATOM     46  C   UNL A   1      40.411  33.342  35.173  1.00  0.00     0.037 A 
ATOM     47  C   UNL A   1      40.456  28.956  29.817  1.00  0.00     0.037 A 
ATOM     48  C   UNL A   1      41.333  32.242  35.306  1.00  0.00     0.049 A 
ATOM     49  C   UNL A   1      41.368  28.753  30.993  1.00  0.00     0.074 A 
ATOM     50  C   UNL A   1      42.183  31.954  36.362  1.00  0.00     0.029 A 
ATOM     51  N   UNL A   1      41.528  31.250  34.359  1.00  0.00    -0.354 N 
ATOM     52  N   UNL A   1      41.475  29.465  32.087  1.00  0.00    -0.248 NA
ATOM     53  C   UNL A   1      42.278  27.598  30.936  1.00  0.00     0.031 C 
ATOM     54  C   UNL A   1      42.918  30.807  36.039  1.00  0.00     0.029 A 
ATOM     55  C   UNL A   1      42.494  30.358  34.800  1.00  0.00     0.049 A 
ATOM     56  H   UNL A   1      41.050  31.186  33.501  1.00  0.00     0.167 HD
ATOM     57  C   UNL A   1      42.449  28.837  32.854  1.00  0.00     0.074 A 
ATOM     58  C   UNL A   1      42.888  27.676  32.111  1.00  0.00     0.031 C 
ATOM     59  C   UNL A   1      42.936  29.200  34.066  1.00  0.00     0.037 A 
BRANCH  46  60
ATOM     60  C   UNL A   1      40.414  34.388  36.253  1.00  0.00     0.057 A 
ATOM     61  C   UNL A   1      41.255  35.509  36.194  1.00  0.00     0.134 A 
ATOM     62  C   UNL A   1      39.534  34.301  37.340  1.00  0.00     0.134 A 
ATOM     63  F   UNL A   1      42.123  35.654  35.181  1.00  0.00    -0.206 F 
ATOM     64  C   UNL A   1      41.249  36.482  37.195  1.00  0.00     0.040 A 
ATOM     65  C   UNL A   1      39.496  35.285  38.331  1.00  0.00     0.040 A 
ATOM     66  F   UNL A   1      38.687  33.267  37.451  1.00  0.00    -0.206 F 
ATOM     67  C   UNL A   1      40.363  36.374  38.266  1.00  0.00     0.006 A 
ENDBRANCH  46  60
BRANCH  47  68
ATOM     68  C   UNL A   1      40.500  28.023  28.664  1.00  0.00     0.057 A 
ATOM     69  C   UNL A   1      39.772  26.828  28.674  1.00  0.00     0.134 A 
ATOM     70  C   UNL A   1      41.261  28.308  27.523  1.00  0.00     0.134 A 
ATOM     71  F   UNL A   1      39.039  26.494  29.747  1.00  0.00    -0.206 F 
ATOM     72  C   UNL A   1      39.807  25.942  27.597  1.00  0.00     0.040 A 
ATOM     73  C   UNL A   1      41.286  27.442  26.430  1.00  0.00     0.040 A 
ATOM     74  F   UNL A   1      41.972  29.442  27.450  1.00  0.00    -0.206 F 
ATOM     75  C   UNL A   1      40.562  26.252  26.467  1.00  0.00     0.006 A 
ENDBRANCH  47  68
BRANCH  59  76
ATOM     76  C   UNL A   1      43.986  28.322  34.681  1.00  0.00     0.057 A 
ATOM     77  C   UNL A   1      43.654  27.227  35.488  1.00  0.00     0.134 A 
ATOM     78  C   UNL A   1      45.345  28.555  34.436  1.00  0.00     0.134 A 
ATOM     79  F   UNL A   1      42.371  26.957  35.773  1.00  0.00    -0.206 F 
ATOM     80  C   UNL A   1      44.637  26.406  36.046  1.00  0.00     0.040 A 
ATOM     81  C   UNL A   1      46.336  27.728  34.969  1.00  0.00     0.040 A 
ATOM     82  F   UNL A   1      45.733  29.584  33.668  1.00  0.00    -0.206 F 
ATOM     83  C   UNL A   1      45.983  26.653  35.781  1.00  0.00     0.006 A 
ENDBRANCH  59  76
ENDBRANCH  33  34
ENDBRANCH  25  28
ENDBRANCH  23  24
ENDBRANCH  22  23
ENDBRANCH  21  22
ENDBRANCH   1  21
TORSDOF 17
ENDMDL
