MODEL 1
REMARK VINA RESULT:     -11.1      0.000      0.000
REMARK SMILES CSc1ncccc1C(=O)N1CSC[C@H]1C(=O)NCCCCNC(=O)c1ccc(-c2c3nc(c(-c4c(F)cccc4F)c4ccc([nH]4)c(-c4c(F)cccc4F)c4nc(c(-c5c(F)cccc5F)c5ccc2[nH]5)C=C4)C=C3)cc1
REMARK SMILES IDX 20 1 19 2 18 3 16 4 17 5 15 7 11 8 12 9 13 10 14 11 9 12
REMARK SMILES IDX 10 13 8 14 3 15 4 16 5 17 7 18 6 19 2 20 1 21 21 22 22 23
REMARK SMILES IDX 23 24 24 25 25 27 26 28 27 29 79 30 28 31 78 32 29 33 30 34
REMARK SMILES IDX 31 35 72 36 32 37 77 38 71 39 73 40 33 41 76 42 70 43 69 44
REMARK SMILES IDX 34 46 60 47 43 48 59 49 44 50 47 51 58 52 74 53 45 54 46 55
REMARK SMILES IDX 57 57 75 58 48 59 35 60 36 61 41 62 37 63 38 64 40 65 42 66
REMARK SMILES IDX 39 67 61 68 62 69 67 70 63 71 64 72 66 73 68 74 65 75 49 76
REMARK SMILES IDX 50 77 55 78 51 79 52 80 54 81 56 82 53 83
REMARK H PARENT 18 6 23 26 73 45 47 56
REMARK Flexibility Score: inf
ROOT
ATOM      1  C   UNL A   1      36.002  21.180  25.609  1.00  0.00     0.023 C 
ENDROOT
BRANCH   1   2
ATOM      2  C   UNL A   1      35.496  22.574  25.957  1.00  0.00     0.116 C 
BRANCH   2   3
ATOM      3  N   UNL A   1      34.677  22.590  27.145  1.00  0.00    -0.354 N 
ATOM      4  C   UNL A   1      33.322  22.655  27.278  1.00  0.00     0.243 C 
ATOM      5  O   UNL A   1      32.863  22.355  28.385  1.00  0.00    -0.273 OA
ATOM      6  H   UNL A   1      35.175  22.547  27.993  1.00  0.00     0.163 HD
BRANCH   4   7
ATOM      7  C   UNL A   1      32.372  22.902  26.085  1.00  0.00     0.185 C 
ATOM      8  N   UNL A   1      32.446  24.205  25.406  1.00  0.00    -0.316 N 
ATOM      9  C   UNL A   1      32.866  24.172  24.023  1.00  0.00     0.190 C 
ATOM     10  S   UNL A   1      32.443  22.531  23.416  1.00  0.00    -0.138 SA
ATOM     11  C   UNL A   1      32.447  21.767  25.067  1.00  0.00     0.106 C 
BRANCH   8  12
ATOM     12  C   UNL A   1      31.911  25.280  26.106  1.00  0.00     0.257 C 
ATOM     13  O   UNL A   1      31.007  25.070  26.912  1.00  0.00    -0.269 OA
BRANCH  12  14
ATOM     14  C   UNL A   1      32.275  26.684  25.751  1.00  0.00     0.072 A 
ATOM     15  C   UNL A   1      31.559  27.451  24.821  1.00  0.00     0.108 A 
ATOM     16  N   UNL A   1      31.956  28.701  24.447  1.00  0.00    -0.249 NA
ATOM     17  C   UNL A   1      33.099  29.196  24.963  1.00  0.00     0.112 A 
ATOM     18  C   UNL A   1      33.491  27.218  26.212  1.00  0.00     0.018 A 
ATOM     19  C   UNL A   1      33.899  28.495  25.838  1.00  0.00     0.021 A 
BRANCH  15  20
ATOM     20  S   UNL A   1      30.082  26.933  23.969  1.00  0.00    -0.109 SA
ATOM     21  C   UNL A   1      30.103  28.173  22.642  1.00  0.00     0.092 C 
ENDBRANCH  15  20
ENDBRANCH  12  14
ENDBRANCH   8  12
ENDBRANCH   4   7
ENDBRANCH   2   3
ENDBRANCH   1   2
BRANCH   1  22
ATOM     22  C   UNL A   1      37.323  21.157  24.836  1.00  0.00     0.023 C 
BRANCH  22  23
ATOM     23  C   UNL A   1      38.588  21.250  25.686  1.00  0.00     0.116 C 
BRANCH  23  24
ATOM     24  N   UNL A   1      39.437  20.068  25.614  1.00  0.00    -0.352 N 
ATOM     25  C   UNL A   1      40.750  19.932  25.999  1.00  0.00     0.251 C 
ATOM     26  H   UNL A   1      39.014  19.261  25.240  1.00  0.00     0.163 HD
ATOM     27  O   UNL A   1      41.353  18.882  25.804  1.00  0.00    -0.269 OA
BRANCH  25  28
ATOM     28  C   UNL A   1      41.442  21.086  26.606  1.00  0.00     0.039 A 
ATOM     29  C   UNL A   1      42.033  22.032  25.766  1.00  0.00     0.014 A 
ATOM     30  C   UNL A   1      41.445  21.264  27.992  1.00  0.00     0.014 A 
ATOM     31  C   UNL A   1      42.542  23.213  26.310  1.00  0.00     0.010 A 
ATOM     32  C   UNL A   1      41.904  22.464  28.528  1.00  0.00     0.010 A 
ATOM     33  C   UNL A   1      42.432  23.458  27.689  1.00  0.00    -0.014 A 
BRANCH  33  34
ATOM     34  C   UNL A   1      42.796  24.776  28.267  1.00  0.00     0.031 A 
ATOM     35  C   UNL A   1      41.749  25.832  28.474  1.00  0.00     0.074 A 
ATOM     36  C   UNL A   1      44.093  25.052  28.504  1.00  0.00     0.049 A 
ATOM     37  N   UNL A   1      41.897  27.073  28.861  1.00  0.00    -0.248 NA
ATOM     38  C   UNL A   1      40.358  25.454  28.181  1.00  0.00     0.031 C 
ATOM     39  C   UNL A   1      45.210  24.131  28.281  1.00  0.00     0.029 A 
ATOM     40  N   UNL A   1      44.697  26.199  28.957  1.00  0.00    -0.354 N 
ATOM     41  C   UNL A   1      40.626  27.630  28.837  1.00  0.00     0.074 A 
ATOM     42  C   UNL A   1      39.721  26.602  28.369  1.00  0.00     0.031 C 
ATOM     43  C   UNL A   1      46.360  24.748  28.597  1.00  0.00     0.029 A 
ATOM     44  C   UNL A   1      46.068  26.115  29.012  1.00  0.00     0.049 A 
ATOM     45  H   UNL A   1      44.195  27.005  29.219  1.00  0.00     0.167 HD
ATOM     46  C   UNL A   1      40.249  28.881  29.188  1.00  0.00     0.037 A 
ATOM     47  C   UNL A   1      46.988  27.042  29.337  1.00  0.00     0.037 A 
ATOM     48  C   UNL A   1      41.144  29.888  29.696  1.00  0.00     0.049 A 
ATOM     49  C   UNL A   1      46.537  28.421  29.733  1.00  0.00     0.074 A 
ATOM     50  C   UNL A   1      40.835  31.142  30.193  1.00  0.00     0.029 A 
ATOM     51  N   UNL A   1      42.522  29.757  29.763  1.00  0.00    -0.354 N 
ATOM     52  N   UNL A   1      45.319  28.900  29.806  1.00  0.00    -0.248 NA
ATOM     53  C   UNL A   1      47.587  29.387  30.089  1.00  0.00     0.031 C 
ATOM     54  C   UNL A   1      42.032  31.788  30.521  1.00  0.00     0.029 A 
ATOM     55  C   UNL A   1      43.081  30.922  30.260  1.00  0.00     0.049 A 
ATOM     56  H   UNL A   1      43.027  28.955  29.498  1.00  0.00     0.167 HD
ATOM     57  C   UNL A   1      45.455  30.216  30.227  1.00  0.00     0.074 A 
ATOM     58  C   UNL A   1      46.871  30.454  30.413  1.00  0.00     0.031 C 
ATOM     59  C   UNL A   1      44.492  31.146  30.436  1.00  0.00     0.037 A 
BRANCH  46  60
ATOM     60  C   UNL A   1      38.802  29.241  29.047  1.00  0.00     0.057 A 
ATOM     61  C   UNL A   1      38.244  29.583  27.808  1.00  0.00     0.134 A 
ATOM     62  C   UNL A   1      37.941  29.175  30.150  1.00  0.00     0.134 A 
ATOM     63  F   UNL A   1      39.018  29.671  26.716  1.00  0.00    -0.206 F 
ATOM     64  C   UNL A   1      36.882  29.856  27.674  1.00  0.00     0.040 A 
ATOM     65  C   UNL A   1      36.574  29.427  30.024  1.00  0.00     0.040 A 
ATOM     66  F   UNL A   1      38.413  28.849  31.363  1.00  0.00    -0.206 F 
ATOM     67  C   UNL A   1      36.042  29.770  28.783  1.00  0.00     0.006 A 
ENDBRANCH  46  60
BRANCH  47  68
ATOM     68  C   UNL A   1      48.433  26.707  29.294  1.00  0.00     0.057 A 
ATOM     69  C   UNL A   1      49.086  26.177  30.413  1.00  0.00     0.134 A 
ATOM     70  C   UNL A   1      49.199  26.932  28.143  1.00  0.00     0.134 A 
ATOM     71  F   UNL A   1      48.408  25.961  31.549  1.00  0.00    -0.206 F 
ATOM     72  C   UNL A   1      50.453  25.900  30.396  1.00  0.00     0.040 A 
ATOM     73  C   UNL A   1      50.562  26.639  28.106  1.00  0.00     0.040 A 
ATOM     74  F   UNL A   1      48.630  27.434  27.038  1.00  0.00    -0.206 F 
ATOM     75  C   UNL A   1      51.195  26.129  29.239  1.00  0.00     0.006 A 
ENDBRANCH  47  68
BRANCH  59  76
ATOM     76  C   UNL A   1      44.937  32.501  30.893  1.00  0.00     0.057 A 
ATOM     77  C   UNL A   1      45.110  32.795  32.250  1.00  0.00     0.134 A 
ATOM     78  C   UNL A   1      45.236  33.507  29.966  1.00  0.00     0.134 A 
ATOM     79  F   UNL A   1      44.825  31.876  33.186  1.00  0.00    -0.206 F 
ATOM     80  C   UNL A   1      45.553  34.048  32.673  1.00  0.00     0.040 A 
ATOM     81  C   UNL A   1      45.700  34.758  30.375  1.00  0.00     0.040 A 
ATOM     82  F   UNL A   1      45.097  33.286  28.650  1.00  0.00    -0.206 F 
ATOM     83  C   UNL A   1      45.857  35.032  31.732  1.00  0.00     0.006 A 
ENDBRANCH  59  76
ENDBRANCH  33  34
ENDBRANCH  25  28
ENDBRANCH  23  24
ENDBRANCH  22  23
ENDBRANCH   1  22
TORSDOF 14
ENDMDL
MODEL 2
REMARK VINA RESULT:     -11.0      4.329      9.234
REMARK SMILES CSc1ncccc1C(=O)N1CSC[C@H]1C(=O)NCCCCNC(=O)c1ccc(-c2c3nc(c(-c4c(F)cccc4F)c4ccc([nH]4)c(-c4c(F)cccc4F)c4nc(c(-c5c(F)cccc5F)c5ccc2[nH]5)C=C4)C=C3)cc1
REMARK SMILES IDX 20 1 19 2 18 3 16 4 17 5 15 7 11 8 12 9 13 10 14 11 9 12
REMARK SMILES IDX 10 13 8 14 3 15 4 16 5 17 7 18 6 19 2 20 1 21 21 22 22 23
REMARK SMILES IDX 23 24 24 25 25 27 26 28 27 29 79 30 28 31 78 32 29 33 30 34
REMARK SMILES IDX 31 35 72 36 32 37 77 38 71 39 73 40 33 41 76 42 70 43 69 44
REMARK SMILES IDX 34 46 60 47 43 48 59 49 44 50 47 51 58 52 74 53 45 54 46 55
REMARK SMILES IDX 57 57 75 58 48 59 35 60 36 61 41 62 37 63 38 64 40 65 42 66
REMARK SMILES IDX 39 67 61 68 62 69 67 70 63 71 64 72 66 73 68 74 65 75 49 76
REMARK SMILES IDX 50 77 55 78 51 79 52 80 54 81 56 82 53 83
REMARK H PARENT 18 6 23 26 73 45 47 56
REMARK Flexibility Score: inf
ROOT
ATOM      1  C   UNL A   1      32.013  30.538  26.752  1.00  0.00     0.023 C 
ENDROOT
BRANCH   1   2
ATOM      2  C   UNL A   1      31.651  29.925  25.406  1.00  0.00     0.116 C 
BRANCH   2   3
ATOM      3  N   UNL A   1      32.801  29.721  24.558  1.00  0.00    -0.354 N 
ATOM      4  C   UNL A   1      33.093  28.700  23.705  1.00  0.00     0.243 C 
ATOM      5  O   UNL A   1      33.991  28.910  22.882  1.00  0.00    -0.273 OA
ATOM      6  H   UNL A   1      33.481  30.432  24.603  1.00  0.00     0.163 HD
BRANCH   4   7
ATOM      7  C   UNL A   1      32.248  27.410  23.618  1.00  0.00     0.185 C 
ATOM      8  N   UNL A   1      32.019  26.653  24.858  1.00  0.00    -0.316 N 
ATOM      9  C   UNL A   1      30.645  26.561  25.296  1.00  0.00     0.190 C 
ATOM     10  S   UNL A   1      29.639  26.762  23.817  1.00  0.00    -0.138 SA
ATOM     11  C   UNL A   1      30.926  27.656  22.894  1.00  0.00     0.106 C 
BRANCH   8  12
ATOM     12  C   UNL A   1      33.115  25.948  25.344  1.00  0.00     0.257 C 
ATOM     13  O   UNL A   1      33.892  26.517  26.107  1.00  0.00    -0.269 OA
BRANCH  12  14
ATOM     14  C   UNL A   1      33.461  24.599  24.805  1.00  0.00     0.072 A 
ATOM     15  C   UNL A   1      33.054  23.403  25.412  1.00  0.00     0.108 A 
ATOM     16  N   UNL A   1      33.450  22.181  24.953  1.00  0.00    -0.249 NA
ATOM     17  C   UNL A   1      34.295  22.129  23.904  1.00  0.00     0.112 A 
ATOM     18  C   UNL A   1      34.391  24.494  23.756  1.00  0.00     0.018 A 
ATOM     19  C   UNL A   1      34.795  23.250  23.280  1.00  0.00     0.021 A 
BRANCH  15  20
ATOM     20  S   UNL A   1      32.016  23.274  26.855  1.00  0.00    -0.109 SA
ATOM     21  C   UNL A   1      33.216  22.480  27.964  1.00  0.00     0.092 C 
ENDBRANCH  15  20
ENDBRANCH  12  14
ENDBRANCH   8  12
ENDBRANCH   4   7
ENDBRANCH   2   3
ENDBRANCH   1   2
BRANCH   1  22
ATOM     22  C   UNL A   1      31.425  31.929  26.998  1.00  0.00     0.023 C 
BRANCH  22  23
ATOM     23  C   UNL A   1      32.360  33.103  26.713  1.00  0.00     0.116 C 
BRANCH  23  24
ATOM     24  N   UNL A   1      32.183  34.231  27.617  1.00  0.00    -0.352 N 
ATOM     25  C   UNL A   1      32.959  34.596  28.692  1.00  0.00     0.251 C 
ATOM     26  H   UNL A   1      31.406  34.808  27.434  1.00  0.00     0.163 HD
ATOM     27  O   UNL A   1      32.634  35.539  29.406  1.00  0.00    -0.269 OA
BRANCH  25  28
ATOM     28  C   UNL A   1      34.166  33.806  29.007  1.00  0.00     0.039 A 
ATOM     29  C   UNL A   1      35.420  34.374  28.771  1.00  0.00     0.014 A 
ATOM     30  C   UNL A   1      34.056  32.544  29.596  1.00  0.00     0.014 A 
ATOM     31  C   UNL A   1      36.568  33.717  29.218  1.00  0.00     0.010 A 
ATOM     32  C   UNL A   1      35.196  31.915  30.088  1.00  0.00     0.010 A 
ATOM     33  C   UNL A   1      36.458  32.509  29.926  1.00  0.00    -0.014 A 
BRANCH  33  34
ATOM     34  C   UNL A   1      37.640  31.884  30.569  1.00  0.00     0.031 A 
ATOM     35  C   UNL A   1      38.412  30.808  29.863  1.00  0.00     0.074 A 
ATOM     36  C   UNL A   1      37.948  32.217  31.839  1.00  0.00     0.049 A 
ATOM     37  N   UNL A   1      39.399  30.075  30.309  1.00  0.00    -0.248 NA
ATOM     38  C   UNL A   1      38.005  30.496  28.484  1.00  0.00     0.031 C 
ATOM     39  C   UNL A   1      37.232  33.201  32.654  1.00  0.00     0.029 A 
ATOM     40  N   UNL A   1      38.926  31.742  32.677  1.00  0.00    -0.354 N 
ATOM     41  C   UNL A   1      39.716  29.201  29.279  1.00  0.00     0.074 A 
ATOM     42  C   UNL A   1      38.798  29.473  28.194  1.00  0.00     0.031 C 
ATOM     43  C   UNL A   1      37.794  33.257  33.872  1.00  0.00     0.029 A 
ATOM     44  C   UNL A   1      38.885  32.291  33.937  1.00  0.00     0.049 A 
ATOM     45  H   UNL A   1      39.594  31.073  32.402  1.00  0.00     0.167 HD
ATOM     46  C   UNL A   1      40.694  28.266  29.239  1.00  0.00     0.037 A 
ATOM     47  C   UNL A   1      39.628  32.029  35.028  1.00  0.00     0.037 A 
ATOM     48  C   UNL A   1      41.634  28.027  30.303  1.00  0.00     0.049 A 
ATOM     49  C   UNL A   1      40.713  30.993  34.950  1.00  0.00     0.074 A 
ATOM     50  C   UNL A   1      42.735  27.188  30.306  1.00  0.00     0.029 A 
ATOM     51  N   UNL A   1      41.578  28.621  31.553  1.00  0.00    -0.354 N 
ATOM     52  N   UNL A   1      41.069  30.248  33.932  1.00  0.00    -0.248 NA
ATOM     53  C   UNL A   1      41.499  30.759  36.171  1.00  0.00     0.031 C 
ATOM     54  C   UNL A   1      43.320  27.242  31.575  1.00  0.00     0.029 A 
ATOM     55  C   UNL A   1      42.604  28.140  32.349  1.00  0.00     0.049 A 
ATOM     56  H   UNL A   1      40.909  29.286  31.834  1.00  0.00     0.167 HD
ATOM     57  C   UNL A   1      42.125  29.468  34.384  1.00  0.00     0.074 A 
ATOM     58  C   UNL A   1      42.366  29.844  35.761  1.00  0.00     0.031 C 
ATOM     59  C   UNL A   1      42.829  28.520  33.719  1.00  0.00     0.037 A 
BRANCH  46  60
ATOM     60  C   UNL A   1      40.812  27.429  28.002  1.00  0.00     0.057 A 
ATOM     61  C   UNL A   1      41.615  27.819  26.922  1.00  0.00     0.134 A 
ATOM     62  C   UNL A   1      40.173  26.186  27.921  1.00  0.00     0.134 A 
ATOM     63  F   UNL A   1      42.246  29.003  26.938  1.00  0.00    -0.206 F 
ATOM     64  C   UNL A   1      41.769  27.005  25.800  1.00  0.00     0.040 A 
ATOM     65  C   UNL A   1      40.336  25.354  26.811  1.00  0.00     0.040 A 
ATOM     66  F   UNL A   1      39.395  25.753  28.924  1.00  0.00    -0.206 F 
ATOM     67  C   UNL A   1      41.135  25.764  25.746  1.00  0.00     0.006 A 
ENDBRANCH  46  60
BRANCH  47  68
ATOM     68  C   UNL A   1      39.367  32.750  36.299  1.00  0.00     0.057 A 
ATOM     69  C   UNL A   1      40.053  33.929  36.615  1.00  0.00     0.134 A 
ATOM     70  C   UNL A   1      38.447  32.266  37.236  1.00  0.00     0.134 A 
ATOM     71  F   UNL A   1      40.963  34.428  35.765  1.00  0.00    -0.206 F 
ATOM     72  C   UNL A   1      39.848  34.590  37.826  1.00  0.00     0.040 A 
ATOM     73  C   UNL A   1      38.215  32.930  38.442  1.00  0.00     0.040 A 
ATOM     74  F   UNL A   1      37.755  31.145  36.989  1.00  0.00    -0.206 F 
ATOM     75  C   UNL A   1      38.924  34.092  38.743  1.00  0.00     0.006 A 
ENDBRANCH  47  68
BRANCH  59  76
ATOM     76  C   UNL A   1      43.926  27.830  34.468  1.00  0.00     0.057 A 
ATOM     77  C   UNL A   1      43.712  26.610  35.121  1.00  0.00     0.134 A 
ATOM     78  C   UNL A   1      45.219  28.367  34.503  1.00  0.00     0.134 A 
ATOM     79  F   UNL A   1      42.491  26.054  35.136  1.00  0.00    -0.206 F 
ATOM     80  C   UNL A   1      44.743  25.954  35.794  1.00  0.00     0.040 A 
ATOM     81  C   UNL A   1      46.263  27.710  35.154  1.00  0.00     0.040 A 
ATOM     82  F   UNL A   1      45.490  29.530  33.891  1.00  0.00    -0.206 F 
ATOM     83  C   UNL A   1      46.025  26.501  35.805  1.00  0.00     0.006 A 
ENDBRANCH  59  76
ENDBRANCH  33  34
ENDBRANCH  25  28
ENDBRANCH  23  24
ENDBRANCH  22  23
ENDBRANCH   1  22
TORSDOF 14
ENDMDL
MODEL 3
REMARK VINA RESULT:     -10.8      4.497      9.071
REMARK SMILES CSc1ncccc1C(=O)N1CSC[C@H]1C(=O)NCCCCNC(=O)c1ccc(-c2c3nc(c(-c4c(F)cccc4F)c4ccc([nH]4)c(-c4c(F)cccc4F)c4nc(c(-c5c(F)cccc5F)c5ccc2[nH]5)C=C4)C=C3)cc1
REMARK SMILES IDX 20 1 19 2 18 3 16 4 17 5 15 7 11 8 12 9 13 10 14 11 9 12
REMARK SMILES IDX 10 13 8 14 3 15 4 16 5 17 7 18 6 19 2 20 1 21 21 22 22 23
REMARK SMILES IDX 23 24 24 25 25 27 26 28 27 29 79 30 28 31 78 32 29 33 30 34
REMARK SMILES IDX 31 35 72 36 32 37 77 38 71 39 73 40 33 41 76 42 70 43 69 44
REMARK SMILES IDX 34 46 60 47 43 48 59 49 44 50 47 51 58 52 74 53 45 54 46 55
REMARK SMILES IDX 57 57 75 58 48 59 35 60 36 61 41 62 37 63 38 64 40 65 42 66
REMARK SMILES IDX 39 67 61 68 62 69 67 70 63 71 64 72 66 73 68 74 65 75 49 76
REMARK SMILES IDX 50 77 55 78 51 79 52 80 54 81 56 82 53 83
REMARK H PARENT 18 6 23 26 73 45 47 56
REMARK Flexibility Score: inf
ROOT
ATOM      1  C   UNL A   1      31.982  30.636  26.202  1.00  0.00     0.023 C 
ENDROOT
BRANCH   1   2
ATOM      2  C   UNL A   1      32.464  29.555  27.160  1.00  0.00     0.116 C 
BRANCH   2   3
ATOM      3  N   UNL A   1      31.543  28.449  27.262  1.00  0.00    -0.354 N 
ATOM      4  C   UNL A   1      31.313  27.416  26.404  1.00  0.00     0.243 C 
ATOM      5  O   UNL A   1      30.692  26.449  26.861  1.00  0.00    -0.273 OA
ATOM      6  H   UNL A   1      30.995  28.439  28.080  1.00  0.00     0.163 HD
BRANCH   4   7
ATOM      7  C   UNL A   1      31.938  27.339  24.994  1.00  0.00     0.185 C 
ATOM      8  N   UNL A   1      32.403  26.028  24.519  1.00  0.00    -0.316 N 
ATOM      9  C   UNL A   1      31.717  25.496  23.363  1.00  0.00     0.190 C 
ATOM     10  S   UNL A   1      31.055  26.920  22.481  1.00  0.00    -0.138 SA
ATOM     11  C   UNL A   1      31.039  27.995  23.949  1.00  0.00     0.106 C 
BRANCH   8  12
ATOM     12  C   UNL A   1      33.572  25.555  25.104  1.00  0.00     0.257 C 
ATOM     13  O   UNL A   1      34.325  26.357  25.652  1.00  0.00    -0.269 OA
BRANCH  12  14
ATOM     14  C   UNL A   1      34.013  24.142  24.905  1.00  0.00     0.072 A 
ATOM     15  C   UNL A   1      33.502  23.068  25.647  1.00  0.00     0.108 A 
ATOM     16  N   UNL A   1      33.978  21.796  25.510  1.00  0.00    -0.249 NA
ATOM     17  C   UNL A   1      35.001  21.578  24.661  1.00  0.00     0.112 A 
ATOM     18  C   UNL A   1      35.121  23.875  24.081  1.00  0.00     0.018 A 
ATOM     19  C   UNL A   1      35.606  22.579  23.934  1.00  0.00     0.021 A 
BRANCH  15  20
ATOM     20  S   UNL A   1      32.216  23.176  26.876  1.00  0.00    -0.109 SA
ATOM     21  C   UNL A   1      30.837  22.575  25.858  1.00  0.00     0.092 C 
ENDBRANCH  15  20
ENDBRANCH  12  14
ENDBRANCH   8  12
ENDBRANCH   4   7
ENDBRANCH   2   3
ENDBRANCH   1   2
BRANCH   1  22
ATOM     22  C   UNL A   1      31.601  31.958  26.873  1.00  0.00     0.023 C 
BRANCH  22  23
ATOM     23  C   UNL A   1      32.769  32.825  27.340  1.00  0.00     0.116 C 
BRANCH  23  24
ATOM     24  N   UNL A   1      32.399  34.201  27.642  1.00  0.00    -0.352 N 
ATOM     25  C   UNL A   1      32.963  35.057  28.558  1.00  0.00     0.251 C 
ATOM     26  H   UNL A   1      31.646  34.565  27.122  1.00  0.00     0.163 HD
ATOM     27  O   UNL A   1      32.486  36.172  28.748  1.00  0.00    -0.269 OA
BRANCH  25  28
ATOM     28  C   UNL A   1      34.122  34.600  29.349  1.00  0.00     0.039 A 
ATOM     29  C   UNL A   1      33.907  34.136  30.649  1.00  0.00     0.014 A 
ATOM     30  C   UNL A   1      35.399  34.565  28.783  1.00  0.00     0.014 A 
ATOM     31  C   UNL A   1      34.958  33.542  31.350  1.00  0.00     0.010 A 
ATOM     32  C   UNL A   1      36.432  33.925  29.462  1.00  0.00     0.010 A 
ATOM     33  C   UNL A   1      36.213  33.385  30.740  1.00  0.00    -0.014 A 
BRANCH  33  34
ATOM     34  C   UNL A   1      37.291  32.597  31.388  1.00  0.00     0.031 A 
ATOM     35  C   UNL A   1      37.866  33.033  32.704  1.00  0.00     0.074 A 
ATOM     36  C   UNL A   1      37.822  31.549  30.730  1.00  0.00     0.049 A 
ATOM     37  N   UNL A   1      38.881  32.536  33.364  1.00  0.00    -0.248 NA
ATOM     38  C   UNL A   1      37.237  34.194  33.351  1.00  0.00     0.031 C 
ATOM     39  C   UNL A   1      37.393  31.068  29.414  1.00  0.00     0.029 A 
ATOM     40  N   UNL A   1      38.860  30.713  31.065  1.00  0.00    -0.354 N 
ATOM     41  C   UNL A   1      39.027  33.335  34.489  1.00  0.00     0.074 A 
ATOM     42  C   UNL A   1      38.017  34.368  34.410  1.00  0.00     0.031 C 
ATOM     43  C   UNL A   1      38.159  30.025  29.055  1.00  0.00     0.029 A 
ATOM     44  C   UNL A   1      39.153  29.785  30.094  1.00  0.00     0.049 A 
ATOM     45  H   UNL A   1      39.346  30.773  31.918  1.00  0.00     0.167 HD
ATOM     46  C   UNL A   1      39.916  33.208  35.502  1.00  0.00     0.037 A 
ATOM     47  C   UNL A   1      40.128  28.858  30.039  1.00  0.00     0.037 A 
ATOM     48  C   UNL A   1      40.890  32.153  35.600  1.00  0.00     0.049 A 
ATOM     49  C   UNL A   1      41.094  28.734  31.184  1.00  0.00     0.074 A 
ATOM     50  C   UNL A   1      41.750  31.871  36.649  1.00  0.00     0.029 A 
ATOM     51  N   UNL A   1      41.140  31.215  34.612  1.00  0.00    -0.354 N 
ATOM     52  N   UNL A   1      41.152  29.432  32.292  1.00  0.00    -0.248 NA
ATOM     53  C   UNL A   1      42.130  27.697  31.071  1.00  0.00     0.031 C 
ATOM     54  C   UNL A   1      42.551  30.787  36.275  1.00  0.00     0.029 A 
ATOM     55  C   UNL A   1      42.166  30.374  35.010  1.00  0.00     0.049 A 
ATOM     56  H   UNL A   1      40.660  31.155  33.755  1.00  0.00     0.167 HD
ATOM     57  C   UNL A   1      42.218  28.911  33.012  1.00  0.00     0.074 A 
ATOM     58  C   UNL A   1      42.767  27.826  32.226  1.00  0.00     0.031 C 
ATOM     59  C   UNL A   1      42.703  29.302  34.215  1.00  0.00     0.037 A 
BRANCH  46  60
ATOM     60  C   UNL A   1      39.877  34.227  36.599  1.00  0.00     0.057 A 
ATOM     61  C   UNL A   1      40.588  35.431  36.513  1.00  0.00     0.134 A 
ATOM     62  C   UNL A   1      39.060  34.034  37.721  1.00  0.00     0.134 A 
ATOM     63  F   UNL A   1      41.393  35.670  35.467  1.00  0.00    -0.206 F 
ATOM     64  C   UNL A   1      40.497  36.402  37.511  1.00  0.00     0.040 A 
ATOM     65  C   UNL A   1      38.947  35.008  38.715  1.00  0.00     0.040 A 
ATOM     66  F   UNL A   1      38.349  32.905  37.860  1.00  0.00    -0.206 F 
ATOM     67  C   UNL A   1      39.668  36.195  38.612  1.00  0.00     0.006 A 
ENDBRANCH  46  60
BRANCH  47  68
ATOM     68  C   UNL A   1      40.253  27.977  28.852  1.00  0.00     0.057 A 
ATOM     69  C   UNL A   1      39.630  26.724  28.812  1.00  0.00     0.134 A 
ATOM     70  C   UNL A   1      41.017  28.355  27.740  1.00  0.00     0.134 A 
ATOM     71  F   UNL A   1      38.903  26.300  29.856  1.00  0.00    -0.206 F 
ATOM     72  C   UNL A   1      39.778  25.870  27.719  1.00  0.00     0.040 A 
ATOM     73  C   UNL A   1      41.155  27.519  26.631  1.00  0.00     0.040 A 
ATOM     74  F   UNL A   1      41.635  29.545  27.716  1.00  0.00    -0.206 F 
ATOM     75  C   UNL A   1      40.541  26.268  26.623  1.00  0.00     0.006 A 
ENDBRANCH  47  68
BRANCH  59  76
ATOM     76  C   UNL A   1      43.880  28.549  34.756  1.00  0.00     0.057 A 
ATOM     77  C   UNL A   1      45.192  28.987  34.537  1.00  0.00     0.134 A 
ATOM     78  C   UNL A   1      43.700  27.401  35.537  1.00  0.00     0.134 A 
ATOM     79  F   UNL A   1      45.429  30.072  33.784  1.00  0.00    -0.206 F 
ATOM     80  C   UNL A   1      46.286  28.302  35.066  1.00  0.00     0.040 A 
ATOM     81  C   UNL A   1      44.785  26.719  36.089  1.00  0.00     0.040 A 
ATOM     82  F   UNL A   1      42.468  26.934  35.788  1.00  0.00    -0.206 F 
ATOM     83  C   UNL A   1      46.082  27.168  35.851  1.00  0.00     0.006 A 
ENDBRANCH  59  76
ENDBRANCH  33  34
ENDBRANCH  25  28
ENDBRANCH  23  24
ENDBRANCH  22  23
ENDBRANCH   1  22
TORSDOF 14
ENDMDL
