MODEL 1
REMARK VINA RESULT:     -10.6      0.000      0.000
REMARK SMILES C[C@](NC(=O)CSCc1cccs1)(C(=O)NCCCCNC(=O)c1ccc(-c2c3nc(c(-c4c(F)cccc4F)c4ccc([nH]4)c(-c4c(F)cccc4F)c4nc(c(-c5c(F)cccc5F)c5ccc2[nH]5)C=C4)C=C3)cc1)C(F)(F)F
REMARK SMILES IDX 17 1 16 2 14 3 15 4 2 6 1 7 78 8 79 9 80 10 81 11 3 12 4 13
REMARK SMILES IDX 5 15 6 16 7 17 8 18 9 19 10 20 13 21 11 22 12 23 18 24 19 25
REMARK SMILES IDX 20 26 21 27 22 28 23 30 24 31 25 32 77 33 26 34 76 35 27 36
REMARK SMILES IDX 28 37 29 38 70 39 30 40 75 41 69 42 71 43 31 44 74 45 68 46
REMARK SMILES IDX 67 47 32 49 58 50 41 51 57 52 42 53 45 54 56 55 72 56 43 57
REMARK SMILES IDX 44 58 55 60 73 61 46 62 33 63 34 64 39 65 35 66 36 67 38 68
REMARK SMILES IDX 40 69 37 70 59 71 60 72 65 73 61 74 62 75 64 76 66 77 63 78
REMARK SMILES IDX 47 79 48 80 53 81 49 82 50 83 52 84 54 85 51 86
REMARK H PARENT 16 5 3 14 21 29 71 48 45 59
REMARK Flexibility Score: inf
ROOT
ATOM      1  C   UNL A   1      36.973  22.380  25.322  1.00  0.00     0.116 C 
ENDROOT
BRANCH   1   2
ATOM      2  N   UNL A   1      36.041  21.890  26.327  1.00  0.00    -0.354 N 
ATOM      3  C   UNL A   1      34.697  22.058  26.512  1.00  0.00     0.254 C 
ATOM      4  O   UNL A   1      34.217  21.416  27.448  1.00  0.00    -0.272 OA
ATOM      5  H   UNL A   1      36.465  21.325  27.013  1.00  0.00     0.163 HD
BRANCH   3   6
ATOM      6  C   UNL A   1      33.852  22.932  25.554  1.00  0.00     0.212 C 
ATOM      7  C   UNL A   1      34.657  24.215  25.263  1.00  0.00     0.056 C 
BRANCH   6   8
ATOM      8  C   UNL A   1      33.679  22.085  24.271  1.00  0.00     0.420 C 
ATOM      9  F   UNL A   1      34.424  22.563  23.247  1.00  0.00    -0.168 F 
ATOM     10  F   UNL A   1      34.076  20.805  24.463  1.00  0.00    -0.168 F 
ATOM     11  F   UNL A   1      32.392  22.004  23.866  1.00  0.00    -0.168 F 
ENDBRANCH   6   8
BRANCH   6  12
ATOM     12  N   UNL A   1      32.594  23.233  26.321  1.00  0.00    -0.334 N 
ATOM     13  C   UNL A   1      31.579  24.119  26.181  1.00  0.00     0.231 C 
ATOM     14  H   UNL A   1      32.483  22.651  27.108  1.00  0.00     0.164 HD
ATOM     15  O   UNL A   1      30.840  24.258  27.161  1.00  0.00    -0.274 OA
BRANCH  13  16
ATOM     16  C   UNL A   1      31.287  24.856  24.894  1.00  0.00     0.169 C 
BRANCH  16  17
ATOM     17  S   UNL A   1      29.884  26.001  24.998  1.00  0.00    -0.146 SA
BRANCH  17  18
ATOM     18  C   UNL A   1      30.647  27.529  24.381  1.00  0.00     0.116 C 
BRANCH  18  19
ATOM     19  C   UNL A   1      31.634  28.154  25.322  1.00  0.00     0.014 A 
ATOM     20  C   UNL A   1      31.758  28.078  26.698  1.00  0.00     0.016 A 
ATOM     21  S   UNL A   1      32.873  29.145  24.652  1.00  0.00    -0.148 S 
ATOM     22  C   UNL A   1      32.867  28.822  27.194  1.00  0.00     0.012 A 
ATOM     23  C   UNL A   1      33.551  29.458  26.186  1.00  0.00     0.065 A 
ENDBRANCH  18  19
ENDBRANCH  17  18
ENDBRANCH  16  17
ENDBRANCH  13  16
ENDBRANCH   6  12
ENDBRANCH   3   6
ENDBRANCH   1   2
BRANCH   1  24
ATOM     24  C   UNL A   1      37.318  21.276  24.321  1.00  0.00     0.023 C 
BRANCH  24  25
ATOM     25  C   UNL A   1      37.938  20.023  24.948  1.00  0.00     0.023 C 
BRANCH  25  26
ATOM     26  C   UNL A   1      39.037  20.294  25.970  1.00  0.00     0.116 C 
BRANCH  26  27
ATOM     27  N   UNL A   1      40.150  19.368  25.847  1.00  0.00    -0.352 N 
ATOM     28  C   UNL A   1      41.494  19.604  26.016  1.00  0.00     0.251 C 
ATOM     29  H   UNL A   1      39.907  18.444  25.609  1.00  0.00     0.163 HD
ATOM     30  O   UNL A   1      42.314  18.751  25.706  1.00  0.00    -0.269 OA
BRANCH  28  31
ATOM     31  C   UNL A   1      41.941  20.908  26.547  1.00  0.00     0.039 A 
ATOM     32  C   UNL A   1      42.343  21.900  25.650  1.00  0.00     0.014 A 
ATOM     33  C   UNL A   1      41.943  21.158  27.923  1.00  0.00     0.014 A 
ATOM     34  C   UNL A   1      42.684  23.166  26.129  1.00  0.00     0.010 A 
ATOM     35  C   UNL A   1      42.208  22.441  28.391  1.00  0.00     0.010 A 
ATOM     36  C   UNL A   1      42.583  23.457  27.499  1.00  0.00    -0.014 A 
BRANCH  36  37
ATOM     37  C   UNL A   1      42.860  24.822  28.018  1.00  0.00     0.031 A 
ATOM     38  C   UNL A   1      44.255  25.211  28.419  1.00  0.00     0.074 A 
ATOM     39  C   UNL A   1      41.843  25.690  28.187  1.00  0.00     0.049 A 
ATOM     40  N   UNL A   1      44.682  26.329  28.950  1.00  0.00    -0.248 NA
ATOM     41  C   UNL A   1      45.306  24.199  28.224  1.00  0.00     0.031 C 
ATOM     42  C   UNL A   1      40.437  25.418  27.882  1.00  0.00     0.029 A 
ATOM     43  N   UNL A   1      41.834  26.975  28.667  1.00  0.00    -0.354 N 
ATOM     44  C   UNL A   1      46.043  26.151  29.160  1.00  0.00     0.074 A 
ATOM     45  C   UNL A   1      46.360  24.798  28.757  1.00  0.00     0.031 C 
ATOM     46  C   UNL A   1      39.707  26.509  28.159  1.00  0.00     0.029 A 
ATOM     47  C   UNL A   1      40.583  27.544  28.700  1.00  0.00     0.049 A 
ATOM     48  H   UNL A   1      42.648  27.447  28.960  1.00  0.00     0.167 HD
ATOM     49  C   UNL A   1      46.953  27.042  29.624  1.00  0.00     0.037 A 
ATOM     50  C   UNL A   1      40.185  28.757  29.127  1.00  0.00     0.037 A 
ATOM     51  C   UNL A   1      46.637  28.392  30.010  1.00  0.00     0.049 A 
ATOM     52  C   UNL A   1      41.210  29.722  29.654  1.00  0.00     0.074 A 
ATOM     53  C   UNL A   1      47.495  29.389  30.440  1.00  0.00     0.029 A 
ATOM     54  N   UNL A   1      45.359  28.935  30.018  1.00  0.00    -0.354 N 
ATOM     55  N   UNL A   1      42.506  29.566  29.782  1.00  0.00    -0.248 NA
ATOM     56  C   UNL A   1      40.720  31.037  30.090  1.00  0.00     0.031 C 
ATOM     57  C   UNL A   1      46.731  30.517  30.759  1.00  0.00     0.029 A 
ATOM     58  C   UNL A   1      45.404  30.243  30.471  1.00  0.00     0.049 A 
ATOM     59  H   UNL A   1      44.543  28.459  29.743  1.00  0.00     0.167 HD
ATOM     60  C   UNL A   1      42.988  30.768  30.284  1.00  0.00     0.074 A 
ATOM     61  C   UNL A   1      41.847  31.648  30.423  1.00  0.00     0.031 C 
ATOM     62  C   UNL A   1      44.261  31.111  30.600  1.00  0.00     0.037 A 
BRANCH  49  63
ATOM     63  C   UNL A   1      48.377  26.580  29.738  1.00  0.00     0.057 A 
ATOM     64  C   UNL A   1      48.858  25.940  30.889  1.00  0.00     0.134 A 
ATOM     65  C   UNL A   1      49.272  26.750  28.675  1.00  0.00     0.134 A 
ATOM     66  F   UNL A   1      48.056  25.754  31.950  1.00  0.00    -0.206 F 
ATOM     67  C   UNL A   1      50.184  25.516  30.991  1.00  0.00     0.040 A 
ATOM     68  C   UNL A   1      50.593  26.303  28.753  1.00  0.00     0.040 A 
ATOM     69  F   UNL A   1      48.879  27.349  27.541  1.00  0.00    -0.206 F 
ATOM     70  C   UNL A   1      51.054  25.691  29.916  1.00  0.00     0.006 A 
ENDBRANCH  49  63
BRANCH  50  71
ATOM     71  C   UNL A   1      38.751  29.136  29.057  1.00  0.00     0.057 A 
ATOM     72  C   UNL A   1      37.924  29.046  30.182  1.00  0.00     0.134 A 
ATOM     73  C   UNL A   1      38.172  29.591  27.866  1.00  0.00     0.134 A 
ATOM     74  F   UNL A   1      38.416  28.599  31.348  1.00  0.00    -0.206 F 
ATOM     75  C   UNL A   1      36.569  29.374  30.122  1.00  0.00     0.040 A 
ATOM     76  C   UNL A   1      36.825  29.949  27.799  1.00  0.00     0.040 A 
ATOM     77  F   UNL A   1      38.913  29.709  26.754  1.00  0.00    -0.206 F 
ATOM     78  C   UNL A   1      36.016  29.833  28.928  1.00  0.00     0.006 A 
ENDBRANCH  50  71
BRANCH  62  79
ATOM     79  C   UNL A   1      44.494  32.510  31.093  1.00  0.00     0.057 A 
ATOM     80  C   UNL A   1      44.490  32.828  32.457  1.00  0.00     0.134 A 
ATOM     81  C   UNL A   1      44.765  33.546  30.189  1.00  0.00     0.134 A 
ATOM     82  F   UNL A   1      44.225  31.885  33.374  1.00  0.00    -0.206 F 
ATOM     83  C   UNL A   1      44.724  34.130  32.903  1.00  0.00     0.040 A 
ATOM     84  C   UNL A   1      45.029  34.845  30.624  1.00  0.00     0.040 A 
ATOM     85  F   UNL A   1      44.793  33.309  28.869  1.00  0.00    -0.206 F 
ATOM     86  C   UNL A   1      45.002  35.141  31.985  1.00  0.00     0.006 A 
ENDBRANCH  62  79
ENDBRANCH  36  37
ENDBRANCH  28  31
ENDBRANCH  26  27
ENDBRANCH  25  26
ENDBRANCH  24  25
ENDBRANCH   1  24
TORSDOF 17
ENDMDL
MODEL 2
REMARK VINA RESULT:     -10.6      1.073      6.223
REMARK SMILES C[C@](NC(=O)CSCc1cccs1)(C(=O)NCCCCNC(=O)c1ccc(-c2c3nc(c(-c4c(F)cccc4F)c4ccc([nH]4)c(-c4c(F)cccc4F)c4nc(c(-c5c(F)cccc5F)c5ccc2[nH]5)C=C4)C=C3)cc1)C(F)(F)F
REMARK SMILES IDX 17 1 16 2 14 3 15 4 2 6 1 7 78 8 79 9 80 10 81 11 3 12 4 13
REMARK SMILES IDX 5 15 6 16 7 17 8 18 9 19 10 20 13 21 11 22 12 23 18 24 19 25
REMARK SMILES IDX 20 26 21 27 22 28 23 30 24 31 25 32 77 33 26 34 76 35 27 36
REMARK SMILES IDX 28 37 29 38 70 39 30 40 75 41 69 42 71 43 31 44 74 45 68 46
REMARK SMILES IDX 67 47 32 49 58 50 41 51 57 52 42 53 45 54 56 55 72 56 43 57
REMARK SMILES IDX 44 58 55 60 73 61 46 62 33 63 34 64 39 65 35 66 36 67 38 68
REMARK SMILES IDX 40 69 37 70 59 71 60 72 65 73 61 74 62 75 64 76 66 77 63 78
REMARK SMILES IDX 47 79 48 80 53 81 49 82 50 83 52 84 54 85 51 86
REMARK H PARENT 16 5 3 14 21 29 71 48 45 59
REMARK Flexibility Score: inf
ROOT
ATOM      1  C   UNL A   1      36.704  22.269  25.441  1.00  0.00     0.116 C 
ENDROOT
BRANCH   1   2
ATOM      2  N   UNL A   1      35.775  21.724  26.420  1.00  0.00    -0.354 N 
ATOM      3  C   UNL A   1      34.418  21.801  26.562  1.00  0.00     0.254 C 
ATOM      4  O   UNL A   1      33.953  21.133  27.487  1.00  0.00    -0.272 OA
ATOM      5  H   UNL A   1      36.215  21.191  27.123  1.00  0.00     0.163 HD
BRANCH   3   6
ATOM      6  C   UNL A   1      33.547  22.611  25.572  1.00  0.00     0.212 C 
ATOM      7  C   UNL A   1      34.339  23.877  25.183  1.00  0.00     0.056 C 
BRANCH   6   8
ATOM      8  C   UNL A   1      33.349  21.686  24.348  1.00  0.00     0.420 C 
ATOM      9  F   UNL A   1      33.842  22.237  23.214  1.00  0.00    -0.168 F 
ATOM     10  F   UNL A   1      33.995  20.506  24.506  1.00  0.00    -0.168 F 
ATOM     11  F   UNL A   1      32.054  21.360  24.141  1.00  0.00    -0.168 F 
ENDBRANCH   6   8
BRANCH   6  12
ATOM     12  N   UNL A   1      32.306  22.954  26.348  1.00  0.00    -0.334 N 
ATOM     13  C   UNL A   1      31.256  23.789  26.150  1.00  0.00     0.231 C 
ATOM     14  H   UNL A   1      32.240  22.457  27.195  1.00  0.00     0.164 HD
ATOM     15  O   UNL A   1      30.546  24.011  27.136  1.00  0.00    -0.274 OA
BRANCH  13  16
ATOM     16  C   UNL A   1      30.897  24.373  24.803  1.00  0.00     0.169 C 
BRANCH  16  17
ATOM     17  S   UNL A   1      30.334  26.097  24.870  1.00  0.00    -0.146 SA
BRANCH  17  18
ATOM     18  C   UNL A   1      31.841  26.966  24.348  1.00  0.00     0.116 C 
BRANCH  18  19
ATOM     19  C   UNL A   1      32.493  27.779  25.426  1.00  0.00     0.014 A 
ATOM     20  C   UNL A   1      33.592  27.522  26.226  1.00  0.00     0.016 A 
ATOM     21  S   UNL A   1      31.826  29.326  25.785  1.00  0.00    -0.148 S 
ATOM     22  C   UNL A   1      33.886  28.592  27.120  1.00  0.00     0.012 A 
ATOM     23  C   UNL A   1      32.996  29.631  26.989  1.00  0.00     0.065 A 
ENDBRANCH  18  19
ENDBRANCH  17  18
ENDBRANCH  16  17
ENDBRANCH  13  16
ENDBRANCH   6  12
ENDBRANCH   3   6
ENDBRANCH   1   2
BRANCH   1  24
ATOM     24  C   UNL A   1      37.077  21.211  24.401  1.00  0.00     0.023 C 
BRANCH  24  25
ATOM     25  C   UNL A   1      37.852  20.015  24.964  1.00  0.00     0.023 C 
BRANCH  25  26
ATOM     26  C   UNL A   1      39.068  20.378  25.808  1.00  0.00     0.116 C 
BRANCH  26  27
ATOM     27  N   UNL A   1      40.051  19.310  25.854  1.00  0.00    -0.352 N 
ATOM     28  C   UNL A   1      41.403  19.388  26.091  1.00  0.00     0.251 C 
ATOM     29  H   UNL A   1      39.700  18.404  25.691  1.00  0.00     0.163 HD
ATOM     30  O   UNL A   1      42.118  18.409  25.924  1.00  0.00    -0.269 OA
BRANCH  28  31
ATOM     31  C   UNL A   1      41.992  20.673  26.522  1.00  0.00     0.039 A 
ATOM     32  C   UNL A   1      42.431  21.573  25.549  1.00  0.00     0.014 A 
ATOM     33  C   UNL A   1      42.089  20.997  27.878  1.00  0.00     0.014 A 
ATOM     34  C   UNL A   1      42.908  22.828  25.934  1.00  0.00     0.010 A 
ATOM     35  C   UNL A   1      42.491  22.274  28.256  1.00  0.00     0.010 A 
ATOM     36  C   UNL A   1      42.906  23.202  27.288  1.00  0.00    -0.014 A 
BRANCH  36  37
ATOM     37  C   UNL A   1      43.330  24.562  27.710  1.00  0.00     0.031 A 
ATOM     38  C   UNL A   1      42.302  25.600  28.063  1.00  0.00     0.074 A 
ATOM     39  C   UNL A   1      44.640  24.881  27.714  1.00  0.00     0.049 A 
ATOM     40  N   UNL A   1      42.473  26.855  28.391  1.00  0.00    -0.248 NA
ATOM     41  C   UNL A   1      40.892  25.179  28.012  1.00  0.00     0.031 C 
ATOM     42  C   UNL A   1      45.732  23.979  27.346  1.00  0.00     0.029 A 
ATOM     43  N   UNL A   1      45.272  26.057  28.030  1.00  0.00    -0.354 N 
ATOM     44  C   UNL A   1      41.198  27.374  28.576  1.00  0.00     0.074 A 
ATOM     45  C   UNL A   1      40.262  26.316  28.264  1.00  0.00     0.031 C 
ATOM     46  C   UNL A   1      46.900  24.626  27.479  1.00  0.00     0.029 A 
ATOM     47  C   UNL A   1      46.640  25.999  27.902  1.00  0.00     0.049 A 
ATOM     48  H   UNL A   1      44.793  26.866  28.321  1.00  0.00     0.167 HD
ATOM     49  C   UNL A   1      40.839  28.613  28.991  1.00  0.00     0.037 A 
ATOM     50  C   UNL A   1      47.577  26.947  28.093  1.00  0.00     0.037 A 
ATOM     51  C   UNL A   1      41.773  29.659  29.315  1.00  0.00     0.049 A 
ATOM     52  C   UNL A   1      47.152  28.319  28.538  1.00  0.00     0.074 A 
ATOM     53  C   UNL A   1      41.511  30.929  29.797  1.00  0.00     0.029 A 
ATOM     54  N   UNL A   1      43.151  29.557  29.184  1.00  0.00    -0.354 N 
ATOM     55  N   UNL A   1      45.947  28.776  28.777  1.00  0.00    -0.248 NA
ATOM     56  C   UNL A   1      48.220  29.307  28.747  1.00  0.00     0.031 C 
ATOM     57  C   UNL A   1      42.726  31.614  29.907  1.00  0.00     0.029 A 
ATOM     58  C   UNL A   1      43.749  30.752  29.551  1.00  0.00     0.049 A 
ATOM     59  H   UNL A   1      43.631  28.756  28.876  1.00  0.00     0.167 HD
ATOM     60  C   UNL A   1      46.112  30.091  29.191  1.00  0.00     0.074 A 
ATOM     61  C   UNL A   1      47.536  30.354  29.184  1.00  0.00     0.031 C 
ATOM     62  C   UNL A   1      45.169  30.998  29.545  1.00  0.00     0.037 A 
BRANCH  49  63
ATOM     63  C   UNL A   1      39.370  28.900  29.118  1.00  0.00     0.057 A 
ATOM     64  C   UNL A   1      38.687  28.741  30.331  1.00  0.00     0.134 A 
ATOM     65  C   UNL A   1      38.635  29.369  28.023  1.00  0.00     0.134 A 
ATOM     66  F   UNL A   1      39.329  28.284  31.419  1.00  0.00    -0.206 F 
ATOM     67  C   UNL A   1      37.320  29.005  30.443  1.00  0.00     0.040 A 
ATOM     68  C   UNL A   1      37.275  29.667  28.129  1.00  0.00     0.040 A 
ATOM     69  F   UNL A   1      39.225  29.551  26.832  1.00  0.00    -0.206 F 
ATOM     70  C   UNL A   1      36.612  29.477  29.340  1.00  0.00     0.006 A 
ENDBRANCH  49  63
BRANCH  50  71
ATOM     71  C   UNL A   1      49.011  26.626  27.884  1.00  0.00     0.057 A 
ATOM     72  C   UNL A   1      49.817  26.190  28.943  1.00  0.00     0.134 A 
ATOM     73  C   UNL A   1      49.613  26.751  26.626  1.00  0.00     0.134 A 
ATOM     74  F   UNL A   1      49.303  26.068  30.176  1.00  0.00    -0.206 F 
ATOM     75  C   UNL A   1      51.172  25.911  28.764  1.00  0.00     0.040 A 
ATOM     76  C   UNL A   1      50.961  26.448  26.427  1.00  0.00     0.040 A 
ATOM     77  F   UNL A   1      48.894  27.154  25.568  1.00  0.00    -0.206 F 
ATOM     78  C   UNL A   1      51.747  26.034  27.501  1.00  0.00     0.006 A 
ENDBRANCH  50  71
BRANCH  62  79
ATOM     79  C   UNL A   1      45.648  32.350  29.991  1.00  0.00     0.057 A 
ATOM     80  C   UNL A   1      45.791  33.420  29.098  1.00  0.00     0.134 A 
ATOM     81  C   UNL A   1      45.934  32.593  31.341  1.00  0.00     0.134 A 
ATOM     82  F   UNL A   1      45.545  33.251  27.790  1.00  0.00    -0.206 F 
ATOM     83  C   UNL A   1      46.222  34.676  29.528  1.00  0.00     0.040 A 
ATOM     84  C   UNL A   1      46.338  33.852  31.788  1.00  0.00     0.040 A 
ATOM     85  F   UNL A   1      45.810  31.615  32.250  1.00  0.00    -0.206 F 
ATOM     86  C   UNL A   1      46.490  34.896  30.878  1.00  0.00     0.006 A 
ENDBRANCH  62  79
ENDBRANCH  36  37
ENDBRANCH  28  31
ENDBRANCH  26  27
ENDBRANCH  25  26
ENDBRANCH  24  25
ENDBRANCH   1  24
TORSDOF 17
ENDMDL
MODEL 3
REMARK VINA RESULT:     -10.5      4.191      9.226
REMARK SMILES C[C@](NC(=O)CSCc1cccs1)(C(=O)NCCCCNC(=O)c1ccc(-c2c3nc(c(-c4c(F)cccc4F)c4ccc([nH]4)c(-c4c(F)cccc4F)c4nc(c(-c5c(F)cccc5F)c5ccc2[nH]5)C=C4)C=C3)cc1)C(F)(F)F
REMARK SMILES IDX 17 1 16 2 14 3 15 4 2 6 1 7 78 8 79 9 80 10 81 11 3 12 4 13
REMARK SMILES IDX 5 15 6 16 7 17 8 18 9 19 10 20 13 21 11 22 12 23 18 24 19 25
REMARK SMILES IDX 20 26 21 27 22 28 23 30 24 31 25 32 77 33 26 34 76 35 27 36
REMARK SMILES IDX 28 37 29 38 70 39 30 40 75 41 69 42 71 43 31 44 74 45 68 46
REMARK SMILES IDX 67 47 32 49 58 50 41 51 57 52 42 53 45 54 56 55 72 56 43 57
REMARK SMILES IDX 44 58 55 60 73 61 46 62 33 63 34 64 39 65 35 66 36 67 38 68
REMARK SMILES IDX 40 69 37 70 59 71 60 72 65 73 61 74 62 75 64 76 66 77 63 78
REMARK SMILES IDX 47 79 48 80 53 81 49 82 50 83 52 84 54 85 51 86
REMARK H PARENT 16 5 3 14 21 29 71 48 45 59
REMARK Flexibility Score: inf
ROOT
ATOM      1  C   UNL A   1      31.756  29.873  25.458  1.00  0.00     0.116 C 
ENDROOT
BRANCH   1   2
ATOM      2  N   UNL A   1      31.697  29.210  26.754  1.00  0.00    -0.354 N 
ATOM      3  C   UNL A   1      31.784  27.901  27.135  1.00  0.00     0.254 C 
ATOM      4  O   UNL A   1      31.771  27.712  28.353  1.00  0.00    -0.272 OA
ATOM      5  H   UNL A   1      31.567  29.832  27.507  1.00  0.00     0.163 HD
BRANCH   3   6
ATOM      6  C   UNL A   1      31.967  26.767  26.097  1.00  0.00     0.212 C 
ATOM      7  C   UNL A   1      31.061  27.090  24.891  1.00  0.00     0.056 C 
BRANCH   6   8
ATOM      8  C   UNL A   1      33.460  26.815  25.696  1.00  0.00     0.420 C 
ATOM      9  F   UNL A   1      34.034  25.590  25.740  1.00  0.00    -0.168 F 
ATOM     10  F   UNL A   1      33.620  27.263  24.428  1.00  0.00    -0.168 F 
ATOM     11  F   UNL A   1      34.184  27.657  26.467  1.00  0.00    -0.168 F 
ENDBRANCH   6   8
BRANCH   6  12
ATOM     12  N   UNL A   1      31.514  25.522  26.809  1.00  0.00    -0.334 N 
ATOM     13  C   UNL A   1      31.185  24.266  26.420  1.00  0.00     0.231 C 
ATOM     14  H   UNL A   1      31.441  25.649  27.782  1.00  0.00     0.164 HD
ATOM     15  O   UNL A   1      30.597  23.575  27.258  1.00  0.00    -0.274 OA
BRANCH  13  16
ATOM     16  C   UNL A   1      31.562  23.682  25.078  1.00  0.00     0.169 C 
BRANCH  16  17
ATOM     17  S   UNL A   1      32.174  21.976  25.158  1.00  0.00    -0.146 SA
BRANCH  17  18
ATOM     18  C   UNL A   1      33.435  22.007  23.851  1.00  0.00     0.116 C 
BRANCH  18  19
ATOM     19  C   UNL A   1      34.786  22.475  24.304  1.00  0.00     0.014 A 
ATOM     20  C   UNL A   1      35.871  22.958  23.593  1.00  0.00     0.016 A 
ATOM     21  S   UNL A   1      35.125  22.452  25.992  1.00  0.00    -0.148 S 
ATOM     22  C   UNL A   1      36.967  23.312  24.432  1.00  0.00     0.012 A 
ATOM     23  C   UNL A   1      36.695  23.078  25.759  1.00  0.00     0.065 A 
ENDBRANCH  18  19
ENDBRANCH  17  18
ENDBRANCH  16  17
ENDBRANCH  13  16
ENDBRANCH   6  12
ENDBRANCH   3   6
ENDBRANCH   1   2
BRANCH   1  24
ATOM     24  C   UNL A   1      31.109  31.257  25.529  1.00  0.00     0.023 C 
BRANCH  24  25
ATOM     25  C   UNL A   1      31.245  31.951  26.888  1.00  0.00     0.023 C 
BRANCH  25  26
ATOM     26  C   UNL A   1      32.551  32.710  27.093  1.00  0.00     0.116 C 
BRANCH  26  27
ATOM     27  N   UNL A   1      32.335  34.093  27.484  1.00  0.00    -0.352 N 
ATOM     28  C   UNL A   1      32.985  34.832  28.444  1.00  0.00     0.251 C 
ATOM     29  H   UNL A   1      31.623  34.565  26.993  1.00  0.00     0.163 HD
ATOM     30  O   UNL A   1      32.562  35.935  28.765  1.00  0.00    -0.269 OA
BRANCH  28  31
ATOM     31  C   UNL A   1      34.181  34.272  29.106  1.00  0.00     0.039 A 
ATOM     32  C   UNL A   1      34.015  33.507  30.263  1.00  0.00     0.014 A 
ATOM     33  C   UNL A   1      35.457  34.482  28.575  1.00  0.00     0.014 A 
ATOM     34  C   UNL A   1      35.125  32.898  30.851  1.00  0.00     0.010 A 
ATOM     35  C   UNL A   1      36.549  33.811  29.117  1.00  0.00     0.010 A 
ATOM     36  C   UNL A   1      36.394  33.014  30.261  1.00  0.00    -0.014 A 
BRANCH  36  37
ATOM     37  C   UNL A   1      37.571  32.303  30.824  1.00  0.00     0.031 A 
ATOM     38  C   UNL A   1      38.232  32.806  32.078  1.00  0.00     0.074 A 
ATOM     39  C   UNL A   1      38.084  31.241  30.171  1.00  0.00     0.049 A 
ATOM     40  N   UNL A   1      39.302  32.361  32.684  1.00  0.00    -0.248 NA
ATOM     41  C   UNL A   1      37.624  33.984  32.718  1.00  0.00     0.031 C 
ATOM     42  C   UNL A   1      37.565  30.685  28.921  1.00  0.00     0.029 A 
ATOM     43  N   UNL A   1      39.164  30.447  30.465  1.00  0.00    -0.354 N 
ATOM     44  C   UNL A   1      39.502  33.206  33.768  1.00  0.00     0.074 A 
ATOM     45  C   UNL A   1      38.478  34.226  33.701  1.00  0.00     0.031 C 
ATOM     46  C   UNL A   1      38.311  29.627  28.567  1.00  0.00     0.029 A 
ATOM     47  C   UNL A   1      39.385  29.454  29.541  1.00  0.00     0.049 A 
ATOM     48  H   UNL A   1      39.727  30.576  31.262  1.00  0.00     0.167 HD
ATOM     49  C   UNL A   1      40.438  33.126  34.744  1.00  0.00     0.037 A 
ATOM     50  C   UNL A   1      40.349  28.515  29.480  1.00  0.00     0.037 A 
ATOM     51  C   UNL A   1      41.445  32.101  34.816  1.00  0.00     0.049 A 
ATOM     52  C   UNL A   1      41.387  28.458  30.566  1.00  0.00     0.074 A 
ATOM     53  C   UNL A   1      42.403  31.901  35.794  1.00  0.00     0.029 A 
ATOM     54  N   UNL A   1      41.629  31.105  33.867  1.00  0.00    -0.354 N 
ATOM     55  N   UNL A   1      41.521  29.221  31.624  1.00  0.00    -0.248 NA
ATOM     56  C   UNL A   1      42.404  27.403  30.455  1.00  0.00     0.031 C 
ATOM     57  C   UNL A   1      43.200  30.817  35.411  1.00  0.00     0.029 A 
ATOM     58  C   UNL A   1      42.702  30.305  34.224  1.00  0.00     0.049 A 
ATOM     59  H   UNL A   1      41.079  30.986  33.060  1.00  0.00     0.167 HD
ATOM     60  C   UNL A   1      42.616  28.722  32.317  1.00  0.00     0.074 A 
ATOM     61  C   UNL A   1      43.100  27.582  31.568  1.00  0.00     0.031 C 
ATOM     62  C   UNL A   1      43.170  29.169  33.471  1.00  0.00     0.037 A 
BRANCH  49  63
ATOM     63  C   UNL A   1      40.411  34.180  35.815  1.00  0.00     0.057 A 
ATOM     64  C   UNL A   1      41.137  35.373  35.697  1.00  0.00     0.134 A 
ATOM     65  C   UNL A   1      39.628  34.013  36.964  1.00  0.00     0.134 A 
ATOM     66  F   UNL A   1      41.916  35.592  34.626  1.00  0.00    -0.206 F 
ATOM     67  C   UNL A   1      41.111  36.347  36.697  1.00  0.00     0.040 A 
ATOM     68  C   UNL A   1      39.571  34.993  37.956  1.00  0.00     0.040 A 
ATOM     69  F   UNL A   1      38.903  32.899  37.140  1.00  0.00    -0.206 F 
ATOM     70  C   UNL A   1      40.320  36.161  37.828  1.00  0.00     0.006 A 
ENDBRANCH  49  63
BRANCH  50  71
ATOM     71  C   UNL A   1      40.368  27.542  28.359  1.00  0.00     0.057 A 
ATOM     72  C   UNL A   1      39.648  26.343  28.430  1.00  0.00     0.134 A 
ATOM     73  C   UNL A   1      41.107  27.781  27.194  1.00  0.00     0.134 A 
ATOM     74  F   UNL A   1      38.935  26.048  29.527  1.00  0.00    -0.206 F 
ATOM     75  C   UNL A   1      39.678  25.409  27.394  1.00  0.00     0.040 A 
ATOM     76  C   UNL A   1      41.124  26.868  26.138  1.00  0.00     0.040 A 
ATOM     77  F   UNL A   1      41.811  28.915  27.059  1.00  0.00    -0.206 F 
ATOM     78  C   UNL A   1      40.415  25.673  26.240  1.00  0.00     0.006 A 
ENDBRANCH  50  71
BRANCH  62  79
ATOM     79  C   UNL A   1      44.341  28.400  34.015  1.00  0.00     0.057 A 
ATOM     80  C   UNL A   1      44.176  27.277  34.834  1.00  0.00     0.134 A 
ATOM     81  C   UNL A   1      45.650  28.770  33.680  1.00  0.00     0.134 A 
ATOM     82  F   UNL A   1      42.949  26.877  35.202  1.00  0.00    -0.206 F 
ATOM     83  C   UNL A   1      45.272  26.562  35.320  1.00  0.00     0.040 A 
ATOM     84  C   UNL A   1      46.753  28.046  34.137  1.00  0.00     0.040 A 
ATOM     85  F   UNL A   1      45.879  29.831  32.892  1.00  0.00    -0.206 F 
ATOM     86  C   UNL A   1      46.565  26.942  34.965  1.00  0.00     0.006 A 
ENDBRANCH  62  79
ENDBRANCH  36  37
ENDBRANCH  28  31
ENDBRANCH  26  27
ENDBRANCH  25  26
ENDBRANCH  24  25
ENDBRANCH   1  24
TORSDOF 17
ENDMDL
