MODEL 1
REMARK VINA RESULT:     -11.7      0.000      0.000
REMARK SMILES O=C(NCCCCNC(=O)[C@H]1SC=C[C@@H]1S(=O)(=O)NCCC1=c2ccccc2=NC1)c1ccc(-c2c3nc(c(-c4c(F)cccc4F)c4ccc([nH]4)c(-c4c(F)cccc4F)c4nc(c(-c5c(F)cccc5F)c5ccc2[nH]5)C=C4)C=C3)cc1
REMARK SMILES IDX 7 1 6 2 5 3 4 4 3 5 1 6 2 7 31 9 32 10 84 11 33 12 83 13
REMARK SMILES IDX 34 14 35 15 36 16 77 17 37 18 82 19 76 20 78 21 38 22 81 23
REMARK SMILES IDX 75 24 74 25 39 27 65 28 48 29 64 30 49 31 52 32 63 33 79 34
REMARK SMILES IDX 50 35 51 36 62 38 80 39 53 40 40 41 41 42 46 43 42 44 43 45
REMARK SMILES IDX 45 46 47 47 44 48 66 49 67 50 72 51 68 52 69 53 71 54 73 55
REMARK SMILES IDX 70 56 54 57 55 58 60 59 56 60 57 61 59 62 61 63 58 64 8 65
REMARK SMILES IDX 9 66 10 68 11 69 12 70 15 71 13 72 14 73 16 74 17 75 18 76
REMARK SMILES IDX 19 77 20 79 21 80 22 81 23 82 30 83 24 84 28 85 29 86 25 87
REMARK SMILES IDX 27 88 26 89
REMARK H PARENT 3 8 78 26 52 37 8 67 19 78
REMARK Flexibility Score: inf
ROOT
ATOM      1  C   UNL A   1      31.192  29.654  24.880  1.00  0.00     0.116 C 
ENDROOT
BRANCH   1   2
ATOM      2  C   UNL A   1      31.600  30.152  26.268  1.00  0.00     0.023 C 
BRANCH   2   3
ATOM      3  C   UNL A   1      31.393  31.644  26.501  1.00  0.00     0.023 C 
BRANCH   3   4
ATOM      4  C   UNL A   1      32.661  32.391  26.890  1.00  0.00     0.116 C 
BRANCH   4   5
ATOM      5  N   UNL A   1      32.394  33.744  27.360  1.00  0.00    -0.352 N 
ATOM      6  O   UNL A   1      32.526  35.509  28.751  1.00  0.00    -0.269 OA
ATOM      7  C   UNL A   1      32.987  34.434  28.387  1.00  0.00     0.251 C 
ATOM      8  H   UNL A   1      31.689  34.231  26.873  1.00  0.00     0.163 HD
BRANCH   7   9
ATOM      9  C   UNL A   1      34.176  33.867  29.053  1.00  0.00     0.039 A 
ATOM     10  C   UNL A   1      35.442  34.348  28.711  1.00  0.00     0.014 A 
ATOM     11  C   UNL A   1      34.037  32.854  30.007  1.00  0.00     0.014 A 
ATOM     12  C   UNL A   1      36.569  33.834  29.352  1.00  0.00     0.010 A 
ATOM     13  C   UNL A   1      35.150  32.409  30.707  1.00  0.00     0.010 A 
ATOM     14  C   UNL A   1      36.429  32.872  30.365  1.00  0.00    -0.014 A 
BRANCH  14  15
ATOM     15  C   UNL A   1      37.607  32.264  31.028  1.00  0.00     0.031 A 
ATOM     16  C   UNL A   1      38.341  31.148  30.337  1.00  0.00     0.074 A 
ATOM     17  C   UNL A   1      37.977  32.663  32.258  1.00  0.00     0.049 A 
ATOM     18  N   UNL A   1      39.308  30.389  30.783  1.00  0.00    -0.248 NA
ATOM     19  C   UNL A   1      37.902  30.822  28.970  1.00  0.00     0.031 C 
ATOM     20  C   UNL A   1      37.333  33.722  33.036  1.00  0.00     0.029 A 
ATOM     21  N   UNL A   1      38.977  32.207  33.077  1.00  0.00    -0.354 N 
ATOM     22  C   UNL A   1      39.578  29.487  29.760  1.00  0.00     0.074 A 
ATOM     23  C   UNL A   1      38.630  29.751  28.700  1.00  0.00     0.031 C 
ATOM     24  C   UNL A   1      37.963  33.840  34.217  1.00  0.00     0.029 A 
ATOM     25  C   UNL A   1      39.018  32.835  34.297  1.00  0.00     0.049 A 
ATOM     26  H   UNL A   1      39.607  31.497  32.815  1.00  0.00     0.167 HD
ATOM     27  C   UNL A   1      40.544  28.540  29.699  1.00  0.00     0.037 A 
ATOM     28  C   UNL A   1      39.799  32.603  35.368  1.00  0.00     0.037 A 
ATOM     29  C   UNL A   1      41.492  28.293  30.752  1.00  0.00     0.049 A 
ATOM     30  C   UNL A   1      40.829  31.507  35.301  1.00  0.00     0.074 A 
ATOM     31  C   UNL A   1      42.546  27.398  30.773  1.00  0.00     0.029 A 
ATOM     32  N   UNL A   1      41.493  28.943  31.978  1.00  0.00    -0.354 N 
ATOM     33  N   UNL A   1      41.116  30.700  34.308  1.00  0.00    -0.248 NA
ATOM     34  C   UNL A   1      41.638  31.286  36.508  1.00  0.00     0.031 C 
ATOM     35  C   UNL A   1      43.145  27.460  32.035  1.00  0.00     0.029 A 
ATOM     36  C   UNL A   1      42.503  28.436  32.781  1.00  0.00     0.049 A 
ATOM     37  H   UNL A   1      40.868  29.657  32.239  1.00  0.00     0.167 HD
ATOM     38  C   UNL A   1      42.146  29.886  34.763  1.00  0.00     0.074 A 
ATOM     39  C   UNL A   1      42.451  30.316  36.113  1.00  0.00     0.031 C 
ATOM     40  C   UNL A   1      42.780  28.870  34.126  1.00  0.00     0.037 A 
BRANCH  27  41
ATOM     41  C   UNL A   1      40.599  27.697  28.457  1.00  0.00     0.057 A 
ATOM     42  C   UNL A   1      41.323  28.124  27.336  1.00  0.00     0.134 A 
ATOM     43  C   UNL A   1      39.946  26.459  28.369  1.00  0.00     0.134 A 
ATOM     44  F   UNL A   1      41.966  29.301  27.348  1.00  0.00    -0.206 F 
ATOM     45  C   UNL A   1      41.406  27.346  26.180  1.00  0.00     0.040 A 
ATOM     46  C   UNL A   1      40.051  25.656  27.230  1.00  0.00     0.040 A 
ATOM     47  F   UNL A   1      39.247  25.982  29.410  1.00  0.00    -0.206 F 
ATOM     48  C   UNL A   1      40.779  26.103  26.130  1.00  0.00     0.006 A 
ENDBRANCH  27  41
BRANCH  28  49
ATOM     49  C   UNL A   1      39.629  33.409  36.604  1.00  0.00     0.057 A 
ATOM     50  C   UNL A   1      40.349  34.591  36.811  1.00  0.00     0.134 A 
ATOM     51  C   UNL A   1      38.725  33.023  37.602  1.00  0.00     0.134 A 
ATOM     52  F   UNL A   1      41.236  35.014  35.897  1.00  0.00    -0.206 F 
ATOM     53  C   UNL A   1      40.185  35.357  37.965  1.00  0.00     0.040 A 
ATOM     54  C   UNL A   1      38.529  33.795  38.749  1.00  0.00     0.040 A 
ATOM     55  F   UNL A   1      37.990  31.911  37.453  1.00  0.00    -0.206 F 
ATOM     56  C   UNL A   1      39.264  34.964  38.935  1.00  0.00     0.006 A 
ENDBRANCH  28  49
BRANCH  40  57
ATOM     57  C   UNL A   1      43.867  28.162  34.882  1.00  0.00     0.057 A 
ATOM     58  C   UNL A   1      43.587  27.013  35.632  1.00  0.00     0.134 A 
ATOM     59  C   UNL A   1      45.185  28.637  34.896  1.00  0.00     0.134 A 
ATOM     60  F   UNL A   1      42.345  26.508  35.669  1.00  0.00    -0.206 F 
ATOM     61  C   UNL A   1      44.578  26.365  36.373  1.00  0.00     0.040 A 
ATOM     62  C   UNL A   1      46.190  27.982  35.609  1.00  0.00     0.040 A 
ATOM     63  F   UNL A   1      45.522  29.725  34.187  1.00  0.00    -0.206 F 
ATOM     64  C   UNL A   1      45.884  26.847  36.357  1.00  0.00     0.006 A 
ENDBRANCH  40  57
ENDBRANCH  14  15
ENDBRANCH   7   9
ENDBRANCH   4   5
ENDBRANCH   3   4
ENDBRANCH   2   3
ENDBRANCH   1   2
BRANCH   1  65
ATOM     65  N   UNL A   1      32.344  29.517  24.025  1.00  0.00    -0.355 N 
ATOM     66  C   UNL A   1      32.870  28.407  23.430  1.00  0.00     0.235 C 
ATOM     67  H   UNL A   1      32.827  30.354  23.842  1.00  0.00     0.163 HD
ATOM     68  O   UNL A   1      33.935  28.584  22.835  1.00  0.00    -0.274 OA
BRANCH  66  69
ATOM     69  C   UNL A   1      32.140  27.051  23.524  1.00  0.00     0.163 C 
ATOM     70  S   UNL A   1      32.978  25.855  22.380  1.00  0.00    -0.119 SA
ATOM     71  C   UNL A   1      32.296  26.422  24.915  1.00  0.00     0.170 C 
ATOM     72  C   UNL A   1      33.998  25.268  23.651  1.00  0.00     0.038 C 
ATOM     73  C   UNL A   1      33.577  25.613  24.873  1.00  0.00     0.002 C 
BRANCH  71  74
ATOM     74  S   UNL A   1      30.926  25.247  25.281  1.00  0.00     0.219 S 
ATOM     75  O   UNL A   1      30.199  25.655  26.457  1.00  0.00    -0.212 OA
ATOM     76  O   UNL A   1      30.215  24.937  24.054  1.00  0.00    -0.212 OA
BRANCH  74  77
ATOM     77  N   UNL A   1      31.669  23.794  25.630  1.00  0.00    -0.214 NA
ATOM     78  H   UNL A   1      32.662  23.962  25.471  1.00  0.00     0.141 HD
BRANCH  77  79
ATOM     79  C   UNL A   1      31.609  23.055  26.887  1.00  0.00     0.103 C 
BRANCH  79  80
ATOM     80  C   UNL A   1      32.933  22.569  27.479  1.00  0.00     0.050 C 
BRANCH  80  81
ATOM     81  C   UNL A   1      33.844  21.865  26.527  1.00  0.00    -0.038 C 
ATOM     82  C   UNL A   1      35.038  22.282  26.110  1.00  0.00     0.001 A 
ATOM     83  C   UNL A   1      33.502  20.552  25.890  1.00  0.00     0.174 C 
ATOM     84  C   UNL A   1      35.877  23.403  26.394  1.00  0.00     0.010 A 
ATOM     85  C   UNL A   1      35.435  21.240  25.150  1.00  0.00     0.065 A 
ATOM     86  N   UNL A   1      34.619  20.248  24.965  1.00  0.00    -0.280 NA
ATOM     87  C   UNL A   1      37.052  23.506  25.749  1.00  0.00     0.001 A 
ATOM     88  C   UNL A   1      36.728  21.436  24.464  1.00  0.00     0.028 A 
ATOM     89  C   UNL A   1      37.468  22.517  24.768  1.00  0.00     0.002 A 
ENDBRANCH  80  81
ENDBRANCH  79  80
ENDBRANCH  77  79
ENDBRANCH  74  77
ENDBRANCH  71  74
ENDBRANCH  66  69
ENDBRANCH   1  65
TORSDOF 16
ENDMDL
MODEL 2
REMARK VINA RESULT:     -11.6      1.644      3.830
REMARK SMILES O=C(NCCCCNC(=O)[C@H]1SC=C[C@@H]1S(=O)(=O)NCCC1=c2ccccc2=NC1)c1ccc(-c2c3nc(c(-c4c(F)cccc4F)c4ccc([nH]4)c(-c4c(F)cccc4F)c4nc(c(-c5c(F)cccc5F)c5ccc2[nH]5)C=C4)C=C3)cc1
REMARK SMILES IDX 7 1 6 2 5 3 4 4 3 5 1 6 2 7 31 9 32 10 84 11 33 12 83 13
REMARK SMILES IDX 34 14 35 15 36 16 77 17 37 18 82 19 76 20 78 21 38 22 81 23
REMARK SMILES IDX 75 24 74 25 39 27 65 28 48 29 64 30 49 31 52 32 63 33 79 34
REMARK SMILES IDX 50 35 51 36 62 38 80 39 53 40 40 41 41 42 46 43 42 44 43 45
REMARK SMILES IDX 45 46 47 47 44 48 66 49 67 50 72 51 68 52 69 53 71 54 73 55
REMARK SMILES IDX 70 56 54 57 55 58 60 59 56 60 57 61 59 62 61 63 58 64 8 65
REMARK SMILES IDX 9 66 10 68 11 69 12 70 15 71 13 72 14 73 16 74 17 75 18 76
REMARK SMILES IDX 19 77 20 79 21 80 22 81 23 82 30 83 24 84 28 85 29 86 25 87
REMARK SMILES IDX 27 88 26 89
REMARK H PARENT 3 8 78 26 52 37 8 67 19 78
REMARK Flexibility Score: inf
ROOT
ATOM      1  C   UNL A   1      32.859  29.453  25.791  1.00  0.00     0.116 C 
ENDROOT
BRANCH   1   2
ATOM      2  C   UNL A   1      31.541  30.167  25.483  1.00  0.00     0.023 C 
BRANCH   2   3
ATOM      3  C   UNL A   1      31.265  31.401  26.334  1.00  0.00     0.023 C 
BRANCH   3   4
ATOM      4  C   UNL A   1      32.515  32.043  26.918  1.00  0.00     0.116 C 
BRANCH   4   5
ATOM      5  N   UNL A   1      32.321  33.446  27.256  1.00  0.00    -0.352 N 
ATOM      6  O   UNL A   1      32.594  35.339  28.444  1.00  0.00    -0.269 OA
ATOM      7  C   UNL A   1      32.997  34.215  28.170  1.00  0.00     0.251 C 
ATOM      8  H   UNL A   1      31.605  33.907  26.761  1.00  0.00     0.163 HD
BRANCH   7   9
ATOM      9  C   UNL A   1      34.204  33.675  28.824  1.00  0.00     0.039 A 
ATOM     10  C   UNL A   1      35.449  34.234  28.525  1.00  0.00     0.014 A 
ATOM     11  C   UNL A   1      34.105  32.610  29.726  1.00  0.00     0.014 A 
ATOM     12  C   UNL A   1      36.592  33.745  29.156  1.00  0.00     0.010 A 
ATOM     13  C   UNL A   1      35.229  32.186  30.419  1.00  0.00     0.010 A 
ATOM     14  C   UNL A   1      36.488  32.728  30.118  1.00  0.00    -0.014 A 
BRANCH  14  15
ATOM     15  C   UNL A   1      37.687  32.146  30.768  1.00  0.00     0.031 A 
ATOM     16  C   UNL A   1      38.432  31.041  30.072  1.00  0.00     0.074 A 
ATOM     17  C   UNL A   1      38.066  32.559  31.990  1.00  0.00     0.049 A 
ATOM     18  N   UNL A   1      39.420  30.302  30.508  1.00  0.00    -0.248 NA
ATOM     19  C   UNL A   1      37.981  30.699  28.713  1.00  0.00     0.031 C 
ATOM     20  C   UNL A   1      37.414  33.611  32.772  1.00  0.00     0.029 A 
ATOM     21  N   UNL A   1      39.087  32.127  32.797  1.00  0.00    -0.354 N 
ATOM     22  C   UNL A   1      39.692  29.400  29.487  1.00  0.00     0.074 A 
ATOM     23  C   UNL A   1      38.725  29.640  28.440  1.00  0.00     0.031 C 
ATOM     24  C   UNL A   1      38.057  33.747  33.943  1.00  0.00     0.029 A 
ATOM     25  C   UNL A   1      39.133  32.762  34.014  1.00  0.00     0.049 A 
ATOM     26  H   UNL A   1      39.726  31.427  32.530  1.00  0.00     0.167 HD
ATOM     27  C   UNL A   1      40.676  28.472  29.417  1.00  0.00     0.037 A 
ATOM     28  C   UNL A   1      39.934  32.552  35.075  1.00  0.00     0.037 A 
ATOM     29  C   UNL A   1      41.643  28.249  30.458  1.00  0.00     0.049 A 
ATOM     30  C   UNL A   1      40.983  31.475  34.999  1.00  0.00     0.074 A 
ATOM     31  C   UNL A   1      42.714  27.374  30.468  1.00  0.00     0.029 A 
ATOM     32  N   UNL A   1      41.649  28.906  31.680  1.00  0.00    -0.354 N 
ATOM     33  N   UNL A   1      41.272  30.669  34.006  1.00  0.00    -0.248 NA
ATOM     34  C   UNL A   1      41.813  31.276  36.195  1.00  0.00     0.031 C 
ATOM     35  C   UNL A   1      43.330  27.455  31.722  1.00  0.00     0.029 A 
ATOM     36  C   UNL A   1      42.680  28.423  32.471  1.00  0.00     0.049 A 
ATOM     37  H   UNL A   1      41.015  29.609  31.947  1.00  0.00     0.167 HD
ATOM     38  C   UNL A   1      42.323  29.877  34.450  1.00  0.00     0.074 A 
ATOM     39  C   UNL A   1      42.639  30.320  35.793  1.00  0.00     0.031 C 
ATOM     40  C   UNL A   1      42.968  28.870  33.810  1.00  0.00     0.037 A 
BRANCH  27  41
ATOM     41  C   UNL A   1      40.729  27.623  28.179  1.00  0.00     0.057 A 
ATOM     42  C   UNL A   1      41.472  28.032  27.065  1.00  0.00     0.134 A 
ATOM     43  C   UNL A   1      40.056  26.396  28.088  1.00  0.00     0.134 A 
ATOM     44  F   UNL A   1      42.136  29.198  27.079  1.00  0.00    -0.206 F 
ATOM     45  C   UNL A   1      41.554  27.249  25.912  1.00  0.00     0.040 A 
ATOM     46  C   UNL A   1      40.159  25.587  26.954  1.00  0.00     0.040 A 
ATOM     47  F   UNL A   1      39.337  25.936  29.124  1.00  0.00    -0.206 F 
ATOM     48  C   UNL A   1      40.906  26.016  25.860  1.00  0.00     0.006 A 
ENDBRANCH  27  41
BRANCH  28  49
ATOM     49  C   UNL A   1      39.765  33.361  36.309  1.00  0.00     0.057 A 
ATOM     50  C   UNL A   1      40.465  34.559  36.498  1.00  0.00     0.134 A 
ATOM     51  C   UNL A   1      38.884  32.964  37.322  1.00  0.00     0.134 A 
ATOM     52  F   UNL A   1      41.330  34.994  35.568  1.00  0.00    -0.206 F 
ATOM     53  C   UNL A   1      40.302  35.328  37.650  1.00  0.00     0.040 A 
ATOM     54  C   UNL A   1      38.690  33.737  38.467  1.00  0.00     0.040 A 
ATOM     55  F   UNL A   1      38.170  31.836  37.189  1.00  0.00    -0.206 F 
ATOM     56  C   UNL A   1      39.404  34.922  38.635  1.00  0.00     0.006 A 
ENDBRANCH  28  49
BRANCH  40  57
ATOM     57  C   UNL A   1      44.079  28.187  34.554  1.00  0.00     0.057 A 
ATOM     58  C   UNL A   1      43.834  27.029  35.303  1.00  0.00     0.134 A 
ATOM     59  C   UNL A   1      45.385  28.695  34.557  1.00  0.00     0.134 A 
ATOM     60  F   UNL A   1      42.605  26.494  35.351  1.00  0.00    -0.206 F 
ATOM     61  C   UNL A   1      44.847  26.405  36.033  1.00  0.00     0.040 A 
ATOM     62  C   UNL A   1      46.412  28.062  35.259  1.00  0.00     0.040 A 
ATOM     63  F   UNL A   1      45.689  29.792  33.848  1.00  0.00    -0.206 F 
ATOM     64  C   UNL A   1      46.141  26.918  36.007  1.00  0.00     0.006 A 
ENDBRANCH  40  57
ENDBRANCH  14  15
ENDBRANCH   7   9
ENDBRANCH   4   5
ENDBRANCH   3   4
ENDBRANCH   2   3
ENDBRANCH   1   2
BRANCH   1  65
ATOM     65  N   UNL A   1      33.655  29.309  24.599  1.00  0.00    -0.355 N 
ATOM     66  C   UNL A   1      33.781  28.248  23.749  1.00  0.00     0.235 C 
ATOM     67  H   UNL A   1      34.192  30.098  24.360  1.00  0.00     0.163 HD
ATOM     68  O   UNL A   1      34.627  28.383  22.862  1.00  0.00    -0.274 OA
BRANCH  66  69
ATOM     69  C   UNL A   1      32.898  26.995  23.929  1.00  0.00     0.163 C 
ATOM     70  S   UNL A   1      33.328  25.781  22.593  1.00  0.00    -0.119 SA
ATOM     71  C   UNL A   1      33.226  26.258  25.233  1.00  0.00     0.170 C 
ATOM     72  C   UNL A   1      34.478  24.982  23.612  1.00  0.00     0.038 C 
ATOM     73  C   UNL A   1      34.348  25.295  24.906  1.00  0.00     0.002 C 
BRANCH  71  74
ATOM     74  S   UNL A   1      31.798  25.248  25.813  1.00  0.00     0.219 S 
ATOM     75  O   UNL A   1      32.108  23.842  25.759  1.00  0.00    -0.212 OA
ATOM     76  O   UNL A   1      31.257  25.831  27.028  1.00  0.00    -0.212 OA
BRANCH  74  77
ATOM     77  N   UNL A   1      30.576  25.535  24.714  1.00  0.00    -0.214 NA
ATOM     78  H   UNL A   1      30.185  24.615  24.511  1.00  0.00     0.141 HD
BRANCH  77  79
ATOM     79  C   UNL A   1      29.418  26.404  24.894  1.00  0.00     0.103 C 
BRANCH  79  80
ATOM     80  C   UNL A   1      28.684  26.866  23.633  1.00  0.00     0.050 C 
BRANCH  80  81
ATOM     81  C   UNL A   1      29.195  28.127  23.017  1.00  0.00    -0.038 C 
ATOM     82  C   UNL A   1      28.644  29.336  23.101  1.00  0.00     0.001 A 
ATOM     83  C   UNL A   1      30.440  28.182  22.184  1.00  0.00     0.174 C 
ATOM     84  C   UNL A   1      27.509  29.889  23.769  1.00  0.00     0.010 A 
ATOM     85  C   UNL A   1      29.526  30.161  22.261  1.00  0.00     0.065 A 
ATOM     86  N   UNL A   1      30.544  29.580  21.704  1.00  0.00    -0.280 NA
ATOM     87  C   UNL A   1      27.241  31.196  23.607  1.00  0.00     0.001 A 
ATOM     88  C   UNL A   1      29.152  31.582  22.111  1.00  0.00     0.028 A 
ATOM     89  C   UNL A   1      28.067  32.040  22.758  1.00  0.00     0.002 A 
ENDBRANCH  80  81
ENDBRANCH  79  80
ENDBRANCH  77  79
ENDBRANCH  74  77
ENDBRANCH  71  74
ENDBRANCH  66  69
ENDBRANCH   1  65
TORSDOF 16
ENDMDL
MODEL 3
REMARK VINA RESULT:     -11.5      1.363      2.074
REMARK SMILES O=C(NCCCCNC(=O)[C@H]1SC=C[C@@H]1S(=O)(=O)NCCC1=c2ccccc2=NC1)c1ccc(-c2c3nc(c(-c4c(F)cccc4F)c4ccc([nH]4)c(-c4c(F)cccc4F)c4nc(c(-c5c(F)cccc5F)c5ccc2[nH]5)C=C4)C=C3)cc1
REMARK SMILES IDX 7 1 6 2 5 3 4 4 3 5 1 6 2 7 31 9 32 10 84 11 33 12 83 13
REMARK SMILES IDX 34 14 35 15 36 16 77 17 37 18 82 19 76 20 78 21 38 22 81 23
REMARK SMILES IDX 75 24 74 25 39 27 65 28 48 29 64 30 49 31 52 32 63 33 79 34
REMARK SMILES IDX 50 35 51 36 62 38 80 39 53 40 40 41 41 42 46 43 42 44 43 45
REMARK SMILES IDX 45 46 47 47 44 48 66 49 67 50 72 51 68 52 69 53 71 54 73 55
REMARK SMILES IDX 70 56 54 57 55 58 60 59 56 60 57 61 59 62 61 63 58 64 8 65
REMARK SMILES IDX 9 66 10 68 11 69 12 70 15 71 13 72 14 73 16 74 17 75 18 76
REMARK SMILES IDX 19 77 20 79 21 80 22 81 23 82 30 83 24 84 28 85 29 86 25 87
REMARK SMILES IDX 27 88 26 89
REMARK H PARENT 3 8 78 26 52 37 8 67 19 78
REMARK Flexibility Score: inf
ROOT
ATOM      1  C   UNL A   1      32.760  29.977  26.178  1.00  0.00     0.116 C 
ENDROOT
BRANCH   1   2
ATOM      2  C   UNL A   1      31.538  30.877  25.979  1.00  0.00     0.023 C 
BRANCH   2   3
ATOM      3  C   UNL A   1      31.414  32.021  26.979  1.00  0.00     0.023 C 
BRANCH   3   4
ATOM      4  C   UNL A   1      32.694  32.823  27.164  1.00  0.00     0.116 C 
BRANCH   4   5
ATOM      5  N   UNL A   1      32.441  34.196  27.583  1.00  0.00    -0.352 N 
ATOM      6  O   UNL A   1      32.592  36.010  28.907  1.00  0.00    -0.269 OA
ATOM      7  C   UNL A   1      33.042  34.917  28.583  1.00  0.00     0.251 C 
ATOM      8  H   UNL A   1      31.741  34.671  27.079  1.00  0.00     0.163 HD
BRANCH   7   9
ATOM      9  C   UNL A   1      34.225  34.364  29.270  1.00  0.00     0.039 A 
ATOM     10  C   UNL A   1      35.494  34.592  28.730  1.00  0.00     0.014 A 
ATOM     11  C   UNL A   1      34.079  33.612  30.440  1.00  0.00     0.014 A 
ATOM     12  C   UNL A   1      36.619  34.092  29.384  1.00  0.00     0.010 A 
ATOM     13  C   UNL A   1      35.203  33.194  31.136  1.00  0.00     0.010 A 
ATOM     14  C   UNL A   1      36.483  33.403  30.600  1.00  0.00    -0.014 A 
BRANCH  14  15
ATOM     15  C   UNL A   1      37.651  32.810  31.293  1.00  0.00     0.031 A 
ATOM     16  C   UNL A   1      38.323  31.605  30.696  1.00  0.00     0.074 A 
ATOM     17  C   UNL A   1      38.065  33.306  32.473  1.00  0.00     0.049 A 
ATOM     18  N   UNL A   1      39.270  30.851  31.192  1.00  0.00    -0.248 NA
ATOM     19  C   UNL A   1      37.840  31.172  29.374  1.00  0.00     0.031 C 
ATOM     20  C   UNL A   1      37.483  34.459  33.161  1.00  0.00     0.029 A 
ATOM     21  N   UNL A   1      39.066  32.887  33.311  1.00  0.00    -0.354 N 
ATOM     22  C   UNL A   1      39.479  29.847  30.253  1.00  0.00     0.074 A 
ATOM     23  C   UNL A   1      38.518  30.051  29.192  1.00  0.00     0.031 C 
ATOM     24  C   UNL A   1      38.144  34.660  34.313  1.00  0.00     0.029 A 
ATOM     25  C   UNL A   1      39.160  33.623  34.466  1.00  0.00     0.049 A 
ATOM     26  H   UNL A   1      39.660  32.129  33.105  1.00  0.00     0.167 HD
ATOM     27  C   UNL A   1      40.405  28.859  30.262  1.00  0.00     0.037 A 
ATOM     28  C   UNL A   1      39.957  33.459  35.539  1.00  0.00     0.037 A 
ATOM     29  C   UNL A   1      41.367  28.672  31.314  1.00  0.00     0.049 A 
ATOM     30  C   UNL A   1      40.940  32.319  35.554  1.00  0.00     0.074 A 
ATOM     31  C   UNL A   1      42.385  27.739  31.398  1.00  0.00     0.029 A 
ATOM     32  N   UNL A   1      41.423  29.432  32.474  1.00  0.00    -0.354 N 
ATOM     33  N   UNL A   1      41.171  31.413  34.636  1.00  0.00    -0.248 NA
ATOM     34  C   UNL A   1      41.768  32.178  36.760  1.00  0.00     0.031 C 
ATOM     35  C   UNL A   1      43.016  27.893  32.637  1.00  0.00     0.029 A 
ATOM     36  C   UNL A   1      42.430  28.961  33.300  1.00  0.00     0.049 A 
ATOM     37  H   UNL A   1      40.834  30.193  32.679  1.00  0.00     0.167 HD
ATOM     38  C   UNL A   1      42.178  30.602  35.145  1.00  0.00     0.074 A 
ATOM     39  C   UNL A   1      42.532  31.142  36.442  1.00  0.00     0.031 C 
ATOM     40  C   UNL A   1      42.756  29.506  34.594  1.00  0.00     0.037 A 
BRANCH  27  41
ATOM     41  C   UNL A   1      40.397  27.903  29.104  1.00  0.00     0.057 A 
ATOM     42  C   UNL A   1      39.591  26.757  29.131  1.00  0.00     0.134 A 
ATOM     43  C   UNL A   1      41.176  28.115  27.957  1.00  0.00     0.134 A 
ATOM     44  F   UNL A   1      38.824  26.488  30.199  1.00  0.00    -0.206 F 
ATOM     45  C   UNL A   1      39.550  25.866  28.057  1.00  0.00     0.040 A 
ATOM     46  C   UNL A   1      41.117  27.249  26.863  1.00  0.00     0.040 A 
ATOM     47  F   UNL A   1      41.960  29.199  27.859  1.00  0.00    -0.206 F 
ATOM     48  C   UNL A   1      40.305  26.118  26.914  1.00  0.00     0.006 A 
ENDBRANCH  27  41
BRANCH  28  49
ATOM     49  C   UNL A   1      39.848  34.383  36.697  1.00  0.00     0.057 A 
ATOM     50  C   UNL A   1      40.467  35.639  36.691  1.00  0.00     0.134 A 
ATOM     51  C   UNL A   1      39.104  34.038  37.832  1.00  0.00     0.134 A 
ATOM     52  F   UNL A   1      41.200  36.028  35.636  1.00  0.00    -0.206 F 
ATOM     53  C   UNL A   1      40.359  36.514  37.771  1.00  0.00     0.040 A 
ATOM     54  C   UNL A   1      38.963  34.915  38.908  1.00  0.00     0.040 A 
ATOM     55  F   UNL A   1      38.471  32.857  37.889  1.00  0.00    -0.206 F 
ATOM     56  C   UNL A   1      39.596  36.156  38.882  1.00  0.00     0.006 A 
ENDBRANCH  28  49
BRANCH  40  57
ATOM     57  C   UNL A   1      43.832  28.826  35.391  1.00  0.00     0.057 A 
ATOM     58  C   UNL A   1      43.509  27.862  36.355  1.00  0.00     0.134 A 
ATOM     59  C   UNL A   1      45.186  29.150  35.229  1.00  0.00     0.134 A 
ATOM     60  F   UNL A   1      42.233  27.511  36.567  1.00  0.00    -0.206 F 
ATOM     61  C   UNL A   1      44.494  27.251  37.133  1.00  0.00     0.040 A 
ATOM     62  C   UNL A   1      46.181  28.524  35.980  1.00  0.00     0.040 A 
ATOM     63  F   UNL A   1      45.563  30.054  34.313  1.00  0.00    -0.206 F 
ATOM     64  C   UNL A   1      45.834  27.576  36.942  1.00  0.00     0.006 A 
ENDBRANCH  40  57
ENDBRANCH  14  15
ENDBRANCH   7   9
ENDBRANCH   4   5
ENDBRANCH   3   4
ENDBRANCH   2   3
ENDBRANCH   1   2
BRANCH   1  65
ATOM     65  N   UNL A   1      33.376  29.662  24.914  1.00  0.00    -0.355 N 
ATOM     66  C   UNL A   1      33.131  28.637  24.048  1.00  0.00     0.235 C 
ATOM     67  H   UNL A   1      34.085  30.283  24.631  1.00  0.00     0.163 HD
ATOM     68  O   UNL A   1      33.899  28.565  23.086  1.00  0.00    -0.274 OA
BRANCH  66  69
ATOM     69  C   UNL A   1      31.959  27.665  24.301  1.00  0.00     0.163 C 
ATOM     70  S   UNL A   1      30.998  27.485  22.723  1.00  0.00    -0.119 SA
ATOM     71  C   UNL A   1      32.458  26.248  24.607  1.00  0.00     0.170 C 
ATOM     72  C   UNL A   1      31.911  26.088  22.262  1.00  0.00     0.038 C 
ATOM     73  C   UNL A   1      32.610  25.553  23.269  1.00  0.00     0.002 C 
BRANCH  71  74
ATOM     74  S   UNL A   1      31.217  25.290  25.575  1.00  0.00     0.219 S 
ATOM     75  O   UNL A   1      30.512  26.146  26.496  1.00  0.00    -0.212 OA
ATOM     76  O   UNL A   1      30.481  24.414  24.683  1.00  0.00    -0.212 OA
BRANCH  74  77
ATOM     77  N   UNL A   1      32.102  24.203  26.479  1.00  0.00    -0.214 NA
ATOM     78  H   UNL A   1      31.695  24.246  27.413  1.00  0.00     0.141 HD
BRANCH  77  79
ATOM     79  C   UNL A   1      32.284  22.780  26.213  1.00  0.00     0.103 C 
BRANCH  79  80
ATOM     80  C   UNL A   1      33.312  22.390  25.149  1.00  0.00     0.050 C 
BRANCH  80  81
ATOM     81  C   UNL A   1      32.818  21.466  24.084  1.00  0.00    -0.038 C 
ATOM     82  C   UNL A   1      32.958  20.142  24.049  1.00  0.00     0.001 A 
ATOM     83  C   UNL A   1      32.081  21.942  22.869  1.00  0.00     0.174 C 
ATOM     84  C   UNL A   1      33.517  19.158  24.920  1.00  0.00     0.010 A 
ATOM     85  C   UNL A   1      32.347  19.780  22.761  1.00  0.00     0.065 A 
ATOM     86  N   UNL A   1      31.848  20.736  22.040  1.00  0.00    -0.280 NA
ATOM     87  C   UNL A   1      33.492  17.871  24.535  1.00  0.00     0.001 A 
ATOM     88  C   UNL A   1      32.380  18.349  22.397  1.00  0.00     0.028 A 
ATOM     89  C   UNL A   1      32.929  17.472  23.255  1.00  0.00     0.002 A 
ENDBRANCH  80  81
ENDBRANCH  79  80
ENDBRANCH  77  79
ENDBRANCH  74  77
ENDBRANCH  71  74
ENDBRANCH  66  69
ENDBRANCH   1  65
TORSDOF 16
ENDMDL
