MODEL 1
REMARK VINA RESULT:     -11.8      0.000      0.000
REMARK SMILES CC(=O)Nc1sc(-c2ccccc2)cc1C(=O)NCCCCNC(=O)c1ccc(-c2c3nc(c(-c4c(F)cccc4F)c4ccc([nH]4)c(-c4c(F)cccc4F)c4nc(c(-c5c(F)cccc5F)c5ccc2[nH]5)C=C4)C=C3)cc1
REMARK SMILES IDX 21 1 20 2 19 3 18 4 16 5 17 6 15 8 5 9 6 10 7 11 14 12 4 13
REMARK SMILES IDX 1 14 2 15 3 16 8 18 9 19 13 20 10 21 12 22 11 23 22 24 23 25
REMARK SMILES IDX 24 26 25 28 26 29 27 30 79 31 28 32 78 33 29 34 30 35 31 36
REMARK SMILES IDX 72 37 32 38 77 39 71 40 73 41 33 42 76 43 70 44 69 45 34 47
REMARK SMILES IDX 60 48 43 49 59 50 44 51 47 52 58 53 74 54 45 55 46 56 57 58
REMARK SMILES IDX 75 59 48 60 35 61 36 62 41 63 37 64 38 65 40 66 42 67 39 68
REMARK SMILES IDX 61 69 62 70 67 71 63 72 64 73 66 74 68 75 65 76 49 77 50 78
REMARK SMILES IDX 55 79 51 80 52 81 54 82 56 83 53 84
REMARK H PARENT 18 7 4 17 23 27 73 46 47 57
REMARK Flexibility Score: inf
ROOT
ATOM      1  C   UNL A   1      37.742  20.037  24.978  1.00  0.00     0.023 C 
ENDROOT
BRANCH   1   2
ATOM      2  C   UNL A   1      36.554  21.002  25.004  1.00  0.00     0.023 C 
BRANCH   2   3
ATOM      3  C   UNL A   1      36.785  22.374  24.380  1.00  0.00     0.116 C 
BRANCH   3   4
ATOM      4  N   UNL A   1      35.996  22.641  23.194  1.00  0.00    -0.352 N 
ATOM      5  C   UNL A   1      34.783  23.277  23.057  1.00  0.00     0.254 C 
ATOM      6  O   UNL A   1      34.310  23.345  21.926  1.00  0.00    -0.269 OA
ATOM      7  H   UNL A   1      36.390  22.314  22.353  1.00  0.00     0.163 HD
BRANCH   5   8
ATOM      8  C   UNL A   1      34.038  23.785  24.214  1.00  0.00     0.075 A 
ATOM      9  C   UNL A   1      33.277  23.118  25.155  1.00  0.00     0.108 A 
ATOM     10  S   UNL A   1      32.320  24.171  26.093  1.00  0.00    -0.117 S 
ATOM     11  C   UNL A   1      33.191  25.547  25.572  1.00  0.00     0.037 A 
ATOM     12  C   UNL A   1      34.038  25.203  24.536  1.00  0.00     0.036 A 
BRANCH   9  13
ATOM     13  N   UNL A   1      33.031  21.817  25.518  1.00  0.00    -0.317 N 
ATOM     14  C   UNL A   1      32.196  20.948  23.340  1.00  0.00     0.114 C 
ATOM     15  C   UNL A   1      32.417  20.823  24.821  1.00  0.00     0.221 C 
ATOM     16  O   UNL A   1      32.132  19.779  25.412  1.00  0.00    -0.275 OA
ATOM     17  H   UNL A   1      33.344  21.567  26.417  1.00  0.00     0.170 HD
ENDBRANCH   9  13
BRANCH  11  18
ATOM     18  C   UNL A   1      32.923  26.855  26.183  1.00  0.00    -0.008 A 
ATOM     19  C   UNL A   1      31.757  27.071  26.938  1.00  0.00     0.009 A 
ATOM     20  C   UNL A   1      33.822  27.918  26.027  1.00  0.00     0.009 A 
ATOM     21  C   UNL A   1      31.483  28.322  27.494  1.00  0.00     0.001 A 
ATOM     22  C   UNL A   1      33.547  29.171  26.583  1.00  0.00     0.001 A 
ATOM     23  C   UNL A   1      32.376  29.375  27.311  1.00  0.00     0.000 A 
ENDBRANCH  11  18
ENDBRANCH   5   8
ENDBRANCH   3   4
ENDBRANCH   2   3
ENDBRANCH   1   2
BRANCH   1  24
ATOM     24  C   UNL A   1      38.985  20.452  25.763  1.00  0.00     0.116 C 
BRANCH  24  25
ATOM     25  N   UNL A   1      40.041  19.451  25.773  1.00  0.00    -0.352 N 
ATOM     26  C   UNL A   1      41.378  19.563  26.092  1.00  0.00     0.251 C 
ATOM     27  H   UNL A   1      39.755  18.547  25.510  1.00  0.00     0.163 HD
ATOM     28  O   UNL A   1      42.131  18.613  25.925  1.00  0.00    -0.269 OA
BRANCH  26  29
ATOM     29  C   UNL A   1      41.925  20.844  26.598  1.00  0.00     0.039 A 
ATOM     30  C   UNL A   1      42.378  21.792  25.676  1.00  0.00     0.014 A 
ATOM     31  C   UNL A   1      41.988  21.117  27.965  1.00  0.00     0.014 A 
ATOM     32  C   UNL A   1      42.789  23.052  26.121  1.00  0.00     0.010 A 
ATOM     33  C   UNL A   1      42.319  22.398  28.401  1.00  0.00     0.010 A 
ATOM     34  C   UNL A   1      42.707  23.386  27.482  1.00  0.00    -0.014 A 
BRANCH  34  35
ATOM     35  C   UNL A   1      42.984  24.767  27.960  1.00  0.00     0.031 A 
ATOM     36  C   UNL A   1      44.381  25.181  28.336  1.00  0.00     0.074 A 
ATOM     37  C   UNL A   1      41.960  25.626  28.142  1.00  0.00     0.049 A 
ATOM     38  N   UNL A   1      44.797  26.305  28.863  1.00  0.00    -0.248 NA
ATOM     39  C   UNL A   1      45.445  24.190  28.120  1.00  0.00     0.031 C 
ATOM     40  C   UNL A   1      40.551  25.334  27.875  1.00  0.00     0.029 A 
ATOM     41  N   UNL A   1      41.946  26.916  28.614  1.00  0.00    -0.354 N 
ATOM     42  C   UNL A   1      46.162  26.147  29.062  1.00  0.00     0.074 A 
ATOM     43  C   UNL A   1      46.496  24.803  28.642  1.00  0.00     0.031 C 
ATOM     44  C   UNL A   1      39.813  26.417  28.167  1.00  0.00     0.029 A 
ATOM     45  C   UNL A   1      40.688  27.466  28.679  1.00  0.00     0.049 A 
ATOM     46  H   UNL A   1      42.760  27.401  28.881  1.00  0.00     0.167 HD
ATOM     47  C   UNL A   1      47.060  27.047  29.532  1.00  0.00     0.037 A 
ATOM     48  C   UNL A   1      40.282  28.675  29.111  1.00  0.00     0.037 A 
ATOM     49  C   UNL A   1      46.735  28.395  29.916  1.00  0.00     0.049 A 
ATOM     50  C   UNL A   1      41.301  29.660  29.613  1.00  0.00     0.074 A 
ATOM     51  C   UNL A   1      47.589  29.402  30.330  1.00  0.00     0.029 A 
ATOM     52  N   UNL A   1      45.454  28.925  29.933  1.00  0.00    -0.354 N 
ATOM     53  N   UNL A   1      42.598  29.522  29.724  1.00  0.00    -0.248 NA
ATOM     54  C   UNL A   1      40.798  30.973  30.045  1.00  0.00     0.031 C 
ATOM     55  C   UNL A   1      46.820  30.531  30.636  1.00  0.00     0.029 A 
ATOM     56  C   UNL A   1      45.492  30.239  30.371  1.00  0.00     0.049 A 
ATOM     57  H   UNL A   1      44.638  28.440  29.672  1.00  0.00     0.167 HD
ATOM     58  C   UNL A   1      43.070  30.733  30.212  1.00  0.00     0.074 A 
ATOM     59  C   UNL A   1      41.920  31.601  30.362  1.00  0.00     0.031 C 
ATOM     60  C   UNL A   1      44.342  31.095  30.508  1.00  0.00     0.037 A 
BRANCH  47  61
ATOM     61  C   UNL A   1      48.488  26.601  29.649  1.00  0.00     0.057 A 
ATOM     62  C   UNL A   1      49.423  26.842  28.632  1.00  0.00     0.134 A 
ATOM     63  C   UNL A   1      48.945  25.960  30.808  1.00  0.00     0.134 A 
ATOM     64  F   UNL A   1      49.048  27.443  27.494  1.00  0.00    -0.206 F 
ATOM     65  C   UNL A   1      50.752  26.436  28.753  1.00  0.00     0.040 A 
ATOM     66  C   UNL A   1      50.279  25.573  30.950  1.00  0.00     0.040 A 
ATOM     67  F   UNL A   1      48.105  25.706  31.822  1.00  0.00    -0.206 F 
ATOM     68  C   UNL A   1      51.186  25.806  29.918  1.00  0.00     0.006 A 
ENDBRANCH  47  61
BRANCH  48  69
ATOM     69  C   UNL A   1      38.842  29.034  29.069  1.00  0.00     0.057 A 
ATOM     70  C   UNL A   1      38.250  29.498  27.888  1.00  0.00     0.134 A 
ATOM     71  C   UNL A   1      38.029  28.935  30.204  1.00  0.00     0.134 A 
ATOM     72  F   UNL A   1      38.982  29.634  26.773  1.00  0.00    -0.206 F 
ATOM     73  C   UNL A   1      36.905  29.869  27.842  1.00  0.00     0.040 A 
ATOM     74  C   UNL A   1      36.677  29.280  30.165  1.00  0.00     0.040 A 
ATOM     75  F   UNL A   1      38.535  28.491  31.364  1.00  0.00    -0.206 F 
ATOM     76  C   UNL A   1      36.113  29.756  28.983  1.00  0.00     0.006 A 
ENDBRANCH  48  69
BRANCH  60  77
ATOM     77  C   UNL A   1      44.564  32.496  30.991  1.00  0.00     0.057 A 
ATOM     78  C   UNL A   1      44.777  33.559  30.105  1.00  0.00     0.134 A 
ATOM     79  C   UNL A   1      44.524  32.793  32.360  1.00  0.00     0.134 A 
ATOM     80  F   UNL A   1      44.841  33.339  28.783  1.00  0.00    -0.206 F 
ATOM     81  C   UNL A   1      44.963  34.864  30.563  1.00  0.00     0.040 A 
ATOM     82  C   UNL A   1      44.684  34.098  32.829  1.00  0.00     0.040 A 
ATOM     83  F   UNL A   1      44.317  31.822  33.262  1.00  0.00    -0.206 F 
ATOM     84  C   UNL A   1      44.909  35.137  31.929  1.00  0.00     0.006 A 
ENDBRANCH  60  77
ENDBRANCH  34  35
ENDBRANCH  26  29
ENDBRANCH  24  25
ENDBRANCH   1  24
TORSDOF 13
ENDMDL
MODEL 2
REMARK VINA RESULT:     -11.8      1.221      6.401
REMARK SMILES CC(=O)Nc1sc(-c2ccccc2)cc1C(=O)NCCCCNC(=O)c1ccc(-c2c3nc(c(-c4c(F)cccc4F)c4ccc([nH]4)c(-c4c(F)cccc4F)c4nc(c(-c5c(F)cccc5F)c5ccc2[nH]5)C=C4)C=C3)cc1
REMARK SMILES IDX 21 1 20 2 19 3 18 4 16 5 17 6 15 8 5 9 6 10 7 11 14 12 4 13
REMARK SMILES IDX 1 14 2 15 3 16 8 18 9 19 13 20 10 21 12 22 11 23 22 24 23 25
REMARK SMILES IDX 24 26 25 28 26 29 27 30 79 31 28 32 78 33 29 34 30 35 31 36
REMARK SMILES IDX 72 37 32 38 77 39 71 40 73 41 33 42 76 43 70 44 69 45 34 47
REMARK SMILES IDX 60 48 43 49 59 50 44 51 47 52 58 53 74 54 45 55 46 56 57 58
REMARK SMILES IDX 75 59 48 60 35 61 36 62 41 63 37 64 38 65 40 66 42 67 39 68
REMARK SMILES IDX 61 69 62 70 67 71 63 72 64 73 66 74 68 75 65 76 49 77 50 78
REMARK SMILES IDX 55 79 51 80 52 81 54 82 56 83 53 84
REMARK H PARENT 18 7 4 17 23 27 73 46 47 57
REMARK Flexibility Score: inf
ROOT
ATOM      1  C   UNL A   1      37.796  20.026  24.998  1.00  0.00     0.023 C 
ENDROOT
BRANCH   1   2
ATOM      2  C   UNL A   1      36.651  21.037  25.100  1.00  0.00     0.023 C 
BRANCH   2   3
ATOM      3  C   UNL A   1      36.891  22.398  24.454  1.00  0.00     0.116 C 
BRANCH   3   4
ATOM      4  N   UNL A   1      36.106  22.649  23.263  1.00  0.00    -0.352 N 
ATOM      5  C   UNL A   1      34.887  23.275  23.117  1.00  0.00     0.254 C 
ATOM      6  O   UNL A   1      34.418  23.332  21.983  1.00  0.00    -0.269 OA
ATOM      7  H   UNL A   1      36.505  22.321  22.426  1.00  0.00     0.163 HD
BRANCH   5   8
ATOM      8  C   UNL A   1      34.134  23.785  24.267  1.00  0.00     0.075 A 
ATOM      9  C   UNL A   1      33.351  23.122  25.193  1.00  0.00     0.108 A 
ATOM     10  S   UNL A   1      32.395  24.181  26.125  1.00  0.00    -0.117 S 
ATOM     11  C   UNL A   1      33.292  25.548  25.626  1.00  0.00     0.037 A 
ATOM     12  C   UNL A   1      34.149  25.201  24.599  1.00  0.00     0.036 A 
BRANCH   9  13
ATOM     13  N   UNL A   1      33.083  21.822  25.543  1.00  0.00    -0.317 N 
ATOM     14  C   UNL A   1      32.167  21.008  23.376  1.00  0.00     0.114 C 
ATOM     15  C   UNL A   1      32.425  20.854  24.848  1.00  0.00     0.221 C 
ATOM     16  O   UNL A   1      32.130  19.809  25.431  1.00  0.00    -0.275 OA
ATOM     17  H   UNL A   1      33.414  21.550  26.429  1.00  0.00     0.170 HD
ENDBRANCH   9  13
BRANCH  11  18
ATOM     18  C   UNL A   1      33.033  26.856  26.243  1.00  0.00    -0.008 A 
ATOM     19  C   UNL A   1      34.030  27.846  26.278  1.00  0.00     0.009 A 
ATOM     20  C   UNL A   1      31.786  27.146  26.813  1.00  0.00     0.009 A 
ATOM     21  C   UNL A   1      33.798  29.079  26.891  1.00  0.00     0.001 A 
ATOM     22  C   UNL A   1      31.555  28.380  27.428  1.00  0.00     0.001 A 
ATOM     23  C   UNL A   1      32.561  29.343  27.473  1.00  0.00     0.000 A 
ENDBRANCH  11  18
ENDBRANCH   5   8
ENDBRANCH   3   4
ENDBRANCH   2   3
ENDBRANCH   1   2
BRANCH   1  24
ATOM     24  C   UNL A   1      39.071  20.348  25.777  1.00  0.00     0.116 C 
BRANCH  24  25
ATOM     25  N   UNL A   1      40.035  19.259  25.811  1.00  0.00    -0.352 N 
ATOM     26  C   UNL A   1      41.385  19.267  26.093  1.00  0.00     0.251 C 
ATOM     27  H   UNL A   1      39.664  18.373  25.598  1.00  0.00     0.163 HD
ATOM     28  O   UNL A   1      42.048  18.247  25.955  1.00  0.00    -0.269 OA
BRANCH  26  29
ATOM     29  C   UNL A   1      42.055  20.516  26.524  1.00  0.00     0.039 A 
ATOM     30  C   UNL A   1      42.673  21.316  25.559  1.00  0.00     0.014 A 
ATOM     31  C   UNL A   1      42.075  20.904  27.865  1.00  0.00     0.014 A 
ATOM     32  C   UNL A   1      43.209  22.554  25.922  1.00  0.00     0.010 A 
ATOM     33  C   UNL A   1      42.534  22.173  28.212  1.00  0.00     0.010 A 
ATOM     34  C   UNL A   1      43.092  23.019  27.241  1.00  0.00    -0.014 A 
BRANCH  34  35
ATOM     35  C   UNL A   1      43.509  24.397  27.618  1.00  0.00     0.031 A 
ATOM     36  C   UNL A   1      42.482  25.434  27.983  1.00  0.00     0.074 A 
ATOM     37  C   UNL A   1      44.811  24.741  27.543  1.00  0.00     0.049 A 
ATOM     38  N   UNL A   1      42.648  26.707  28.241  1.00  0.00    -0.248 NA
ATOM     39  C   UNL A   1      41.082  24.989  28.034  1.00  0.00     0.031 C 
ATOM     40  C   UNL A   1      45.902  23.851  27.146  1.00  0.00     0.029 A 
ATOM     41  N   UNL A   1      45.435  25.941  27.784  1.00  0.00    -0.354 N 
ATOM     42  C   UNL A   1      41.376  27.217  28.462  1.00  0.00     0.074 A 
ATOM     43  C   UNL A   1      40.444  26.128  28.262  1.00  0.00     0.031 C 
ATOM     44  C   UNL A   1      47.061  24.527  27.187  1.00  0.00     0.029 A 
ATOM     45  C   UNL A   1      46.793  25.908  27.576  1.00  0.00     0.049 A 
ATOM     46  H   UNL A   1      44.955  26.749  28.075  1.00  0.00     0.167 HD
ATOM     47  C   UNL A   1      41.016  28.474  28.819  1.00  0.00     0.037 A 
ATOM     48  C   UNL A   1      47.719  26.881  27.678  1.00  0.00     0.037 A 
ATOM     49  C   UNL A   1      41.945  29.549  29.054  1.00  0.00     0.049 A 
ATOM     50  C   UNL A   1      47.296  28.262  28.091  1.00  0.00     0.074 A 
ATOM     51  C   UNL A   1      41.679  30.834  29.494  1.00  0.00     0.029 A 
ATOM     52  N   UNL A   1      43.315  29.464  28.868  1.00  0.00    -0.354 N 
ATOM     53  N   UNL A   1      46.097  28.710  28.369  1.00  0.00    -0.248 NA
ATOM     54  C   UNL A   1      48.357  29.273  28.210  1.00  0.00     0.031 C 
ATOM     55  C   UNL A   1      42.887  31.540  29.536  1.00  0.00     0.029 A 
ATOM     56  C   UNL A   1      43.908  30.681  29.165  1.00  0.00     0.049 A 
ATOM     57  H   UNL A   1      43.797  28.659  28.569  1.00  0.00     0.167 HD
ATOM     58  C   UNL A   1      46.260  30.043  28.720  1.00  0.00     0.074 A 
ATOM     59  C   UNL A   1      47.678  30.329  28.634  1.00  0.00     0.031 C 
ATOM     60  C   UNL A   1      45.320  30.950  29.083  1.00  0.00     0.037 A 
BRANCH  47  61
ATOM     61  C   UNL A   1      39.552  28.753  28.988  1.00  0.00     0.057 A 
ATOM     62  C   UNL A   1      38.907  28.599  30.223  1.00  0.00     0.134 A 
ATOM     63  C   UNL A   1      38.784  29.218  27.912  1.00  0.00     0.134 A 
ATOM     64  F   UNL A   1      39.583  28.148  31.290  1.00  0.00    -0.206 F 
ATOM     65  C   UNL A   1      37.547  28.872  30.376  1.00  0.00     0.040 A 
ATOM     66  C   UNL A   1      37.428  29.519  28.059  1.00  0.00     0.040 A 
ATOM     67  F   UNL A   1      39.339  29.395  26.704  1.00  0.00    -0.206 F 
ATOM     68  C   UNL A   1      36.805  29.341  29.293  1.00  0.00     0.006 A 
ENDBRANCH  47  61
BRANCH  48  69
ATOM     69  C   UNL A   1      49.146  26.579  27.403  1.00  0.00     0.057 A 
ATOM     70  C   UNL A   1      49.689  26.768  26.127  1.00  0.00     0.134 A 
ATOM     71  C   UNL A   1      49.996  26.086  28.400  1.00  0.00     0.134 A 
ATOM     72  F   UNL A   1      48.920  27.218  25.125  1.00  0.00    -0.206 F 
ATOM     73  C   UNL A   1      51.022  26.459  25.846  1.00  0.00     0.040 A 
ATOM     74  C   UNL A   1      51.336  25.796  28.138  1.00  0.00     0.040 A 
ATOM     75  F   UNL A   1      49.538  25.890  29.645  1.00  0.00    -0.206 F 
ATOM     76  C   UNL A   1      51.850  25.975  26.855  1.00  0.00     0.006 A 
ENDBRANCH  48  69
BRANCH  60  77
ATOM     77  C   UNL A   1      45.795  32.325  29.446  1.00  0.00     0.057 A 
ATOM     78  C   UNL A   1      46.170  32.656  30.754  1.00  0.00     0.134 A 
ATOM     79  C   UNL A   1      45.916  33.320  28.467  1.00  0.00     0.134 A 
ATOM     80  F   UNL A   1      46.065  31.753  31.741  1.00  0.00    -0.206 F 
ATOM     81  C   UNL A   1      46.630  33.933  31.079  1.00  0.00     0.040 A 
ATOM     82  C   UNL A   1      46.398  34.592  28.775  1.00  0.00     0.040 A 
ATOM     83  F   UNL A   1      45.580  33.066  27.193  1.00  0.00    -0.206 F 
ATOM     84  C   UNL A   1      46.752  34.903  30.086  1.00  0.00     0.006 A 
ENDBRANCH  60  77
ENDBRANCH  34  35
ENDBRANCH  26  29
ENDBRANCH  24  25
ENDBRANCH   1  24
TORSDOF 13
ENDMDL
MODEL 3
REMARK VINA RESULT:     -11.7      0.699      1.607
REMARK SMILES CC(=O)Nc1sc(-c2ccccc2)cc1C(=O)NCCCCNC(=O)c1ccc(-c2c3nc(c(-c4c(F)cccc4F)c4ccc([nH]4)c(-c4c(F)cccc4F)c4nc(c(-c5c(F)cccc5F)c5ccc2[nH]5)C=C4)C=C3)cc1
REMARK SMILES IDX 21 1 20 2 19 3 18 4 16 5 17 6 15 8 5 9 6 10 7 11 14 12 4 13
REMARK SMILES IDX 1 14 2 15 3 16 8 18 9 19 13 20 10 21 12 22 11 23 22 24 23 25
REMARK SMILES IDX 24 26 25 28 26 29 27 30 79 31 28 32 78 33 29 34 30 35 31 36
REMARK SMILES IDX 72 37 32 38 77 39 71 40 73 41 33 42 76 43 70 44 69 45 34 47
REMARK SMILES IDX 60 48 43 49 59 50 44 51 47 52 58 53 74 54 45 55 46 56 57 58
REMARK SMILES IDX 75 59 48 60 35 61 36 62 41 63 37 64 38 65 40 66 42 67 39 68
REMARK SMILES IDX 61 69 62 70 67 71 63 72 64 73 66 74 68 75 65 76 49 77 50 78
REMARK SMILES IDX 55 79 51 80 52 81 54 82 56 83 53 84
REMARK H PARENT 18 7 4 17 23 27 73 46 47 57
REMARK Flexibility Score: inf
ROOT
ATOM      1  C   UNL A   1      37.774  19.826  24.993  1.00  0.00     0.023 C 
ENDROOT
BRANCH   1   2
ATOM      2  C   UNL A   1      36.556  20.748  25.098  1.00  0.00     0.023 C 
BRANCH   2   3
ATOM      3  C   UNL A   1      36.759  22.190  24.646  1.00  0.00     0.116 C 
BRANCH   3   4
ATOM      4  N   UNL A   1      36.081  22.539  23.414  1.00  0.00    -0.352 N 
ATOM      5  C   UNL A   1      34.927  23.261  23.209  1.00  0.00     0.254 C 
ATOM      6  O   UNL A   1      34.545  23.390  22.049  1.00  0.00    -0.269 OA
ATOM      7  H   UNL A   1      36.514  22.208  22.595  1.00  0.00     0.163 HD
BRANCH   5   8
ATOM      8  C   UNL A   1      34.134  23.791  24.323  1.00  0.00     0.075 A 
ATOM      9  C   UNL A   1      33.304  23.147  25.221  1.00  0.00     0.108 A 
ATOM     10  S   UNL A   1      32.326  24.226  26.104  1.00  0.00    -0.117 S 
ATOM     11  C   UNL A   1      33.263  25.577  25.633  1.00  0.00     0.037 A 
ATOM     12  C   UNL A   1      34.155  25.209  24.646  1.00  0.00     0.036 A 
BRANCH   9  13
ATOM     13  N   UNL A   1      33.002  21.853  25.569  1.00  0.00    -0.317 N 
ATOM     14  C   UNL A   1      32.248  21.011  23.351  1.00  0.00     0.114 C 
ATOM     15  C   UNL A   1      32.393  20.878  24.841  1.00  0.00     0.221 C 
ATOM     16  O   UNL A   1      32.049  19.843  25.416  1.00  0.00    -0.275 OA
ATOM     17  H   UNL A   1      33.264  21.594  26.482  1.00  0.00     0.170 HD
ENDBRANCH   9  13
BRANCH  11  18
ATOM     18  C   UNL A   1      32.997  26.893  26.230  1.00  0.00    -0.008 A 
ATOM     19  C   UNL A   1      33.974  27.903  26.208  1.00  0.00     0.009 A 
ATOM     20  C   UNL A   1      31.764  27.171  26.835  1.00  0.00     0.009 A 
ATOM     21  C   UNL A   1      33.737  29.145  26.802  1.00  0.00     0.001 A 
ATOM     22  C   UNL A   1      31.528  28.414  27.430  1.00  0.00     0.001 A 
ATOM     23  C   UNL A   1      32.515  29.398  27.419  1.00  0.00     0.000 A 
ENDBRANCH  11  18
ENDBRANCH   5   8
ENDBRANCH   3   4
ENDBRANCH   2   3
ENDBRANCH   1   2
BRANCH   1  24
ATOM     24  C   UNL A   1      39.054  20.292  25.687  1.00  0.00     0.116 C 
BRANCH  24  25
ATOM     25  N   UNL A   1      40.081  19.266  25.787  1.00  0.00    -0.352 N 
ATOM     26  C   UNL A   1      41.417  19.366  26.114  1.00  0.00     0.251 C 
ATOM     27  H   UNL A   1      39.771  18.353  25.591  1.00  0.00     0.163 HD
ATOM     28  O   UNL A   1      42.144  18.385  26.030  1.00  0.00    -0.269 OA
BRANCH  26  29
ATOM     29  C   UNL A   1      41.994  20.666  26.526  1.00  0.00     0.039 A 
ATOM     30  C   UNL A   1      42.484  21.528  25.540  1.00  0.00     0.014 A 
ATOM     31  C   UNL A   1      42.053  21.042  27.869  1.00  0.00     0.014 A 
ATOM     32  C   UNL A   1      42.926  22.806  25.892  1.00  0.00     0.010 A 
ATOM     33  C   UNL A   1      42.415  22.343  28.210  1.00  0.00     0.010 A 
ATOM     34  C   UNL A   1      42.840  23.246  27.222  1.00  0.00    -0.014 A 
BRANCH  34  35
ATOM     35  C   UNL A   1      43.151  24.652  27.596  1.00  0.00     0.031 A 
ATOM     36  C   UNL A   1      44.577  25.107  27.742  1.00  0.00     0.074 A 
ATOM     37  C   UNL A   1      42.145  25.499  27.895  1.00  0.00     0.049 A 
ATOM     38  N   UNL A   1      45.040  26.260  28.155  1.00  0.00    -0.248 NA
ATOM     39  C   UNL A   1      45.622  24.126  27.410  1.00  0.00     0.031 C 
ATOM     40  C   UNL A   1      40.719  25.171  27.853  1.00  0.00     0.029 A 
ATOM     41  N   UNL A   1      42.170  26.809  28.310  1.00  0.00    -0.354 N 
ATOM     42  C   UNL A   1      46.423  26.136  28.153  1.00  0.00     0.074 A 
ATOM     43  C   UNL A   1      46.724  24.781  27.743  1.00  0.00     0.031 C 
ATOM     44  C   UNL A   1      40.007  26.252  28.208  1.00  0.00     0.029 A 
ATOM     45  C   UNL A   1      40.923  27.338  28.539  1.00  0.00     0.049 A 
ATOM     46  H   UNL A   1      43.003  27.319  28.432  1.00  0.00     0.167 HD
ATOM     47  C   UNL A   1      47.359  27.071  28.447  1.00  0.00     0.037 A 
ATOM     48  C   UNL A   1      40.556  28.558  28.977  1.00  0.00     0.037 A 
ATOM     49  C   UNL A   1      47.061  28.429  28.819  1.00  0.00     0.049 A 
ATOM     50  C   UNL A   1      41.614  29.582  29.280  1.00  0.00     0.074 A 
ATOM     51  C   UNL A   1      47.943  29.468  29.060  1.00  0.00     0.029 A 
ATOM     52  N   UNL A   1      45.785  28.936  29.006  1.00  0.00    -0.354 N 
ATOM     53  N   UNL A   1      42.917  29.472  29.202  1.00  0.00    -0.248 NA
ATOM     54  C   UNL A   1      41.149  30.903  29.728  1.00  0.00     0.031 C 
ATOM     55  C   UNL A   1      47.202  30.596  29.431  1.00  0.00     0.029 A 
ATOM     56  C   UNL A   1      45.856  30.269  29.379  1.00  0.00     0.049 A 
ATOM     57  H   UNL A   1      44.952  28.425  28.890  1.00  0.00     0.167 HD
ATOM     58  C   UNL A   1      43.426  30.712  29.564  1.00  0.00     0.074 A 
ATOM     59  C   UNL A   1      42.290  31.565  29.848  1.00  0.00     0.031 C 
ATOM     60  C   UNL A   1      44.719  31.109  29.651  1.00  0.00     0.037 A 
BRANCH  47  61
ATOM     61  C   UNL A   1      48.799  26.657  28.367  1.00  0.00     0.057 A 
ATOM     62  C   UNL A   1      49.488  26.161  29.482  1.00  0.00     0.134 A 
ATOM     63  C   UNL A   1      49.494  26.717  27.152  1.00  0.00     0.134 A 
ATOM     64  F   UNL A   1      48.883  26.088  30.677  1.00  0.00    -0.206 F 
ATOM     65  C   UNL A   1      50.824  25.767  29.398  1.00  0.00     0.040 A 
ATOM     66  C   UNL A   1      50.823  26.300  27.050  1.00  0.00     0.040 A 
ATOM     67  F   UNL A   1      48.892  27.174  26.044  1.00  0.00    -0.206 F 
ATOM     68  C   UNL A   1      51.493  25.828  28.177  1.00  0.00     0.006 A 
ENDBRANCH  47  61
BRANCH  48  69
ATOM     69  C   UNL A   1      39.118  28.889  29.136  1.00  0.00     0.057 A 
ATOM     70  C   UNL A   1      38.463  28.687  30.357  1.00  0.00     0.134 A 
ATOM     71  C   UNL A   1      38.362  29.401  28.075  1.00  0.00     0.134 A 
ATOM     72  F   UNL A   1      39.130  28.179  31.404  1.00  0.00    -0.206 F 
ATOM     73  C   UNL A   1      37.104  28.964  30.512  1.00  0.00     0.040 A 
ATOM     74  C   UNL A   1      37.008  29.704  28.223  1.00  0.00     0.040 A 
ATOM     75  F   UNL A   1      38.932  29.624  26.882  1.00  0.00    -0.206 F 
ATOM     76  C   UNL A   1      36.373  29.478  29.444  1.00  0.00     0.006 A 
ENDBRANCH  48  69
BRANCH  60  77
ATOM     77  C   UNL A   1      44.976  32.534  30.038  1.00  0.00     0.057 A 
ATOM     78  C   UNL A   1      45.020  33.562  29.088  1.00  0.00     0.134 A 
ATOM     79  C   UNL A   1      45.142  32.889  31.384  1.00  0.00     0.134 A 
ATOM     80  F   UNL A   1      44.882  33.287  27.782  1.00  0.00    -0.206 F 
ATOM     81  C   UNL A   1      45.240  34.889  29.459  1.00  0.00     0.040 A 
ATOM     82  C   UNL A   1      45.338  34.216  31.769  1.00  0.00     0.040 A 
ATOM     83  F   UNL A   1      45.104  31.954  32.344  1.00  0.00    -0.206 F 
ATOM     84  C   UNL A   1      45.392  35.220  30.805  1.00  0.00     0.006 A 
ENDBRANCH  60  77
ENDBRANCH  34  35
ENDBRANCH  26  29
ENDBRANCH  24  25
ENDBRANCH   1  24
TORSDOF 13
ENDMDL
