MODEL 1
REMARK VINA RESULT:     -11.6      0.000      0.000
REMARK SMILES [NH3+]C[C@H]1CC[C@@H](C(=O)N[C@H](CC(=O)NCCCCNC(=O)c2ccc(-c3c4nc(c(-c5c(F)cccc5F)c5ccc([nH]5)c(-c5c(F)cccc5F)c5nc(c(-c6c(F)cccc6F)c6ccc3[nH]6)C=C5)C=C4)cc2)c2cccs2)O1
REMARK SMILES IDX 15 1 14 2 12 3 13 4 11 6 10 7 9 8 7 9 8 10 6 12 3 13 4 14
REMARK SMILES IDX 81 15 5 16 2 17 1 18 76 22 77 23 80 24 78 25 79 26 16 27
REMARK SMILES IDX 17 28 18 29 19 30 20 31 21 33 22 34 23 35 75 36 24 37 74 38
REMARK SMILES IDX 25 39 26 40 27 41 68 42 28 43 73 44 67 45 69 46 29 47 72 48
REMARK SMILES IDX 66 49 65 50 30 52 56 53 39 54 55 55 40 56 43 57 54 58 70 59
REMARK SMILES IDX 41 60 42 61 53 63 71 64 44 65 31 66 32 67 37 68 33 69 34 70
REMARK SMILES IDX 36 71 38 72 35 73 57 74 58 75 63 76 59 77 60 78 62 79 64 80
REMARK SMILES IDX 61 81 45 82 46 83 51 84 47 85 48 86 50 87 52 88 49 89
REMARK H PARENT 14 5 9 11 1 19 1 20 1 21 19 32 69 51 43 62
REMARK Flexibility Score: inf
ROOT
ATOM      1  C   UNL A   1      37.595  22.057  25.416  1.00  0.00     0.116 C 
ENDROOT
BRANCH   1   2
ATOM      2  N   UNL A   1      36.412  22.617  26.041  1.00  0.00    -0.356 N 
ATOM      3  C   UNL A   1      35.379  23.302  25.473  1.00  0.00     0.222 C 
ATOM      4  O   UNL A   1      34.543  23.823  26.212  1.00  0.00    -0.275 OA
ATOM      5  H   UNL A   1      36.344  22.484  27.013  1.00  0.00     0.163 HD
BRANCH   3   6
ATOM      6  C   UNL A   1      35.248  23.400  23.965  1.00  0.00     0.130 C 
BRANCH   6   7
ATOM      7  C   UNL A   1      33.824  23.092  23.476  1.00  0.00     0.132 C 
BRANCH   7   8
ATOM      8  N   UNL A   1      33.105  22.244  24.435  1.00  0.00    -0.346 N 
ATOM      9  C   UNL A   1      32.639  20.973  24.468  1.00  0.00     0.249 C 
ATOM     10  O   UNL A   1      31.725  20.803  25.290  1.00  0.00    -0.272 OA
ATOM     11  H   UNL A   1      32.911  22.724  25.272  1.00  0.00     0.164 HD
BRANCH   9  12
ATOM     12  C   UNL A   1      33.209  19.767  23.687  1.00  0.00     0.207 C 
ATOM     13  C   UNL A   1      33.814  17.599  24.405  1.00  0.00     0.174 C 
ATOM     14  C   UNL A   1      33.116  17.472  23.071  1.00  0.00     0.041 C 
ATOM     15  O   UNL A   1      34.068  19.005  24.571  1.00  0.00    -0.359 OA
ATOM     16  C   UNL A   1      32.325  18.752  22.999  1.00  0.00     0.045 C 
BRANCH  13  17
ATOM     17  C   UNL A   1      32.950  17.094  25.577  1.00  0.00     0.291 C 
BRANCH  17  18
ATOM     18  N   UNL A   1      32.716  18.151  26.564  1.00  0.00    -0.355 N 
ATOM     19  H   UNL A   1      31.732  18.154  26.832  1.00  0.00     0.344 HD
ATOM     20  H   UNL A   1      32.960  19.054  26.160  1.00  0.00     0.344 HD
ATOM     21  H   UNL A   1      33.292  17.981  27.388  1.00  0.00     0.344 HD
ENDBRANCH  17  18
ENDBRANCH  13  17
ENDBRANCH   9  12
ENDBRANCH   7   8
BRANCH   7  22
ATOM     22  C   UNL A   1      32.956  24.268  23.081  1.00  0.00     0.027 A 
ATOM     23  C   UNL A   1      33.267  25.423  22.381  1.00  0.00     0.017 A 
ATOM     24  S   UNL A   1      31.270  24.244  23.468  1.00  0.00    -0.147 S 
ATOM     25  C   UNL A   1      32.185  26.355  22.350  1.00  0.00     0.012 A 
ATOM     26  C   UNL A   1      31.050  25.848  22.934  1.00  0.00     0.065 A 
ENDBRANCH   7  22
ENDBRANCH   6   7
ENDBRANCH   3   6
ENDBRANCH   1   2
BRANCH   1  27
ATOM     27  C   UNL A   1      37.251  20.749  24.701  1.00  0.00     0.023 C 
BRANCH  27  28
ATOM     28  C   UNL A   1      38.149  19.568  25.055  1.00  0.00     0.023 C 
BRANCH  28  29
ATOM     29  C   UNL A   1      39.402  19.932  25.834  1.00  0.00     0.116 C 
BRANCH  29  30
ATOM     30  N   UNL A   1      40.405  18.877  25.848  1.00  0.00    -0.352 N 
ATOM     31  C   UNL A   1      41.754  18.990  26.088  1.00  0.00     0.251 C 
ATOM     32  H   UNL A   1      40.075  17.968  25.663  1.00  0.00     0.163 HD
ATOM     33  O   UNL A   1      42.500  18.025  25.963  1.00  0.00    -0.269 OA
BRANCH  31  34
ATOM     34  C   UNL A   1      42.305  20.309  26.455  1.00  0.00     0.039 A 
ATOM     35  C   UNL A   1      42.839  21.121  25.453  1.00  0.00     0.014 A 
ATOM     36  C   UNL A   1      42.232  20.766  27.774  1.00  0.00     0.014 A 
ATOM     37  C   UNL A   1      43.231  22.424  25.761  1.00  0.00     0.010 A 
ATOM     38  C   UNL A   1      42.543  22.089  28.061  1.00  0.00     0.010 A 
ATOM     39  C   UNL A   1      43.045  22.932  27.057  1.00  0.00    -0.014 A 
BRANCH  39  40
ATOM     40  C   UNL A   1      43.375  24.340  27.389  1.00  0.00     0.031 A 
ATOM     41  C   UNL A   1      44.807  24.796  27.373  1.00  0.00     0.074 A 
ATOM     42  C   UNL A   1      42.396  25.187  27.765  1.00  0.00     0.049 A 
ATOM     43  N   UNL A   1      45.309  25.955  27.713  1.00  0.00    -0.248 NA
ATOM     44  C   UNL A   1      45.812  23.808  26.946  1.00  0.00     0.031 C 
ATOM     45  C   UNL A   1      40.974  24.853  27.863  1.00  0.00     0.029 A 
ATOM     46  N   UNL A   1      42.453  26.504  28.144  1.00  0.00    -0.354 N 
ATOM     47  C   UNL A   1      46.683  25.833  27.548  1.00  0.00     0.074 A 
ATOM     48  C   UNL A   1      46.942  24.470  27.140  1.00  0.00     0.031 C 
ATOM     49  C   UNL A   1      40.291  25.943  28.248  1.00  0.00     0.029 A 
ATOM     50  C   UNL A   1      41.228  27.040  28.463  1.00  0.00     0.049 A 
ATOM     51  H   UNL A   1      43.292  27.018  28.184  1.00  0.00     0.167 HD
ATOM     52  C   UNL A   1      47.640  26.779  27.694  1.00  0.00     0.037 A 
ATOM     53  C   UNL A   1      40.902  28.276  28.888  1.00  0.00     0.037 A 
ATOM     54  C   UNL A   1      47.378  28.140  28.076  1.00  0.00     0.049 A 
ATOM     55  C   UNL A   1      41.989  29.302  29.059  1.00  0.00     0.074 A 
ATOM     56  C   UNL A   1      48.275  29.185  28.215  1.00  0.00     0.029 A 
ATOM     57  N   UNL A   1      46.123  28.648  28.373  1.00  0.00    -0.354 N 
ATOM     58  N   UNL A   1      43.277  29.187  28.847  1.00  0.00    -0.248 NA
ATOM     59  C   UNL A   1      41.573  30.633  29.526  1.00  0.00     0.031 C 
ATOM     60  C   UNL A   1      47.568  30.317  28.630  1.00  0.00     0.029 A 
ATOM     61  C   UNL A   1      46.224  29.989  28.707  1.00  0.00     0.049 A 
ATOM     62  H   UNL A   1      45.285  28.132  28.351  1.00  0.00     0.167 HD
ATOM     63  C   UNL A   1      43.821  30.435  29.119  1.00  0.00     0.074 A 
ATOM     64  C   UNL A   1      42.721  31.297  29.500  1.00  0.00     0.031 C 
ATOM     65  C   UNL A   1      45.114  30.835  29.061  1.00  0.00     0.037 A 
BRANCH  52  66
ATOM     66  C   UNL A   1      49.058  26.376  27.421  1.00  0.00     0.057 A 
ATOM     67  C   UNL A   1      49.603  26.437  26.130  1.00  0.00     0.134 A 
ATOM     68  C   UNL A   1      49.902  25.963  28.458  1.00  0.00     0.134 A 
ATOM     69  F   UNL A   1      48.844  26.811  25.089  1.00  0.00    -0.206 F 
ATOM     70  C   UNL A   1      50.929  26.082  25.879  1.00  0.00     0.040 A 
ATOM     71  C   UNL A   1      51.238  25.630  28.224  1.00  0.00     0.040 A 
ATOM     72  F   UNL A   1      49.447  25.885  29.718  1.00  0.00    -0.206 F 
ATOM     73  C   UNL A   1      51.753  25.684  26.930  1.00  0.00     0.006 A 
ENDBRANCH  52  66
BRANCH  53  74
ATOM     74  C   UNL A   1      39.486  28.628  29.162  1.00  0.00     0.057 A 
ATOM     75  C   UNL A   1      38.679  29.197  28.169  1.00  0.00     0.134 A 
ATOM     76  C   UNL A   1      38.914  28.443  30.426  1.00  0.00     0.134 A 
ATOM     77  F   UNL A   1      39.175  29.418  26.942  1.00  0.00    -0.206 F 
ATOM     78  C   UNL A   1      37.367  29.597  28.429  1.00  0.00     0.040 A 
ATOM     79  C   UNL A   1      37.595  28.813  30.694  1.00  0.00     0.040 A 
ATOM     80  F   UNL A   1      39.631  27.897  31.420  1.00  0.00    -0.206 F 
ATOM     81  C   UNL A   1      36.822  29.402  29.696  1.00  0.00     0.006 A 
ENDBRANCH  53  74
BRANCH  65  82
ATOM     82  C   UNL A   1      45.403  32.274  29.368  1.00  0.00     0.057 A 
ATOM     83  C   UNL A   1      45.351  33.267  28.382  1.00  0.00     0.134 A 
ATOM     84  C   UNL A   1      45.698  32.675  30.678  1.00  0.00     0.134 A 
ATOM     85  F   UNL A   1      45.087  32.946  27.107  1.00  0.00    -0.206 F 
ATOM     86  C   UNL A   1      45.605  34.606  28.684  1.00  0.00     0.040 A 
ATOM     87  C   UNL A   1      45.927  34.014  30.996  1.00  0.00     0.040 A 
ATOM     88  F   UNL A   1      45.755  31.774  31.670  1.00  0.00    -0.206 F 
ATOM     89  C   UNL A   1      45.887  34.983  29.995  1.00  0.00     0.006 A 
ENDBRANCH  65  82
ENDBRANCH  39  40
ENDBRANCH  31  34
ENDBRANCH  29  30
ENDBRANCH  28  29
ENDBRANCH  27  28
ENDBRANCH   1  27
TORSDOF 17
ENDMDL
MODEL 2
REMARK VINA RESULT:     -11.3      5.514     10.612
REMARK SMILES [NH3+]C[C@H]1CC[C@@H](C(=O)N[C@H](CC(=O)NCCCCNC(=O)c2ccc(-c3c4nc(c(-c5c(F)cccc5F)c5ccc([nH]5)c(-c5c(F)cccc5F)c5nc(c(-c6c(F)cccc6F)c6ccc3[nH]6)C=C5)C=C4)cc2)c2cccs2)O1
REMARK SMILES IDX 15 1 14 2 12 3 13 4 11 6 10 7 9 8 7 9 8 10 6 12 3 13 4 14
REMARK SMILES IDX 81 15 5 16 2 17 1 18 76 22 77 23 80 24 78 25 79 26 16 27
REMARK SMILES IDX 17 28 18 29 19 30 20 31 21 33 22 34 23 35 75 36 24 37 74 38
REMARK SMILES IDX 25 39 26 40 27 41 68 42 28 43 73 44 67 45 69 46 29 47 72 48
REMARK SMILES IDX 66 49 65 50 30 52 56 53 39 54 55 55 40 56 43 57 54 58 70 59
REMARK SMILES IDX 41 60 42 61 53 63 71 64 44 65 31 66 32 67 37 68 33 69 34 70
REMARK SMILES IDX 36 71 38 72 35 73 57 74 58 75 63 76 59 77 60 78 62 79 64 80
REMARK SMILES IDX 61 81 45 82 46 83 51 84 47 85 48 86 50 87 52 88 49 89
REMARK H PARENT 14 5 9 11 1 19 1 20 1 21 19 32 69 51 43 62
REMARK Flexibility Score: inf
ROOT
ATOM      1  C   UNL A   1      33.206  30.188  26.489  1.00  0.00     0.116 C 
ENDROOT
BRANCH   1   2
ATOM      2  N   UNL A   1      33.642  29.478  25.301  1.00  0.00    -0.356 N 
ATOM      3  C   UNL A   1      33.635  28.140  25.045  1.00  0.00     0.222 C 
ATOM      4  O   UNL A   1      34.191  27.735  24.024  1.00  0.00    -0.275 OA
ATOM      5  H   UNL A   1      33.992  30.043  24.576  1.00  0.00     0.163 HD
BRANCH   3   6
ATOM      6  C   UNL A   1      32.935  27.174  25.982  1.00  0.00     0.130 C 
BRANCH   6   7
ATOM      7  C   UNL A   1      31.807  26.394  25.289  1.00  0.00     0.132 C 
BRANCH   7   8
ATOM      8  N   UNL A   1      31.630  26.836  23.900  1.00  0.00    -0.346 N 
ATOM      9  C   UNL A   1      30.624  27.339  23.149  1.00  0.00     0.249 C 
ATOM     10  O   UNL A   1      30.783  27.169  21.930  1.00  0.00    -0.272 OA
ATOM     11  H   UNL A   1      32.461  26.742  23.380  1.00  0.00     0.164 HD
BRANCH   9  12
ATOM     12  C   UNL A   1      29.420  28.161  23.661  1.00  0.00     0.207 C 
ATOM     13  C   UNL A   1      28.640  30.310  23.064  1.00  0.00     0.174 C 
ATOM     14  C   UNL A   1      27.439  29.410  23.242  1.00  0.00     0.041 C 
ATOM     15  O   UNL A   1      29.754  29.569  23.590  1.00  0.00    -0.359 OA
ATOM     16  C   UNL A   1      28.036  28.038  23.065  1.00  0.00     0.045 C 
BRANCH  13  17
ATOM     17  C   UNL A   1      28.909  30.653  21.585  1.00  0.00     0.291 C 
BRANCH  17  18
ATOM     18  N   UNL A   1      30.297  30.369  21.213  1.00  0.00    -0.355 N 
ATOM     19  H   UNL A   1      30.326  30.007  20.260  1.00  0.00     0.344 HD
ATOM     20  H   UNL A   1      30.686  29.677  21.851  1.00  0.00     0.344 HD
ATOM     21  H   UNL A   1      30.846  31.227  21.267  1.00  0.00     0.344 HD
ENDBRANCH  17  18
ENDBRANCH  13  17
ENDBRANCH   9  12
ENDBRANCH   7   8
BRANCH   7  22
ATOM     22  C   UNL A   1      31.875  24.882  25.341  1.00  0.00     0.027 A 
ATOM     23  C   UNL A   1      31.026  23.922  24.811  1.00  0.00     0.017 A 
ATOM     24  S   UNL A   1      33.221  24.120  26.117  1.00  0.00    -0.147 S 
ATOM     25  C   UNL A   1      31.372  22.598  25.217  1.00  0.00     0.012 A 
ATOM     26  C   UNL A   1      32.529  22.570  25.958  1.00  0.00     0.065 A 
ENDBRANCH   7  22
ENDBRANCH   6   7
ENDBRANCH   3   6
ENDBRANCH   1   2
BRANCH   1  27
ATOM     27  C   UNL A   1      31.741  30.605  26.353  1.00  0.00     0.023 C 
BRANCH  27  28
ATOM     28  C   UNL A   1      31.457  32.068  26.680  1.00  0.00     0.023 C 
BRANCH  28  29
ATOM     29  C   UNL A   1      32.623  32.820  27.300  1.00  0.00     0.116 C 
BRANCH  29  30
ATOM     30  N   UNL A   1      32.310  34.201  27.639  1.00  0.00    -0.352 N 
ATOM     31  C   UNL A   1      32.943  35.016  28.548  1.00  0.00     0.251 C 
ATOM     32  H   UNL A   1      31.550  34.600  27.159  1.00  0.00     0.163 HD
ATOM     33  O   UNL A   1      32.503  36.130  28.809  1.00  0.00    -0.269 OA
BRANCH  31  34
ATOM     34  C   UNL A   1      34.143  34.512  29.245  1.00  0.00     0.039 A 
ATOM     35  C   UNL A   1      33.990  33.872  30.476  1.00  0.00     0.014 A 
ATOM     36  C   UNL A   1      35.403  34.614  28.649  1.00  0.00     0.014 A 
ATOM     37  C   UNL A   1      35.094  33.265  31.075  1.00  0.00     0.010 A 
ATOM     38  C   UNL A   1      36.482  33.937  29.205  1.00  0.00     0.010 A 
ATOM     39  C   UNL A   1      36.339  33.256  30.423  1.00  0.00    -0.014 A 
BRANCH  39  40
ATOM     40  C   UNL A   1      37.506  32.545  31.000  1.00  0.00     0.031 A 
ATOM     41  C   UNL A   1      38.122  33.036  32.280  1.00  0.00     0.074 A 
ATOM     42  C   UNL A   1      38.049  31.502  30.341  1.00  0.00     0.049 A 
ATOM     43  N   UNL A   1      39.193  32.608  32.900  1.00  0.00    -0.248 NA
ATOM     44  C   UNL A   1      37.465  34.177  32.937  1.00  0.00     0.031 C 
ATOM     45  C   UNL A   1      37.570  30.959  29.068  1.00  0.00     0.029 A 
ATOM     46  N   UNL A   1      39.131  30.717  30.649  1.00  0.00    -0.354 N 
ATOM     47  C   UNL A   1      39.339  33.431  34.010  1.00  0.00     0.074 A 
ATOM     48  C   UNL A   1      38.287  34.421  33.946  1.00  0.00     0.031 C 
ATOM     49  C   UNL A   1      38.337  29.914  28.719  1.00  0.00     0.029 A 
ATOM     50  C   UNL A   1      39.385  29.737  29.719  1.00  0.00     0.049 A 
ATOM     51  H   UNL A   1      39.675  30.843  31.460  1.00  0.00     0.167 HD
ATOM     52  C   UNL A   1      40.249  33.350  35.008  1.00  0.00     0.037 A 
ATOM     53  C   UNL A   1      40.357  28.807  29.677  1.00  0.00     0.037 A 
ATOM     54  C   UNL A   1      41.279  32.350  35.083  1.00  0.00     0.049 A 
ATOM     55  C   UNL A   1      41.367  28.753  30.792  1.00  0.00     0.074 A 
ATOM     56  C   UNL A   1      42.227  32.160  36.073  1.00  0.00     0.029 A 
ATOM     57  N   UNL A   1      41.492  31.365  34.131  1.00  0.00    -0.354 N 
ATOM     58  N   UNL A   1      41.459  29.503  31.862  1.00  0.00    -0.248 NA
ATOM     59  C   UNL A   1      42.406  27.716  30.692  1.00  0.00     0.031 C 
ATOM     60  C   UNL A   1      43.036  31.081  35.704  1.00  0.00     0.029 A 
ATOM     61  C   UNL A   1      42.564  30.571  34.505  1.00  0.00     0.049 A 
ATOM     62  H   UNL A   1      40.960  31.247  33.311  1.00  0.00     0.167 HD
ATOM     63  C   UNL A   1      42.541  29.010  32.580  1.00  0.00     0.074 A 
ATOM     64  C   UNL A   1      43.065  27.887  31.830  1.00  0.00     0.031 C 
ATOM     65  C   UNL A   1      43.057  29.445  33.755  1.00  0.00     0.037 A 
BRANCH  52  66
ATOM     66  C   UNL A   1      40.157  34.362  36.111  1.00  0.00     0.057 A 
ATOM     67  C   UNL A   1      39.396  34.125  37.264  1.00  0.00     0.134 A 
ATOM     68  C   UNL A   1      40.867  35.567  36.044  1.00  0.00     0.134 A 
ATOM     69  F   UNL A   1      38.680  32.996  37.384  1.00  0.00    -0.206 F 
ATOM     70  C   UNL A   1      39.327  35.057  38.299  1.00  0.00     0.040 A 
ATOM     71  C   UNL A   1      40.828  36.496  37.084  1.00  0.00     0.040 A 
ATOM     72  F   UNL A   1      41.619  35.856  34.971  1.00  0.00    -0.206 F 
ATOM     73  C   UNL A   1      40.051  36.245  38.215  1.00  0.00     0.006 A 
ENDBRANCH  52  66
BRANCH  53  74
ATOM     74  C   UNL A   1      40.421  27.833  28.558  1.00  0.00     0.057 A 
ATOM     75  C   UNL A   1      41.136  28.124  27.390  1.00  0.00     0.134 A 
ATOM     76  C   UNL A   1      39.742  26.610  28.609  1.00  0.00     0.134 A 
ATOM     77  F   UNL A   1      41.792  29.289  27.273  1.00  0.00    -0.206 F 
ATOM     78  C   UNL A   1      41.150  27.250  26.302  1.00  0.00     0.040 A 
ATOM     79  C   UNL A   1      39.769  25.714  27.538  1.00  0.00     0.040 A 
ATOM     80  F   UNL A   1      39.044  26.268  29.701  1.00  0.00    -0.206 F 
ATOM     81  C   UNL A   1      40.466  26.038  26.376  1.00  0.00     0.006 A 
ENDBRANCH  53  74
BRANCH  65  82
ATOM     82  C   UNL A   1      44.213  28.679  34.324  1.00  0.00     0.057 A 
ATOM     83  C   UNL A   1      44.029  27.568  35.156  1.00  0.00     0.134 A 
ATOM     84  C   UNL A   1      45.529  29.036  34.001  1.00  0.00     0.134 A 
ATOM     85  F   UNL A   1      42.795  27.183  35.513  1.00  0.00    -0.206 F 
ATOM     86  C   UNL A   1      45.114  26.852  35.665  1.00  0.00     0.040 A 
ATOM     87  C   UNL A   1      46.620  28.312  34.482  1.00  0.00     0.040 A 
ATOM     88  F   UNL A   1      45.773  30.086  33.201  1.00  0.00    -0.206 F 
ATOM     89  C   UNL A   1      46.414  27.220  35.322  1.00  0.00     0.006 A 
ENDBRANCH  65  82
ENDBRANCH  39  40
ENDBRANCH  31  34
ENDBRANCH  29  30
ENDBRANCH  28  29
ENDBRANCH  27  28
ENDBRANCH   1  27
TORSDOF 17
ENDMDL
MODEL 3
REMARK VINA RESULT:     -11.3      1.422      2.253
REMARK SMILES [NH3+]C[C@H]1CC[C@@H](C(=O)N[C@H](CC(=O)NCCCCNC(=O)c2ccc(-c3c4nc(c(-c5c(F)cccc5F)c5ccc([nH]5)c(-c5c(F)cccc5F)c5nc(c(-c6c(F)cccc6F)c6ccc3[nH]6)C=C5)C=C4)cc2)c2cccs2)O1
REMARK SMILES IDX 15 1 14 2 12 3 13 4 11 6 10 7 9 8 7 9 8 10 6 12 3 13 4 14
REMARK SMILES IDX 81 15 5 16 2 17 1 18 76 22 77 23 80 24 78 25 79 26 16 27
REMARK SMILES IDX 17 28 18 29 19 30 20 31 21 33 22 34 23 35 75 36 24 37 74 38
REMARK SMILES IDX 25 39 26 40 27 41 68 42 28 43 73 44 67 45 69 46 29 47 72 48
REMARK SMILES IDX 66 49 65 50 30 52 56 53 39 54 55 55 40 56 43 57 54 58 70 59
REMARK SMILES IDX 41 60 42 61 53 63 71 64 44 65 31 66 32 67 37 68 33 69 34 70
REMARK SMILES IDX 36 71 38 72 35 73 57 74 58 75 63 76 59 77 60 78 62 79 64 80
REMARK SMILES IDX 61 81 45 82 46 83 51 84 47 85 48 86 50 87 52 88 49 89
REMARK H PARENT 14 5 9 11 1 19 1 20 1 21 19 32 69 51 43 62
REMARK Flexibility Score: inf
ROOT
ATOM      1  C   UNL A   1      37.811  23.500  25.949  1.00  0.00     0.116 C 
ENDROOT
BRANCH   1   2
ATOM      2  N   UNL A   1      37.550  23.332  24.532  1.00  0.00    -0.356 N 
ATOM      3  C   UNL A   1      36.359  23.311  23.871  1.00  0.00     0.222 C 
ATOM      4  O   UNL A   1      36.355  23.005  22.678  1.00  0.00    -0.275 OA
ATOM      5  H   UNL A   1      38.347  23.216  23.967  1.00  0.00     0.163 HD
BRANCH   3   6
ATOM      6  C   UNL A   1      35.071  23.683  24.580  1.00  0.00     0.130 C 
BRANCH   6   7
ATOM      7  C   UNL A   1      33.822  23.198  23.827  1.00  0.00     0.132 C 
BRANCH   7   8
ATOM      8  N   UNL A   1      33.013  22.301  24.662  1.00  0.00    -0.346 N 
ATOM      9  C   UNL A   1      32.523  21.044  24.566  1.00  0.00     0.249 C 
ATOM     10  O   UNL A   1      31.542  20.837  25.298  1.00  0.00    -0.272 OA
ATOM     11  H   UNL A   1      32.761  22.725  25.514  1.00  0.00     0.164 HD
BRANCH   9  12
ATOM     12  C   UNL A   1      33.131  19.882  23.747  1.00  0.00     0.207 C 
ATOM     13  C   UNL A   1      33.766  17.698  24.385  1.00  0.00     0.174 C 
ATOM     14  C   UNL A   1      33.097  17.613  23.034  1.00  0.00     0.041 C 
ATOM     15  O   UNL A   1      33.988  19.100  24.615  1.00  0.00    -0.359 OA
ATOM     16  C   UNL A   1      32.282  18.880  22.999  1.00  0.00     0.045 C 
BRANCH  13  17
ATOM     17  C   UNL A   1      32.891  17.128  25.518  1.00  0.00     0.291 C 
BRANCH  17  18
ATOM     18  N   UNL A   1      32.709  18.102  26.597  1.00  0.00    -0.355 N 
ATOM     19  H   UNL A   1      31.715  18.191  26.811  1.00  0.00     0.344 HD
ATOM     20  H   UNL A   1      33.075  19.007  26.304  1.00  0.00     0.344 HD
ATOM     21  H   UNL A   1      33.209  17.787  27.428  1.00  0.00     0.344 HD
ENDBRANCH  17  18
ENDBRANCH  13  17
ENDBRANCH   9  12
ENDBRANCH   7   8
BRANCH   7  22
ATOM     22  C   UNL A   1      32.936  24.253  23.200  1.00  0.00     0.027 A 
ATOM     23  C   UNL A   1      33.242  25.287  22.328  1.00  0.00     0.017 A 
ATOM     24  S   UNL A   1      31.234  24.224  23.510  1.00  0.00    -0.147 S 
ATOM     25  C   UNL A   1      32.132  26.154  22.092  1.00  0.00     0.012 A 
ATOM     26  C   UNL A   1      30.987  25.705  22.703  1.00  0.00     0.065 A 
ENDBRANCH   7  22
ENDBRANCH   6   7
ENDBRANCH   3   6
ENDBRANCH   1   2
BRANCH   1  27
ATOM     27  C   UNL A   1      39.020  22.664  26.371  1.00  0.00     0.023 C 
BRANCH  27  28
ATOM     28  C   UNL A   1      39.156  21.324  25.654  1.00  0.00     0.023 C 
BRANCH  28  29
ATOM     29  C   UNL A   1      39.628  20.176  26.532  1.00  0.00     0.116 C 
BRANCH  29  30
ATOM     30  N   UNL A   1      40.719  19.410  25.950  1.00  0.00    -0.352 N 
ATOM     31  C   UNL A   1      42.038  19.778  25.816  1.00  0.00     0.251 C 
ATOM     32  H   UNL A   1      40.485  18.517  25.609  1.00  0.00     0.163 HD
ATOM     33  O   UNL A   1      42.831  19.069  25.206  1.00  0.00    -0.269 OA
BRANCH  31  34
ATOM     34  C   UNL A   1      42.480  21.068  26.380  1.00  0.00     0.039 A 
ATOM     35  C   UNL A   1      42.825  22.103  25.508  1.00  0.00     0.014 A 
ATOM     36  C   UNL A   1      42.488  21.271  27.762  1.00  0.00     0.014 A 
ATOM     37  C   UNL A   1      43.105  23.369  26.024  1.00  0.00     0.010 A 
ATOM     38  C   UNL A   1      42.685  22.551  28.266  1.00  0.00     0.010 A 
ATOM     39  C   UNL A   1      42.994  23.613  27.403  1.00  0.00    -0.014 A 
BRANCH  39  40
ATOM     40  C   UNL A   1      43.205  24.970  27.965  1.00  0.00     0.031 A 
ATOM     41  C   UNL A   1      44.581  25.395  28.395  1.00  0.00     0.074 A 
ATOM     42  C   UNL A   1      42.152  25.790  28.147  1.00  0.00     0.049 A 
ATOM     43  N   UNL A   1      44.958  26.501  28.986  1.00  0.00    -0.248 NA
ATOM     44  C   UNL A   1      45.675  24.440  28.156  1.00  0.00     0.031 C 
ATOM     45  C   UNL A   1      40.761  25.477  27.812  1.00  0.00     0.029 A 
ATOM     46  N   UNL A   1      42.088  27.058  28.669  1.00  0.00    -0.354 N 
ATOM     47  C   UNL A   1      46.325  26.369  29.194  1.00  0.00     0.074 A 
ATOM     48  C   UNL A   1      46.701  25.054  28.726  1.00  0.00     0.031 C 
ATOM     49  C   UNL A   1      39.987  26.532  28.111  1.00  0.00     0.029 A 
ATOM     50  C   UNL A   1      40.817  27.580  28.696  1.00  0.00     0.049 A 
ATOM     51  H   UNL A   1      42.878  27.547  28.996  1.00  0.00     0.167 HD
ATOM     52  C   UNL A   1      47.194  27.274  29.701  1.00  0.00     0.037 A 
ATOM     53  C   UNL A   1      40.373  28.769  29.147  1.00  0.00     0.037 A 
ATOM     54  C   UNL A   1      46.822  28.591  30.143  1.00  0.00     0.049 A 
ATOM     55  C   UNL A   1      41.360  29.748  29.723  1.00  0.00     0.074 A 
ATOM     56  C   UNL A   1      47.635  29.596  30.639  1.00  0.00     0.029 A 
ATOM     57  N   UNL A   1      45.529  29.089  30.137  1.00  0.00    -0.354 N 
ATOM     58  N   UNL A   1      42.657  29.630  29.864  1.00  0.00    -0.248 NA
ATOM     59  C   UNL A   1      40.817  31.029  30.201  1.00  0.00     0.031 C 
ATOM     60  C   UNL A   1      46.828  30.690  30.965  1.00  0.00     0.029 A 
ATOM     61  C   UNL A   1      45.519  30.383  30.631  1.00  0.00     0.049 A 
ATOM     62  H   UNL A   1      44.735  28.595  29.828  1.00  0.00     0.167 HD
ATOM     63  C   UNL A   1      43.091  30.831  30.411  1.00  0.00     0.074 A 
ATOM     64  C   UNL A   1      41.920  31.668  30.565  1.00  0.00     0.031 C 
ATOM     65  C   UNL A   1      44.346  31.208  30.756  1.00  0.00     0.037 A 
BRANCH  52  66
ATOM     66  C   UNL A   1      48.637  26.874  29.787  1.00  0.00     0.057 A 
ATOM     67  C   UNL A   1      49.154  26.230  30.920  1.00  0.00     0.134 A 
ATOM     68  C   UNL A   1      49.510  27.093  28.715  1.00  0.00     0.134 A 
ATOM     69  F   UNL A   1      48.373  26.003  31.988  1.00  0.00    -0.206 F 
ATOM     70  C   UNL A   1      50.491  25.839  30.992  1.00  0.00     0.040 A 
ATOM     71  C   UNL A   1      50.844  26.683  28.764  1.00  0.00     0.040 A 
ATOM     72  F   UNL A   1      49.080  27.700  27.599  1.00  0.00    -0.206 F 
ATOM     73  C   UNL A   1      51.339  26.058  29.908  1.00  0.00     0.006 A 
ENDBRANCH  52  66
BRANCH  53  74
ATOM     74  C   UNL A   1      38.932  29.118  29.057  1.00  0.00     0.057 A 
ATOM     75  C   UNL A   1      38.097  29.023  30.177  1.00  0.00     0.134 A 
ATOM     76  C   UNL A   1      38.347  29.518  27.850  1.00  0.00     0.134 A 
ATOM     77  F   UNL A   1      38.595  28.627  31.358  1.00  0.00    -0.206 F 
ATOM     78  C   UNL A   1      36.728  29.282  30.094  1.00  0.00     0.040 A 
ATOM     79  C   UNL A   1      36.984  29.805  27.759  1.00  0.00     0.040 A 
ATOM     80  F   UNL A   1      39.093  29.635  26.742  1.00  0.00    -0.206 F 
ATOM     81  C   UNL A   1      36.169  29.677  28.881  1.00  0.00     0.006 A 
ENDBRANCH  53  74
BRANCH  65  82
ATOM     82  C   UNL A   1      44.524  32.598  31.287  1.00  0.00     0.057 A 
ATOM     83  C   UNL A   1      44.469  32.882  32.658  1.00  0.00     0.134 A 
ATOM     84  C   UNL A   1      44.794  33.662  30.416  1.00  0.00     0.134 A 
ATOM     85  F   UNL A   1      44.201  31.910  33.543  1.00  0.00    -0.206 F 
ATOM     86  C   UNL A   1      44.654  34.178  33.141  1.00  0.00     0.040 A 
ATOM     87  C   UNL A   1      45.007  34.956  30.890  1.00  0.00     0.040 A 
ATOM     88  F   UNL A   1      44.869  33.456  29.093  1.00  0.00    -0.206 F 
ATOM     89  C   UNL A   1      44.931  35.218  32.256  1.00  0.00     0.006 A 
ENDBRANCH  65  82
ENDBRANCH  39  40
ENDBRANCH  31  34
ENDBRANCH  29  30
ENDBRANCH  28  29
ENDBRANCH  27  28
ENDBRANCH   1  27
TORSDOF 17
ENDMDL
