MODEL 1
REMARK VINA RESULT:     -11.8      0.000      0.000
REMARK SMILES CC[C@H]1CC[C@](C(=O)NCCCCNC(=O)c2ccc(-c3c4nc(c(-c5c(F)cccc5F)c5ccc([nH]5)c(-c5c(F)cccc5F)c5nc(c(-c6c(F)cccc6F)c6ccc3[nH]6)C=C5)C=C4)cc2)([C@H]2CCC[C@@H](S(C)(=O)=O)C2)CC1
REMARK SMILES IDX 11 1 10 2 9 3 7 4 8 5 6 7 3 8 82 9 4 10 81 11 5 12 2 13 1 14
REMARK SMILES IDX 71 15 72 16 80 17 73 18 75 19 74 20 76 21 77 22 78 23 79 24
REMARK SMILES IDX 12 25 13 26 14 27 15 28 16 30 17 31 18 32 70 33 19 34 69 35
REMARK SMILES IDX 20 36 21 37 22 38 63 39 23 40 68 41 62 42 64 43 24 44 67 45
REMARK SMILES IDX 61 46 60 47 25 49 51 50 34 51 50 52 35 53 38 54 49 55 65 56
REMARK SMILES IDX 36 57 37 58 48 60 66 61 39 62 26 63 27 64 32 65 28 66 29 67
REMARK SMILES IDX 31 68 33 69 30 70 52 71 53 72 58 73 54 74 55 75 57 76 59 77
REMARK SMILES IDX 56 78 40 79 41 80 46 81 42 82 43 83 45 84 47 85 44 86
REMARK H PARENT 9 6 14 29 64 48 38 59
REMARK Flexibility Score: inf
ROOT
ATOM      1  C   UNL A   1      32.806  29.205  24.993  1.00  0.00     0.023 C 
ENDROOT
BRANCH   1   2
ATOM      2  C   UNL A   1      32.629  28.295  23.787  1.00  0.00     0.116 C 
BRANCH   2   3
ATOM      3  N   UNL A   1      33.800  27.514  23.493  1.00  0.00    -0.356 N 
ATOM      4  C   UNL A   1      33.670  26.274  22.950  1.00  0.00     0.226 C 
ATOM      5  O   UNL A   1      33.814  26.153  21.732  1.00  0.00    -0.274 OA
ATOM      6  H   UNL A   1      34.695  27.877  23.684  1.00  0.00     0.163 HD
BRANCH   4   7
ATOM      7  C   UNL A   1      33.388  25.066  23.870  1.00  0.00     0.052 C 
ATOM      8  C   UNL A   1      30.357  25.289  24.455  1.00  0.00    -0.011 C 
ATOM      9  C   UNL A   1      30.957  24.988  23.076  1.00  0.00     0.005 C 
ATOM     10  C   UNL A   1      31.385  25.687  25.529  1.00  0.00     0.005 C 
ATOM     11  C   UNL A   1      32.289  24.234  23.152  1.00  0.00     0.017 C 
ATOM     12  C   UNL A   1      32.863  25.352  25.302  1.00  0.00     0.017 C 
BRANCH   8  13
ATOM     13  C   UNL A   1      29.228  26.357  24.435  1.00  0.00    -0.000 C 
ATOM     14  C   UNL A   1      29.322  27.412  23.346  1.00  0.00     0.004 C 
ENDBRANCH   8  13
BRANCH   7  15
ATOM     15  C   UNL A   1      34.738  24.208  24.011  1.00  0.00     0.006 C 
ATOM     16  C   UNL A   1      35.500  24.273  25.352  1.00  0.00     0.005 C 
ATOM     17  C   UNL A   1      34.726  22.748  23.479  1.00  0.00     0.024 C 
ATOM     18  C   UNL A   1      35.171  23.171  26.359  1.00  0.00     0.002 C 
ATOM     19  C   UNL A   1      34.494  21.592  24.462  1.00  0.00     0.108 C 
ATOM     20  C   UNL A   1      35.247  21.766  25.777  1.00  0.00     0.020 C 
BRANCH  19  21
ATOM     21  S   UNL A   1      32.763  21.120  24.665  1.00  0.00     0.150 S 
ATOM     22  C   UNL A   1      32.847  19.503  25.393  1.00  0.00     0.158 C 
ATOM     23  O   UNL A   1      32.116  21.975  25.642  1.00  0.00    -0.229 OA
ATOM     24  O   UNL A   1      32.175  20.924  23.353  1.00  0.00    -0.229 OA
ENDBRANCH  19  21
ENDBRANCH   7  15
ENDBRANCH   4   7
ENDBRANCH   2   3
ENDBRANCH   1   2
BRANCH   1  25
ATOM     25  C   UNL A   1      34.004  28.851  25.866  1.00  0.00     0.023 C 
BRANCH  25  26
ATOM     26  C   UNL A   1      33.740  28.887  27.367  1.00  0.00     0.116 C 
BRANCH  26  27
ATOM     27  N   UNL A   1      33.789  30.221  27.960  1.00  0.00    -0.352 N 
ATOM     28  C   UNL A   1      34.870  30.848  28.532  1.00  0.00     0.251 C 
ATOM     29  H   UNL A   1      32.947  30.731  27.948  1.00  0.00     0.163 HD
ATOM     30  O   UNL A   1      34.770  31.964  29.032  1.00  0.00    -0.269 OA
BRANCH  28  31
ATOM     31  C   UNL A   1      36.146  30.114  28.586  1.00  0.00     0.039 A 
ATOM     32  C   UNL A   1      37.021  30.213  27.504  1.00  0.00     0.014 A 
ATOM     33  C   UNL A   1      36.519  29.454  29.759  1.00  0.00     0.014 A 
ATOM     34  C   UNL A   1      38.319  29.725  27.634  1.00  0.00     0.010 A 
ATOM     35  C   UNL A   1      37.835  29.040  29.912  1.00  0.00     0.010 A 
ATOM     36  C   UNL A   1      38.749  29.184  28.857  1.00  0.00    -0.014 A 
BRANCH  36  37
ATOM     37  C   UNL A   1      40.158  28.775  29.063  1.00  0.00     0.031 A 
ATOM     38  C   UNL A   1      41.135  29.742  29.666  1.00  0.00     0.074 A 
ATOM     39  C   UNL A   1      40.573  27.569  28.628  1.00  0.00     0.049 A 
ATOM     40  N   UNL A   1      42.424  29.610  29.846  1.00  0.00    -0.248 NA
ATOM     41  C   UNL A   1      40.595  31.044  30.092  1.00  0.00     0.031 C 
ATOM     42  C   UNL A   1      39.732  26.568  27.966  1.00  0.00     0.029 A 
ATOM     43  N   UNL A   1      41.814  26.986  28.666  1.00  0.00    -0.354 N 
ATOM     44  C   UNL A   1      42.852  30.818  30.379  1.00  0.00     0.074 A 
ATOM     45  C   UNL A   1      41.697  31.687  30.448  1.00  0.00     0.031 C 
ATOM     46  C   UNL A   1      40.476  25.486  27.686  1.00  0.00     0.029 A 
ATOM     47  C   UNL A   1      41.848  25.727  28.117  1.00  0.00     0.049 A 
ATOM     48  H   UNL A   1      42.605  27.427  29.052  1.00  0.00     0.167 HD
ATOM     49  C   UNL A   1      44.091  31.165  30.797  1.00  0.00     0.037 A 
ATOM     50  C   UNL A   1      42.873  24.866  27.979  1.00  0.00     0.037 A 
ATOM     51  C   UNL A   1      45.228  30.284  30.766  1.00  0.00     0.049 A 
ATOM     52  C   UNL A   1      44.233  25.260  28.484  1.00  0.00     0.074 A 
ATOM     53  C   UNL A   1      46.510  30.513  31.232  1.00  0.00     0.029 A 
ATOM     54  N   UNL A   1      45.213  29.000  30.242  1.00  0.00    -0.354 N 
ATOM     55  N   UNL A   1      44.610  26.380  29.050  1.00  0.00    -0.248 NA
ATOM     56  C   UNL A   1      45.308  24.269  28.335  1.00  0.00     0.031 C 
ATOM     57  C   UNL A   1      47.279  29.374  30.966  1.00  0.00     0.029 A 
ATOM     58  C   UNL A   1      46.467  28.427  30.365  1.00  0.00     0.049 A 
ATOM     59  H   UNL A   1      44.427  28.561  29.843  1.00  0.00     0.167 HD
ATOM     60  C   UNL A   1      45.957  26.220  29.349  1.00  0.00     0.074 A 
ATOM     61  C   UNL A   1      46.328  24.891  28.911  1.00  0.00     0.031 C 
ATOM     62  C   UNL A   1      46.810  27.097  29.932  1.00  0.00     0.037 A 
BRANCH  49  63
ATOM     63  C   UNL A   1      44.272  32.553  31.333  1.00  0.00     0.057 A 
ATOM     64  C   UNL A   1      44.083  32.848  32.690  1.00  0.00     0.134 A 
ATOM     65  C   UNL A   1      44.649  33.603  30.488  1.00  0.00     0.134 A 
ATOM     66  F   UNL A   1      43.706  31.888  33.548  1.00  0.00    -0.206 F 
ATOM     67  C   UNL A   1      44.234  34.145  33.182  1.00  0.00     0.040 A 
ATOM     68  C   UNL A   1      44.828  34.900  30.974  1.00  0.00     0.040 A 
ATOM     69  F   UNL A   1      44.848  33.388  29.179  1.00  0.00    -0.206 F 
ATOM     70  C   UNL A   1      44.613  35.175  32.323  1.00  0.00     0.006 A 
ENDBRANCH  49  63
BRANCH  50  71
ATOM     71  C   UNL A   1      42.649  23.531  27.371  1.00  0.00     0.057 A 
ATOM     72  C   UNL A   1      42.806  23.335  25.994  1.00  0.00     0.134 A 
ATOM     73  C   UNL A   1      42.268  22.427  28.141  1.00  0.00     0.134 A 
ATOM     74  F   UNL A   1      43.152  24.362  25.202  1.00  0.00    -0.206 F 
ATOM     75  C   UNL A   1      42.577  22.094  25.400  1.00  0.00     0.040 A 
ATOM     76  C   UNL A   1      42.055  21.174  27.564  1.00  0.00     0.040 A 
ATOM     77  F   UNL A   1      42.107  22.550  29.467  1.00  0.00    -0.206 F 
ATOM     78  C   UNL A   1      42.203  21.006  26.189  1.00  0.00     0.006 A 
ENDBRANCH  50  71
BRANCH  62  79
ATOM     79  C   UNL A   1      48.216  26.632  30.161  1.00  0.00     0.057 A 
ATOM     80  C   UNL A   1      49.235  26.887  29.234  1.00  0.00     0.134 A 
ATOM     81  C   UNL A   1      48.561  25.960  31.339  1.00  0.00     0.134 A 
ATOM     82  F   UNL A   1      48.963  27.516  28.081  1.00  0.00    -0.206 F 
ATOM     83  C   UNL A   1      50.548  26.476  29.467  1.00  0.00     0.040 A 
ATOM     84  C   UNL A   1      49.874  25.562  31.592  1.00  0.00     0.040 A 
ATOM     85  F   UNL A   1      47.631  25.691  32.268  1.00  0.00    -0.206 F 
ATOM     86  C   UNL A   1      50.871  25.817  30.653  1.00  0.00     0.006 A 
ENDBRANCH  62  79
ENDBRANCH  36  37
ENDBRANCH  28  31
ENDBRANCH  26  27
ENDBRANCH  25  26
ENDBRANCH   1  25
TORSDOF 14
ENDMDL
MODEL 2
REMARK VINA RESULT:     -11.6      2.969      7.879
REMARK SMILES CC[C@H]1CC[C@](C(=O)NCCCCNC(=O)c2ccc(-c3c4nc(c(-c5c(F)cccc5F)c5ccc([nH]5)c(-c5c(F)cccc5F)c5nc(c(-c6c(F)cccc6F)c6ccc3[nH]6)C=C5)C=C4)cc2)([C@H]2CCC[C@@H](S(C)(=O)=O)C2)CC1
REMARK SMILES IDX 11 1 10 2 9 3 7 4 8 5 6 7 3 8 82 9 4 10 81 11 5 12 2 13 1 14
REMARK SMILES IDX 71 15 72 16 80 17 73 18 75 19 74 20 76 21 77 22 78 23 79 24
REMARK SMILES IDX 12 25 13 26 14 27 15 28 16 30 17 31 18 32 70 33 19 34 69 35
REMARK SMILES IDX 20 36 21 37 22 38 63 39 23 40 68 41 62 42 64 43 24 44 67 45
REMARK SMILES IDX 61 46 60 47 25 49 51 50 34 51 50 52 35 53 38 54 49 55 65 56
REMARK SMILES IDX 36 57 37 58 48 60 66 61 39 62 26 63 27 64 32 65 28 66 29 67
REMARK SMILES IDX 31 68 33 69 30 70 52 71 53 72 58 73 54 74 55 75 57 76 59 77
REMARK SMILES IDX 56 78 40 79 41 80 46 81 42 82 43 83 45 84 47 85 44 86
REMARK H PARENT 9 6 14 29 64 48 38 59
REMARK Flexibility Score: inf
ROOT
ATOM      1  C   UNL A   1      35.429  21.994  25.988  1.00  0.00     0.023 C 
ENDROOT
BRANCH   1   2
ATOM      2  C   UNL A   1      33.931  22.114  26.217  1.00  0.00     0.116 C 
BRANCH   2   3
ATOM      3  N   UNL A   1      33.567  23.286  26.965  1.00  0.00    -0.356 N 
ATOM      4  C   UNL A   1      32.403  23.934  26.689  1.00  0.00     0.226 C 
ATOM      5  O   UNL A   1      31.425  23.704  27.401  1.00  0.00    -0.274 OA
ATOM      6  H   UNL A   1      34.159  23.620  27.677  1.00  0.00     0.163 HD
BRANCH   4   7
ATOM      7  C   UNL A   1      32.355  24.951  25.527  1.00  0.00     0.052 C 
ATOM      8  C   UNL A   1      31.939  23.179  23.024  1.00  0.00    -0.011 C 
ATOM      9  C   UNL A   1      30.909  23.356  24.146  1.00  0.00     0.005 C 
ATOM     10  C   UNL A   1      33.319  23.793  23.318  1.00  0.00     0.005 C 
ATOM     11  C   UNL A   1      30.988  24.728  24.824  1.00  0.00     0.017 C 
ATOM     12  C   UNL A   1      33.443  24.845  24.426  1.00  0.00     0.017 C 
BRANCH   8  13
ATOM     13  C   UNL A   1      32.142  21.705  22.577  1.00  0.00    -0.000 C 
ATOM     14  C   UNL A   1      32.417  20.700  23.683  1.00  0.00     0.004 C 
ENDBRANCH   8  13
BRANCH   7  15
ATOM     15  C   UNL A   1      32.434  26.431  26.145  1.00  0.00     0.006 C 
ATOM     16  C   UNL A   1      33.758  27.210  25.993  1.00  0.00     0.005 C 
ATOM     17  C   UNL A   1      31.229  27.382  25.898  1.00  0.00     0.024 C 
ATOM     18  C   UNL A   1      33.848  28.143  24.786  1.00  0.00     0.002 C 
ATOM     19  C   UNL A   1      31.302  28.407  24.758  1.00  0.00     0.108 C 
ATOM     20  C   UNL A   1      32.661  29.089  24.653  1.00  0.00     0.020 C 
BRANCH  19  21
ATOM     21  S   UNL A   1      30.656  27.813  23.178  1.00  0.00     0.150 S 
ATOM     22  C   UNL A   1      30.380  29.299  22.248  1.00  0.00     0.158 C 
ATOM     23  O   UNL A   1      31.674  27.067  22.464  1.00  0.00    -0.229 OA
ATOM     24  O   UNL A   1      29.340  27.242  23.397  1.00  0.00    -0.229 OA
ENDBRANCH  19  21
ENDBRANCH   7  15
ENDBRANCH   4   7
ENDBRANCH   2   3
ENDBRANCH   1   2
BRANCH   1  25
ATOM     25  C   UNL A   1      36.194  23.297  26.190  1.00  0.00     0.023 C 
BRANCH  25  26
ATOM     26  C   UNL A   1      37.340  23.530  25.212  1.00  0.00     0.116 C 
BRANCH  26  27
ATOM     27  N   UNL A   1      38.533  22.730  25.473  1.00  0.00    -0.352 N 
ATOM     28  C   UNL A   1      39.626  23.071  26.233  1.00  0.00     0.251 C 
ATOM     29  H   UNL A   1      38.557  21.840  25.054  1.00  0.00     0.163 HD
ATOM     30  O   UNL A   1      40.588  22.318  26.345  1.00  0.00    -0.269 OA
BRANCH  28  31
ATOM     31  C   UNL A   1      39.638  24.402  26.865  1.00  0.00     0.039 A 
ATOM     32  C   UNL A   1      39.109  24.539  28.149  1.00  0.00     0.014 A 
ATOM     33  C   UNL A   1      40.297  25.463  26.239  1.00  0.00     0.014 A 
ATOM     34  C   UNL A   1      39.323  25.724  28.849  1.00  0.00     0.010 A 
ATOM     35  C   UNL A   1      40.576  26.611  26.968  1.00  0.00     0.010 A 
ATOM     36  C   UNL A   1      40.104  26.745  28.283  1.00  0.00    -0.014 A 
BRANCH  36  37
ATOM     37  C   UNL A   1      40.454  27.961  29.053  1.00  0.00     0.031 A 
ATOM     38  C   UNL A   1      41.792  28.057  29.729  1.00  0.00     0.074 A 
ATOM     39  C   UNL A   1      39.538  28.936  29.215  1.00  0.00     0.049 A 
ATOM     40  N   UNL A   1      42.253  28.991  30.519  1.00  0.00    -0.248 NA
ATOM     41  C   UNL A   1      42.720  26.935  29.513  1.00  0.00     0.031 C 
ATOM     42  C   UNL A   1      38.181  28.927  28.663  1.00  0.00     0.029 A 
ATOM     43  N   UNL A   1      39.607  30.119  29.905  1.00  0.00    -0.354 N 
ATOM     44  C   UNL A   1      43.510  28.557  30.916  1.00  0.00     0.074 A 
ATOM     45  C   UNL A   1      43.720  27.256  30.319  1.00  0.00     0.031 C 
ATOM     46  C   UNL A   1      37.557  30.063  29.014  1.00  0.00     0.029 A 
ATOM     47  C   UNL A   1      38.454  30.863  29.839  1.00  0.00     0.049 A 
ATOM     48  H   UNL A   1      40.407  30.408  30.399  1.00  0.00     0.167 HD
ATOM     49  C   UNL A   1      44.420  29.196  31.687  1.00  0.00     0.037 A 
ATOM     50  C   UNL A   1      38.158  32.057  30.384  1.00  0.00     0.037 A 
ATOM     51  C   UNL A   1      44.224  30.508  32.244  1.00  0.00     0.049 A 
ATOM     52  C   UNL A   1      39.198  32.764  31.208  1.00  0.00     0.074 A 
ATOM     53  C   UNL A   1      45.111  31.275  32.979  1.00  0.00     0.029 A 
ATOM     54  N   UNL A   1      43.059  31.249  32.119  1.00  0.00    -0.354 N 
ATOM     55  N   UNL A   1      40.410  32.375  31.518  1.00  0.00    -0.248 NA
ATOM     56  C   UNL A   1      38.830  34.079  31.753  1.00  0.00     0.031 C 
ATOM     57  C   UNL A   1      44.472  32.471  33.321  1.00  0.00     0.029 A 
ATOM     58  C   UNL A   1      43.200  32.462  32.771  1.00  0.00     0.049 A 
ATOM     59  H   UNL A   1      42.252  30.957  31.637  1.00  0.00     0.167 HD
ATOM     60  C   UNL A   1      40.959  33.404  32.271  1.00  0.00     0.074 A 
ATOM     61  C   UNL A   1      39.951  34.440  32.362  1.00  0.00     0.031 C 
ATOM     62  C   UNL A   1      42.187  33.484  32.838  1.00  0.00     0.037 A 
BRANCH  49  63
ATOM     63  C   UNL A   1      45.710  28.484  31.961  1.00  0.00     0.057 A 
ATOM     64  C   UNL A   1      45.870  27.655  33.079  1.00  0.00     0.134 A 
ATOM     65  C   UNL A   1      46.800  28.618  31.093  1.00  0.00     0.134 A 
ATOM     66  F   UNL A   1      44.868  27.498  33.957  1.00  0.00    -0.206 F 
ATOM     67  C   UNL A   1      47.078  27.008  33.340  1.00  0.00     0.040 A 
ATOM     68  C   UNL A   1      48.006  27.956  31.330  1.00  0.00     0.040 A 
ATOM     69  F   UNL A   1      46.712  29.394  30.003  1.00  0.00    -0.206 F 
ATOM     70  C   UNL A   1      48.150  27.153  32.461  1.00  0.00     0.006 A 
ENDBRANCH  49  63
BRANCH  50  71
ATOM     71  C   UNL A   1      36.833  32.680  30.139  1.00  0.00     0.057 A 
ATOM     72  C   UNL A   1      36.647  33.574  29.078  1.00  0.00     0.134 A 
ATOM     73  C   UNL A   1      35.730  32.407  30.955  1.00  0.00     0.134 A 
ATOM     74  F   UNL A   1      37.673  33.888  28.273  1.00  0.00    -0.206 F 
ATOM     75  C   UNL A   1      35.415  34.187  28.846  1.00  0.00     0.040 A 
ATOM     76  C   UNL A   1      34.487  32.998  30.723  1.00  0.00     0.040 A 
ATOM     77  F   UNL A   1      35.844  31.554  31.984  1.00  0.00    -0.206 F 
ATOM     78  C   UNL A   1      34.329  33.896  29.670  1.00  0.00     0.006 A 
ENDBRANCH  50  71
BRANCH  62  79
ATOM     79  C   UNL A   1      42.519  34.745  33.575  1.00  0.00     0.057 A 
ATOM     80  C   UNL A   1      43.070  35.855  32.922  1.00  0.00     0.134 A 
ATOM     81  C   UNL A   1      42.245  34.864  34.942  1.00  0.00     0.134 A 
ATOM     82  F   UNL A   1      43.367  35.797  31.615  1.00  0.00    -0.206 F 
ATOM     83  C   UNL A   1      43.350  37.037  33.609  1.00  0.00     0.040 A 
ATOM     84  C   UNL A   1      42.501  36.047  35.636  1.00  0.00     0.040 A 
ATOM     85  F   UNL A   1      41.712  33.838  35.623  1.00  0.00    -0.206 F 
ATOM     86  C   UNL A   1      43.059  37.137  34.970  1.00  0.00     0.006 A 
ENDBRANCH  62  79
ENDBRANCH  36  37
ENDBRANCH  28  31
ENDBRANCH  26  27
ENDBRANCH  25  26
ENDBRANCH   1  25
TORSDOF 14
ENDMDL
MODEL 3
REMARK VINA RESULT:     -11.5      2.311      7.405
REMARK SMILES CC[C@H]1CC[C@](C(=O)NCCCCNC(=O)c2ccc(-c3c4nc(c(-c5c(F)cccc5F)c5ccc([nH]5)c(-c5c(F)cccc5F)c5nc(c(-c6c(F)cccc6F)c6ccc3[nH]6)C=C5)C=C4)cc2)([C@H]2CCC[C@@H](S(C)(=O)=O)C2)CC1
REMARK SMILES IDX 11 1 10 2 9 3 7 4 8 5 6 7 3 8 82 9 4 10 81 11 5 12 2 13 1 14
REMARK SMILES IDX 71 15 72 16 80 17 73 18 75 19 74 20 76 21 77 22 78 23 79 24
REMARK SMILES IDX 12 25 13 26 14 27 15 28 16 30 17 31 18 32 70 33 19 34 69 35
REMARK SMILES IDX 20 36 21 37 22 38 63 39 23 40 68 41 62 42 64 43 24 44 67 45
REMARK SMILES IDX 61 46 60 47 25 49 51 50 34 51 50 52 35 53 38 54 49 55 65 56
REMARK SMILES IDX 36 57 37 58 48 60 66 61 39 62 26 63 27 64 32 65 28 66 29 67
REMARK SMILES IDX 31 68 33 69 30 70 52 71 53 72 58 73 54 74 55 75 57 76 59 77
REMARK SMILES IDX 56 78 40 79 41 80 46 81 42 82 43 83 45 84 47 85 44 86
REMARK H PARENT 9 6 14 29 64 48 38 59
REMARK Flexibility Score: inf
ROOT
ATOM      1  C   UNL A   1      36.224  21.156  25.319  1.00  0.00     0.023 C 
ENDROOT
BRANCH   1   2
ATOM      2  C   UNL A   1      35.463  22.326  24.715  1.00  0.00     0.116 C 
BRANCH   2   3
ATOM      3  N   UNL A   1      35.300  23.424  25.628  1.00  0.00    -0.356 N 
ATOM      4  C   UNL A   1      34.094  23.644  26.218  1.00  0.00     0.226 C 
ATOM      5  O   UNL A   1      33.923  23.230  27.365  1.00  0.00    -0.274 OA
ATOM      6  H   UNL A   1      36.060  24.017  25.826  1.00  0.00     0.163 HD
BRANCH   4   7
ATOM      7  C   UNL A   1      33.004  24.428  25.453  1.00  0.00     0.052 C 
ATOM      8  C   UNL A   1      31.875  22.349  23.458  1.00  0.00    -0.011 C 
ATOM      9  C   UNL A   1      31.729  22.262  24.982  1.00  0.00     0.005 C 
ATOM     10  C   UNL A   1      32.820  23.461  22.968  1.00  0.00     0.005 C 
ATOM     11  C   UNL A   1      31.685  23.634  25.661  1.00  0.00     0.017 C 
ATOM     12  C   UNL A   1      33.179  24.605  23.922  1.00  0.00     0.017 C 
BRANCH   8  13
ATOM     13  C   UNL A   1      32.296  21.014  22.784  1.00  0.00    -0.000 C 
ATOM     14  C   UNL A   1      32.504  19.829  23.713  1.00  0.00     0.004 C 
ENDBRANCH   8  13
BRANCH   7  15
ATOM     15  C   UNL A   1      32.886  25.893  26.100  1.00  0.00     0.006 C 
ATOM     16  C   UNL A   1      33.984  26.924  25.764  1.00  0.00     0.005 C 
ATOM     17  C   UNL A   1      31.491  26.581  26.081  1.00  0.00     0.024 C 
ATOM     18  C   UNL A   1      33.687  27.857  24.590  1.00  0.00     0.002 C 
ATOM     19  C   UNL A   1      31.170  27.599  24.979  1.00  0.00     0.108 C 
ATOM     20  C   UNL A   1      32.330  28.543  24.681  1.00  0.00     0.020 C 
BRANCH  19  21
ATOM     21  S   UNL A   1      30.407  26.888  23.504  1.00  0.00     0.150 S 
ATOM     22  C   UNL A   1      29.057  27.985  23.155  1.00  0.00     0.158 C 
ATOM     23  O   UNL A   1      31.310  26.978  22.373  1.00  0.00    -0.229 OA
ATOM     24  O   UNL A   1      29.795  25.621  23.860  1.00  0.00    -0.229 OA
ENDBRANCH  19  21
ENDBRANCH   7  15
ENDBRANCH   4   7
ENDBRANCH   2   3
ENDBRANCH   1   2
BRANCH   1  25
ATOM     25  C   UNL A   1      37.606  20.938  24.715  1.00  0.00     0.023 C 
BRANCH  25  26
ATOM     26  C   UNL A   1      38.755  20.946  25.718  1.00  0.00     0.116 C 
BRANCH  26  27
ATOM     27  N   UNL A   1      39.642  19.789  25.634  1.00  0.00    -0.352 N 
ATOM     28  C   UNL A   1      40.959  19.708  26.019  1.00  0.00     0.251 C 
ATOM     29  H   UNL A   1      39.249  18.969  25.256  1.00  0.00     0.163 HD
ATOM     30  O   UNL A   1      41.609  18.680  25.860  1.00  0.00    -0.269 OA
BRANCH  28  31
ATOM     31  C   UNL A   1      41.591  20.917  26.574  1.00  0.00     0.039 A 
ATOM     32  C   UNL A   1      42.145  21.847  25.694  1.00  0.00     0.014 A 
ATOM     33  C   UNL A   1      41.503  21.181  27.943  1.00  0.00     0.014 A 
ATOM     34  C   UNL A   1      42.532  23.095  26.180  1.00  0.00     0.010 A 
ATOM     35  C   UNL A   1      41.816  22.451  28.409  1.00  0.00     0.010 A 
ATOM     36  C   UNL A   1      42.319  23.422  27.529  1.00  0.00    -0.014 A 
BRANCH  36  37
ATOM     37  C   UNL A   1      42.602  24.782  28.043  1.00  0.00     0.031 A 
ATOM     38  C   UNL A   1      43.992  25.142  28.479  1.00  0.00     0.074 A 
ATOM     39  C   UNL A   1      41.591  25.660  28.197  1.00  0.00     0.049 A 
ATOM     40  N   UNL A   1      44.425  26.242  29.037  1.00  0.00    -0.248 NA
ATOM     41  C   UNL A   1      45.028  24.111  28.293  1.00  0.00     0.031 C 
ATOM     42  C   UNL A   1      40.186  25.405  27.871  1.00  0.00     0.029 A 
ATOM     43  N   UNL A   1      41.591  26.944  28.680  1.00  0.00    -0.354 N 
ATOM     44  C   UNL A   1      45.772  26.027  29.294  1.00  0.00     0.074 A 
ATOM     45  C   UNL A   1      46.074  24.676  28.876  1.00  0.00     0.031 C 
ATOM     46  C   UNL A   1      39.465  26.506  28.139  1.00  0.00     0.029 A 
ATOM     47  C   UNL A   1      40.349  27.531  28.683  1.00  0.00     0.049 A 
ATOM     48  H   UNL A   1      42.403  27.401  28.994  1.00  0.00     0.167 HD
ATOM     49  C   UNL A   1      46.682  26.887  29.808  1.00  0.00     0.037 A 
ATOM     50  C   UNL A   1      39.968  28.759  29.081  1.00  0.00     0.037 A 
ATOM     51  C   UNL A   1      46.386  28.244  30.183  1.00  0.00     0.049 A 
ATOM     52  C   UNL A   1      41.004  29.709  29.616  1.00  0.00     0.074 A 
ATOM     53  C   UNL A   1      47.251  29.219  30.646  1.00  0.00     0.029 A 
ATOM     54  N   UNL A   1      45.124  28.816  30.131  1.00  0.00    -0.354 N 
ATOM     55  N   UNL A   1      42.289  29.517  29.788  1.00  0.00    -0.248 NA
ATOM     56  C   UNL A   1      40.537  31.046  30.006  1.00  0.00     0.031 C 
ATOM     57  C   UNL A   1      46.506  30.376  30.899  1.00  0.00     0.029 A 
ATOM     58  C   UNL A   1      45.185  30.130  30.562  1.00  0.00     0.049 A 
ATOM     59  H   UNL A   1      44.307  28.357  29.831  1.00  0.00     0.167 HD
ATOM     60  C   UNL A   1      42.789  30.714  30.282  1.00  0.00     0.074 A 
ATOM     61  C   UNL A   1      41.671  31.630  30.371  1.00  0.00     0.031 C 
ATOM     62  C   UNL A   1      44.061  31.027  30.631  1.00  0.00     0.037 A 
BRANCH  49  63
ATOM     63  C   UNL A   1      48.082  26.382  29.981  1.00  0.00     0.057 A 
ATOM     64  C   UNL A   1      48.491  25.734  31.154  1.00  0.00     0.134 A 
ATOM     65  C   UNL A   1      49.029  26.534  28.962  1.00  0.00     0.134 A 
ATOM     66  F   UNL A   1      47.634  25.571  32.174  1.00  0.00    -0.206 F 
ATOM     67  C   UNL A   1      49.800  25.281  31.319  1.00  0.00     0.040 A 
ATOM     68  C   UNL A   1      50.336  26.063  29.105  1.00  0.00     0.040 A 
ATOM     69  F   UNL A   1      48.703  27.143  27.812  1.00  0.00    -0.206 F 
ATOM     70  C   UNL A   1      50.726  25.440  30.290  1.00  0.00     0.006 A 
ENDBRANCH  49  63
BRANCH  50  71
ATOM     71  C   UNL A   1      38.550  29.178  28.955  1.00  0.00     0.057 A 
ATOM     72  C   UNL A   1      37.683  29.111  30.051  1.00  0.00     0.134 A 
ATOM     73  C   UNL A   1      38.027  29.645  27.745  1.00  0.00     0.134 A 
ATOM     74  F   UNL A   1      38.124  28.653  31.232  1.00  0.00    -0.206 F 
ATOM     75  C   UNL A   1      36.341  29.477  29.946  1.00  0.00     0.040 A 
ATOM     76  C   UNL A   1      36.692  30.035  27.629  1.00  0.00     0.040 A 
ATOM     77  F   UNL A   1      38.810  29.739  26.660  1.00  0.00    -0.206 F 
ATOM     78  C   UNL A   1      35.843  29.945  28.731  1.00  0.00     0.006 A 
ENDBRANCH  50  71
BRANCH  62  79
ATOM     79  C   UNL A   1      44.314  32.425  31.108  1.00  0.00     0.057 A 
ATOM     80  C   UNL A   1      44.614  33.463  30.217  1.00  0.00     0.134 A 
ATOM     81  C   UNL A   1      44.214  32.742  32.467  1.00  0.00     0.134 A 
ATOM     82  F   UNL A   1      44.736  33.217  28.903  1.00  0.00    -0.206 F 
ATOM     83  C   UNL A   1      44.821  34.768  30.665  1.00  0.00     0.040 A 
ATOM     84  C   UNL A   1      44.397  34.048  32.925  1.00  0.00     0.040 A 
ATOM     85  F   UNL A   1      43.923  31.793  33.370  1.00  0.00    -0.206 F 
ATOM     86  C   UNL A   1      44.706  35.064  32.023  1.00  0.00     0.006 A 
ENDBRANCH  62  79
ENDBRANCH  36  37
ENDBRANCH  28  31
ENDBRANCH  26  27
ENDBRANCH  25  26
ENDBRANCH   1  25
TORSDOF 14
ENDMDL
