MODEL 1
REMARK VINA RESULT:      -9.2      0.000      0.000
REMARK SMILES CC(C)(C)[NH2+]CCC(=O)N1CCO[C@@H](CC(=O)NCCCCNC(=O)c2ccc(-c3c4nc(c(-c5c(F)cccc5F)c5ccc([nH]5)c(-c5c(F)cccc5F)c5nc(c(-c6c(F)cccc6F)c6ccc3[nH]6)C=C5)C=C4)cc2)C1
REMARK SMILES IDX 16 1 17 2 18 3 15 5 14 6 10 7 11 8 80 9 12 10 13 11 8 12
REMARK SMILES IDX 9 13 7 14 6 15 5 16 2 19 1 20 3 21 4 22 19 23 20 24 21 25
REMARK SMILES IDX 22 26 23 27 24 28 25 30 26 31 27 32 79 33 28 34 78 35 29 36
REMARK SMILES IDX 30 37 31 38 72 39 32 40 77 41 71 42 73 43 33 44 76 45 70 46
REMARK SMILES IDX 69 47 34 49 60 50 43 51 59 52 44 53 47 54 58 55 74 56 45 57
REMARK SMILES IDX 46 58 57 60 75 61 48 62 35 63 36 64 41 65 37 66 38 67 40 68
REMARK SMILES IDX 42 69 39 70 61 71 62 72 67 73 63 74 64 75 66 76 68 77 65 78
REMARK SMILES IDX 49 79 50 80 55 81 51 82 52 83 54 84 56 85 53 86
REMARK H PARENT 18 4 5 17 5 18 23 29 73 48 47 59
REMARK Flexibility Score: inf
ROOT
ATOM      1  C   UNL A   1      36.288  33.930  35.585  1.00  0.00     0.222 C 
ATOM      2  O   UNL A   1      36.161  33.364  36.671  1.00  0.00    -0.275 OA
ATOM      3  N   UNL A   1      35.166  34.404  34.966  1.00  0.00    -0.356 N 
ATOM      4  H   UNL A   1      34.361  34.430  35.532  1.00  0.00     0.163 HD
ENDROOT
BRANCH   1   5
ATOM      5  C   UNL A   1      37.653  34.102  34.952  1.00  0.00     0.133 C 
BRANCH   5   6
ATOM      6  C   UNL A   1      38.139  32.920  34.101  1.00  0.00     0.147 C 
ATOM      7  N   UNL A   1      39.368  30.714  34.395  1.00  0.00    -0.338 N 
ATOM      8  C   UNL A   1      38.105  30.034  34.150  1.00  0.00     0.148 C 
ATOM      9  C   UNL A   1      39.189  32.082  34.846  1.00  0.00     0.152 C 
ATOM     10  C   UNL A   1      37.250  30.878  33.213  1.00  0.00     0.182 C 
ATOM     11  O   UNL A   1      36.951  32.143  33.818  1.00  0.00    -0.374 OA
BRANCH   7  12
ATOM     12  C   UNL A   1      40.362  29.983  35.050  1.00  0.00     0.228 C 
ATOM     13  O   UNL A   1      40.279  29.655  36.231  1.00  0.00    -0.275 OA
BRANCH  12  14
ATOM     14  C   UNL A   1      41.515  29.557  34.168  1.00  0.00     0.161 C 
BRANCH  14  15
ATOM     15  C   UNL A   1      41.483  28.040  33.945  1.00  0.00     0.270 C 
BRANCH  15  16
ATOM     16  N   UNL A   1      41.131  27.232  35.115  1.00  0.00    -0.342 N 
ATOM     17  H   UNL A   1      41.016  27.875  35.899  1.00  0.00     0.346 HD
ATOM     18  H   UNL A   1      40.299  26.722  34.818  1.00  0.00     0.346 HD
BRANCH  16  19
ATOM     19  C   UNL A   1      42.051  26.176  35.556  1.00  0.00     0.088 C 
ATOM     20  C   UNL A   1      41.310  24.850  35.782  1.00  0.00     0.078 C 
ATOM     21  C   UNL A   1      42.845  26.555  36.812  1.00  0.00     0.078 C 
ATOM     22  C   UNL A   1      43.047  25.981  34.395  1.00  0.00     0.078 C 
ENDBRANCH  16  19
ENDBRANCH  15  16
ENDBRANCH  14  15
ENDBRANCH  12  14
ENDBRANCH   7  12
ENDBRANCH   5   6
ENDBRANCH   1   5
BRANCH   3  23
ATOM     23  C   UNL A   1      34.973  34.878  33.603  1.00  0.00     0.116 C 
BRANCH  23  24
ATOM     24  C   UNL A   1      34.135  36.162  33.603  1.00  0.00     0.023 C 
BRANCH  24  25
ATOM     25  C   UNL A   1      33.226  36.349  32.405  1.00  0.00     0.023 C 
BRANCH  25  26
ATOM     26  C   UNL A   1      33.914  36.111  31.077  1.00  0.00     0.116 C 
BRANCH  26  27
ATOM     27  N   UNL A   1      33.013  35.722  29.997  1.00  0.00    -0.352 N 
ATOM     28  C   UNL A   1      33.176  34.708  29.082  1.00  0.00     0.251 C 
ATOM     29  H   UNL A   1      32.186  36.250  29.914  1.00  0.00     0.163 HD
ATOM     30  O   UNL A   1      32.354  34.514  28.192  1.00  0.00    -0.269 OA
BRANCH  28  31
ATOM     31  C   UNL A   1      34.402  33.892  29.154  1.00  0.00     0.039 A 
ATOM     32  C   UNL A   1      35.442  34.157  28.262  1.00  0.00     0.014 A 
ATOM     33  C   UNL A   1      34.565  32.969  30.190  1.00  0.00     0.014 A 
ATOM     34  C   UNL A   1      36.684  33.556  28.467  1.00  0.00     0.010 A 
ATOM     35  C   UNL A   1      35.831  32.473  30.461  1.00  0.00     0.010 A 
ATOM     36  C   UNL A   1      36.900  32.752  29.598  1.00  0.00    -0.014 A 
BRANCH  36  37
ATOM     37  C   UNL A   1      38.229  32.162  29.886  1.00  0.00     0.031 A 
ATOM     38  C   UNL A   1      39.230  32.949  30.686  1.00  0.00     0.074 A 
ATOM     39  C   UNL A   1      38.562  30.963  29.367  1.00  0.00     0.049 A 
ATOM     40  N   UNL A   1      40.470  32.655  30.981  1.00  0.00    -0.248 NA
ATOM     41  C   UNL A   1      38.792  34.264  31.185  1.00  0.00     0.031 C 
ATOM     42  C   UNL A   1      37.706  30.137  28.511  1.00  0.00     0.029 A 
ATOM     43  N   UNL A   1      39.716  30.231  29.483  1.00  0.00    -0.354 N 
ATOM     44  C   UNL A   1      40.963  33.757  31.667  1.00  0.00     0.074 A 
ATOM     45  C   UNL A   1      39.915  34.753  31.684  1.00  0.00     0.031 C 
ATOM     46  C   UNL A   1      38.350  28.997  28.214  1.00  0.00     0.029 A 
ATOM     47  C   UNL A   1      39.673  29.024  28.830  1.00  0.00     0.049 A 
ATOM     48  H   UNL A   1      40.503  30.542  29.988  1.00  0.00     0.167 HD
ATOM     49  C   UNL A   1      42.166  33.914  32.264  1.00  0.00     0.037 A 
ATOM     50  C   UNL A   1      40.595  28.048  28.748  1.00  0.00     0.037 A 
ATOM     51  C   UNL A   1      43.182  32.898  32.295  1.00  0.00     0.049 A 
ATOM     52  C   UNL A   1      41.907  28.221  29.462  1.00  0.00     0.074 A 
ATOM     53  C   UNL A   1      44.406  32.921  32.938  1.00  0.00     0.029 A 
ATOM     54  N   UNL A   1      43.081  31.667  31.663  1.00  0.00    -0.354 N 
ATOM     55  N   UNL A   1      42.333  29.240  30.170  1.00  0.00    -0.248 NA
ATOM     56  C   UNL A   1      42.862  27.108  29.375  1.00  0.00     0.031 C 
ATOM     57  C   UNL A   1      45.059  31.713  32.671  1.00  0.00     0.029 A 
ATOM     58  C   UNL A   1      44.226  30.925  31.892  1.00  0.00     0.049 A 
ATOM     59  H   UNL A   1      42.309  31.367  31.131  1.00  0.00     0.167 HD
ATOM     60  C   UNL A   1      43.592  28.881  30.633  1.00  0.00     0.074 A 
ATOM     61  C   UNL A   1      43.854  27.545  30.138  1.00  0.00     0.031 C 
ATOM     62  C   UNL A   1      44.457  29.593  31.396  1.00  0.00     0.037 A 
BRANCH  49  63
ATOM     63  C   UNL A   1      42.429  35.222  32.947  1.00  0.00     0.057 A 
ATOM     64  C   UNL A   1      41.915  35.507  34.220  1.00  0.00     0.134 A 
ATOM     65  C   UNL A   1      43.206  36.209  32.329  1.00  0.00     0.134 A 
ATOM     66  F   UNL A   1      41.147  34.611  34.859  1.00  0.00    -0.206 F 
ATOM     67  C   UNL A   1      42.136  36.737  34.840  1.00  0.00     0.040 A 
ATOM     68  C   UNL A   1      43.458  37.433  32.951  1.00  0.00     0.040 A 
ATOM     69  F   UNL A   1      43.728  36.003  31.112  1.00  0.00    -0.206 F 
ATOM     70  C   UNL A   1      42.916  37.704  34.206  1.00  0.00     0.006 A 
ENDBRANCH  49  63
BRANCH  50  71
ATOM     71  C   UNL A   1      40.296  26.798  28.003  1.00  0.00     0.057 A 
ATOM     72  C   UNL A   1      39.486  25.803  28.563  1.00  0.00     0.134 A 
ATOM     73  C   UNL A   1      40.813  26.564  26.724  1.00  0.00     0.134 A 
ATOM     74  F   UNL A   1      38.975  25.964  29.793  1.00  0.00    -0.206 F 
ATOM     75  C   UNL A   1      39.216  24.612  27.888  1.00  0.00     0.040 A 
ATOM     76  C   UNL A   1      40.533  25.386  26.028  1.00  0.00     0.040 A 
ATOM     77  F   UNL A   1      41.589  27.481  26.128  1.00  0.00    -0.206 F 
ATOM     78  C   UNL A   1      39.739  24.402  26.614  1.00  0.00     0.006 A 
ENDBRANCH  50  71
BRANCH  62  79
ATOM     79  C   UNL A   1      45.747  28.928  31.765  1.00  0.00     0.057 A 
ATOM     80  C   UNL A   1      45.920  28.290  32.999  1.00  0.00     0.134 A 
ATOM     81  C   UNL A   1      46.814  28.890  30.859  1.00  0.00     0.134 A 
ATOM     82  F   UNL A   1      44.939  28.302  33.914  1.00  0.00    -0.206 F 
ATOM     83  C   UNL A   1      47.118  27.656  33.329  1.00  0.00     0.040 A 
ATOM     84  C   UNL A   1      48.008  28.240  31.167  1.00  0.00     0.040 A 
ATOM     85  F   UNL A   1      46.707  29.475  29.657  1.00  0.00    -0.206 F 
ATOM     86  C   UNL A   1      48.164  27.625  32.409  1.00  0.00     0.006 A 
ENDBRANCH  62  79
ENDBRANCH  36  37
ENDBRANCH  28  31
ENDBRANCH  26  27
ENDBRANCH  25  26
ENDBRANCH  24  25
ENDBRANCH  23  24
ENDBRANCH   3  23
TORSDOF 17
ENDMDL
MODEL 2
REMARK VINA RESULT:      -8.9      5.243     10.814
REMARK SMILES CC(C)(C)[NH2+]CCC(=O)N1CCO[C@@H](CC(=O)NCCCCNC(=O)c2ccc(-c3c4nc(c(-c5c(F)cccc5F)c5ccc([nH]5)c(-c5c(F)cccc5F)c5nc(c(-c6c(F)cccc6F)c6ccc3[nH]6)C=C5)C=C4)cc2)C1
REMARK SMILES IDX 16 1 17 2 18 3 15 5 14 6 10 7 11 8 80 9 12 10 13 11 8 12
REMARK SMILES IDX 9 13 7 14 6 15 5 16 2 19 1 20 3 21 4 22 19 23 20 24 21 25
REMARK SMILES IDX 22 26 23 27 24 28 25 30 26 31 27 32 79 33 28 34 78 35 29 36
REMARK SMILES IDX 30 37 31 38 72 39 32 40 77 41 71 42 73 43 33 44 76 45 70 46
REMARK SMILES IDX 69 47 34 49 60 50 43 51 59 52 44 53 47 54 58 55 74 56 45 57
REMARK SMILES IDX 46 58 57 60 75 61 48 62 35 63 36 64 41 65 37 66 38 67 40 68
REMARK SMILES IDX 42 69 39 70 61 71 62 72 67 73 63 74 64 75 66 76 68 77 65 78
REMARK SMILES IDX 49 79 50 80 55 81 51 82 52 83 54 84 56 85 53 86
REMARK H PARENT 18 4 5 17 5 18 23 29 73 48 47 59
REMARK Flexibility Score: inf
ROOT
ATOM      1  C   UNL A   1      34.350  19.726  25.007  1.00  0.00     0.222 C 
ATOM      2  O   UNL A   1      34.580  18.775  24.259  1.00  0.00    -0.275 OA
ATOM      3  N   UNL A   1      35.384  20.555  25.338  1.00  0.00    -0.356 N 
ATOM      4  H   UNL A   1      36.196  20.441  24.794  1.00  0.00     0.163 HD
ENDROOT
BRANCH   1   5
ATOM      5  C   UNL A   1      32.957  19.974  25.544  1.00  0.00     0.133 C 
BRANCH   5   6
ATOM      6  C   UNL A   1      32.157  21.070  24.823  1.00  0.00     0.147 C 
ATOM      7  N   UNL A   1      31.499  23.504  25.153  1.00  0.00    -0.338 N 
ATOM      8  C   UNL A   1      32.432  23.848  24.091  1.00  0.00     0.148 C 
ATOM      9  C   UNL A   1      31.803  22.225  25.771  1.00  0.00     0.152 C 
ATOM     10  C   UNL A   1      32.518  22.695  23.098  1.00  0.00     0.182 C 
ATOM     11  O   UNL A   1      33.015  21.518  23.747  1.00  0.00    -0.374 OA
BRANCH   7  12
ATOM     12  C   UNL A   1      31.129  24.529  26.026  1.00  0.00     0.228 C 
ATOM     13  O   UNL A   1      31.406  24.517  27.222  1.00  0.00    -0.275 OA
BRANCH  12  14
ATOM     14  C   UNL A   1      30.430  25.697  25.365  1.00  0.00     0.161 C 
BRANCH  14  15
ATOM     15  C   UNL A   1      31.031  27.021  25.850  1.00  0.00     0.270 C 
BRANCH  15  16
ATOM     16  N   UNL A   1      32.493  27.111  25.807  1.00  0.00    -0.342 N 
ATOM     17  H   UNL A   1      32.840  26.771  26.704  1.00  0.00     0.346 HD
ATOM     18  H   UNL A   1      32.747  26.566  24.983  1.00  0.00     0.346 HD
BRANCH  16  19
ATOM     19  C   UNL A   1      33.121  28.417  25.570  1.00  0.00     0.088 C 
ATOM     20  C   UNL A   1      32.098  29.557  25.687  1.00  0.00     0.078 C 
ATOM     21  C   UNL A   1      33.850  28.500  24.223  1.00  0.00     0.078 C 
ATOM     22  C   UNL A   1      34.163  28.586  26.694  1.00  0.00     0.078 C 
ENDBRANCH  16  19
ENDBRANCH  15  16
ENDBRANCH  14  15
ENDBRANCH  12  14
ENDBRANCH   7  12
ENDBRANCH   5   6
ENDBRANCH   1   5
BRANCH   3  23
ATOM     23  C   UNL A   1      35.475  21.580  26.369  1.00  0.00     0.116 C 
BRANCH  23  24
ATOM     24  C   UNL A   1      35.573  22.969  25.725  1.00  0.00     0.023 C 
BRANCH  24  25
ATOM     25  C   UNL A   1      36.923  23.320  25.135  1.00  0.00     0.023 C 
BRANCH  25  26
ATOM     26  C   UNL A   1      37.824  24.082  26.086  1.00  0.00     0.116 C 
BRANCH  26  27
ATOM     27  N   UNL A   1      39.243  23.780  25.938  1.00  0.00    -0.352 N 
ATOM     28  C   UNL A   1      40.311  24.415  26.530  1.00  0.00     0.251 C 
ATOM     29  H   UNL A   1      39.465  23.030  25.340  1.00  0.00     0.163 HD
ATOM     30  O   UNL A   1      41.466  24.084  26.284  1.00  0.00    -0.269 OA
BRANCH  28  31
ATOM     31  C   UNL A   1      40.037  25.553  27.426  1.00  0.00     0.039 A 
ATOM     32  C   UNL A   1      39.225  25.351  28.544  1.00  0.00     0.014 A 
ATOM     33  C   UNL A   1      40.695  26.770  27.232  1.00  0.00     0.014 A 
ATOM     34  C   UNL A   1      39.146  26.347  29.517  1.00  0.00     0.010 A 
ATOM     35  C   UNL A   1      40.712  27.702  28.257  1.00  0.00     0.010 A 
ATOM     36  C   UNL A   1      39.930  27.507  29.405  1.00  0.00    -0.014 A 
BRANCH  36  37
ATOM     37  C   UNL A   1      39.928  28.548  30.460  1.00  0.00     0.031 A 
ATOM     38  C   UNL A   1      38.936  29.675  30.383  1.00  0.00     0.074 A 
ATOM     39  C   UNL A   1      40.858  28.522  31.435  1.00  0.00     0.049 A 
ATOM     40  N   UNL A   1      38.817  30.727  31.152  1.00  0.00    -0.248 NA
ATOM     41  C   UNL A   1      37.978  29.641  29.265  1.00  0.00     0.031 C 
ATOM     42  C   UNL A   1      41.921  27.523  31.574  1.00  0.00     0.029 A 
ATOM     43  N   UNL A   1      41.060  29.367  32.496  1.00  0.00    -0.354 N 
ATOM     44  C   UNL A   1      37.798  31.486  30.593  1.00  0.00     0.074 A 
ATOM     45  C   UNL A   1      37.381  30.815  29.382  1.00  0.00     0.031 C 
ATOM     46  C   UNL A   1      42.636  27.791  32.678  1.00  0.00     0.029 A 
ATOM     47  C   UNL A   1      42.104  28.995  33.308  1.00  0.00     0.049 A 
ATOM     48  H   UNL A   1      40.508  30.166  32.661  1.00  0.00     0.167 HD
ATOM     49  C   UNL A   1      37.232  32.621  31.063  1.00  0.00     0.037 A 
ATOM     50  C   UNL A   1      42.570  29.560  34.436  1.00  0.00     0.037 A 
ATOM     51  C   UNL A   1      37.611  33.252  32.297  1.00  0.00     0.049 A 
ATOM     52  C   UNL A   1      41.893  30.793  34.969  1.00  0.00     0.074 A 
ATOM     53  C   UNL A   1      37.052  34.360  32.907  1.00  0.00     0.029 A 
ATOM     54  N   UNL A   1      38.641  32.817  33.117  1.00  0.00    -0.354 N 
ATOM     55  N   UNL A   1      40.881  31.461  34.468  1.00  0.00    -0.248 NA
ATOM     56  C   UNL A   1      42.415  31.345  36.226  1.00  0.00     0.031 C 
ATOM     57  C   UNL A   1      37.763  34.612  34.084  1.00  0.00     0.029 A 
ATOM     58  C   UNL A   1      38.742  33.640  34.224  1.00  0.00     0.049 A 
ATOM     59  H   UNL A   1      39.215  32.037  32.938  1.00  0.00     0.167 HD
ATOM     60  C   UNL A   1      40.629  32.494  35.360  1.00  0.00     0.074 A 
ATOM     61  C   UNL A   1      41.584  32.356  36.440  1.00  0.00     0.031 C 
ATOM     62  C   UNL A   1      39.695  33.474  35.291  1.00  0.00     0.037 A 
BRANCH  49  63
ATOM     63  C   UNL A   1      36.133  33.230  30.245  1.00  0.00     0.057 A 
ATOM     64  C   UNL A   1      34.783  33.073  30.589  1.00  0.00     0.134 A 
ATOM     65  C   UNL A   1      36.423  33.985  29.102  1.00  0.00     0.134 A 
ATOM     66  F   UNL A   1      34.436  32.345  31.663  1.00  0.00    -0.206 F 
ATOM     67  C   UNL A   1      33.761  33.615  29.810  1.00  0.00     0.040 A 
ATOM     68  C   UNL A   1      35.410  34.556  28.330  1.00  0.00     0.040 A 
ATOM     69  F   UNL A   1      37.692  34.175  28.716  1.00  0.00    -0.206 F 
ATOM     70  C   UNL A   1      34.075  34.365  28.678  1.00  0.00     0.006 A 
ENDBRANCH  49  63
BRANCH  50  71
ATOM     71  C   UNL A   1      43.705  28.941  35.168  1.00  0.00     0.057 A 
ATOM     72  C   UNL A   1      43.479  28.005  36.185  1.00  0.00     0.134 A 
ATOM     73  C   UNL A   1      45.033  29.272  34.878  1.00  0.00     0.134 A 
ATOM     74  F   UNL A   1      42.227  27.661  36.519  1.00  0.00    -0.206 F 
ATOM     75  C   UNL A   1      44.532  27.434  36.900  1.00  0.00     0.040 A 
ATOM     76  C   UNL A   1      46.097  28.691  35.571  1.00  0.00     0.040 A 
ATOM     77  F   UNL A   1      45.316  30.155  33.910  1.00  0.00    -0.206 F 
ATOM     78  C   UNL A   1      45.848  27.774  36.591  1.00  0.00     0.006 A 
ENDBRANCH  50  71
BRANCH  62  79
ATOM     79  C   UNL A   1      39.642  34.447  36.428  1.00  0.00     0.057 A 
ATOM     80  C   UNL A   1      38.896  34.189  37.584  1.00  0.00     0.134 A 
ATOM     81  C   UNL A   1      40.379  35.637  36.382  1.00  0.00     0.134 A 
ATOM     82  F   UNL A   1      38.161  33.071  37.684  1.00  0.00    -0.206 F 
ATOM     83  C   UNL A   1      38.867  35.092  38.648  1.00  0.00     0.040 A 
ATOM     84  C   UNL A   1      40.376  36.537  37.448  1.00  0.00     0.040 A 
ATOM     85  F   UNL A   1      41.120  35.938  35.305  1.00  0.00    -0.206 F 
ATOM     86  C   UNL A   1      39.614  36.266  38.583  1.00  0.00     0.006 A 
ENDBRANCH  62  79
ENDBRANCH  36  37
ENDBRANCH  28  31
ENDBRANCH  26  27
ENDBRANCH  25  26
ENDBRANCH  24  25
ENDBRANCH  23  24
ENDBRANCH   3  23
TORSDOF 17
ENDMDL
MODEL 3
REMARK VINA RESULT:      -8.9      5.589     11.379
REMARK SMILES CC(C)(C)[NH2+]CCC(=O)N1CCO[C@@H](CC(=O)NCCCCNC(=O)c2ccc(-c3c4nc(c(-c5c(F)cccc5F)c5ccc([nH]5)c(-c5c(F)cccc5F)c5nc(c(-c6c(F)cccc6F)c6ccc3[nH]6)C=C5)C=C4)cc2)C1
REMARK SMILES IDX 16 1 17 2 18 3 15 5 14 6 10 7 11 8 80 9 12 10 13 11 8 12
REMARK SMILES IDX 9 13 7 14 6 15 5 16 2 19 1 20 3 21 4 22 19 23 20 24 21 25
REMARK SMILES IDX 22 26 23 27 24 28 25 30 26 31 27 32 79 33 28 34 78 35 29 36
REMARK SMILES IDX 30 37 31 38 72 39 32 40 77 41 71 42 73 43 33 44 76 45 70 46
REMARK SMILES IDX 69 47 34 49 60 50 43 51 59 52 44 53 47 54 58 55 74 56 45 57
REMARK SMILES IDX 46 58 57 60 75 61 48 62 35 63 36 64 41 65 37 66 38 67 40 68
REMARK SMILES IDX 42 69 39 70 61 71 62 72 67 73 63 74 64 75 66 76 68 77 65 78
REMARK SMILES IDX 49 79 50 80 55 81 51 82 52 83 54 84 56 85 53 86
REMARK H PARENT 18 4 5 17 5 18 23 29 73 48 47 59
REMARK Flexibility Score: inf
ROOT
ATOM      1  C   UNL A   1      33.405  20.092  24.940  1.00  0.00     0.222 C 
ATOM      2  O   UNL A   1      33.124  18.980  24.493  1.00  0.00    -0.275 OA
ATOM      3  N   UNL A   1      34.689  20.321  25.347  1.00  0.00    -0.356 N 
ATOM      4  H   UNL A   1      35.340  19.639  25.068  1.00  0.00     0.163 HD
ENDROOT
BRANCH   1   5
ATOM      5  C   UNL A   1      32.357  21.180  25.033  1.00  0.00     0.133 C 
BRANCH   5   6
ATOM      6  C   UNL A   1      32.163  22.020  23.761  1.00  0.00     0.147 C 
ATOM      7  N   UNL A   1      31.542  24.396  23.100  1.00  0.00    -0.338 N 
ATOM      8  C   UNL A   1      32.929  24.597  22.710  1.00  0.00     0.148 C 
ATOM      9  C   UNL A   1      31.381  23.310  24.051  1.00  0.00     0.152 C 
ATOM     10  C   UNL A   1      33.517  23.275  22.231  1.00  0.00     0.182 C 
ATOM     11  O   UNL A   1      33.501  22.312  23.293  1.00  0.00    -0.374 OA
BRANCH   7  12
ATOM     12  C   UNL A   1      30.784  25.542  23.352  1.00  0.00     0.228 C 
ATOM     13  O   UNL A   1      29.726  25.517  23.974  1.00  0.00    -0.275 OA
BRANCH  12  14
ATOM     14  C   UNL A   1      31.410  26.830  22.864  1.00  0.00     0.161 C 
BRANCH  14  15
ATOM     15  C   UNL A   1      31.135  27.965  23.856  1.00  0.00     0.270 C 
BRANCH  15  16
ATOM     16  N   UNL A   1      31.299  27.627  25.272  1.00  0.00    -0.342 N 
ATOM     17  H   UNL A   1      30.366  27.603  25.684  1.00  0.00     0.346 HD
ATOM     18  H   UNL A   1      31.813  26.746  25.255  1.00  0.00     0.346 HD
BRANCH  16  19
ATOM     19  C   UNL A   1      32.123  28.496  26.123  1.00  0.00     0.088 C 
ATOM     20  C   UNL A   1      31.869  29.979  25.815  1.00  0.00     0.078 C 
ATOM     21  C   UNL A   1      33.622  28.188  26.028  1.00  0.00     0.078 C 
ATOM     22  C   UNL A   1      31.663  28.217  27.569  1.00  0.00     0.078 C 
ENDBRANCH  16  19
ENDBRANCH  15  16
ENDBRANCH  14  15
ENDBRANCH  12  14
ENDBRANCH   7  12
ENDBRANCH   5   6
ENDBRANCH   1   5
BRANCH   3  23
ATOM     23  C   UNL A   1      35.246  21.417  26.128  1.00  0.00     0.116 C 
BRANCH  23  24
ATOM     24  C   UNL A   1      36.424  22.054  25.379  1.00  0.00     0.023 C 
BRANCH  24  25
ATOM     25  C   UNL A   1      37.497  21.092  24.913  1.00  0.00     0.023 C 
BRANCH  25  26
ATOM     26  C   UNL A   1      38.784  21.184  25.707  1.00  0.00     0.116 C 
BRANCH  26  27
ATOM     27  N   UNL A   1      39.625  19.995  25.626  1.00  0.00    -0.352 N 
ATOM     28  C   UNL A   1      40.935  19.855  26.021  1.00  0.00     0.251 C 
ATOM     29  H   UNL A   1      39.202  19.193  25.242  1.00  0.00     0.163 HD
ATOM     30  O   UNL A   1      41.542  18.802  25.856  1.00  0.00    -0.269 OA
BRANCH  28  31
ATOM     31  C   UNL A   1      41.621  21.028  26.594  1.00  0.00     0.039 A 
ATOM     32  C   UNL A   1      42.161  21.983  25.730  1.00  0.00     0.014 A 
ATOM     33  C   UNL A   1      41.602  21.242  27.974  1.00  0.00     0.014 A 
ATOM     34  C   UNL A   1      42.601  23.199  26.250  1.00  0.00     0.010 A 
ATOM     35  C   UNL A   1      41.925  22.496  28.469  1.00  0.00     0.010 A 
ATOM     36  C   UNL A   1      42.439  23.483  27.616  1.00  0.00    -0.014 A 
BRANCH  36  37
ATOM     37  C   UNL A   1      42.826  24.795  28.186  1.00  0.00     0.031 A 
ATOM     38  C   UNL A   1      41.771  25.841  28.418  1.00  0.00     0.074 A 
ATOM     39  C   UNL A   1      44.124  25.072  28.420  1.00  0.00     0.049 A 
ATOM     40  N   UNL A   1      41.905  27.076  28.829  1.00  0.00    -0.248 NA
ATOM     41  C   UNL A   1      40.383  25.463  28.104  1.00  0.00     0.031 C 
ATOM     42  C   UNL A   1      45.249  24.169  28.163  1.00  0.00     0.029 A 
ATOM     43  N   UNL A   1      44.718  26.201  28.925  1.00  0.00    -0.354 N 
ATOM     44  C   UNL A   1      40.630  27.623  28.791  1.00  0.00     0.074 A 
ATOM     45  C   UNL A   1      39.748  26.614  28.250  1.00  0.00     0.031 C 
ATOM     46  C   UNL A   1      46.389  24.763  28.549  1.00  0.00     0.029 A 
ATOM     47  C   UNL A   1      46.082  26.099  29.050  1.00  0.00     0.049 A 
ATOM     48  H   UNL A   1      44.213  27.009  29.175  1.00  0.00     0.167 HD
ATOM     49  C   UNL A   1      40.220  28.845  29.204  1.00  0.00     0.037 A 
ATOM     50  C   UNL A   1      46.978  26.983  29.525  1.00  0.00     0.037 A 
ATOM     51  C   UNL A   1      41.091  29.823  29.796  1.00  0.00     0.049 A 
ATOM     52  C   UNL A   1      46.494  28.316  30.027  1.00  0.00     0.074 A 
ATOM     53  C   UNL A   1      40.768  31.060  30.321  1.00  0.00     0.029 A 
ATOM     54  N   UNL A   1      42.459  29.663  29.951  1.00  0.00    -0.354 N 
ATOM     55  N   UNL A   1      45.273  28.794  30.052  1.00  0.00    -0.248 NA
ATOM     56  C   UNL A   1      47.509  29.226  30.574  1.00  0.00     0.031 C 
ATOM     57  C   UNL A   1      41.948  31.662  30.769  1.00  0.00     0.029 A 
ATOM     58  C   UNL A   1      42.999  30.784  30.556  1.00  0.00     0.049 A 
ATOM     59  H   UNL A   1      42.971  28.869  29.673  1.00  0.00     0.167 HD
ATOM     60  C   UNL A   1      45.369  30.048  30.640  1.00  0.00     0.074 A 
ATOM     61  C   UNL A   1      46.765  30.250  30.969  1.00  0.00     0.031 C 
ATOM     62  C   UNL A   1      44.391  30.955  30.882  1.00  0.00     0.037 A 
BRANCH  49  63
ATOM     63  C   UNL A   1      38.765  29.170  29.047  1.00  0.00     0.057 A 
ATOM     64  C   UNL A   1      38.229  29.584  27.820  1.00  0.00     0.134 A 
ATOM     65  C   UNL A   1      37.887  29.069  30.133  1.00  0.00     0.134 A 
ATOM     66  F   UNL A   1      39.021  29.720  26.744  1.00  0.00    -0.206 F 
ATOM     67  C   UNL A   1      36.881  29.916  27.684  1.00  0.00     0.040 A 
ATOM     68  C   UNL A   1      36.530  29.370  30.004  1.00  0.00     0.040 A 
ATOM     69  F   UNL A   1      38.333  28.679  31.336  1.00  0.00    -0.206 F 
ATOM     70  C   UNL A   1      36.025  29.803  28.780  1.00  0.00     0.006 A 
ENDBRANCH  49  63
BRANCH  50  71
ATOM     71  C   UNL A   1      48.418  26.622  29.597  1.00  0.00     0.057 A 
ATOM     72  C   UNL A   1      48.947  26.004  30.736  1.00  0.00     0.134 A 
ATOM     73  C   UNL A   1      49.295  26.890  28.541  1.00  0.00     0.134 A 
ATOM     74  F   UNL A   1      48.158  25.738  31.787  1.00  0.00    -0.206 F 
ATOM     75  C   UNL A   1      50.301  25.682  30.831  1.00  0.00     0.040 A 
ATOM     76  C   UNL A   1      50.648  26.553  28.613  1.00  0.00     0.040 A 
ATOM     77  F   UNL A   1      48.848  27.472  27.419  1.00  0.00    -0.206 F 
ATOM     78  C   UNL A   1      51.157  25.953  29.765  1.00  0.00     0.006 A 
ENDBRANCH  50  71
BRANCH  62  79
ATOM     79  C   UNL A   1      44.795  32.228  31.561  1.00  0.00     0.057 A 
ATOM     80  C   UNL A   1      44.823  32.341  32.956  1.00  0.00     0.134 A 
ATOM     81  C   UNL A   1      45.197  33.339  30.810  1.00  0.00     0.134 A 
ATOM     82  F   UNL A   1      44.438  31.314  33.730  1.00  0.00    -0.206 F 
ATOM     83  C   UNL A   1      45.219  33.523  33.583  1.00  0.00     0.040 A 
ATOM     84  C   UNL A   1      45.617  34.519  31.424  1.00  0.00     0.040 A 
ATOM     85  F   UNL A   1      45.200  33.291  29.470  1.00  0.00    -0.206 F 
ATOM     86  C   UNL A   1      45.623  34.614  32.815  1.00  0.00     0.006 A 
ENDBRANCH  62  79
ENDBRANCH  36  37
ENDBRANCH  28  31
ENDBRANCH  26  27
ENDBRANCH  25  26
ENDBRANCH  24  25
ENDBRANCH  23  24
ENDBRANCH   3  23
TORSDOF 17
ENDMDL
