MODEL 1
REMARK VINA RESULT:     -12.1      0.000      0.000
REMARK SMILES COc1ccccc1[C@H](C)NC(=O)[C@@H]1CC=CC[C@@H]1C(=O)NCCCCNC(=O)c1ccc(-c2c3nc(c(-c4c(F)cccc4F)c4ccc([nH]4)c(-c4c(F)cccc4F)c4nc(c(-c5c(F)cccc5F)c5ccc2[nH]5)C=C4)C=C3)cc1
REMARK SMILES IDX 23 1 22 2 20 3 21 4 19 6 14 7 15 8 16 9 18 10 17 11 12 12
REMARK SMILES IDX 11 13 13 15 9 16 10 17 8 18 3 19 4 20 5 21 7 22 6 23 2 24
REMARK SMILES IDX 1 25 24 26 25 27 26 28 27 29 28 30 29 32 30 33 31 34 83 35
REMARK SMILES IDX 32 36 82 37 33 38 34 39 35 40 76 41 36 42 81 43 75 44 77 45
REMARK SMILES IDX 37 46 80 47 74 48 73 49 38 51 64 52 47 53 63 54 48 55 51 56
REMARK SMILES IDX 62 57 78 58 49 59 50 60 61 62 79 63 52 64 39 65 40 66 45 67
REMARK SMILES IDX 41 68 42 69 44 70 46 71 43 72 65 73 66 74 71 75 67 76 68 77
REMARK SMILES IDX 70 78 72 79 69 80 53 81 54 82 59 83 55 84 56 85 58 86 60 87
REMARK SMILES IDX 57 88
REMARK H PARENT 22 5 11 14 27 31 77 50 51 61
REMARK Flexibility Score: inf
ROOT
ATOM      1  C   UNL A   1      36.788  22.867  25.716  1.00  0.00     0.116 C 
ENDROOT
BRANCH   1   2
ATOM      2  N   UNL A   1      35.819  22.139  26.499  1.00  0.00    -0.356 N 
ATOM      3  C   UNL A   1      34.466  22.220  26.566  1.00  0.00     0.224 C 
ATOM      4  O   UNL A   1      33.939  21.449  27.373  1.00  0.00    -0.275 OA
ATOM      5  H   UNL A   1      36.210  21.459  27.094  1.00  0.00     0.163 HD
BRANCH   3   6
ATOM      6  C   UNL A   1      33.645  23.129  25.627  1.00  0.00     0.095 C 
ATOM      7  C   UNL A   1      32.112  22.944  25.591  1.00  0.00     0.095 C 
ATOM      8  C   UNL A   1      31.775  21.460  25.389  1.00  0.00     0.041 C 
ATOM      9  C   UNL A   1      32.504  20.925  24.181  1.00  0.00    -0.030 C 
ATOM     10  C   UNL A   1      34.120  22.852  24.171  1.00  0.00     0.041 C 
ATOM     11  C   UNL A   1      33.532  21.577  23.605  1.00  0.00    -0.030 C 
BRANCH   7  12
ATOM     12  C   UNL A   1      31.289  23.610  26.677  1.00  0.00     0.224 C 
ATOM     13  N   UNL A   1      30.968  24.931  26.587  1.00  0.00    -0.349 N 
ATOM     14  H   UNL A   1      30.543  25.299  27.395  1.00  0.00     0.164 HD
ATOM     15  O   UNL A   1      30.847  22.985  27.641  1.00  0.00    -0.275 OA
BRANCH  13  16
ATOM     16  C   UNL A   1      31.140  25.900  25.505  1.00  0.00     0.113 C 
ATOM     17  C   UNL A   1      29.770  26.348  24.989  1.00  0.00     0.036 C 
BRANCH  16  18
ATOM     18  C   UNL A   1      32.003  27.075  25.931  1.00  0.00     0.016 A 
ATOM     19  C   UNL A   1      33.259  27.354  25.367  1.00  0.00     0.124 A 
ATOM     20  C   UNL A   1      34.028  28.433  25.815  1.00  0.00     0.047 A 
ATOM     21  C   UNL A   1      33.539  29.270  26.820  1.00  0.00     0.004 A 
ATOM     22  C   UNL A   1      31.542  27.924  26.956  1.00  0.00     0.010 A 
ATOM     23  C   UNL A   1      32.295  29.016  27.388  1.00  0.00     0.001 A 
BRANCH  19  24
ATOM     24  O   UNL A   1      33.783  26.490  24.442  1.00  0.00    -0.496 OA
ATOM     25  C   UNL A   1      33.657  26.983  23.111  1.00  0.00     0.278 C 
ENDBRANCH  19  24
ENDBRANCH  16  18
ENDBRANCH  13  16
ENDBRANCH   7  12
ENDBRANCH   3   6
ENDBRANCH   1   2
BRANCH   1  26
ATOM     26  C   UNL A   1      37.320  21.995  24.580  1.00  0.00     0.023 C 
BRANCH  26  27
ATOM     27  C   UNL A   1      37.883  20.640  25.011  1.00  0.00     0.023 C 
BRANCH  27  28
ATOM     28  C   UNL A   1      39.084  20.701  25.943  1.00  0.00     0.116 C 
BRANCH  28  29
ATOM     29  N   UNL A   1      39.952  19.536  25.840  1.00  0.00    -0.352 N 
ATOM     30  C   UNL A   1      41.304  19.446  26.067  1.00  0.00     0.251 C 
ATOM     31  H   UNL A   1      39.509  18.699  25.571  1.00  0.00     0.163 HD
ATOM     32  O   UNL A   1      41.908  18.402  25.844  1.00  0.00    -0.269 OA
BRANCH  30  33
ATOM     33  C   UNL A   1      42.036  20.641  26.538  1.00  0.00     0.039 A 
ATOM     34  C   UNL A   1      42.591  21.507  25.593  1.00  0.00     0.014 A 
ATOM     35  C   UNL A   1      42.103  20.942  27.901  1.00  0.00     0.014 A 
ATOM     36  C   UNL A   1      43.123  22.730  26.008  1.00  0.00     0.010 A 
ATOM     37  C   UNL A   1      42.577  22.186  28.306  1.00  0.00     0.010 A 
ATOM     38  C   UNL A   1      43.067  23.101  27.361  1.00  0.00    -0.014 A 
BRANCH  38  39
ATOM     39  C   UNL A   1      43.443  24.467  27.805  1.00  0.00     0.031 A 
ATOM     40  C   UNL A   1      42.384  25.484  28.117  1.00  0.00     0.074 A 
ATOM     41  C   UNL A   1      44.745  24.820  27.815  1.00  0.00     0.049 A 
ATOM     42  N   UNL A   1      42.519  26.756  28.394  1.00  0.00    -0.248 NA
ATOM     43  C   UNL A   1      40.988  25.019  28.089  1.00  0.00     0.031 C 
ATOM     44  C   UNL A   1      45.865  23.939  27.476  1.00  0.00     0.029 A 
ATOM     45  N   UNL A   1      45.345  26.023  28.097  1.00  0.00    -0.354 N 
ATOM     46  C   UNL A   1      41.231  27.248  28.551  1.00  0.00     0.074 A 
ATOM     47  C   UNL A   1      40.323  26.146  28.310  1.00  0.00     0.031 C 
ATOM     48  C   UNL A   1      47.013  24.631  27.570  1.00  0.00     0.029 A 
ATOM     49  C   UNL A   1      46.709  26.009  27.936  1.00  0.00     0.049 A 
ATOM     50  H   UNL A   1      44.844  26.820  28.386  1.00  0.00     0.167 HD
ATOM     51  C   UNL A   1      40.842  28.502  28.880  1.00  0.00     0.037 A 
ATOM     52  C   UNL A   1      47.614  27.001  28.047  1.00  0.00     0.037 A 
ATOM     53  C   UNL A   1      41.746  29.585  29.162  1.00  0.00     0.049 A 
ATOM     54  C   UNL A   1      47.149  28.385  28.408  1.00  0.00     0.074 A 
ATOM     55  C   UNL A   1      41.448  30.857  29.619  1.00  0.00     0.029 A 
ATOM     56  N   UNL A   1      43.122  29.527  29.006  1.00  0.00    -0.354 N 
ATOM     57  N   UNL A   1      45.935  28.810  28.650  1.00  0.00    -0.248 NA
ATOM     58  C   UNL A   1      48.181  29.428  28.505  1.00  0.00     0.031 C 
ATOM     59  C   UNL A   1      42.639  31.584  29.696  1.00  0.00     0.029 A 
ATOM     60  C   UNL A   1      43.683  30.754  29.321  1.00  0.00     0.049 A 
ATOM     61  H   UNL A   1      43.625  28.732  28.716  1.00  0.00     0.167 HD
ATOM     62  C   UNL A   1      46.057  30.161  28.941  1.00  0.00     0.074 A 
ATOM     63  C   UNL A   1      47.466  30.483  28.867  1.00  0.00     0.031 C 
ATOM     64  C   UNL A   1      45.087  31.059  29.240  1.00  0.00     0.037 A 
BRANCH  51  65
ATOM     65  C   UNL A   1      39.373  28.782  28.967  1.00  0.00     0.057 A 
ATOM     66  C   UNL A   1      38.666  28.634  30.167  1.00  0.00     0.134 A 
ATOM     67  C   UNL A   1      38.677  29.282  27.860  1.00  0.00     0.134 A 
ATOM     68  F   UNL A   1      39.275  28.152  31.260  1.00  0.00    -0.206 F 
ATOM     69  C   UNL A   1      37.314  28.970  30.259  1.00  0.00     0.040 A 
ATOM     70  C   UNL A   1      37.331  29.639  27.946  1.00  0.00     0.040 A 
ATOM     71  F   UNL A   1      39.300  29.451  26.683  1.00  0.00    -0.206 F 
ATOM     72  C   UNL A   1      36.645  29.483  29.149  1.00  0.00     0.006 A 
ENDBRANCH  51  65
BRANCH  52  73
ATOM     73  C   UNL A   1      49.052  26.735  27.794  1.00  0.00     0.057 A 
ATOM     74  C   UNL A   1      49.585  26.810  26.502  1.00  0.00     0.134 A 
ATOM     75  C   UNL A   1      49.918  26.366  28.830  1.00  0.00     0.134 A 
ATOM     76  F   UNL A   1      48.798  27.135  25.467  1.00  0.00    -0.206 F 
ATOM     77  C   UNL A   1      50.922  26.505  26.244  1.00  0.00     0.040 A 
ATOM     78  C   UNL A   1      51.263  26.081  28.591  1.00  0.00     0.040 A 
ATOM     79  F   UNL A   1      49.469  26.280  30.092  1.00  0.00    -0.206 F 
ATOM     80  C   UNL A   1      51.766  26.141  27.292  1.00  0.00     0.006 A 
ENDBRANCH  52  73
BRANCH  64  81
ATOM     81  C   UNL A   1      45.516  32.468  29.514  1.00  0.00     0.057 A 
ATOM     82  C   UNL A   1      45.908  32.876  30.793  1.00  0.00     0.134 A 
ATOM     83  C   UNL A   1      45.582  33.411  28.481  1.00  0.00     0.134 A 
ATOM     84  F   UNL A   1      45.852  32.022  31.827  1.00  0.00    -0.206 F 
ATOM     85  C   UNL A   1      46.338  34.181  31.040  1.00  0.00     0.040 A 
ATOM     86  C   UNL A   1      46.032  34.711  28.711  1.00  0.00     0.040 A 
ATOM     87  F   UNL A   1      45.228  33.079  27.230  1.00  0.00    -0.206 F 
ATOM     88  C   UNL A   1      46.408  35.100  29.995  1.00  0.00     0.006 A 
ENDBRANCH  64  81
ENDBRANCH  38  39
ENDBRANCH  30  33
ENDBRANCH  28  29
ENDBRANCH  27  28
ENDBRANCH  26  27
ENDBRANCH   1  26
TORSDOF 15
ENDMDL
MODEL 2
REMARK VINA RESULT:     -12.0      0.862      1.581
REMARK SMILES COc1ccccc1[C@H](C)NC(=O)[C@@H]1CC=CC[C@@H]1C(=O)NCCCCNC(=O)c1ccc(-c2c3nc(c(-c4c(F)cccc4F)c4ccc([nH]4)c(-c4c(F)cccc4F)c4nc(c(-c5c(F)cccc5F)c5ccc2[nH]5)C=C4)C=C3)cc1
REMARK SMILES IDX 23 1 22 2 20 3 21 4 19 6 14 7 15 8 16 9 18 10 17 11 12 12
REMARK SMILES IDX 11 13 13 15 9 16 10 17 8 18 3 19 4 20 5 21 7 22 6 23 2 24
REMARK SMILES IDX 1 25 24 26 25 27 26 28 27 29 28 30 29 32 30 33 31 34 83 35
REMARK SMILES IDX 32 36 82 37 33 38 34 39 35 40 76 41 36 42 81 43 75 44 77 45
REMARK SMILES IDX 37 46 80 47 74 48 73 49 38 51 64 52 47 53 63 54 48 55 51 56
REMARK SMILES IDX 62 57 78 58 49 59 50 60 61 62 79 63 52 64 39 65 40 66 45 67
REMARK SMILES IDX 41 68 42 69 44 70 46 71 43 72 65 73 66 74 71 75 67 76 68 77
REMARK SMILES IDX 70 78 72 79 69 80 53 81 54 82 59 83 55 84 56 85 58 86 60 87
REMARK SMILES IDX 57 88
REMARK H PARENT 22 5 11 14 27 31 77 50 51 61
REMARK Flexibility Score: inf
ROOT
ATOM      1  C   UNL A   1      36.544  23.420  25.402  1.00  0.00     0.116 C 
ENDROOT
BRANCH   1   2
ATOM      2  N   UNL A   1      35.713  22.691  26.330  1.00  0.00    -0.356 N 
ATOM      3  C   UNL A   1      34.366  22.615  26.468  1.00  0.00     0.224 C 
ATOM      4  O   UNL A   1      33.978  21.901  27.398  1.00  0.00    -0.275 OA
ATOM      5  H   UNL A   1      36.214  22.151  26.982  1.00  0.00     0.163 HD
BRANCH   3   6
ATOM      6  C   UNL A   1      33.393  23.281  25.471  1.00  0.00     0.095 C 
ATOM      7  C   UNL A   1      31.893  22.931  25.573  1.00  0.00     0.095 C 
ATOM      8  C   UNL A   1      31.719  21.406  25.608  1.00  0.00     0.041 C 
ATOM      9  C   UNL A   1      32.437  20.778  24.438  1.00  0.00    -0.030 C 
ATOM     10  C   UNL A   1      33.815  22.843  24.039  1.00  0.00     0.041 C 
ATOM     11  C   UNL A   1      33.348  21.442  23.704  1.00  0.00    -0.030 C 
BRANCH   7  12
ATOM     12  C   UNL A   1      31.060  23.660  26.610  1.00  0.00     0.224 C 
ATOM     13  N   UNL A   1      30.787  24.987  26.467  1.00  0.00    -0.349 N 
ATOM     14  H   UNL A   1      30.351  25.396  27.249  1.00  0.00     0.164 HD
ATOM     15  O   UNL A   1      30.567  23.082  27.579  1.00  0.00    -0.275 OA
BRANCH  13  16
ATOM     16  C   UNL A   1      31.025  25.913  25.360  1.00  0.00     0.113 C 
ATOM     17  C   UNL A   1      29.688  26.369  24.770  1.00  0.00     0.036 C 
BRANCH  16  18
ATOM     18  C   UNL A   1      31.894  27.086  25.782  1.00  0.00     0.016 A 
ATOM     19  C   UNL A   1      33.088  27.435  25.131  1.00  0.00     0.124 A 
ATOM     20  C   UNL A   1      33.867  28.507  25.577  1.00  0.00     0.047 A 
ATOM     21  C   UNL A   1      33.448  29.269  26.669  1.00  0.00     0.004 A 
ATOM     22  C   UNL A   1      31.502  27.859  26.893  1.00  0.00     0.010 A 
ATOM     23  C   UNL A   1      32.264  28.945  27.325  1.00  0.00     0.001 A 
BRANCH  19  24
ATOM     24  O   UNL A   1      33.550  26.642  24.113  1.00  0.00    -0.496 OA
ATOM     25  C   UNL A   1      33.404  27.262  22.838  1.00  0.00     0.278 C 
ENDBRANCH  19  24
ENDBRANCH  16  18
ENDBRANCH  13  16
ENDBRANCH   7  12
ENDBRANCH   3   6
ENDBRANCH   1   2
BRANCH   1  26
ATOM     26  C   UNL A   1      37.075  22.487  24.315  1.00  0.00     0.023 C 
BRANCH  26  27
ATOM     27  C   UNL A   1      37.530  21.112  24.805  1.00  0.00     0.023 C 
BRANCH  27  28
ATOM     28  C   UNL A   1      38.699  21.121  25.779  1.00  0.00     0.116 C 
BRANCH  28  29
ATOM     29  N   UNL A   1      39.569  19.961  25.645  1.00  0.00    -0.352 N 
ATOM     30  C   UNL A   1      40.903  19.845  25.957  1.00  0.00     0.251 C 
ATOM     31  H   UNL A   1      39.144  19.151  25.282  1.00  0.00     0.163 HD
ATOM     32  O   UNL A   1      41.518  18.816  25.695  1.00  0.00    -0.269 OA
BRANCH  30  33
ATOM     33  C   UNL A   1      41.602  20.994  26.569  1.00  0.00     0.039 A 
ATOM     34  C   UNL A   1      42.212  21.934  25.734  1.00  0.00     0.014 A 
ATOM     35  C   UNL A   1      41.586  21.181  27.954  1.00  0.00     0.014 A 
ATOM     36  C   UNL A   1      42.716  23.116  26.281  1.00  0.00     0.010 A 
ATOM     37  C   UNL A   1      42.032  22.385  28.489  1.00  0.00     0.010 A 
ATOM     38  C   UNL A   1      42.577  23.374  27.654  1.00  0.00    -0.014 A 
BRANCH  38  39
ATOM     39  C   UNL A   1      42.923  24.698  28.231  1.00  0.00     0.031 A 
ATOM     40  C   UNL A   1      41.858  25.731  28.458  1.00  0.00     0.074 A 
ATOM     41  C   UNL A   1      44.219  25.003  28.444  1.00  0.00     0.049 A 
ATOM     42  N   UNL A   1      41.986  26.978  28.831  1.00  0.00    -0.248 NA
ATOM     43  C   UNL A   1      40.468  25.317  28.208  1.00  0.00     0.031 C 
ATOM     44  C   UNL A   1      45.353  24.106  28.207  1.00  0.00     0.029 A 
ATOM     45  N   UNL A   1      44.805  26.166  28.881  1.00  0.00    -0.354 N 
ATOM     46  C   UNL A   1      40.702  27.505  28.839  1.00  0.00     0.074 A 
ATOM     47  C   UNL A   1      39.809  26.451  28.406  1.00  0.00     0.031 C 
ATOM     48  C   UNL A   1      46.494  24.750  28.502  1.00  0.00     0.029 A 
ATOM     49  C   UNL A   1      46.178  26.114  28.910  1.00  0.00     0.049 A 
ATOM     50  H   UNL A   1      44.290  26.962  29.149  1.00  0.00     0.167 HD
ATOM     51  C   UNL A   1      40.305  28.750  29.191  1.00  0.00     0.037 A 
ATOM     52  C   UNL A   1      47.084  27.066  29.207  1.00  0.00     0.037 A 
ATOM     53  C   UNL A   1      41.188  29.782  29.663  1.00  0.00     0.049 A 
ATOM     54  C   UNL A   1      46.610  28.441  29.588  1.00  0.00     0.074 A 
ATOM     55  C   UNL A   1      40.863  31.035  30.155  1.00  0.00     0.029 A 
ATOM     56  N   UNL A   1      42.570  29.685  29.695  1.00  0.00    -0.354 N 
ATOM     57  N   UNL A   1      45.385  28.893  29.686  1.00  0.00    -0.248 NA
ATOM     58  C   UNL A   1      47.646  29.439  29.892  1.00  0.00     0.031 C 
ATOM     59  C   UNL A   1      42.050  31.714  30.441  1.00  0.00     0.029 A 
ATOM     60  C   UNL A   1      43.113  30.871  30.162  1.00  0.00     0.049 A 
ATOM     61  H   UNL A   1      43.088  28.892  29.428  1.00  0.00     0.167 HD
ATOM     62  C   UNL A   1      45.501  30.220  30.077  1.00  0.00     0.074 A 
ATOM     63  C   UNL A   1      46.915  30.496  30.218  1.00  0.00     0.031 C 
ATOM     64  C   UNL A   1      44.523  31.131  30.295  1.00  0.00     0.037 A 
BRANCH  51  65
ATOM     65  C   UNL A   1      38.845  29.075  29.092  1.00  0.00     0.057 A 
ATOM     66  C   UNL A   1      38.000  29.012  30.207  1.00  0.00     0.134 A 
ATOM     67  C   UNL A   1      38.299  29.535  27.887  1.00  0.00     0.134 A 
ATOM     68  F   UNL A   1      38.462  28.572  31.387  1.00  0.00    -0.206 F 
ATOM     69  C   UNL A   1      36.659  29.390  30.124  1.00  0.00     0.040 A 
ATOM     70  C   UNL A   1      36.965  29.934  27.797  1.00  0.00     0.040 A 
ATOM     71  F   UNL A   1      39.059  29.623  26.785  1.00  0.00    -0.206 F 
ATOM     72  C   UNL A   1      36.141  29.861  28.919  1.00  0.00     0.006 A 
ENDBRANCH  51  65
BRANCH  52  73
ATOM     73  C   UNL A   1      48.536  26.765  29.140  1.00  0.00     0.057 A 
ATOM     74  C   UNL A   1      49.214  26.227  30.240  1.00  0.00     0.134 A 
ATOM     75  C   UNL A   1      49.286  27.040  27.990  1.00  0.00     0.134 A 
ATOM     76  F   UNL A   1      48.553  25.964  31.376  1.00  0.00    -0.206 F 
ATOM     77  C   UNL A   1      50.590  25.994  30.208  1.00  0.00     0.040 A 
ATOM     78  C   UNL A   1      50.658  26.791  27.936  1.00  0.00     0.040 A 
ATOM     79  F   UNL A   1      48.694  27.553  26.901  1.00  0.00    -0.206 F 
ATOM     80  C   UNL A   1      51.314  26.275  29.051  1.00  0.00     0.006 A 
ENDBRANCH  52  73
BRANCH  64  81
ATOM     81  C   UNL A   1      44.947  32.506  30.715  1.00  0.00     0.057 A 
ATOM     82  C   UNL A   1      45.127  33.531  29.780  1.00  0.00     0.134 A 
ATOM     83  C   UNL A   1      45.132  32.817  32.067  1.00  0.00     0.134 A 
ATOM     84  F   UNL A   1      44.979  33.290  28.468  1.00  0.00    -0.206 F 
ATOM     85  C   UNL A   1      45.491  34.819  30.175  1.00  0.00     0.040 A 
ATOM     86  C   UNL A   1      45.473  34.107  32.476  1.00  0.00     0.040 A 
ATOM     87  F   UNL A   1      44.966  31.880  33.012  1.00  0.00    -0.206 F 
ATOM     88  C   UNL A   1      45.658  35.111  31.527  1.00  0.00     0.006 A 
ENDBRANCH  64  81
ENDBRANCH  38  39
ENDBRANCH  30  33
ENDBRANCH  28  29
ENDBRANCH  27  28
ENDBRANCH  26  27
ENDBRANCH   1  26
TORSDOF 15
ENDMDL
MODEL 3
REMARK VINA RESULT:     -11.9      1.150      6.157
REMARK SMILES COc1ccccc1[C@H](C)NC(=O)[C@@H]1CC=CC[C@@H]1C(=O)NCCCCNC(=O)c1ccc(-c2c3nc(c(-c4c(F)cccc4F)c4ccc([nH]4)c(-c4c(F)cccc4F)c4nc(c(-c5c(F)cccc5F)c5ccc2[nH]5)C=C4)C=C3)cc1
REMARK SMILES IDX 23 1 22 2 20 3 21 4 19 6 14 7 15 8 16 9 18 10 17 11 12 12
REMARK SMILES IDX 11 13 13 15 9 16 10 17 8 18 3 19 4 20 5 21 7 22 6 23 2 24
REMARK SMILES IDX 1 25 24 26 25 27 26 28 27 29 28 30 29 32 30 33 31 34 83 35
REMARK SMILES IDX 32 36 82 37 33 38 34 39 35 40 76 41 36 42 81 43 75 44 77 45
REMARK SMILES IDX 37 46 80 47 74 48 73 49 38 51 64 52 47 53 63 54 48 55 51 56
REMARK SMILES IDX 62 57 78 58 49 59 50 60 61 62 79 63 52 64 39 65 40 66 45 67
REMARK SMILES IDX 41 68 42 69 44 70 46 71 43 72 65 73 66 74 71 75 67 76 68 77
REMARK SMILES IDX 70 78 72 79 69 80 53 81 54 82 59 83 55 84 56 85 58 86 60 87
REMARK SMILES IDX 57 88
REMARK H PARENT 22 5 11 14 27 31 77 50 51 61
REMARK Flexibility Score: inf
ROOT
ATOM      1  C   UNL A   1      36.717  22.900  25.614  1.00  0.00     0.116 C 
ENDROOT
BRANCH   1   2
ATOM      2  N   UNL A   1      35.764  22.205  26.446  1.00  0.00    -0.356 N 
ATOM      3  C   UNL A   1      34.414  22.290  26.536  1.00  0.00     0.224 C 
ATOM      4  O   UNL A   1      33.902  21.553  27.385  1.00  0.00    -0.275 OA
ATOM      5  H   UNL A   1      36.168  21.551  27.061  1.00  0.00     0.163 HD
BRANCH   3   6
ATOM      6  C   UNL A   1      33.573  23.159  25.576  1.00  0.00     0.095 C 
ATOM      7  C   UNL A   1      32.042  22.959  25.565  1.00  0.00     0.095 C 
ATOM      8  C   UNL A   1      31.716  21.466  25.417  1.00  0.00     0.041 C 
ATOM      9  C   UNL A   1      32.437  20.897  24.220  1.00  0.00    -0.030 C 
ATOM     10  C   UNL A   1      34.035  22.836  24.125  1.00  0.00     0.041 C 
ATOM     11  C   UNL A   1      33.452  21.537  23.610  1.00  0.00    -0.030 C 
BRANCH   7  12
ATOM     12  C   UNL A   1      31.225  23.655  26.636  1.00  0.00     0.224 C 
ATOM     13  N   UNL A   1      30.895  24.971  26.507  1.00  0.00    -0.349 N 
ATOM     14  H   UNL A   1      30.476  25.362  27.307  1.00  0.00     0.164 HD
ATOM     15  O   UNL A   1      30.796  23.058  27.624  1.00  0.00    -0.275 OA
BRANCH  13  16
ATOM     16  C   UNL A   1      31.051  25.905  25.393  1.00  0.00     0.113 C 
ATOM     17  C   UNL A   1      29.674  26.316  24.866  1.00  0.00     0.036 C 
BRANCH  16  18
ATOM     18  C   UNL A   1      31.898  27.106  25.778  1.00  0.00     0.016 A 
ATOM     19  C   UNL A   1      33.075  27.469  25.103  1.00  0.00     0.124 A 
ATOM     20  C   UNL A   1      33.834  28.568  25.515  1.00  0.00     0.047 A 
ATOM     21  C   UNL A   1      33.412  29.343  26.597  1.00  0.00     0.004 A 
ATOM     22  C   UNL A   1      31.503  27.894  26.877  1.00  0.00     0.010 A 
ATOM     23  C   UNL A   1      32.245  29.007  27.276  1.00  0.00     0.001 A 
BRANCH  19  24
ATOM     24  O   UNL A   1      33.542  26.665  24.096  1.00  0.00    -0.496 OA
ATOM     25  C   UNL A   1      33.524  27.321  22.830  1.00  0.00     0.278 C 
ENDBRANCH  19  24
ENDBRANCH  16  18
ENDBRANCH  13  16
ENDBRANCH   7  12
ENDBRANCH   3   6
ENDBRANCH   1   2
BRANCH   1  26
ATOM     26  C   UNL A   1      37.209  21.989  24.490  1.00  0.00     0.023 C 
BRANCH  26  27
ATOM     27  C   UNL A   1      37.839  20.673  24.949  1.00  0.00     0.023 C 
BRANCH  27  28
ATOM     28  C   UNL A   1      39.021  20.813  25.898  1.00  0.00     0.116 C 
BRANCH  28  29
ATOM     29  N   UNL A   1      39.973  19.716  25.797  1.00  0.00    -0.352 N 
ATOM     30  C   UNL A   1      41.322  19.721  26.056  1.00  0.00     0.251 C 
ATOM     31  H   UNL A   1      39.598  18.854  25.504  1.00  0.00     0.163 HD
ATOM     32  O   UNL A   1      42.005  18.726  25.831  1.00  0.00    -0.269 OA
BRANCH  30  33
ATOM     33  C   UNL A   1      41.954  20.956  26.565  1.00  0.00     0.039 A 
ATOM     34  C   UNL A   1      42.483  21.869  25.649  1.00  0.00     0.014 A 
ATOM     35  C   UNL A   1      41.952  21.245  27.932  1.00  0.00     0.014 A 
ATOM     36  C   UNL A   1      42.915  23.119  26.095  1.00  0.00     0.010 A 
ATOM     37  C   UNL A   1      42.325  22.513  28.367  1.00  0.00     0.010 A 
ATOM     38  C   UNL A   1      42.786  23.470  27.448  1.00  0.00    -0.014 A 
BRANCH  38  39
ATOM     39  C   UNL A   1      43.052  24.854  27.918  1.00  0.00     0.031 A 
ATOM     40  C   UNL A   1      44.431  25.257  28.354  1.00  0.00     0.074 A 
ATOM     41  C   UNL A   1      42.020  25.711  28.056  1.00  0.00     0.049 A 
ATOM     42  N   UNL A   1      44.825  26.373  28.910  1.00  0.00    -0.248 NA
ATOM     43  C   UNL A   1      45.502  24.266  28.166  1.00  0.00     0.031 C 
ATOM     44  C   UNL A   1      40.624  25.420  27.721  1.00  0.00     0.029 A 
ATOM     45  N   UNL A   1      41.982  26.996  28.540  1.00  0.00    -0.354 N 
ATOM     46  C   UNL A   1      46.182  26.213  29.158  1.00  0.00     0.074 A 
ATOM     47  C   UNL A   1      46.539  24.880  28.720  1.00  0.00     0.031 C 
ATOM     48  C   UNL A   1      39.869  26.492  28.010  1.00  0.00     0.029 A 
ATOM     49  C   UNL A   1      40.717  27.530  28.585  1.00  0.00     0.049 A 
ATOM     50  H   UNL A   1      42.786  27.487  28.830  1.00  0.00     0.167 HD
ATOM     51  C   UNL A   1      47.051  27.104  29.691  1.00  0.00     0.037 A 
ATOM     52  C   UNL A   1      40.283  28.715  29.058  1.00  0.00     0.037 A 
ATOM     53  C   UNL A   1      46.704  28.443  30.085  1.00  0.00     0.049 A 
ATOM     54  C   UNL A   1      41.274  29.679  29.649  1.00  0.00     0.074 A 
ATOM     55  C   UNL A   1      47.540  29.455  30.523  1.00  0.00     0.029 A 
ATOM     56  N   UNL A   1      45.416  28.953  30.098  1.00  0.00    -0.354 N 
ATOM     57  N   UNL A   1      42.570  29.550  29.785  1.00  0.00    -0.248 NA
ATOM     58  C   UNL A   1      40.740  30.951  30.157  1.00  0.00     0.031 C 
ATOM     59  C   UNL A   1      46.753  30.564  30.845  1.00  0.00     0.029 A 
ATOM     60  C   UNL A   1      45.431  30.254  30.573  1.00  0.00     0.049 A 
ATOM     61  H   UNL A   1      44.610  28.465  29.811  1.00  0.00     0.167 HD
ATOM     62  C   UNL A   1      43.007  30.726  30.379  1.00  0.00     0.074 A 
ATOM     63  C   UNL A   1      41.843  31.566  30.559  1.00  0.00     0.031 C 
ATOM     64  C   UNL A   1      44.263  31.077  30.748  1.00  0.00     0.037 A 
BRANCH  51  65
ATOM     65  C   UNL A   1      48.474  26.672  29.874  1.00  0.00     0.057 A 
ATOM     66  C   UNL A   1      48.891  25.974  31.014  1.00  0.00     0.134 A 
ATOM     67  C   UNL A   1      49.418  26.884  28.861  1.00  0.00     0.134 A 
ATOM     68  F   UNL A   1      48.036  25.747  32.023  1.00  0.00    -0.206 F 
ATOM     69  C   UNL A   1      50.200  25.508  31.143  1.00  0.00     0.040 A 
ATOM     70  C   UNL A   1      50.724  26.406  28.970  1.00  0.00     0.040 A 
ATOM     71  F   UNL A   1      49.078  27.541  27.741  1.00  0.00    -0.206 F 
ATOM     72  C   UNL A   1      51.118  25.715  30.115  1.00  0.00     0.006 A 
ENDBRANCH  51  65
BRANCH  52  73
ATOM     73  C   UNL A   1      38.839  29.055  29.015  1.00  0.00     0.057 A 
ATOM     74  C   UNL A   1      38.245  29.537  27.843  1.00  0.00     0.134 A 
ATOM     75  C   UNL A   1      38.029  28.941  30.150  1.00  0.00     0.134 A 
ATOM     76  F   UNL A   1      38.977  29.691  26.730  1.00  0.00    -0.206 F 
ATOM     77  C   UNL A   1      36.903  29.916  27.807  1.00  0.00     0.040 A 
ATOM     78  C   UNL A   1      36.678  29.293  30.122  1.00  0.00     0.040 A 
ATOM     79  F   UNL A   1      38.537  28.481  31.304  1.00  0.00    -0.206 F 
ATOM     80  C   UNL A   1      36.115  29.791  28.949  1.00  0.00     0.006 A 
ENDBRANCH  52  73
BRANCH  64  81
ATOM     81  C   UNL A   1      44.442  32.426  31.375  1.00  0.00     0.057 A 
ATOM     82  C   UNL A   1      44.651  33.570  30.598  1.00  0.00     0.134 A 
ATOM     83  C   UNL A   1      44.359  32.588  32.763  1.00  0.00     0.134 A 
ATOM     84  F   UNL A   1      44.753  33.477  29.263  1.00  0.00    -0.206 F 
ATOM     85  C   UNL A   1      44.785  34.831  31.181  1.00  0.00     0.040 A 
ATOM     86  C   UNL A   1      44.469  33.846  33.356  1.00  0.00     0.040 A 
ATOM     87  F   UNL A   1      44.153  31.531  33.563  1.00  0.00    -0.206 F 
ATOM     88  C   UNL A   1      44.687  34.972  32.564  1.00  0.00     0.006 A 
ENDBRANCH  64  81
ENDBRANCH  38  39
ENDBRANCH  30  33
ENDBRANCH  28  29
ENDBRANCH  27  28
ENDBRANCH  26  27
ENDBRANCH   1  26
TORSDOF 15
ENDMDL
