MODEL 1
REMARK VINA RESULT:      -8.5      0.000      0.000
REMARK SMILES CCCCCCNC(=O)Oc1cccc(-c2ccc([C@@H](C)C(=O)NCCCCNC(=O)c3ccc(-c4c5nc(c(-c6c(F)cccc6F)c6ccc([nH]6)c(-c6c(F)cccc6F)c6nc(c(-c7c(F)cccc7F)c7ccc4[nH]7)C=C6)C=C5)cc3)cc2N)c1
REMARK SMILES IDX 20 1 21 2 19 3 16 4 17 5 87 6 18 7 86 8 15 9 11 10 12 11
REMARK SMILES IDX 89 12 13 13 14 14 10 15 8 16 7 17 9 19 6 20 5 21 4 22 3 23
REMARK SMILES IDX 2 24 1 25 88 26 22 29 23 30 24 31 25 33 26 34 27 35 28 36
REMARK SMILES IDX 29 37 30 38 31 40 32 41 33 42 85 43 34 44 84 45 35 46 36 47
REMARK SMILES IDX 37 48 78 49 38 50 83 51 77 52 79 53 39 54 82 55 76 56 75 57
REMARK SMILES IDX 40 59 66 60 49 61 65 62 50 63 53 64 64 65 80 66 51 67 52 68
REMARK SMILES IDX 63 70 81 71 54 72 41 73 42 74 47 75 43 76 44 77 46 78 48 79
REMARK SMILES IDX 45 80 67 81 68 82 73 83 69 84 70 85 72 86 74 87 71 88 55 89
REMARK SMILES IDX 56 90 61 91 57 92 58 93 60 94 62 95 59 96
REMARK H PARENT 7 18 88 27 88 28 24 32 29 39 79 58 53 69
REMARK Flexibility Score: inf
ROOT
ATOM      1  C   UNL A   1      44.224  22.796  25.758  1.00  0.00     0.105 C 
ATOM      2  C   UNL A   1      44.425  23.831  24.652  1.00  0.00     0.023 C 
ENDROOT
BRANCH   1   3
ATOM      3  C   UNL A   1      44.238  23.339  27.179  1.00  0.00    -0.034 A 
ATOM      4  C   UNL A   1      44.264  24.614  29.737  1.00  0.00     0.005 A 
ATOM      5  C   UNL A   1      43.154  23.879  29.279  1.00  0.00     0.011 A 
ATOM      6  C   UNL A   1      45.428  24.592  28.936  1.00  0.00     0.040 A 
ATOM      7  C   UNL A   1      43.163  23.207  28.053  1.00  0.00     0.005 A 
ATOM      8  C   UNL A   1      45.367  24.034  27.644  1.00  0.00     0.030 A 
BRANCH   4   9
ATOM      9  C   UNL A   1      44.152  25.360  31.019  1.00  0.00    -0.013 A 
ATOM     10  C   UNL A   1      43.525  27.339  32.292  1.00  0.00     0.133 A 
ATOM     11  C   UNL A   1      43.946  26.751  33.480  1.00  0.00     0.047 A 
ATOM     12  C   UNL A   1      43.608  26.656  31.076  1.00  0.00     0.056 A 
ATOM     13  C   UNL A   1      44.453  25.457  33.453  1.00  0.00     0.004 A 
ATOM     14  C   UNL A   1      44.566  24.778  32.235  1.00  0.00     0.009 A 
BRANCH  10  15
ATOM     15  O   UNL A   1      43.170  28.697  32.353  1.00  0.00    -0.410 OA
BRANCH  15  16
ATOM     16  C   UNL A   1      41.869  29.074  32.057  1.00  0.00     0.412 C 
ATOM     17  N   UNL A   1      41.576  30.341  32.487  1.00  0.00    -0.321 N 
ATOM     18  H   UNL A   1      40.662  30.665  32.313  1.00  0.00     0.167 HD
ATOM     19  O   UNL A   1      41.030  28.386  31.493  1.00  0.00    -0.224 OA
BRANCH  17  20
ATOM     20  C   UNL A   1      42.470  31.255  33.170  1.00  0.00     0.119 C 
BRANCH  20  21
ATOM     21  C   UNL A   1      41.826  31.873  34.411  1.00  0.00     0.021 C 
BRANCH  21  22
ATOM     22  C   UNL A   1      41.032  33.160  34.152  1.00  0.00     0.002 C 
BRANCH  22  23
ATOM     23  C   UNL A   1      40.107  33.606  35.290  1.00  0.00    -0.000 C 
BRANCH  23  24
ATOM     24  C   UNL A   1      39.121  34.723  34.939  1.00  0.00    -0.003 C 
ATOM     25  C   UNL A   1      37.915  34.237  34.150  1.00  0.00     0.004 C 
ENDBRANCH  23  24
ENDBRANCH  22  23
ENDBRANCH  21  22
ENDBRANCH  20  21
ENDBRANCH  17  20
ENDBRANCH  15  16
ENDBRANCH  10  15
ENDBRANCH   4   9
BRANCH   6  26
ATOM     26  N   UNL A   1      46.621  25.206  29.324  1.00  0.00    -0.398 N 
ATOM     27  H   UNL A   1      47.466  24.700  29.299  1.00  0.00     0.156 HD
ATOM     28  H   UNL A   1      46.619  26.144  29.621  1.00  0.00     0.156 HD
ENDBRANCH   6  26
ENDBRANCH   1   3
BRANCH   1  29
ATOM     29  C   UNL A   1      45.049  21.512  25.572  1.00  0.00     0.227 C 
ATOM     30  O   UNL A   1      46.284  21.576  25.515  1.00  0.00    -0.274 OA
ATOM     31  N   UNL A   1      44.510  20.265  25.488  1.00  0.00    -0.356 N 
ATOM     32  H   UNL A   1      45.174  19.539  25.450  1.00  0.00     0.163 HD
BRANCH  31  33
ATOM     33  C   UNL A   1      43.135  19.814  25.445  1.00  0.00     0.116 C 
BRANCH  33  34
ATOM     34  C   UNL A   1      42.551  19.614  26.845  1.00  0.00     0.023 C 
BRANCH  34  35
ATOM     35  C   UNL A   1      41.184  20.252  27.072  1.00  0.00     0.023 C 
BRANCH  35  36
ATOM     36  C   UNL A   1      40.850  21.415  26.147  1.00  0.00     0.116 C 
BRANCH  36  37
ATOM     37  N   UNL A   1      39.425  21.604  25.913  1.00  0.00    -0.352 N 
ATOM     38  C   UNL A   1      38.677  22.740  26.128  1.00  0.00     0.251 C 
ATOM     39  H   UNL A   1      38.938  20.826  25.558  1.00  0.00     0.163 HD
ATOM     40  O   UNL A   1      37.465  22.739  25.951  1.00  0.00    -0.269 OA
BRANCH  38  41
ATOM     41  C   UNL A   1      39.358  23.951  26.630  1.00  0.00     0.039 A 
ATOM     42  C   UNL A   1      40.007  24.787  25.721  1.00  0.00     0.014 A 
ATOM     43  C   UNL A   1      39.278  24.295  27.982  1.00  0.00     0.014 A 
ATOM     44  C   UNL A   1      40.506  26.017  26.154  1.00  0.00     0.010 A 
ATOM     45  C   UNL A   1      39.704  25.551  28.395  1.00  0.00     0.010 A 
ATOM     46  C   UNL A   1      40.318  26.426  27.485  1.00  0.00    -0.014 A 
BRANCH  46  47
ATOM     47  C   UNL A   1      40.759  27.763  27.955  1.00  0.00     0.031 A 
ATOM     48  C   UNL A   1      42.222  28.109  27.950  1.00  0.00     0.074 A 
ATOM     49  C   UNL A   1      39.859  28.631  28.456  1.00  0.00     0.049 A 
ATOM     50  N   UNL A   1      42.823  29.172  28.419  1.00  0.00    -0.248 NA
ATOM     51  C   UNL A   1      43.135  27.112  27.365  1.00  0.00     0.031 C 
ATOM     52  C   UNL A   1      38.417  28.396  28.561  1.00  0.00     0.029 A 
ATOM     53  N   UNL A   1      40.028  29.886  28.987  1.00  0.00    -0.354 N 
ATOM     54  C   UNL A   1      44.180  28.963  28.204  1.00  0.00     0.074 A 
ATOM     55  C   UNL A   1      44.319  27.651  27.612  1.00  0.00     0.031 C 
ATOM     56  C   UNL A   1      37.833  29.479  29.100  1.00  0.00     0.029 A 
ATOM     57  C   UNL A   1      38.859  30.467  29.413  1.00  0.00     0.049 A 
ATOM     58  H   UNL A   1      40.905  30.328  29.056  1.00  0.00     0.167 HD
ATOM     59  C   UNL A   1      45.214  29.800  28.449  1.00  0.00     0.037 A 
ATOM     60  C   UNL A   1      38.642  31.662  29.998  1.00  0.00     0.037 A 
ATOM     61  C   UNL A   1      45.071  31.119  29.005  1.00  0.00     0.049 A 
ATOM     62  C   UNL A   1      39.810  32.573  30.258  1.00  0.00     0.074 A 
ATOM     63  C   UNL A   1      46.053  32.061  29.254  1.00  0.00     0.029 A 
ATOM     64  N   UNL A   1      43.865  31.685  29.390  1.00  0.00    -0.354 N 
ATOM     65  N   UNL A   1      41.081  32.383  30.001  1.00  0.00    -0.248 NA
ATOM     66  C   UNL A   1      39.512  33.869  30.886  1.00  0.00     0.031 C 
ATOM     67  C   UNL A   1      45.445  33.189  29.814  1.00  0.00     0.029 A 
ATOM     68  C   UNL A   1      44.080  32.962  29.880  1.00  0.00     0.049 A 
ATOM     69  H   UNL A   1      42.988  31.244  29.325  1.00  0.00     0.167 HD
ATOM     70  C   UNL A   1      41.728  33.545  30.403  1.00  0.00     0.074 A 
ATOM     71  C   UNL A   1      40.708  34.439  30.910  1.00  0.00     0.031 C 
ATOM     72  C   UNL A   1      43.048  33.845  30.355  1.00  0.00     0.037 A 
BRANCH  59  73
ATOM     73  C   UNL A   1      46.590  29.321  28.097  1.00  0.00     0.057 A 
ATOM     74  C   UNL A   1      47.130  29.519  26.820  1.00  0.00     0.134 A 
ATOM     75  C   UNL A   1      47.399  28.691  29.051  1.00  0.00     0.134 A 
ATOM     76  F   UNL A   1      46.402  30.103  25.856  1.00  0.00    -0.206 F 
ATOM     77  C   UNL A   1      48.418  29.089  26.497  1.00  0.00     0.040 A 
ATOM     78  C   UNL A   1      48.697  28.278  28.748  1.00  0.00     0.040 A 
ATOM     79  F   UNL A   1      46.943  28.474  30.294  1.00  0.00    -0.206 F 
ATOM     80  C   UNL A   1      49.208  28.473  27.466  1.00  0.00     0.006 A 
ENDBRANCH  59  73
BRANCH  60  81
ATOM     81  C   UNL A   1      37.265  32.083  30.360  1.00  0.00     0.057 A 
ATOM     82  C   UNL A   1      36.749  31.831  31.638  1.00  0.00     0.134 A 
ATOM     83  C   UNL A   1      36.421  32.709  29.437  1.00  0.00     0.134 A 
ATOM     84  F   UNL A   1      37.503  31.216  32.561  1.00  0.00    -0.206 F 
ATOM     85  C   UNL A   1      35.436  32.162  31.976  1.00  0.00     0.040 A 
ATOM     86  C   UNL A   1      35.113  33.069  29.769  1.00  0.00     0.040 A 
ATOM     87  F   UNL A   1      36.856  32.983  28.198  1.00  0.00    -0.206 F 
ATOM     88  C   UNL A   1      34.614  32.786  31.039  1.00  0.00     0.006 A 
ENDBRANCH  60  81
BRANCH  72  89
ATOM     89  C   UNL A   1      43.458  35.212  30.815  1.00  0.00     0.057 A 
ATOM     90  C   UNL A   1      43.830  35.466  32.139  1.00  0.00     0.134 A 
ATOM     91  C   UNL A   1      43.525  36.276  29.906  1.00  0.00     0.134 A 
ATOM     92  F   UNL A   1      43.776  34.492  33.061  1.00  0.00    -0.206 F 
ATOM     93  C   UNL A   1      44.237  36.737  32.550  1.00  0.00     0.040 A 
ATOM     94  C   UNL A   1      43.952  37.544  30.299  1.00  0.00     0.040 A 
ATOM     95  F   UNL A   1      43.189  36.094  28.620  1.00  0.00    -0.206 F 
ATOM     96  C   UNL A   1      44.305  37.778  31.626  1.00  0.00     0.006 A 
ENDBRANCH  72  89
ENDBRANCH  46  47
ENDBRANCH  38  41
ENDBRANCH  36  37
ENDBRANCH  35  36
ENDBRANCH  34  35
ENDBRANCH  33  34
ENDBRANCH  31  33
ENDBRANCH   1  29
TORSDOF 21
ENDMDL
MODEL 2
REMARK VINA RESULT:      -8.1      1.909      4.084
REMARK SMILES CCCCCCNC(=O)Oc1cccc(-c2ccc([C@@H](C)C(=O)NCCCCNC(=O)c3ccc(-c4c5nc(c(-c6c(F)cccc6F)c6ccc([nH]6)c(-c6c(F)cccc6F)c6nc(c(-c7c(F)cccc7F)c7ccc4[nH]7)C=C6)C=C5)cc3)cc2N)c1
REMARK SMILES IDX 20 1 21 2 19 3 16 4 17 5 87 6 18 7 86 8 15 9 11 10 12 11
REMARK SMILES IDX 89 12 13 13 14 14 10 15 8 16 7 17 9 19 6 20 5 21 4 22 3 23
REMARK SMILES IDX 2 24 1 25 88 26 22 29 23 30 24 31 25 33 26 34 27 35 28 36
REMARK SMILES IDX 29 37 30 38 31 40 32 41 33 42 85 43 34 44 84 45 35 46 36 47
REMARK SMILES IDX 37 48 78 49 38 50 83 51 77 52 79 53 39 54 82 55 76 56 75 57
REMARK SMILES IDX 40 59 66 60 49 61 65 62 50 63 53 64 64 65 80 66 51 67 52 68
REMARK SMILES IDX 63 70 81 71 54 72 41 73 42 74 47 75 43 76 44 77 46 78 48 79
REMARK SMILES IDX 45 80 67 81 68 82 73 83 69 84 70 85 72 86 74 87 71 88 55 89
REMARK SMILES IDX 56 90 61 91 57 92 58 93 60 94 62 95 59 96
REMARK H PARENT 7 18 88 27 88 28 24 32 29 39 79 58 53 69
REMARK Flexibility Score: inf
ROOT
ATOM      1  C   UNL A   1      44.098  22.543  25.876  1.00  0.00     0.105 C 
ATOM      2  C   UNL A   1      44.133  23.540  24.718  1.00  0.00     0.023 C 
ENDROOT
BRANCH   1   3
ATOM      3  C   UNL A   1      44.230  23.144  27.267  1.00  0.00    -0.034 A 
ATOM      4  C   UNL A   1      44.455  24.522  29.761  1.00  0.00     0.005 A 
ATOM      5  C   UNL A   1      43.340  23.723  29.447  1.00  0.00     0.011 A 
ATOM      6  C   UNL A   1      45.532  24.517  28.846  1.00  0.00     0.040 A 
ATOM      7  C   UNL A   1      43.256  23.002  28.251  1.00  0.00     0.005 A 
ATOM      8  C   UNL A   1      45.367  23.904  27.588  1.00  0.00     0.030 A 
BRANCH   4   9
ATOM      9  C   UNL A   1      44.439  25.315  31.019  1.00  0.00    -0.013 A 
ATOM     10  C   UNL A   1      44.615  25.480  33.442  1.00  0.00     0.133 A 
ATOM     11  C   UNL A   1      44.413  26.856  33.398  1.00  0.00     0.047 A 
ATOM     12  C   UNL A   1      44.646  24.714  32.275  1.00  0.00     0.056 A 
ATOM     13  C   UNL A   1      44.244  27.476  32.165  1.00  0.00     0.004 A 
ATOM     14  C   UNL A   1      44.243  26.712  30.994  1.00  0.00     0.009 A 
BRANCH  10  15
ATOM     15  O   UNL A   1      44.623  24.887  34.715  1.00  0.00    -0.410 OA
BRANCH  15  16
ATOM     16  C   UNL A   1      43.497  24.210  35.158  1.00  0.00     0.412 C 
ATOM     17  N   UNL A   1      43.800  23.013  35.752  1.00  0.00    -0.321 N 
ATOM     18  H   UNL A   1      43.040  22.480  36.081  1.00  0.00     0.167 HD
ATOM     19  O   UNL A   1      42.338  24.584  35.041  1.00  0.00    -0.224 OA
BRANCH  17  20
ATOM     20  C   UNL A   1      45.121  22.451  35.948  1.00  0.00     0.119 C 
BRANCH  20  21
ATOM     21  C   UNL A   1      45.669  21.807  34.674  1.00  0.00     0.021 C 
BRANCH  21  22
ATOM     22  C   UNL A   1      46.322  20.434  34.875  1.00  0.00     0.002 C 
BRANCH  22  23
ATOM     23  C   UNL A   1      45.646  19.525  35.908  1.00  0.00    -0.000 C 
BRANCH  23  24
ATOM     24  C   UNL A   1      46.432  19.299  37.201  1.00  0.00    -0.003 C 
ATOM     25  C   UNL A   1      47.768  20.025  37.229  1.00  0.00     0.004 C 
ENDBRANCH  23  24
ENDBRANCH  22  23
ENDBRANCH  21  22
ENDBRANCH  20  21
ENDBRANCH  17  20
ENDBRANCH  15  16
ENDBRANCH  10  15
ENDBRANCH   4   9
BRANCH   6  26
ATOM     26  N   UNL A   1      46.728  25.196  29.086  1.00  0.00    -0.398 N 
ATOM     27  H   UNL A   1      47.585  24.710  29.060  1.00  0.00     0.156 HD
ATOM     28  H   UNL A   1      46.717  26.161  29.280  1.00  0.00     0.156 HD
ENDBRANCH   6  26
ENDBRANCH   1   3
BRANCH   1  29
ATOM     29  C   UNL A   1      44.961  21.291  25.651  1.00  0.00     0.227 C 
ATOM     30  O   UNL A   1      46.195  21.392  25.613  1.00  0.00    -0.274 OA
ATOM     31  N   UNL A   1      44.459  20.033  25.513  1.00  0.00    -0.356 N 
ATOM     32  H   UNL A   1      45.144  19.328  25.455  1.00  0.00     0.163 HD
BRANCH  31  33
ATOM     33  C   UNL A   1      43.098  19.546  25.434  1.00  0.00     0.116 C 
BRANCH  33  34
ATOM     34  C   UNL A   1      42.542  19.169  26.809  1.00  0.00     0.023 C 
BRANCH  34  35
ATOM     35  C   UNL A   1      41.364  20.013  27.283  1.00  0.00     0.023 C 
BRANCH  35  36
ATOM     36  C   UNL A   1      41.056  21.235  26.427  1.00  0.00     0.116 C 
BRANCH  36  37
ATOM     37  N   UNL A   1      39.644  21.410  26.117  1.00  0.00    -0.352 N 
ATOM     38  C   UNL A   1      38.893  22.559  26.219  1.00  0.00     0.251 C 
ATOM     39  H   UNL A   1      39.169  20.610  25.797  1.00  0.00     0.163 HD
ATOM     40  O   UNL A   1      37.690  22.548  25.989  1.00  0.00    -0.269 OA
BRANCH  38  41
ATOM     41  C   UNL A   1      39.557  23.802  26.664  1.00  0.00     0.039 A 
ATOM     42  C   UNL A   1      39.930  24.748  25.709  1.00  0.00     0.014 A 
ATOM     43  C   UNL A   1      39.730  24.060  28.026  1.00  0.00     0.014 A 
ATOM     44  C   UNL A   1      40.401  25.995  26.125  1.00  0.00     0.010 A 
ATOM     45  C   UNL A   1      40.123  25.326  28.439  1.00  0.00     0.010 A 
ATOM     46  C   UNL A   1      40.458  26.308  27.493  1.00  0.00    -0.014 A 
BRANCH  46  47
ATOM     47  C   UNL A   1      40.872  27.653  27.964  1.00  0.00     0.031 A 
ATOM     48  C   UNL A   1      42.327  28.029  27.959  1.00  0.00     0.074 A 
ATOM     49  C   UNL A   1      39.953  28.502  28.466  1.00  0.00     0.049 A 
ATOM     50  N   UNL A   1      42.906  29.104  28.430  1.00  0.00    -0.248 NA
ATOM     51  C   UNL A   1      43.260  27.052  27.374  1.00  0.00     0.031 C 
ATOM     52  C   UNL A   1      38.517  28.237  28.570  1.00  0.00     0.029 A 
ATOM     53  N   UNL A   1      40.096  29.759  28.998  1.00  0.00    -0.354 N 
ATOM     54  C   UNL A   1      44.266  28.923  28.215  1.00  0.00     0.074 A 
ATOM     55  C   UNL A   1      44.433  27.615  27.622  1.00  0.00     0.031 C 
ATOM     56  C   UNL A   1      37.910  29.307  29.110  1.00  0.00     0.029 A 
ATOM     57  C   UNL A   1      38.915  30.316  29.424  1.00  0.00     0.049 A 
ATOM     58  H   UNL A   1      40.964  30.219  29.067  1.00  0.00     0.167 HD
ATOM     59  C   UNL A   1      45.283  29.782  28.461  1.00  0.00     0.037 A 
ATOM     60  C   UNL A   1      38.673  31.505  30.010  1.00  0.00     0.037 A 
ATOM     61  C   UNL A   1      45.113  31.097  29.018  1.00  0.00     0.049 A 
ATOM     62  C   UNL A   1      39.822  32.441  30.271  1.00  0.00     0.074 A 
ATOM     63  C   UNL A   1      46.075  32.059  29.268  1.00  0.00     0.029 A 
ATOM     64  N   UNL A   1      43.895  31.638  29.403  1.00  0.00    -0.354 N 
ATOM     65  N   UNL A   1      41.097  32.277  30.014  1.00  0.00    -0.248 NA
ATOM     66  C   UNL A   1      39.497  33.729  30.900  1.00  0.00     0.031 C 
ATOM     67  C   UNL A   1      45.443  33.173  29.829  1.00  0.00     0.029 A 
ATOM     68  C   UNL A   1      44.083  32.918  29.894  1.00  0.00     0.049 A 
ATOM     69  H   UNL A   1      43.027  31.178  29.338  1.00  0.00     0.167 HD
ATOM     70  C   UNL A   1      41.719  33.452  30.417  1.00  0.00     0.074 A 
ATOM     71  C   UNL A   1      40.681  34.324  30.924  1.00  0.00     0.031 C 
ATOM     72  C   UNL A   1      43.033  33.779  30.370  1.00  0.00     0.037 A 
BRANCH  59  73
ATOM     73  C   UNL A   1      46.669  29.331  28.109  1.00  0.00     0.057 A 
ATOM     74  C   UNL A   1      47.215  29.565  26.840  1.00  0.00     0.134 A 
ATOM     75  C   UNL A   1      47.480  28.693  29.055  1.00  0.00     0.134 A 
ATOM     76  F   UNL A   1      46.485  30.159  25.884  1.00  0.00    -0.206 F 
ATOM     77  C   UNL A   1      48.512  29.162  26.518  1.00  0.00     0.040 A 
ATOM     78  C   UNL A   1      48.787  28.308  28.753  1.00  0.00     0.040 A 
ATOM     79  F   UNL A   1      47.020  28.443  30.290  1.00  0.00    -0.206 F 
ATOM     80  C   UNL A   1      49.304  28.538  27.479  1.00  0.00     0.006 A 
ENDBRANCH  59  73
BRANCH  60  81
ATOM     81  C   UNL A   1      37.288  31.897  30.372  1.00  0.00     0.057 A 
ATOM     82  C   UNL A   1      36.456  32.539  29.445  1.00  0.00     0.134 A 
ATOM     83  C   UNL A   1      36.773  31.676  31.654  1.00  0.00     0.134 A 
ATOM     84  F   UNL A   1      36.900  32.796  28.206  1.00  0.00    -0.206 F 
ATOM     85  C   UNL A   1      35.175  32.971  29.788  1.00  0.00     0.040 A 
ATOM     86  C   UNL A   1      35.483  32.081  32.004  1.00  0.00     0.040 A 
ATOM     87  F   UNL A   1      37.517  31.062  32.586  1.00  0.00    -0.206 F 
ATOM     88  C   UNL A   1      34.684  32.739  31.072  1.00  0.00     0.006 A 
ENDBRANCH  60  81
BRANCH  72  89
ATOM     89  C   UNL A   1      43.415  35.154  30.831  1.00  0.00     0.057 A 
ATOM     90  C   UNL A   1      43.783  35.414  32.155  1.00  0.00     0.134 A 
ATOM     91  C   UNL A   1      43.458  36.220  29.923  1.00  0.00     0.134 A 
ATOM     92  F   UNL A   1      43.750  34.438  33.076  1.00  0.00    -0.206 F 
ATOM     93  C   UNL A   1      44.163  36.693  32.567  1.00  0.00     0.040 A 
ATOM     94  C   UNL A   1      43.858  37.496  30.317  1.00  0.00     0.040 A 
ATOM     95  F   UNL A   1      43.125  36.033  28.637  1.00  0.00    -0.206 F 
ATOM     96  C   UNL A   1      44.208  37.736  31.644  1.00  0.00     0.006 A 
ENDBRANCH  72  89
ENDBRANCH  46  47
ENDBRANCH  38  41
ENDBRANCH  36  37
ENDBRANCH  35  36
ENDBRANCH  34  35
ENDBRANCH  33  34
ENDBRANCH  31  33
ENDBRANCH   1  29
TORSDOF 21
ENDMDL
MODEL 3
REMARK VINA RESULT:      -8.1      3.005      9.799
REMARK SMILES CCCCCCNC(=O)Oc1cccc(-c2ccc([C@@H](C)C(=O)NCCCCNC(=O)c3ccc(-c4c5nc(c(-c6c(F)cccc6F)c6ccc([nH]6)c(-c6c(F)cccc6F)c6nc(c(-c7c(F)cccc7F)c7ccc4[nH]7)C=C6)C=C5)cc3)cc2N)c1
REMARK SMILES IDX 20 1 21 2 19 3 16 4 17 5 87 6 18 7 86 8 15 9 11 10 12 11
REMARK SMILES IDX 89 12 13 13 14 14 10 15 8 16 7 17 9 19 6 20 5 21 4 22 3 23
REMARK SMILES IDX 2 24 1 25 88 26 22 29 23 30 24 31 25 33 26 34 27 35 28 36
REMARK SMILES IDX 29 37 30 38 31 40 32 41 33 42 85 43 34 44 84 45 35 46 36 47
REMARK SMILES IDX 37 48 78 49 38 50 83 51 77 52 79 53 39 54 82 55 76 56 75 57
REMARK SMILES IDX 40 59 66 60 49 61 65 62 50 63 53 64 64 65 80 66 51 67 52 68
REMARK SMILES IDX 63 70 81 71 54 72 41 73 42 74 47 75 43 76 44 77 46 78 48 79
REMARK SMILES IDX 45 80 67 81 68 82 73 83 69 84 70 85 72 86 74 87 71 88 55 89
REMARK SMILES IDX 56 90 61 91 57 92 58 93 60 94 62 95 59 96
REMARK H PARENT 7 18 88 27 88 28 24 32 29 39 79 58 53 69
REMARK Flexibility Score: inf
ROOT
ATOM      1  C   UNL A   1      37.874  33.443  29.877  1.00  0.00     0.105 C 
ATOM      2  C   UNL A   1      38.788  34.495  29.249  1.00  0.00     0.023 C 
ENDROOT
BRANCH   1   3
ATOM      3  C   UNL A   1      38.213  31.996  29.554  1.00  0.00    -0.034 A 
ATOM      4  C   UNL A   1      38.881  29.357  28.681  1.00  0.00     0.005 A 
ATOM      5  C   UNL A   1      39.732  30.106  29.516  1.00  0.00     0.011 A 
ATOM      6  C   UNL A   1      37.612  29.908  28.391  1.00  0.00     0.040 A 
ATOM      7  C   UNL A   1      39.379  31.374  29.990  1.00  0.00     0.005 A 
ATOM      8  C   UNL A   1      37.338  31.240  28.756  1.00  0.00     0.030 A 
BRANCH   4   9
ATOM      9  C   UNL A   1      39.356  28.048  28.161  1.00  0.00    -0.013 A 
ATOM     10  C   UNL A   1      40.557  26.710  26.518  1.00  0.00     0.133 A 
ATOM     11  C   UNL A   1      40.253  25.537  27.200  1.00  0.00     0.047 A 
ATOM     12  C   UNL A   1      40.133  27.954  26.991  1.00  0.00     0.056 A 
ATOM     13  C   UNL A   1      39.518  25.609  28.378  1.00  0.00     0.004 A 
ATOM     14  C   UNL A   1      39.065  26.848  28.842  1.00  0.00     0.009 A 
BRANCH  10  15
ATOM     15  O   UNL A   1      41.163  26.567  25.259  1.00  0.00    -0.410 OA
BRANCH  15  16
ATOM     16  C   UNL A   1      42.369  27.203  25.008  1.00  0.00     0.412 C 
ATOM     17  N   UNL A   1      43.431  26.339  25.002  1.00  0.00    -0.321 N 
ATOM     18  H   UNL A   1      44.319  26.733  24.836  1.00  0.00     0.167 HD
ATOM     19  O   UNL A   1      42.526  28.403  24.822  1.00  0.00    -0.224 OA
BRANCH  17  20
ATOM     20  C   UNL A   1      43.386  24.906  25.213  1.00  0.00     0.119 C 
BRANCH  20  21
ATOM     21  C   UNL A   1      44.150  24.483  26.467  1.00  0.00     0.021 C 
BRANCH  21  22
ATOM     22  C   UNL A   1      44.333  25.588  27.514  1.00  0.00     0.002 C 
BRANCH  22  23
ATOM     23  C   UNL A   1      43.579  25.381  28.833  1.00  0.00    -0.000 C 
BRANCH  23  24
ATOM     24  C   UNL A   1      42.888  26.623  29.399  1.00  0.00    -0.003 C 
ATOM     25  C   UNL A   1      43.239  27.901  28.653  1.00  0.00     0.004 C 
ENDBRANCH  23  24
ENDBRANCH  22  23
ENDBRANCH  21  22
ENDBRANCH  20  21
ENDBRANCH  17  20
ENDBRANCH  15  16
ENDBRANCH  10  15
ENDBRANCH   4   9
BRANCH   6  26
ATOM     26  N   UNL A   1      36.645  29.224  27.650  1.00  0.00    -0.398 N 
ATOM     27  H   UNL A   1      36.875  28.851  26.768  1.00  0.00     0.156 HD
ATOM     28  H   UNL A   1      35.736  29.114  28.009  1.00  0.00     0.156 HD
ENDBRANCH   6  26
ENDBRANCH   1   3
BRANCH   1  29
ATOM     29  C   UNL A   1      36.375  33.772  29.771  1.00  0.00     0.227 C 
ATOM     30  O   UNL A   1      35.906  34.168  28.695  1.00  0.00    -0.274 OA
ATOM     31  N   UNL A   1      35.489  33.631  30.795  1.00  0.00    -0.356 N 
ATOM     32  H   UNL A   1      34.553  33.807  30.547  1.00  0.00     0.163 HD
BRANCH  31  33
ATOM     33  C   UNL A   1      35.677  33.271  32.184  1.00  0.00     0.116 C 
BRANCH  33  34
ATOM     34  C   UNL A   1      35.892  34.497  33.073  1.00  0.00     0.023 C 
BRANCH  34  35
ATOM     35  C   UNL A   1      36.007  34.203  34.565  1.00  0.00     0.023 C 
BRANCH  35  36
ATOM     36  C   UNL A   1      37.385  33.755  35.033  1.00  0.00     0.116 C 
BRANCH  36  37
ATOM     37  N   UNL A   1      37.364  32.724  36.061  1.00  0.00    -0.352 N 
ATOM     38  C   UNL A   1      38.162  31.606  36.154  1.00  0.00     0.251 C 
ATOM     39  H   UNL A   1      36.698  32.841  36.777  1.00  0.00     0.163 HD
ATOM     40  O   UNL A   1      37.989  30.780  37.043  1.00  0.00    -0.269 OA
BRANCH  38  41
ATOM     41  C   UNL A   1      39.202  31.392  35.127  1.00  0.00     0.039 A 
ATOM     42  C   UNL A   1      40.501  31.836  35.379  1.00  0.00     0.014 A 
ATOM     43  C   UNL A   1      38.906  30.681  33.962  1.00  0.00     0.014 A 
ATOM     44  C   UNL A   1      41.527  31.492  34.497  1.00  0.00     0.010 A 
ATOM     45  C   UNL A   1      39.940  30.273  33.128  1.00  0.00     0.010 A 
ATOM     46  C   UNL A   1      41.261  30.670  33.389  1.00  0.00    -0.014 A 
BRANCH  46  47
ATOM     47  C   UNL A   1      42.344  30.215  32.482  1.00  0.00     0.031 A 
ATOM     48  C   UNL A   1      43.001  28.884  32.715  1.00  0.00     0.074 A 
ATOM     49  C   UNL A   1      42.787  31.029  31.503  1.00  0.00     0.049 A 
ATOM     50  N   UNL A   1      44.033  28.353  32.112  1.00  0.00    -0.248 NA
ATOM     51  C   UNL A   1      42.441  28.050  33.793  1.00  0.00     0.031 C 
ATOM     52  C   UNL A   1      42.265  32.364  31.204  1.00  0.00     0.029 A 
ATOM     53  N   UNL A   1      43.791  30.854  30.583  1.00  0.00    -0.354 N 
ATOM     54  C   UNL A   1      44.256  27.138  32.746  1.00  0.00     0.074 A 
ATOM     55  C   UNL A   1      43.288  27.032  33.815  1.00  0.00     0.031 C 
ATOM     56  C   UNL A   1      42.938  32.876  30.161  1.00  0.00     0.029 A 
ATOM     57  C   UNL A   1      43.961  31.925  29.741  1.00  0.00     0.049 A 
ATOM     58  H   UNL A   1      44.339  30.037  30.533  1.00  0.00     0.167 HD
ATOM     59  C   UNL A   1      45.165  26.181  32.446  1.00  0.00     0.037 A 
ATOM     60  C   UNL A   1      44.849  32.119  28.746  1.00  0.00     0.037 A 
ATOM     61  C   UNL A   1      46.104  26.271  31.361  1.00  0.00     0.049 A 
ATOM     62  C   UNL A   1      45.848  31.039  28.434  1.00  0.00     0.074 A 
ATOM     63  C   UNL A   1      47.039  25.338  30.950  1.00  0.00     0.029 A 
ATOM     64  N   UNL A   1      46.220  27.358  30.507  1.00  0.00    -0.354 N 
ATOM     65  N   UNL A   1      46.012  29.873  29.009  1.00  0.00    -0.248 NA
ATOM     66  C   UNL A   1      46.782  31.300  27.330  1.00  0.00     0.031 C 
ATOM     67  C   UNL A   1      47.739  25.871  29.863  1.00  0.00     0.029 A 
ATOM     68  C   UNL A   1      47.215  27.120  29.575  1.00  0.00     0.049 A 
ATOM     69  H   UNL A   1      45.676  28.177  30.558  1.00  0.00     0.167 HD
ATOM     70  C   UNL A   1      47.042  29.249  28.316  1.00  0.00     0.074 A 
ATOM     71  C   UNL A   1      47.458  30.161  27.271  1.00  0.00     0.031 C 
ATOM     72  C   UNL A   1      47.594  28.031  28.527  1.00  0.00     0.037 A 
BRANCH  59  73
ATOM     73  C   UNL A   1      45.173  24.945  33.294  1.00  0.00     0.057 A 
ATOM     74  C   UNL A   1      44.497  23.782  32.900  1.00  0.00     0.134 A 
ATOM     75  C   UNL A   1      45.891  24.899  34.495  1.00  0.00     0.134 A 
ATOM     76  F   UNL A   1      43.778  23.764  31.768  1.00  0.00    -0.206 F 
ATOM     77  C   UNL A   1      44.519  22.625  33.680  1.00  0.00     0.040 A 
ATOM     78  C   UNL A   1      45.942  23.741  35.271  1.00  0.00     0.040 A 
ATOM     79  F   UNL A   1      46.564  25.977  34.927  1.00  0.00    -0.206 F 
ATOM     80  C   UNL A   1      45.250  22.601  34.866  1.00  0.00     0.006 A 
ENDBRANCH  59  73
BRANCH  60  81
ATOM     81  C   UNL A   1      44.827  33.374  27.953  1.00  0.00     0.057 A 
ATOM     82  C   UNL A   1      44.245  33.410  26.679  1.00  0.00     0.134 A 
ATOM     83  C   UNL A   1      45.413  34.553  28.426  1.00  0.00     0.134 A 
ATOM     84  F   UNL A   1      43.685  32.306  26.163  1.00  0.00    -0.206 F 
ATOM     85  C   UNL A   1      44.272  34.563  25.894  1.00  0.00     0.040 A 
ATOM     86  C   UNL A   1      45.425  35.722  27.662  1.00  0.00     0.040 A 
ATOM     87  F   UNL A   1      45.982  34.587  29.640  1.00  0.00    -0.206 F 
ATOM     88  C   UNL A   1      44.861  35.725  26.387  1.00  0.00     0.006 A 
ENDBRANCH  60  81
BRANCH  72  89
ATOM     89  C   UNL A   1      48.670  27.591  27.578  1.00  0.00     0.057 A 
ATOM     90  C   UNL A   1      50.025  27.820  27.840  1.00  0.00     0.134 A 
ATOM     91  C   UNL A   1      48.343  26.889  26.411  1.00  0.00     0.134 A 
ATOM     92  F   UNL A   1      50.402  28.498  28.935  1.00  0.00    -0.206 F 
ATOM     93  C   UNL A   1      51.019  27.382  26.963  1.00  0.00     0.040 A 
ATOM     94  C   UNL A   1      49.328  26.426  25.539  1.00  0.00     0.040 A 
ATOM     95  F   UNL A   1      47.061  26.631  26.108  1.00  0.00    -0.206 F 
ATOM     96  C   UNL A   1      50.671  26.677  25.813  1.00  0.00     0.006 A 
ENDBRANCH  72  89
ENDBRANCH  46  47
ENDBRANCH  38  41
ENDBRANCH  36  37
ENDBRANCH  35  36
ENDBRANCH  34  35
ENDBRANCH  33  34
ENDBRANCH  31  33
ENDBRANCH   1  29
TORSDOF 21
ENDMDL
