MODEL 1
REMARK VINA RESULT:     -10.7      0.000      0.000
REMARK SMILES C[C@@H]([N@@H+](C)[C@@H]1COC[C@@H]1C(=O)NCCCCNC(=O)c1ccc(-c2c3nc(c(-c4c(F)cccc4F)c4ccc([nH]4)c(-c4c(F)cccc4F)c4nc(c(-c5c(F)cccc5F)c5ccc2[nH]5)C=C4)C=C3)cc1)C1(C)CC1
REMARK SMILES IDX 14 1 13 2 12 3 10 4 11 5 9 7 5 8 6 9 7 10 8 11 3 12 4 13
REMARK SMILES IDX 2 15 1 16 74 17 75 18 76 19 77 20 15 21 16 22 17 23 18 24
REMARK SMILES IDX 19 26 20 27 21 28 73 29 22 30 72 31 23 32 24 33 25 34 66 35
REMARK SMILES IDX 26 36 71 37 65 38 67 39 27 40 70 41 64 42 63 43 28 45 54 46
REMARK SMILES IDX 37 47 53 48 38 49 41 50 52 51 68 52 39 53 40 54 51 56 69 57
REMARK SMILES IDX 42 58 29 59 30 60 35 61 31 62 32 63 34 64 36 65 33 66 55 67
REMARK SMILES IDX 56 68 61 69 57 70 58 71 60 72 62 73 59 74 43 75 44 76 49 77
REMARK SMILES IDX 45 78 46 79 48 80 50 81 47 82
REMARK H PARENT 12 6 3 14 17 25 67 44 41 55
REMARK Flexibility Score: inf
ROOT
ATOM      1  C   UNL A   1      37.397  21.328  24.469  1.00  0.00     0.023 C 
ENDROOT
BRANCH   1   2
ATOM      2  C   UNL A   1      37.103  22.426  25.507  1.00  0.00     0.116 C 
BRANCH   2   3
ATOM      3  N   UNL A   1      36.076  22.128  26.501  1.00  0.00    -0.356 N 
ATOM      4  C   UNL A   1      34.763  21.742  26.410  1.00  0.00     0.231 C 
ATOM      5  O   UNL A   1      34.183  21.485  27.467  1.00  0.00    -0.274 OA
ATOM      6  H   UNL A   1      36.391  22.223  27.429  1.00  0.00     0.163 HD
BRANCH   4   7
ATOM      7  C   UNL A   1      34.060  21.643  25.062  1.00  0.00     0.164 C 
ATOM      8  C   UNL A   1      32.552  22.038  25.047  1.00  0.00     0.225 C 
ATOM      9  C   UNL A   1      31.875  20.695  25.329  1.00  0.00     0.226 C 
ATOM     10  O   UNL A   1      32.696  19.682  24.730  1.00  0.00    -0.374 OA
ATOM     11  C   UNL A   1      34.035  20.179  24.625  1.00  0.00     0.180 C 
BRANCH   8  12
ATOM     12  N   UNL A   1      32.057  23.319  25.639  1.00  0.00    -0.330 N 
ATOM     13  C   UNL A   1      30.936  23.071  26.502  1.00  0.00     0.333 C 
ATOM     14  H   UNL A   1      32.846  23.648  26.197  1.00  0.00     0.348 HD
BRANCH  12  15
ATOM     15  C   UNL A   1      31.923  24.508  24.773  1.00  0.00     0.186 C 
ATOM     16  C   UNL A   1      31.111  24.146  23.520  1.00  0.00     0.076 C 
BRANCH  15  17
ATOM     17  C   UNL A   1      33.231  25.276  24.358  1.00  0.00     0.019 C 
ATOM     18  C   UNL A   1      33.653  24.959  22.934  1.00  0.00     0.018 C 
ATOM     19  C   UNL A   1      33.655  26.642  24.914  1.00  0.00     0.013 C 
ATOM     20  C   UNL A   1      34.394  25.430  25.346  1.00  0.00     0.013 C 
ENDBRANCH  15  17
ENDBRANCH  12  15
ENDBRANCH   8  12
ENDBRANCH   4   7
ENDBRANCH   2   3
ENDBRANCH   1   2
BRANCH   1  21
ATOM     21  C   UNL A   1      37.961  20.007  25.002  1.00  0.00     0.023 C 
BRANCH  21  22
ATOM     22  C   UNL A   1      39.053  20.226  26.031  1.00  0.00     0.116 C 
BRANCH  22  23
ATOM     23  N   UNL A   1      40.078  19.192  25.949  1.00  0.00    -0.352 N 
ATOM     24  C   UNL A   1      41.441  19.301  26.051  1.00  0.00     0.251 C 
ATOM     25  H   UNL A   1      39.740  18.279  25.798  1.00  0.00     0.163 HD
ATOM     26  O   UNL A   1      42.155  18.341  25.820  1.00  0.00    -0.269 OA
BRANCH  24  27
ATOM     27  C   UNL A   1      42.029  20.606  26.402  1.00  0.00     0.039 A 
ATOM     28  C   UNL A   1      42.314  21.509  25.376  1.00  0.00     0.014 A 
ATOM     29  C   UNL A   1      42.273  20.940  27.737  1.00  0.00     0.014 A 
ATOM     30  C   UNL A   1      42.804  22.772  25.696  1.00  0.00     0.010 A 
ATOM     31  C   UNL A   1      42.659  22.229  28.058  1.00  0.00     0.010 A 
ATOM     32  C   UNL A   1      42.950  23.148  27.040  1.00  0.00    -0.014 A 
BRANCH  32  33
ATOM     33  C   UNL A   1      43.447  24.487  27.418  1.00  0.00     0.031 A 
ATOM     34  C   UNL A   1      42.466  25.536  27.858  1.00  0.00     0.074 A 
ATOM     35  C   UNL A   1      44.755  24.769  27.285  1.00  0.00     0.049 A 
ATOM     36  N   UNL A   1      42.670  26.799  28.123  1.00  0.00    -0.248 NA
ATOM     37  C   UNL A   1      41.057  25.119  27.973  1.00  0.00     0.031 C 
ATOM     38  C   UNL A   1      45.781  23.834  26.815  1.00  0.00     0.029 A 
ATOM     39  N   UNL A   1      45.444  25.929  27.519  1.00  0.00    -0.354 N 
ATOM     40  C   UNL A   1      41.418  27.327  28.411  1.00  0.00     0.074 A 
ATOM     41  C   UNL A   1      40.453  26.269  28.224  1.00  0.00     0.031 C 
ATOM     42  C   UNL A   1      46.972  24.452  26.821  1.00  0.00     0.029 A 
ATOM     43  C   UNL A   1      46.787  25.833  27.250  1.00  0.00     0.049 A 
ATOM     44  H   UNL A   1      45.017  26.753  27.847  1.00  0.00     0.167 HD
ATOM     45  C   UNL A   1      41.109  28.578  28.824  1.00  0.00     0.037 A 
ATOM     46  C   UNL A   1      47.754  26.763  27.336  1.00  0.00     0.037 A 
ATOM     47  C   UNL A   1      42.089  29.609  29.036  1.00  0.00     0.049 A 
ATOM     48  C   UNL A   1      47.386  28.144  27.801  1.00  0.00     0.074 A 
ATOM     49  C   UNL A   1      41.900  30.894  29.510  1.00  0.00     0.029 A 
ATOM     50  N   UNL A   1      43.446  29.466  28.786  1.00  0.00    -0.354 N 
ATOM     51  N   UNL A   1      46.208  28.618  28.135  1.00  0.00    -0.248 NA
ATOM     52  C   UNL A   1      48.479  29.119  27.910  1.00  0.00     0.031 C 
ATOM     53  C   UNL A   1      43.138  31.545  29.502  1.00  0.00     0.029 A 
ATOM     54  C   UNL A   1      44.106  30.646  29.078  1.00  0.00     0.049 A 
ATOM     55  H   UNL A   1      43.875  28.646  28.451  1.00  0.00     0.167 HD
ATOM     56  C   UNL A   1      46.422  29.932  28.525  1.00  0.00     0.074 A 
ATOM     57  C   UNL A   1      47.845  30.177  28.396  1.00  0.00     0.031 C 
ATOM     58  C   UNL A   1      45.526  30.856  28.952  1.00  0.00     0.037 A 
BRANCH  45  59
ATOM     59  C   UNL A   1      39.661  28.888  29.073  1.00  0.00     0.057 A 
ATOM     60  C   UNL A   1      38.810  29.331  28.051  1.00  0.00     0.134 A 
ATOM     61  C   UNL A   1      39.103  28.724  30.348  1.00  0.00     0.134 A 
ATOM     62  F   UNL A   1      39.282  29.526  26.810  1.00  0.00    -0.206 F 
ATOM     63  C   UNL A   1      37.468  29.631  28.294  1.00  0.00     0.040 A 
ATOM     64  C   UNL A   1      37.756  28.991  30.596  1.00  0.00     0.040 A 
ATOM     65  F   UNL A   1      39.858  28.301  31.373  1.00  0.00    -0.206 F 
ATOM     66  C   UNL A   1      36.936  29.453  29.569  1.00  0.00     0.006 A 
ENDBRANCH  45  59
BRANCH  46  67
ATOM     67  C   UNL A   1      49.158  26.413  27.002  1.00  0.00     0.057 A 
ATOM     68  C   UNL A   1      49.645  26.555  25.697  1.00  0.00     0.134 A 
ATOM     69  C   UNL A   1      50.046  25.935  27.973  1.00  0.00     0.134 A 
ATOM     70  F   UNL A   1      48.840  26.997  24.720  1.00  0.00    -0.206 F 
ATOM     71  C   UNL A   1      50.958  26.213  25.365  1.00  0.00     0.040 A 
ATOM     72  C   UNL A   1      51.368  25.615  27.660  1.00  0.00     0.040 A 
ATOM     73  F   UNL A   1      49.647  25.790  29.245  1.00  0.00    -0.206 F 
ATOM     74  C   UNL A   1      51.825  25.746  26.350  1.00  0.00     0.006 A 
ENDBRANCH  46  67
BRANCH  58  75
ATOM     75  C   UNL A   1      46.066  32.195  29.358  1.00  0.00     0.057 A 
ATOM     76  C   UNL A   1      46.154  33.263  28.457  1.00  0.00     0.134 A 
ATOM     77  C   UNL A   1      46.454  32.430  30.684  1.00  0.00     0.134 A 
ATOM     78  F   UNL A   1      45.809  33.099  27.171  1.00  0.00    -0.206 F 
ATOM     79  C   UNL A   1      46.630  34.512  28.855  1.00  0.00     0.040 A 
ATOM     80  C   UNL A   1      46.902  33.683  31.100  1.00  0.00     0.040 A 
ATOM     81  F   UNL A   1      46.382  31.451  31.598  1.00  0.00    -0.206 F 
ATOM     82  C   UNL A   1      46.999  34.727  30.183  1.00  0.00     0.006 A 
ENDBRANCH  58  75
ENDBRANCH  32  33
ENDBRANCH  24  27
ENDBRANCH  22  23
ENDBRANCH  21  22
ENDBRANCH   1  21
TORSDOF 14
ENDMDL
MODEL 2
REMARK VINA RESULT:     -10.6      5.704     10.498
REMARK SMILES C[C@@H]([N@@H+](C)[C@@H]1COC[C@@H]1C(=O)NCCCCNC(=O)c1ccc(-c2c3nc(c(-c4c(F)cccc4F)c4ccc([nH]4)c(-c4c(F)cccc4F)c4nc(c(-c5c(F)cccc5F)c5ccc2[nH]5)C=C4)C=C3)cc1)C1(C)CC1
REMARK SMILES IDX 14 1 13 2 12 3 10 4 11 5 9 7 5 8 6 9 7 10 8 11 3 12 4 13
REMARK SMILES IDX 2 15 1 16 74 17 75 18 76 19 77 20 15 21 16 22 17 23 18 24
REMARK SMILES IDX 19 26 20 27 21 28 73 29 22 30 72 31 23 32 24 33 25 34 66 35
REMARK SMILES IDX 26 36 71 37 65 38 67 39 27 40 70 41 64 42 63 43 28 45 54 46
REMARK SMILES IDX 37 47 53 48 38 49 41 50 52 51 68 52 39 53 40 54 51 56 69 57
REMARK SMILES IDX 42 58 29 59 30 60 35 61 31 62 32 63 34 64 36 65 33 66 55 67
REMARK SMILES IDX 56 68 61 69 57 70 58 71 60 72 62 73 59 74 43 75 44 76 49 77
REMARK SMILES IDX 45 78 46 79 48 80 50 81 47 82
REMARK H PARENT 12 6 3 14 17 25 67 44 41 55
REMARK Flexibility Score: inf
ROOT
ATOM      1  C   UNL A   1      31.771  30.690  26.315  1.00  0.00     0.023 C 
ENDROOT
BRANCH   1   2
ATOM      2  C   UNL A   1      32.391  29.692  27.308  1.00  0.00     0.116 C 
BRANCH   2   3
ATOM      3  N   UNL A   1      31.741  28.389  27.418  1.00  0.00    -0.356 N 
ATOM      4  C   UNL A   1      31.714  27.281  26.611  1.00  0.00     0.231 C 
ATOM      5  O   UNL A   1      31.122  26.290  27.045  1.00  0.00    -0.274 OA
ATOM      6  H   UNL A   1      31.213  28.284  28.242  1.00  0.00     0.163 HD
BRANCH   4   7
ATOM      7  C   UNL A   1      32.381  27.284  25.242  1.00  0.00     0.164 C 
ATOM      8  C   UNL A   1      31.477  26.876  24.039  1.00  0.00     0.225 C 
ATOM      9  C   UNL A   1      31.701  25.364  23.979  1.00  0.00     0.226 C 
ATOM     10  O   UNL A   1      33.054  25.128  24.396  1.00  0.00    -0.374 OA
ATOM     11  C   UNL A   1      33.476  26.216  25.224  1.00  0.00     0.180 C 
BRANCH   8  12
ATOM     12  N   UNL A   1      30.133  27.491  23.807  1.00  0.00    -0.330 N 
ATOM     13  C   UNL A   1      29.099  26.505  23.956  1.00  0.00     0.333 C 
ATOM     14  H   UNL A   1      30.051  28.181  24.554  1.00  0.00     0.348 HD
BRANCH  12  15
ATOM     15  C   UNL A   1      29.952  28.415  22.669  1.00  0.00     0.186 C 
ATOM     16  C   UNL A   1      31.310  29.006  22.261  1.00  0.00     0.076 C 
BRANCH  15  17
ATOM     17  C   UNL A   1      28.890  29.566  22.809  1.00  0.00     0.019 C 
ATOM     18  C   UNL A   1      29.380  30.692  23.702  1.00  0.00     0.018 C 
ATOM     19  C   UNL A   1      27.859  29.939  21.734  1.00  0.00     0.013 C 
ATOM     20  C   UNL A   1      27.398  29.240  22.959  1.00  0.00     0.013 C 
ENDBRANCH  15  17
ENDBRANCH  12  15
ENDBRANCH   8  12
ENDBRANCH   4   7
ENDBRANCH   2   3
ENDBRANCH   1   2
BRANCH   1  21
ATOM     21  C   UNL A   1      31.463  32.094  26.846  1.00  0.00     0.023 C 
BRANCH  21  22
ATOM     22  C   UNL A   1      32.722  32.853  27.215  1.00  0.00     0.116 C 
BRANCH  22  23
ATOM     23  N   UNL A   1      32.421  34.222  27.617  1.00  0.00    -0.352 N 
ATOM     24  C   UNL A   1      33.004  34.998  28.585  1.00  0.00     0.251 C 
ATOM     25  H   UNL A   1      31.688  34.652  27.119  1.00  0.00     0.163 HD
ATOM     26  O   UNL A   1      32.529  36.082  28.877  1.00  0.00    -0.269 OA
BRANCH  24  27
ATOM     27  C   UNL A   1      34.190  34.485  29.294  1.00  0.00     0.039 A 
ATOM     28  C   UNL A   1      34.008  33.828  30.513  1.00  0.00     0.014 A 
ATOM     29  C   UNL A   1      35.466  34.631  28.745  1.00  0.00     0.014 A 
ATOM     30  C   UNL A   1      35.109  33.276  31.161  1.00  0.00     0.010 A 
ATOM     31  C   UNL A   1      36.542  33.992  29.336  1.00  0.00     0.010 A 
ATOM     32  C   UNL A   1      36.376  33.329  30.560  1.00  0.00    -0.014 A 
BRANCH  32  33
ATOM     33  C   UNL A   1      37.564  32.735  31.208  1.00  0.00     0.031 A 
ATOM     34  C   UNL A   1      38.225  31.544  30.576  1.00  0.00     0.074 A 
ATOM     35  C   UNL A   1      37.984  33.219  32.390  1.00  0.00     0.049 A 
ATOM     36  N   UNL A   1      39.200  30.802  31.031  1.00  0.00    -0.248 NA
ATOM     37  C   UNL A   1      37.686  31.098  29.279  1.00  0.00     0.031 C 
ATOM     38  C   UNL A   1      37.376  34.341  33.112  1.00  0.00     0.029 A 
ATOM     39  N   UNL A   1      39.012  32.819  33.201  1.00  0.00    -0.354 N 
ATOM     40  C   UNL A   1      39.374  29.796  30.089  1.00  0.00     0.074 A 
ATOM     41  C   UNL A   1      38.363  29.980  29.074  1.00  0.00     0.031 C 
ATOM     42  C   UNL A   1      38.060  34.554  34.246  1.00  0.00     0.029 A 
ATOM     43  C   UNL A   1      39.122  33.560  34.352  1.00  0.00     0.049 A 
ATOM     44  H   UNL A   1      39.613  32.071  32.981  1.00  0.00     0.167 HD
ATOM     45  C   UNL A   1      40.315  28.824  30.062  1.00  0.00     0.037 A 
ATOM     46  C   UNL A   1      39.983  33.439  35.379  1.00  0.00     0.037 A 
ATOM     47  C   UNL A   1      41.334  28.678  31.066  1.00  0.00     0.049 A 
ATOM     48  C   UNL A   1      41.022  32.354  35.324  1.00  0.00     0.074 A 
ATOM     49  C   UNL A   1      42.376  27.770  31.113  1.00  0.00     0.029 A 
ATOM     50  N   UNL A   1      41.437  29.468  32.202  1.00  0.00    -0.354 N 
ATOM     51  N   UNL A   1      41.220  31.445  34.396  1.00  0.00    -0.248 NA
ATOM     52  C   UNL A   1      41.961  32.279  36.450  1.00  0.00     0.031 C 
ATOM     53  C   UNL A   1      43.081  27.980  32.302  1.00  0.00     0.029 A 
ATOM     54  C   UNL A   1      42.514  29.057  32.967  1.00  0.00     0.049 A 
ATOM     55  H   UNL A   1      40.833  30.212  32.429  1.00  0.00     0.167 HD
ATOM     56  C   UNL A   1      42.325  30.714  34.810  1.00  0.00     0.074 A 
ATOM     57  C   UNL A   1      42.759  31.293  36.066  1.00  0.00     0.031 C 
ATOM     58  C   UNL A   1      42.929  29.661  34.207  1.00  0.00     0.037 A 
BRANCH  45  59
ATOM     59  C   UNL A   1      40.280  27.857  28.914  1.00  0.00     0.057 A 
ATOM     60  C   UNL A   1      40.988  28.089  27.726  1.00  0.00     0.134 A 
ATOM     61  C   UNL A   1      39.544  26.668  29.002  1.00  0.00     0.134 A 
ATOM     62  F   UNL A   1      41.700  29.215  27.568  1.00  0.00    -0.206 F 
ATOM     63  C   UNL A   1      40.938  27.192  26.657  1.00  0.00     0.040 A 
ATOM     64  C   UNL A   1      39.512  25.749  27.952  1.00  0.00     0.040 A 
ATOM     65  F   UNL A   1      38.845  26.380  30.110  1.00  0.00    -0.206 F 
ATOM     66  C   UNL A   1      40.204  26.014  26.772  1.00  0.00     0.006 A 
ENDBRANCH  45  59
BRANCH  46  67
ATOM     67  C   UNL A   1      39.916  34.382  36.523  1.00  0.00     0.057 A 
ATOM     68  C   UNL A   1      39.201  34.060  37.682  1.00  0.00     0.134 A 
ATOM     69  C   UNL A   1      40.567  35.621  36.492  1.00  0.00     0.134 A 
ATOM     70  F   UNL A   1      38.547  32.892  37.769  1.00  0.00    -0.206 F 
ATOM     71  C   UNL A   1      39.115  34.944  38.759  1.00  0.00     0.040 A 
ATOM     72  C   UNL A   1      40.512  36.504  37.572  1.00  0.00     0.040 A 
ATOM     73  F   UNL A   1      41.282  35.985  35.417  1.00  0.00    -0.206 F 
ATOM     74  C   UNL A   1      39.776  36.169  38.708  1.00  0.00     0.006 A 
ENDBRANCH  46  67
BRANCH  58  75
ATOM     75  C   UNL A   1      44.151  29.100  34.873  1.00  0.00     0.057 A 
ATOM     76  C   UNL A   1      44.075  28.056  35.803  1.00  0.00     0.134 A 
ATOM     77  C   UNL A   1      45.423  29.580  34.538  1.00  0.00     0.134 A 
ATOM     78  F   UNL A   1      42.885  27.560  36.176  1.00  0.00    -0.206 F 
ATOM     79  C   UNL A   1      45.222  27.525  36.394  1.00  0.00     0.040 A 
ATOM     80  C   UNL A   1      46.579  29.036  35.099  1.00  0.00     0.040 A 
ATOM     81  F   UNL A   1      45.564  30.571  33.645  1.00  0.00    -0.206 F 
ATOM     82  C   UNL A   1      46.479  28.010  36.035  1.00  0.00     0.006 A 
ENDBRANCH  58  75
ENDBRANCH  32  33
ENDBRANCH  24  27
ENDBRANCH  22  23
ENDBRANCH  21  22
ENDBRANCH   1  21
TORSDOF 14
ENDMDL
MODEL 3
REMARK VINA RESULT:     -10.5      5.470     10.261
REMARK SMILES C[C@@H]([N@@H+](C)[C@@H]1COC[C@@H]1C(=O)NCCCCNC(=O)c1ccc(-c2c3nc(c(-c4c(F)cccc4F)c4ccc([nH]4)c(-c4c(F)cccc4F)c4nc(c(-c5c(F)cccc5F)c5ccc2[nH]5)C=C4)C=C3)cc1)C1(C)CC1
REMARK SMILES IDX 14 1 13 2 12 3 10 4 11 5 9 7 5 8 6 9 7 10 8 11 3 12 4 13
REMARK SMILES IDX 2 15 1 16 74 17 75 18 76 19 77 20 15 21 16 22 17 23 18 24
REMARK SMILES IDX 19 26 20 27 21 28 73 29 22 30 72 31 23 32 24 33 25 34 66 35
REMARK SMILES IDX 26 36 71 37 65 38 67 39 27 40 70 41 64 42 63 43 28 45 54 46
REMARK SMILES IDX 37 47 53 48 38 49 41 50 52 51 68 52 39 53 40 54 51 56 69 57
REMARK SMILES IDX 42 58 29 59 30 60 35 61 31 62 32 63 34 64 36 65 33 66 55 67
REMARK SMILES IDX 56 68 61 69 57 70 58 71 60 72 62 73 59 74 43 75 44 76 49 77
REMARK SMILES IDX 45 78 46 79 48 80 50 81 47 82
REMARK H PARENT 12 6 3 14 17 25 67 44 41 55
REMARK Flexibility Score: inf
ROOT
ATOM      1  C   UNL A   1      31.411  30.702  26.347  1.00  0.00     0.023 C 
ENDROOT
BRANCH   1   2
ATOM      2  C   UNL A   1      32.800  30.048  26.239  1.00  0.00     0.116 C 
BRANCH   2   3
ATOM      3  N   UNL A   1      33.287  29.765  24.892  1.00  0.00    -0.356 N 
ATOM      4  C   UNL A   1      32.808  28.997  23.861  1.00  0.00     0.231 C 
ATOM      5  O   UNL A   1      33.432  29.039  22.799  1.00  0.00    -0.274 OA
ATOM      6  H   UNL A   1      34.134  30.219  24.680  1.00  0.00     0.163 HD
BRANCH   4   7
ATOM      7  C   UNL A   1      31.566  28.132  24.031  1.00  0.00     0.164 C 
ATOM      8  C   UNL A   1      31.500  26.850  23.147  1.00  0.00     0.225 C 
ATOM      9  C   UNL A   1      30.784  27.369  21.898  1.00  0.00     0.226 C 
ATOM     10  O   UNL A   1      29.870  28.386  22.336  1.00  0.00    -0.374 OA
ATOM     11  C   UNL A   1      30.344  28.928  23.572  1.00  0.00     0.180 C 
BRANCH   8  12
ATOM     12  N   UNL A   1      32.632  25.876  23.068  1.00  0.00    -0.330 N 
ATOM     13  C   UNL A   1      33.011  25.659  21.699  1.00  0.00     0.333 C 
ATOM     14  H   UNL A   1      33.392  26.349  23.557  1.00  0.00     0.348 HD
BRANCH  12  15
ATOM     15  C   UNL A   1      32.592  24.658  23.902  1.00  0.00     0.186 C 
ATOM     16  C   UNL A   1      31.143  24.163  24.026  1.00  0.00     0.076 C 
BRANCH  15  17
ATOM     17  C   UNL A   1      33.262  24.709  25.324  1.00  0.00     0.019 C 
ATOM     18  C   UNL A   1      32.358  24.139  26.403  1.00  0.00     0.018 C 
ATOM     19  C   UNL A   1      34.773  24.633  25.580  1.00  0.00     0.013 C 
ATOM     20  C   UNL A   1      34.079  25.932  25.760  1.00  0.00     0.013 C 
ENDBRANCH  15  17
ENDBRANCH  12  15
ENDBRANCH   8  12
ENDBRANCH   4   7
ENDBRANCH   2   3
ENDBRANCH   1   2
BRANCH   1  21
ATOM     21  C   UNL A   1      31.376  32.224  26.521  1.00  0.00     0.023 C 
BRANCH  21  22
ATOM     22  C   UNL A   1      32.687  32.768  27.053  1.00  0.00     0.116 C 
BRANCH  22  23
ATOM     23  N   UNL A   1      32.509  34.073  27.678  1.00  0.00    -0.352 N 
ATOM     24  C   UNL A   1      33.198  34.651  28.712  1.00  0.00     0.251 C 
ATOM     25  H   UNL A   1      31.784  34.622  27.299  1.00  0.00     0.163 HD
ATOM     26  O   UNL A   1      32.820  35.704  29.196  1.00  0.00    -0.269 OA
BRANCH  24  27
ATOM     27  C   UNL A   1      34.380  33.958  29.258  1.00  0.00     0.039 A 
ATOM     28  C   UNL A   1      35.649  34.413  28.894  1.00  0.00     0.014 A 
ATOM     29  C   UNL A   1      34.230  32.884  30.138  1.00  0.00     0.014 A 
ATOM     30  C   UNL A   1      36.774  33.815  29.454  1.00  0.00     0.010 A 
ATOM     31  C   UNL A   1      35.344  32.362  30.773  1.00  0.00     0.010 A 
ATOM     32  C   UNL A   1      36.625  32.807  30.420  1.00  0.00    -0.014 A 
BRANCH  32  33
ATOM     33  C   UNL A   1      37.796  32.164  31.052  1.00  0.00     0.031 A 
ATOM     34  C   UNL A   1      38.525  31.079  30.311  1.00  0.00     0.074 A 
ATOM     35  C   UNL A   1      38.139  32.501  32.307  1.00  0.00     0.049 A 
ATOM     36  N   UNL A   1      39.498  30.309  30.721  1.00  0.00    -0.248 NA
ATOM     37  C   UNL A   1      38.068  30.792  28.939  1.00  0.00     0.031 C 
ATOM     38  C   UNL A   1      37.460  33.505  33.131  1.00  0.00     0.029 A 
ATOM     39  N   UNL A   1      39.135  32.024  33.117  1.00  0.00    -0.354 N 
ATOM     40  C   UNL A   1      39.751  29.437  29.670  1.00  0.00     0.074 A 
ATOM     41  C   UNL A   1      38.788  29.726  28.632  1.00  0.00     0.031 C 
ATOM     42  C   UNL A   1      38.078  33.587  34.320  1.00  0.00     0.029 A 
ATOM     43  C   UNL A   1      39.163  32.613  34.357  1.00  0.00     0.049 A 
ATOM     44  H   UNL A   1      39.769  31.326  32.836  1.00  0.00     0.167 HD
ATOM     45  C   UNL A   1      40.721  28.499  29.571  1.00  0.00     0.037 A 
ATOM     46  C   UNL A   1      39.972  32.382  35.405  1.00  0.00     0.037 A 
ATOM     47  C   UNL A   1      41.691  28.249  30.603  1.00  0.00     0.049 A 
ATOM     48  C   UNL A   1      41.045  31.338  35.270  1.00  0.00     0.074 A 
ATOM     49  C   UNL A   1      42.756  27.368  30.591  1.00  0.00     0.029 A 
ATOM     50  N   UNL A   1      41.711  28.889  31.834  1.00  0.00    -0.354 N 
ATOM     51  N   UNL A   1      41.320  30.562  34.247  1.00  0.00    -0.248 NA
ATOM     52  C   UNL A   1      41.927  31.141  36.428  1.00  0.00     0.031 C 
ATOM     53  C   UNL A   1      43.392  27.440  31.835  1.00  0.00     0.029 A 
ATOM     54  C   UNL A   1      42.758  28.409  32.599  1.00  0.00     0.049 A 
ATOM     55  H   UNL A   1      41.073  29.583  32.121  1.00  0.00     0.167 HD
ATOM     56  C   UNL A   1      42.424  29.810  34.625  1.00  0.00     0.074 A 
ATOM     57  C   UNL A   1      42.774  30.232  35.967  1.00  0.00     0.031 C 
ATOM     58  C   UNL A   1      43.091  28.857  33.928  1.00  0.00     0.037 A 
BRANCH  45  59
ATOM     59  C   UNL A   1      40.776  27.687  28.309  1.00  0.00     0.057 A 
ATOM     60  C   UNL A   1      41.522  28.096  27.195  1.00  0.00     0.134 A 
ATOM     61  C   UNL A   1      40.088  26.471  28.211  1.00  0.00     0.134 A 
ATOM     62  F   UNL A   1      42.193  29.259  27.215  1.00  0.00    -0.206 F 
ATOM     63  C   UNL A   1      41.556  27.344  26.020  1.00  0.00     0.040 A 
ATOM     64  C   UNL A   1      40.139  25.694  27.052  1.00  0.00     0.040 A 
ATOM     65  F   UNL A   1      39.356  26.017  29.239  1.00  0.00    -0.206 F 
ATOM     66  C   UNL A   1      40.869  26.134  25.949  1.00  0.00     0.006 A 
ENDBRANCH  45  59
BRANCH  46  67
ATOM     67  C   UNL A   1      39.818  33.168  36.655  1.00  0.00     0.057 A 
ATOM     68  C   UNL A   1      40.564  34.333  36.871  1.00  0.00     0.134 A 
ATOM     69  C   UNL A   1      38.920  32.783  37.658  1.00  0.00     0.134 A 
ATOM     70  F   UNL A   1      41.448  34.747  35.952  1.00  0.00    -0.206 F 
ATOM     71  C   UNL A   1      40.441  35.073  38.048  1.00  0.00     0.040 A 
ATOM     72  C   UNL A   1      38.768  33.528  38.829  1.00  0.00     0.040 A 
ATOM     73  F   UNL A   1      38.164  31.686  37.508  1.00  0.00    -0.206 F 
ATOM     74  C   UNL A   1      39.537  34.674  39.030  1.00  0.00     0.006 A 
ENDBRANCH  46  67
BRANCH  58  75
ATOM     75  C   UNL A   1      44.293  28.245  34.583  1.00  0.00     0.057 A 
ATOM     76  C   UNL A   1      44.217  27.040  35.292  1.00  0.00     0.134 A 
ATOM     77  C   UNL A   1      45.551  28.847  34.458  1.00  0.00     0.134 A 
ATOM     78  F   UNL A   1      43.039  26.420  35.458  1.00  0.00    -0.206 F 
ATOM     79  C   UNL A   1      45.349  26.467  35.873  1.00  0.00     0.040 A 
ATOM     80  C   UNL A   1      46.694  28.268  35.007  1.00  0.00     0.040 A 
ATOM     81  F   UNL A   1      45.692  29.997  33.781  1.00  0.00    -0.206 F 
ATOM     82  C   UNL A   1      46.594  27.078  35.724  1.00  0.00     0.006 A 
ENDBRANCH  58  75
ENDBRANCH  32  33
ENDBRANCH  24  27
ENDBRANCH  22  23
ENDBRANCH  21  22
ENDBRANCH   1  21
TORSDOF 14
ENDMDL
