MODEL 1
REMARK VINA RESULT:     -12.0      0.000      0.000
REMARK SMILES C[C@@H](C(=O)NCCCCNC(=O)c1ccc(-c2c3nc(c(-c4c(F)cccc4F)c4ccc([nH]4)c(-c4c(F)cccc4F)c4nc(c(-c5c(F)cccc5F)c5ccc2[nH]5)C=C4)C=C3)cc1)S(=O)(=O)N[C@@]12C[C@@H]3C[C@@](C)(C[C@@](C)(C3)C1)C2
REMARK SMILES IDX 7 1 6 2 5 3 3 4 4 5 2 7 1 8 67 9 68 10 69 11 70 12 71 14
REMARK SMILES IDX 72 15 81 16 82 17 73 18 78 19 75 20 80 21 74 22 77 23 79 24
REMARK SMILES IDX 76 25 8 26 9 27 10 28 11 29 12 31 13 32 14 33 66 34 15 35
REMARK SMILES IDX 65 36 16 37 17 38 18 39 59 40 19 41 64 42 58 43 60 44 20 45
REMARK SMILES IDX 63 46 57 47 56 48 21 50 47 51 30 52 46 53 31 54 34 55 45 56
REMARK SMILES IDX 61 57 32 58 33 59 44 61 62 62 35 63 22 64 23 65 28 66 24 67
REMARK SMILES IDX 25 68 27 69 29 70 26 71 48 72 49 73 54 74 50 75 51 76 53 77
REMARK SMILES IDX 55 78 52 79 36 80 37 81 42 82 38 83 39 84 41 85 43 86 40 87
REMARK H PARENT 5 6 70 13 10 30 60 49 34 60
REMARK Flexibility Score: inf
ROOT
ATOM      1  C   UNL A   1      31.641  27.930  26.507  1.00  0.00     0.023 C 
ENDROOT
BRANCH   1   2
ATOM      2  C   UNL A   1      31.186  26.879  25.487  1.00  0.00     0.116 C 
BRANCH   2   3
ATOM      3  N   UNL A   1      30.808  27.528  24.247  1.00  0.00    -0.355 N 
ATOM      4  C   UNL A   1      31.557  27.862  23.148  1.00  0.00     0.239 C 
ATOM      5  O   UNL A   1      31.029  28.650  22.361  1.00  0.00    -0.274 OA
ATOM      6  H   UNL A   1      29.854  27.770  24.184  1.00  0.00     0.163 HD
BRANCH   4   7
ATOM      7  C   UNL A   1      32.923  27.238  22.931  1.00  0.00     0.209 C 
ATOM      8  C   UNL A   1      34.015  28.143  22.374  1.00  0.00     0.037 C 
BRANCH   7   9
ATOM      9  S   UNL A   1      32.784  25.670  21.998  1.00  0.00     0.223 S 
ATOM     10  O   UNL A   1      31.559  25.020  22.410  1.00  0.00    -0.212 OA
ATOM     11  O   UNL A   1      32.954  25.980  20.589  1.00  0.00    -0.212 OA
BRANCH   9  12
ATOM     12  N   UNL A   1      34.044  24.636  22.367  1.00  0.00    -0.208 NA
ATOM     13  H   UNL A   1      34.882  25.213  22.300  1.00  0.00     0.141 HD
BRANCH  12  14
ATOM     14  C   UNL A   1      34.236  23.840  23.598  1.00  0.00     0.034 C 
ATOM     15  C   UNL A   1      34.018  24.653  24.885  1.00  0.00     0.027 C 
ATOM     16  C   UNL A   1      33.196  22.682  23.672  1.00  0.00     0.030 C 
ATOM     17  C   UNL A   1      35.617  23.155  23.507  1.00  0.00     0.030 C 
ATOM     18  C   UNL A   1      34.367  23.825  26.123  1.00  0.00    -0.008 C 
ATOM     19  C   UNL A   1      33.445  21.799  24.943  1.00  0.00    -0.030 C 
ATOM     20  C   UNL A   1      35.924  22.345  24.774  1.00  0.00    -0.030 C 
ATOM     21  C   UNL A   1      33.363  22.677  26.214  1.00  0.00     0.010 C 
ATOM     22  C   UNL A   1      35.794  23.268  26.006  1.00  0.00     0.010 C 
ATOM     23  C   UNL A   1      34.879  21.213  24.876  1.00  0.00     0.013 C 
ATOM     24  C   UNL A   1      32.412  20.669  25.042  1.00  0.00     0.011 C 
ATOM     25  C   UNL A   1      37.341  21.768  24.687  1.00  0.00     0.011 C 
ENDBRANCH  12  14
ENDBRANCH   9  12
ENDBRANCH   7   9
ENDBRANCH   4   7
ENDBRANCH   2   3
ENDBRANCH   1   2
BRANCH   1  26
ATOM     26  C   UNL A   1      33.148  27.895  26.793  1.00  0.00     0.023 C 
BRANCH  26  27
ATOM     27  C   UNL A   1      33.958  28.961  26.062  1.00  0.00     0.116 C 
BRANCH  27  28
ATOM     28  N   UNL A   1      33.795  30.285  26.638  1.00  0.00    -0.352 N 
ATOM     29  C   UNL A   1      34.548  30.905  27.604  1.00  0.00     0.251 C 
ATOM     30  H   UNL A   1      33.040  30.812  26.288  1.00  0.00     0.163 HD
ATOM     31  O   UNL A   1      34.175  31.973  28.077  1.00  0.00    -0.269 OA
BRANCH  29  32
ATOM     32  C   UNL A   1      35.783  30.263  28.101  1.00  0.00     0.039 A 
ATOM     33  C   UNL A   1      36.935  30.348  27.317  1.00  0.00     0.014 A 
ATOM     34  C   UNL A   1      35.812  29.588  29.325  1.00  0.00     0.014 A 
ATOM     35  C   UNL A   1      38.128  29.800  27.786  1.00  0.00     0.010 A 
ATOM     36  C   UNL A   1      37.021  29.112  29.826  1.00  0.00     0.010 A 
ATOM     37  C   UNL A   1      38.191  29.211  29.061  1.00  0.00    -0.014 A 
BRANCH  37  38
ATOM     38  C   UNL A   1      39.487  28.724  29.595  1.00  0.00     0.031 A 
ATOM     39  C   UNL A   1      40.122  29.376  30.792  1.00  0.00     0.074 A 
ATOM     40  C   UNL A   1      40.099  27.692  28.983  1.00  0.00     0.049 A 
ATOM     41  N   UNL A   1      41.229  29.056  31.413  1.00  0.00    -0.248 NA
ATOM     42  C   UNL A   1      39.443  30.556  31.350  1.00  0.00     0.031 C 
ATOM     43  C   UNL A   1      39.617  27.020  27.775  1.00  0.00     0.029 A 
ATOM     44  N   UNL A   1      41.254  27.021  29.296  1.00  0.00    -0.354 N 
ATOM     45  C   UNL A   1      41.369  29.981  32.440  1.00  0.00     0.074 A 
ATOM     46  C   UNL A   1      40.276  30.920  32.314  1.00  0.00     0.031 C 
ATOM     47  C   UNL A   1      40.446  26.010  27.470  1.00  0.00     0.029 A 
ATOM     48  C   UNL A   1      41.537  25.984  28.439  1.00  0.00     0.049 A 
ATOM     49  H   UNL A   1      41.826  27.259  30.062  1.00  0.00     0.167 HD
ATOM     50  C   UNL A   1      42.306  30.026  33.418  1.00  0.00     0.037 A 
ATOM     51  C   UNL A   1      42.560  25.110  28.437  1.00  0.00     0.037 A 
ATOM     52  C   UNL A   1      43.394  29.090  33.540  1.00  0.00     0.049 A 
ATOM     53  C   UNL A   1      43.588  25.187  29.530  1.00  0.00     0.074 A 
ATOM     54  C   UNL A   1      44.375  29.030  34.514  1.00  0.00     0.029 A 
ATOM     55  N   UNL A   1      43.645  28.049  32.658  1.00  0.00    -0.354 N 
ATOM     56  N   UNL A   1      43.664  26.022  30.537  1.00  0.00    -0.248 NA
ATOM     57  C   UNL A   1      44.666  24.189  29.494  1.00  0.00     0.031 C 
ATOM     58  C   UNL A   1      45.247  27.984  34.194  1.00  0.00     0.029 A 
ATOM     59  C   UNL A   1      44.777  27.355  33.055  1.00  0.00     0.049 A 
ATOM     60  H   UNL A   1      43.099  27.836  31.866  1.00  0.00     0.167 HD
ATOM     61  C   UNL A   1      44.784  25.639  31.265  1.00  0.00     0.074 A 
ATOM     62  C   UNL A   1      45.332  24.475  30.602  1.00  0.00     0.031 C 
ATOM     63  C   UNL A   1      45.315  26.203  32.378  1.00  0.00     0.037 A 
BRANCH  50  64
ATOM     64  C   UNL A   1      42.186  31.115  34.445  1.00  0.00     0.057 A 
ATOM     65  C   UNL A   1      41.442  30.939  35.620  1.00  0.00     0.134 A 
ATOM     66  C   UNL A   1      42.861  32.333  34.287  1.00  0.00     0.134 A 
ATOM     67  F   UNL A   1      40.760  29.802  35.829  1.00  0.00    -0.206 F 
ATOM     68  C   UNL A   1      41.359  31.939  36.590  1.00  0.00     0.040 A 
ATOM     69  C   UNL A   1      42.808  33.329  35.265  1.00  0.00     0.040 A 
ATOM     70  F   UNL A   1      43.596  32.568  33.190  1.00  0.00    -0.206 F 
ATOM     71  C   UNL A   1      42.051  33.136  36.418  1.00  0.00     0.006 A 
ENDBRANCH  50  64
BRANCH  51  72
ATOM     72  C   UNL A   1      42.659  24.078  27.371  1.00  0.00     0.057 A 
ATOM     73  C   UNL A   1      42.151  22.787  27.555  1.00  0.00     0.134 A 
ATOM     74  C   UNL A   1      43.293  24.352  26.152  1.00  0.00     0.134 A 
ATOM     75  F   UNL A   1      41.546  22.457  28.706  1.00  0.00    -0.206 F 
ATOM     76  C   UNL A   1      42.297  21.797  26.582  1.00  0.00     0.040 A 
ATOM     77  C   UNL A   1      43.418  23.382  25.158  1.00  0.00     0.040 A 
ATOM     78  F   UNL A   1      43.792  25.572  25.907  1.00  0.00    -0.206 F 
ATOM     79  C   UNL A   1      42.929  22.095  25.377  1.00  0.00     0.006 A 
ENDBRANCH  51  72
BRANCH  63  80
ATOM     80  C   UNL A   1      46.540  25.547  32.951  1.00  0.00     0.057 A 
ATOM     81  C   UNL A   1      47.833  25.908  32.546  1.00  0.00     0.134 A 
ATOM     82  C   UNL A   1      46.426  24.539  33.917  1.00  0.00     0.134 A 
ATOM     83  F   UNL A   1      48.013  26.858  31.615  1.00  0.00    -0.206 F 
ATOM     84  C   UNL A   1      48.963  25.260  33.046  1.00  0.00     0.040 A 
ATOM     85  C   UNL A   1      47.550  23.907  34.449  1.00  0.00     0.040 A 
ATOM     86  F   UNL A   1      45.220  24.152  34.359  1.00  0.00    -0.206 F 
ATOM     87  C   UNL A   1      48.823  24.259  34.005  1.00  0.00     0.006 A 
ENDBRANCH  63  80
ENDBRANCH  37  38
ENDBRANCH  29  32
ENDBRANCH  27  28
ENDBRANCH  26  27
ENDBRANCH   1  26
TORSDOF 14
ENDMDL
MODEL 2
REMARK VINA RESULT:     -12.0      3.126      8.030
REMARK SMILES C[C@@H](C(=O)NCCCCNC(=O)c1ccc(-c2c3nc(c(-c4c(F)cccc4F)c4ccc([nH]4)c(-c4c(F)cccc4F)c4nc(c(-c5c(F)cccc5F)c5ccc2[nH]5)C=C4)C=C3)cc1)S(=O)(=O)N[C@@]12C[C@@H]3C[C@@](C)(C[C@@](C)(C3)C1)C2
REMARK SMILES IDX 7 1 6 2 5 3 3 4 4 5 2 7 1 8 67 9 68 10 69 11 70 12 71 14
REMARK SMILES IDX 72 15 81 16 82 17 73 18 78 19 75 20 80 21 74 22 77 23 79 24
REMARK SMILES IDX 76 25 8 26 9 27 10 28 11 29 12 31 13 32 14 33 66 34 15 35
REMARK SMILES IDX 65 36 16 37 17 38 18 39 59 40 19 41 64 42 58 43 60 44 20 45
REMARK SMILES IDX 63 46 57 47 56 48 21 50 47 51 30 52 46 53 31 54 34 55 45 56
REMARK SMILES IDX 61 57 32 58 33 59 44 61 62 62 35 63 22 64 23 65 28 66 24 67
REMARK SMILES IDX 25 68 27 69 29 70 26 71 48 72 49 73 54 74 50 75 51 76 53 77
REMARK SMILES IDX 55 78 52 79 36 80 37 81 42 82 38 83 39 84 41 85 43 86 40 87
REMARK H PARENT 5 6 70 13 10 30 60 49 34 60
REMARK Flexibility Score: inf
ROOT
ATOM      1  C   UNL A   1      35.961  20.275  25.071  1.00  0.00     0.023 C 
ENDROOT
BRANCH   1   2
ATOM      2  C   UNL A   1      35.084  21.469  24.676  1.00  0.00     0.116 C 
BRANCH   2   3
ATOM      3  N   UNL A   1      33.687  21.076  24.676  1.00  0.00    -0.355 N 
ATOM      4  C   UNL A   1      32.657  21.441  25.504  1.00  0.00     0.239 C 
ATOM      5  O   UNL A   1      31.645  20.740  25.437  1.00  0.00    -0.274 OA
ATOM      6  H   UNL A   1      33.439  20.442  23.964  1.00  0.00     0.163 HD
BRANCH   4   7
ATOM      7  C   UNL A   1      32.780  22.666  26.390  1.00  0.00     0.209 C 
ATOM      8  C   UNL A   1      33.345  22.452  27.789  1.00  0.00     0.037 C 
BRANCH   7   9
ATOM      9  S   UNL A   1      31.216  23.614  26.416  1.00  0.00     0.223 S 
ATOM     10  O   UNL A   1      30.708  23.663  25.062  1.00  0.00    -0.212 OA
ATOM     11  O   UNL A   1      30.367  23.036  27.444  1.00  0.00    -0.212 OA
BRANCH   9  12
ATOM     12  N   UNL A   1      31.474  25.191  26.907  1.00  0.00    -0.208 NA
ATOM     13  H   UNL A   1      32.170  25.120  27.649  1.00  0.00     0.141 HD
BRANCH  12  14
ATOM     14  C   UNL A   1      31.917  26.338  26.086  1.00  0.00     0.034 C 
ATOM     15  C   UNL A   1      33.200  26.052  25.288  1.00  0.00     0.027 C 
ATOM     16  C   UNL A   1      30.845  26.691  25.011  1.00  0.00     0.030 C 
ATOM     17  C   UNL A   1      32.006  27.572  27.008  1.00  0.00     0.030 C 
ATOM     18  C   UNL A   1      33.693  27.309  24.571  1.00  0.00    -0.008 C 
ATOM     19  C   UNL A   1      31.287  27.949  24.187  1.00  0.00    -0.030 C 
ATOM     20  C   UNL A   1      32.512  28.805  26.245  1.00  0.00    -0.030 C 
ATOM     21  C   UNL A   1      32.654  27.681  23.514  1.00  0.00     0.010 C 
ATOM     22  C   UNL A   1      33.860  28.463  25.573  1.00  0.00     0.010 C 
ATOM     23  C   UNL A   1      31.473  29.145  25.155  1.00  0.00     0.013 C 
ATOM     24  C   UNL A   1      30.252  28.294  23.108  1.00  0.00     0.011 C 
ATOM     25  C   UNL A   1      32.684  29.979  27.216  1.00  0.00     0.011 C 
ENDBRANCH  12  14
ENDBRANCH   9  12
ENDBRANCH   7   9
ENDBRANCH   4   7
ENDBRANCH   2   3
ENDBRANCH   1   2
BRANCH   1  26
ATOM     26  C   UNL A   1      37.410  20.390  24.582  1.00  0.00     0.023 C 
BRANCH  26  27
ATOM     27  C   UNL A   1      38.443  20.565  25.690  1.00  0.00     0.116 C 
BRANCH  27  28
ATOM     28  N   UNL A   1      39.502  19.572  25.634  1.00  0.00    -0.352 N 
ATOM     29  C   UNL A   1      40.826  19.701  25.968  1.00  0.00     0.251 C 
ATOM     30  H   UNL A   1      39.232  18.680  25.313  1.00  0.00     0.163 HD
ATOM     31  O   UNL A   1      41.612  18.793  25.717  1.00  0.00    -0.269 OA
BRANCH  29  32
ATOM     32  C   UNL A   1      41.312  20.951  26.589  1.00  0.00     0.039 A 
ATOM     33  C   UNL A   1      41.842  21.941  25.760  1.00  0.00     0.014 A 
ATOM     34  C   UNL A   1      41.245  21.152  27.971  1.00  0.00     0.014 A 
ATOM     35  C   UNL A   1      42.256  23.152  26.312  1.00  0.00     0.010 A 
ATOM     36  C   UNL A   1      41.585  22.391  28.510  1.00  0.00     0.010 A 
ATOM     37  C   UNL A   1      42.096  23.402  27.686  1.00  0.00    -0.014 A 
BRANCH  37  38
ATOM     38  C   UNL A   1      42.443  24.732  28.247  1.00  0.00     0.031 A 
ATOM     39  C   UNL A   1      43.859  25.059  28.636  1.00  0.00     0.074 A 
ATOM     40  C   UNL A   1      41.467  25.644  28.417  1.00  0.00     0.049 A 
ATOM     41  N   UNL A   1      44.345  26.181  29.103  1.00  0.00    -0.248 NA
ATOM     42  C   UNL A   1      44.853  23.982  28.509  1.00  0.00     0.031 C 
ATOM     43  C   UNL A   1      40.046  25.422  28.141  1.00  0.00     0.029 A 
ATOM     44  N   UNL A   1      41.520  26.944  28.855  1.00  0.00    -0.354 N 
ATOM     45  C   UNL A   1      45.700  25.950  29.310  1.00  0.00     0.074 A 
ATOM     46  C   UNL A   1      45.944  24.561  28.989  1.00  0.00     0.031 C 
ATOM     47  C   UNL A   1      39.368  26.556  28.378  1.00  0.00     0.029 A 
ATOM     48  C   UNL A   1      40.299  27.573  28.856  1.00  0.00     0.049 A 
ATOM     49  H   UNL A   1      42.354  27.383  29.140  1.00  0.00     0.167 HD
ATOM     50  C   UNL A   1      46.658  26.824  29.702  1.00  0.00     0.037 A 
ATOM     51  C   UNL A   1      39.966  28.831  29.202  1.00  0.00     0.037 A 
ATOM     52  C   UNL A   1      46.410  28.207  30.021  1.00  0.00     0.049 A 
ATOM     53  C   UNL A   1      41.049  29.777  29.639  1.00  0.00     0.074 A 
ATOM     54  C   UNL A   1      47.319  29.182  30.395  1.00  0.00     0.029 A 
ATOM     55  N   UNL A   1      45.162  28.811  30.005  1.00  0.00    -0.354 N 
ATOM     56  N   UNL A   1      42.337  29.563  29.758  1.00  0.00    -0.248 NA
ATOM     57  C   UNL A   1      40.633  31.145  29.977  1.00  0.00     0.031 C 
ATOM     58  C   UNL A   1      46.614  30.362  30.653  1.00  0.00     0.029 A 
ATOM     59  C   UNL A   1      45.275  30.140  30.383  1.00  0.00     0.049 A 
ATOM     60  H   UNL A   1      44.320  28.362  29.763  1.00  0.00     0.167 HD
ATOM     61  C   UNL A   1      42.887  30.773  30.164  1.00  0.00     0.074 A 
ATOM     62  C   UNL A   1      41.796  31.722  30.234  1.00  0.00     0.031 C 
ATOM     63  C   UNL A   1      44.177  31.070  30.457  1.00  0.00     0.037 A 
BRANCH  50  64
ATOM     64  C   UNL A   1      48.068  26.315  29.791  1.00  0.00     0.057 A 
ATOM     65  C   UNL A   1      48.949  26.396  28.704  1.00  0.00     0.134 A 
ATOM     66  C   UNL A   1      48.569  25.786  30.987  1.00  0.00     0.134 A 
ATOM     67  F   UNL A   1      48.531  26.880  27.524  1.00  0.00    -0.206 F 
ATOM     68  C   UNL A   1      50.270  25.954  28.798  1.00  0.00     0.040 A 
ATOM     69  C   UNL A   1      49.897  25.367  31.101  1.00  0.00     0.040 A 
ATOM     70  F   UNL A   1      47.783  25.683  32.070  1.00  0.00    -0.206 F 
ATOM     71  C   UNL A   1      50.750  25.446  30.003  1.00  0.00     0.006 A 
ENDBRANCH  50  64
BRANCH  51  72
ATOM     72  C   UNL A   1      38.548  29.273  29.141  1.00  0.00     0.057 A 
ATOM     73  C   UNL A   1      37.980  29.736  27.949  1.00  0.00     0.134 A 
ATOM     74  C   UNL A   1      37.737  29.272  30.282  1.00  0.00     0.134 A 
ATOM     75  F   UNL A   1      38.709  29.777  26.823  1.00  0.00    -0.206 F 
ATOM     76  C   UNL A   1      36.668  30.212  27.899  1.00  0.00     0.040 A 
ATOM     77  C   UNL A   1      36.415  29.714  30.241  1.00  0.00     0.040 A 
ATOM     78  F   UNL A   1      38.217  28.830  31.454  1.00  0.00    -0.206 F 
ATOM     79  C   UNL A   1      35.880  30.197  29.049  1.00  0.00     0.006 A 
ENDBRANCH  51  72
BRANCH  63  80
ATOM     80  C   UNL A   1      44.470  32.488  30.862  1.00  0.00     0.057 A 
ATOM     81  C   UNL A   1      44.776  33.480  29.919  1.00  0.00     0.134 A 
ATOM     82  C   UNL A   1      44.448  32.866  32.210  1.00  0.00     0.134 A 
ATOM     83  F   UNL A   1      44.826  33.182  28.611  1.00  0.00    -0.206 F 
ATOM     84  C   UNL A   1      45.095  34.782  30.306  1.00  0.00     0.040 A 
ATOM     85  C   UNL A   1      44.733  34.173  32.607  1.00  0.00     0.040 A 
ATOM     86  F   UNL A   1      44.151  31.971  33.165  1.00  0.00    -0.206 F 
ATOM     87  C   UNL A   1      45.070  35.133  31.654  1.00  0.00     0.006 A 
ENDBRANCH  63  80
ENDBRANCH  37  38
ENDBRANCH  29  32
ENDBRANCH  27  28
ENDBRANCH  26  27
ENDBRANCH   1  26
TORSDOF 14
ENDMDL
MODEL 3
REMARK VINA RESULT:     -11.8      2.924      7.771
REMARK SMILES C[C@@H](C(=O)NCCCCNC(=O)c1ccc(-c2c3nc(c(-c4c(F)cccc4F)c4ccc([nH]4)c(-c4c(F)cccc4F)c4nc(c(-c5c(F)cccc5F)c5ccc2[nH]5)C=C4)C=C3)cc1)S(=O)(=O)N[C@@]12C[C@@H]3C[C@@](C)(C[C@@](C)(C3)C1)C2
REMARK SMILES IDX 7 1 6 2 5 3 3 4 4 5 2 7 1 8 67 9 68 10 69 11 70 12 71 14
REMARK SMILES IDX 72 15 81 16 82 17 73 18 78 19 75 20 80 21 74 22 77 23 79 24
REMARK SMILES IDX 76 25 8 26 9 27 10 28 11 29 12 31 13 32 14 33 66 34 15 35
REMARK SMILES IDX 65 36 16 37 17 38 18 39 59 40 19 41 64 42 58 43 60 44 20 45
REMARK SMILES IDX 63 46 57 47 56 48 21 50 47 51 30 52 46 53 31 54 34 55 45 56
REMARK SMILES IDX 61 57 32 58 33 59 44 61 62 62 35 63 22 64 23 65 28 66 24 67
REMARK SMILES IDX 25 68 27 69 29 70 26 71 48 72 49 73 54 74 50 75 51 76 53 77
REMARK SMILES IDX 55 78 52 79 36 80 37 81 42 82 38 83 39 84 41 85 43 86 40 87
REMARK H PARENT 5 6 70 13 10 30 60 49 34 60
REMARK Flexibility Score: inf
ROOT
ATOM      1  C   UNL A   1      35.453  22.313  24.059  1.00  0.00     0.023 C 
ENDROOT
BRANCH   1   2
ATOM      2  C   UNL A   1      34.081  22.807  23.584  1.00  0.00     0.116 C 
BRANCH   2   3
ATOM      3  N   UNL A   1      33.048  21.887  24.023  1.00  0.00    -0.355 N 
ATOM      4  C   UNL A   1      32.443  21.741  25.244  1.00  0.00     0.239 C 
ATOM      5  O   UNL A   1      31.801  20.701  25.400  1.00  0.00    -0.274 OA
ATOM      6  H   UNL A   1      32.730  21.265  23.328  1.00  0.00     0.163 HD
BRANCH   4   7
ATOM      7  C   UNL A   1      32.541  22.838  26.288  1.00  0.00     0.209 C 
ATOM      8  C   UNL A   1      32.930  22.415  27.698  1.00  0.00     0.037 C 
BRANCH   7   9
ATOM      9  S   UNL A   1      31.046  23.892  26.271  1.00  0.00     0.223 S 
ATOM     10  O   UNL A   1      30.597  23.997  24.899  1.00  0.00    -0.212 OA
ATOM     11  O   UNL A   1      30.121  23.359  27.255  1.00  0.00    -0.212 OA
BRANCH   9  12
ATOM     12  N   UNL A   1      31.393  25.439  26.800  1.00  0.00    -0.208 NA
ATOM     13  H   UNL A   1      32.088  25.312  27.535  1.00  0.00     0.141 HD
BRANCH  12  14
ATOM     14  C   UNL A   1      31.895  26.581  26.004  1.00  0.00     0.034 C 
ATOM     15  C   UNL A   1      33.084  26.214  25.102  1.00  0.00     0.027 C 
ATOM     16  C   UNL A   1      30.794  27.098  25.030  1.00  0.00     0.030 C 
ATOM     17  C   UNL A   1      32.173  27.747  26.976  1.00  0.00     0.030 C 
ATOM     18  C   UNL A   1      33.653  27.454  24.412  1.00  0.00    -0.008 C 
ATOM     19  C   UNL A   1      31.305  28.350  24.237  1.00  0.00    -0.030 C 
ATOM     20  C   UNL A   1      32.749  28.964  26.239  1.00  0.00    -0.030 C 
ATOM     21  C   UNL A   1      32.588  27.986  23.454  1.00  0.00     0.010 C 
ATOM     22  C   UNL A   1      34.006  28.528  25.454  1.00  0.00     0.010 C 
ATOM     23  C   UNL A   1      31.679  29.466  25.246  1.00  0.00     0.013 C 
ATOM     24  C   UNL A   1      30.239  28.855  23.256  1.00  0.00     0.011 C 
ATOM     25  C   UNL A   1      33.107  30.059  27.250  1.00  0.00     0.011 C 
ENDBRANCH  12  14
ENDBRANCH   9  12
ENDBRANCH   7   9
ENDBRANCH   4   7
ENDBRANCH   2   3
ENDBRANCH   1   2
BRANCH   1  26
ATOM     26  C   UNL A   1      36.554  23.377  23.962  1.00  0.00     0.023 C 
BRANCH  26  27
ATOM     27  C   UNL A   1      37.254  23.690  25.281  1.00  0.00     0.116 C 
BRANCH  27  28
ATOM     28  N   UNL A   1      38.385  22.816  25.539  1.00  0.00    -0.352 N 
ATOM     29  C   UNL A   1      39.544  23.083  26.223  1.00  0.00     0.251 C 
ATOM     30  H   UNL A   1      38.311  21.905  25.172  1.00  0.00     0.163 HD
ATOM     31  O   UNL A   1      40.460  22.266  26.217  1.00  0.00    -0.269 OA
BRANCH  29  32
ATOM     32  C   UNL A   1      39.702  24.370  26.932  1.00  0.00     0.039 A 
ATOM     33  C   UNL A   1      39.134  24.503  28.199  1.00  0.00     0.014 A 
ATOM     34  C   UNL A   1      40.404  25.436  26.360  1.00  0.00     0.014 A 
ATOM     35  C   UNL A   1      39.315  25.686  28.914  1.00  0.00     0.010 A 
ATOM     36  C   UNL A   1      40.650  26.585  27.106  1.00  0.00     0.010 A 
ATOM     37  C   UNL A   1      40.106  26.723  28.390  1.00  0.00    -0.014 A 
BRANCH  37  38
ATOM     38  C   UNL A   1      40.379  27.936  29.201  1.00  0.00     0.031 A 
ATOM     39  C   UNL A   1      39.394  29.072  29.244  1.00  0.00     0.074 A 
ATOM     40  C   UNL A   1      41.532  28.013  29.893  1.00  0.00     0.049 A 
ATOM     41  N   UNL A   1      39.453  30.186  29.930  1.00  0.00    -0.248 NA
ATOM     42  C   UNL A   1      38.202  28.957  28.391  1.00  0.00     0.031 C 
ATOM     43  C   UNL A   1      42.596  27.007  29.878  1.00  0.00     0.029 A 
ATOM     44  N   UNL A   1      42.001  28.977  30.750  1.00  0.00    -0.354 N 
ATOM     45  C   UNL A   1      38.303  30.894  29.602  1.00  0.00     0.074 A 
ATOM     46  C   UNL A   1      37.602  30.119  28.601  1.00  0.00     0.031 C 
ATOM     47  C   UNL A   1      43.574  27.386  30.715  1.00  0.00     0.029 A 
ATOM     48  C   UNL A   1      43.224  28.676  31.298  1.00  0.00     0.049 A 
ATOM     49  H   UNL A   1      41.507  29.805  30.953  1.00  0.00     0.167 HD
ATOM     50  C   UNL A   1      37.857  32.067  30.111  1.00  0.00     0.037 A 
ATOM     51  C   UNL A   1      43.979  29.364  32.175  1.00  0.00     0.037 A 
ATOM     52  C   UNL A   1      38.558  32.836  31.107  1.00  0.00     0.049 A 
ATOM     53  C   UNL A   1      43.462  30.666  32.719  1.00  0.00     0.074 A 
ATOM     54  C   UNL A   1      38.174  34.021  31.711  1.00  0.00     0.029 A 
ATOM     55  N   UNL A   1      39.792  32.498  31.644  1.00  0.00    -0.354 N 
ATOM     56  N   UNL A   1      42.337  31.284  32.455  1.00  0.00    -0.248 NA
ATOM     57  C   UNL A   1      44.314  31.358  33.695  1.00  0.00     0.031 C 
ATOM     58  C   UNL A   1      39.196  34.423  32.577  1.00  0.00     0.029 A 
ATOM     59  C   UNL A   1      40.191  33.461  32.557  1.00  0.00     0.049 A 
ATOM     60  H   UNL A   1      40.308  31.693  31.410  1.00  0.00     0.167 HD
ATOM     61  C   UNL A   1      42.337  32.427  33.246  1.00  0.00     0.074 A 
ATOM     62  C   UNL A   1      43.557  32.394  34.024  1.00  0.00     0.031 C 
ATOM     63  C   UNL A   1      41.414  33.418  33.317  1.00  0.00     0.037 A 
BRANCH  50  64
ATOM     64  C   UNL A   1      36.538  32.584  29.612  1.00  0.00     0.057 A 
ATOM     65  C   UNL A   1      36.453  33.420  28.490  1.00  0.00     0.134 A 
ATOM     66  C   UNL A   1      35.336  32.202  30.222  1.00  0.00     0.134 A 
ATOM     67  F   UNL A   1      37.566  33.835  27.865  1.00  0.00    -0.206 F 
ATOM     68  C   UNL A   1      35.224  33.872  28.005  1.00  0.00     0.040 A 
ATOM     69  C   UNL A   1      34.100  32.624  29.728  1.00  0.00     0.040 A 
ATOM     70  F   UNL A   1      35.343  31.398  31.296  1.00  0.00    -0.206 F 
ATOM     71  C   UNL A   1      34.042  33.465  28.620  1.00  0.00     0.006 A 
ENDBRANCH  50  64
BRANCH  51  72
ATOM     72  C   UNL A   1      45.300  28.832  32.604  1.00  0.00     0.057 A 
ATOM     73  C   UNL A   1      45.428  28.032  33.745  1.00  0.00     0.134 A 
ATOM     74  C   UNL A   1      46.469  29.136  31.896  1.00  0.00     0.134 A 
ATOM     75  F   UNL A   1      44.348  27.718  34.476  1.00  0.00    -0.206 F 
ATOM     76  C   UNL A   1      46.674  27.582  34.187  1.00  0.00     0.040 A 
ATOM     77  C   UNL A   1      47.717  28.666  32.307  1.00  0.00     0.040 A 
ATOM     78  F   UNL A   1      46.414  29.887  30.787  1.00  0.00    -0.206 F 
ATOM     79  C   UNL A   1      47.823  27.896  33.464  1.00  0.00     0.006 A 
ENDBRANCH  51  72
BRANCH  63  80
ATOM     80  C   UNL A   1      41.690  34.532  34.288  1.00  0.00     0.057 A 
ATOM     81  C   UNL A   1      41.354  34.433  35.645  1.00  0.00     0.134 A 
ATOM     82  C   UNL A   1      42.297  35.719  33.860  1.00  0.00     0.134 A 
ATOM     83  F   UNL A   1      40.759  33.327  36.119  1.00  0.00    -0.206 F 
ATOM     84  C   UNL A   1      41.568  35.490  36.530  1.00  0.00     0.040 A 
ATOM     85  C   UNL A   1      42.547  36.771  34.742  1.00  0.00     0.040 A 
ATOM     86  F   UNL A   1      42.656  35.878  32.577  1.00  0.00    -0.206 F 
ATOM     87  C   UNL A   1      42.171  36.663  36.080  1.00  0.00     0.006 A 
ENDBRANCH  63  80
ENDBRANCH  37  38
ENDBRANCH  29  32
ENDBRANCH  27  28
ENDBRANCH  26  27
ENDBRANCH   1  26
TORSDOF 14
ENDMDL
