MODEL 1
REMARK VINA RESULT:     -12.8      0.000      0.000
REMARK SMILES Cc1noc(C)c1CCC(=O)N1CCC2(CC1)NC(=O)C[C@@H]2C(=O)NCCCCNC(=O)c1ccc(-c2c3nc(c(-c4c(F)cccc4F)c4ccc([nH]4)c(-c4c(F)cccc4F)c4nc(c(-c5c(F)cccc5F)c5ccc2[nH]5)C=C4)C=C3)cc1
REMARK SMILES IDX 27 1 26 2 25 3 23 4 24 5 22 7 10 8 11 9 12 10 13 11 17 12
REMARK SMILES IDX 14 13 16 14 15 15 18 16 19 17 21 19 20 20 9 21 8 22 7 23
REMARK SMILES IDX 1 24 2 25 3 26 4 27 5 28 6 29 28 30 29 31 30 32 31 33 32 35
REMARK SMILES IDX 33 36 34 37 86 38 35 39 85 40 36 41 37 42 38 43 79 44 39 45
REMARK SMILES IDX 84 46 78 47 80 48 40 49 83 50 77 51 76 52 41 54 67 55 50 56
REMARK SMILES IDX 66 57 51 58 54 59 65 60 81 61 52 62 53 63 64 65 82 66 55 67
REMARK SMILES IDX 42 68 43 69 48 70 44 71 45 72 47 73 49 74 46 75 68 76 69 77
REMARK SMILES IDX 74 78 70 79 71 80 73 81 75 82 72 83 56 84 57 85 62 86 58 87
REMARK SMILES IDX 59 88 61 89 63 90 60 91
REMARK H PARENT 25 6 18 18 30 34 80 53 54 64
REMARK Flexibility Score: inf
ROOT
ATOM      1  C   UNL A   1      36.697  22.047  25.103  1.00  0.00     0.023 C 
ENDROOT
BRANCH   1   2
ATOM      2  C   UNL A   1      36.481  22.713  23.751  1.00  0.00     0.116 C 
BRANCH   2   3
ATOM      3  N   UNL A   1      35.189  22.438  23.164  1.00  0.00    -0.356 N 
ATOM      4  C   UNL A   1      34.235  23.413  23.297  1.00  0.00     0.226 C 
ATOM      5  O   UNL A   1      34.409  24.509  22.761  1.00  0.00    -0.275 OA
ATOM      6  H   UNL A   1      35.004  21.592  22.694  1.00  0.00     0.163 HD
BRANCH   4   7
ATOM      7  C   UNL A   1      32.895  23.053  23.927  1.00  0.00     0.113 C 
ATOM      8  C   UNL A   1      32.649  27.616  25.884  1.00  0.00     0.222 C 
ATOM      9  O   UNL A   1      33.761  28.133  25.740  1.00  0.00    -0.275 OA
ATOM     10  N   UNL A   1      32.492  26.224  25.986  1.00  0.00    -0.343 N 
ATOM     11  C   UNL A   1      33.725  25.474  26.053  1.00  0.00     0.122 C 
ATOM     12  C   UNL A   1      31.371  25.558  25.349  1.00  0.00     0.122 C 
ATOM     13  C   UNL A   1      33.558  23.990  26.351  1.00  0.00     0.051 C 
ATOM     14  C   UNL A   1      31.229  24.069  25.600  1.00  0.00     0.051 C 
ATOM     15  C   UNL A   1      32.554  23.290  25.434  1.00  0.00     0.055 C 
ATOM     16  N   UNL A   1      32.299  21.951  25.931  1.00  0.00    -0.350 N 
ATOM     17  C   UNL A   1      32.190  20.991  24.962  1.00  0.00     0.221 C 
ATOM     18  H   UNL A   1      32.213  21.748  26.891  1.00  0.00     0.164 HD
ATOM     19  C   UNL A   1      32.643  21.559  23.656  1.00  0.00     0.116 C 
ATOM     20  O   UNL A   1      31.793  19.858  25.154  1.00  0.00    -0.275 OA
BRANCH   8  21
ATOM     21  C   UNL A   1      31.423  28.503  26.004  1.00  0.00     0.105 C 
BRANCH  21  22
ATOM     22  C   UNL A   1      31.357  29.646  24.992  1.00  0.00     0.051 C 
BRANCH  22  23
ATOM     23  C   UNL A   1      30.647  29.323  23.721  1.00  0.00     0.018 A 
ATOM     24  C   UNL A   1      28.681  31.069  23.727  1.00  0.00     0.071 C 
ATOM     25  C   UNL A   1      29.468  29.930  23.190  1.00  0.00     0.084 A 
ATOM     26  N   UNL A   1      29.156  29.423  21.992  1.00  0.00    -0.085 NA
ATOM     27  O   UNL A   1      30.124  28.485  21.711  1.00  0.00    -0.361 OA
ATOM     28  C   UNL A   1      31.022  28.433  22.729  1.00  0.00     0.137 A 
ATOM     29  C   UNL A   1      32.196  27.564  22.501  1.00  0.00     0.091 C 
ENDBRANCH  22  23
ENDBRANCH  21  22
ENDBRANCH   8  21
ENDBRANCH   4   7
ENDBRANCH   2   3
ENDBRANCH   1   2
BRANCH   1  30
ATOM     30  C   UNL A   1      37.654  20.862  24.999  1.00  0.00     0.023 C 
BRANCH  30  31
ATOM     31  C   UNL A   1      38.947  20.988  25.804  1.00  0.00     0.116 C 
BRANCH  31  32
ATOM     32  N   UNL A   1      39.849  19.855  25.686  1.00  0.00    -0.352 N 
ATOM     33  C   UNL A   1      41.181  19.770  26.030  1.00  0.00     0.251 C 
ATOM     34  H   UNL A   1      39.455  19.035  25.308  1.00  0.00     0.163 HD
ATOM     35  O   UNL A   1      41.825  18.748  25.820  1.00  0.00    -0.269 OA
BRANCH  33  36
ATOM     36  C   UNL A   1      41.852  20.963  26.589  1.00  0.00     0.039 A 
ATOM     37  C   UNL A   1      42.362  21.917  25.709  1.00  0.00     0.014 A 
ATOM     38  C   UNL A   1      41.869  21.192  27.965  1.00  0.00     0.014 A 
ATOM     39  C   UNL A   1      42.771  23.156  26.205  1.00  0.00     0.010 A 
ATOM     40  C   UNL A   1      42.156  22.466  28.440  1.00  0.00     0.010 A 
ATOM     41  C   UNL A   1      42.603  23.467  27.565  1.00  0.00    -0.014 A 
BRANCH  41  42
ATOM     42  C   UNL A   1      42.869  24.836  28.081  1.00  0.00     0.031 A 
ATOM     43  C   UNL A   1      44.263  25.237  28.478  1.00  0.00     0.074 A 
ATOM     44  C   UNL A   1      41.845  25.695  28.267  1.00  0.00     0.049 A 
ATOM     45  N   UNL A   1      44.683  26.359  29.006  1.00  0.00    -0.248 NA
ATOM     46  C   UNL A   1      45.321  24.231  28.292  1.00  0.00     0.031 C 
ATOM     47  C   UNL A   1      40.434  25.408  27.997  1.00  0.00     0.029 A 
ATOM     48  N   UNL A   1      41.831  26.985  28.738  1.00  0.00    -0.354 N 
ATOM     49  C   UNL A   1      46.042  26.184  29.232  1.00  0.00     0.074 A 
ATOM     50  C   UNL A   1      46.363  24.828  28.849  1.00  0.00     0.031 C 
ATOM     51  C   UNL A   1      39.700  26.498  28.270  1.00  0.00     0.029 A 
ATOM     52  C   UNL A   1      40.578  27.549  28.777  1.00  0.00     0.049 A 
ATOM     53  H   UNL A   1      42.645  27.463  29.022  1.00  0.00     0.167 HD
ATOM     54  C   UNL A   1      46.949  27.080  29.688  1.00  0.00     0.037 A 
ATOM     55  C   UNL A   1      40.179  28.771  29.176  1.00  0.00     0.037 A 
ATOM     56  C   UNL A   1      46.636  28.440  30.035  1.00  0.00     0.049 A 
ATOM     57  C   UNL A   1      41.207  29.755  29.662  1.00  0.00     0.074 A 
ATOM     58  C   UNL A   1      47.495  29.448  30.432  1.00  0.00     0.029 A 
ATOM     59  N   UNL A   1      45.358  28.981  30.029  1.00  0.00    -0.354 N 
ATOM     60  N   UNL A   1      42.503  29.603  29.787  1.00  0.00    -0.248 NA
ATOM     61  C   UNL A   1      40.719  31.085  30.057  1.00  0.00     0.031 C 
ATOM     62  C   UNL A   1      46.734  30.586  30.713  1.00  0.00     0.029 A 
ATOM     63  C   UNL A   1      45.405  30.304  30.439  1.00  0.00     0.049 A 
ATOM     64  H   UNL A   1      44.541  28.498  29.771  1.00  0.00     0.167 HD
ATOM     65  C   UNL A   1      42.987  30.821  30.246  1.00  0.00     0.074 A 
ATOM     66  C   UNL A   1      41.848  31.707  30.364  1.00  0.00     0.031 C 
ATOM     67  C   UNL A   1      44.262  31.174  30.545  1.00  0.00     0.037 A 
BRANCH  54  68
ATOM     68  C   UNL A   1      48.370  26.612  29.827  1.00  0.00     0.057 A 
ATOM     69  C   UNL A   1      48.831  25.981  30.991  1.00  0.00     0.134 A 
ATOM     70  C   UNL A   1      49.283  26.777  28.778  1.00  0.00     0.134 A 
ATOM     71  F   UNL A   1      48.011  25.804  32.039  1.00  0.00    -0.206 F 
ATOM     72  C   UNL A   1      50.157  25.566  31.120  1.00  0.00     0.040 A 
ATOM     73  C   UNL A   1      50.603  26.337  28.884  1.00  0.00     0.040 A 
ATOM     74  F   UNL A   1      48.908  27.367  27.633  1.00  0.00    -0.206 F 
ATOM     75  C   UNL A   1      51.046  25.737  30.061  1.00  0.00     0.006 A 
ENDBRANCH  54  68
BRANCH  55  76
ATOM     76  C   UNL A   1      38.742  29.145  29.111  1.00  0.00     0.057 A 
ATOM     77  C   UNL A   1      38.167  29.605  27.921  1.00  0.00     0.134 A 
ATOM     78  C   UNL A   1      37.912  29.063  30.236  1.00  0.00     0.134 A 
ATOM     79  F   UNL A   1      38.913  29.724  26.813  1.00  0.00    -0.206 F 
ATOM     80  C   UNL A   1      36.826  29.989  27.854  1.00  0.00     0.040 A 
ATOM     81  C   UNL A   1      36.563  29.418  30.179  1.00  0.00     0.040 A 
ATOM     82  F   UNL A   1      38.399  28.622  31.406  1.00  0.00    -0.206 F 
ATOM     83  C   UNL A   1      36.019  29.891  28.986  1.00  0.00     0.006 A 
ENDBRANCH  55  76
BRANCH  67  84
ATOM     84  C   UNL A   1      44.498  32.586  30.994  1.00  0.00     0.057 A 
ATOM     85  C   UNL A   1      44.506  32.942  32.349  1.00  0.00     0.134 A 
ATOM     86  C   UNL A   1      44.766  33.596  30.059  1.00  0.00     0.134 A 
ATOM     87  F   UNL A   1      44.246  32.027  33.294  1.00  0.00    -0.206 F 
ATOM     88  C   UNL A   1      44.751  34.254  32.757  1.00  0.00     0.040 A 
ATOM     89  C   UNL A   1      45.040  34.905  30.456  1.00  0.00     0.040 A 
ATOM     90  F   UNL A   1      44.782  33.320  28.746  1.00  0.00    -0.206 F 
ATOM     91  C   UNL A   1      45.026  35.238  31.808  1.00  0.00     0.006 A 
ENDBRANCH  67  84
ENDBRANCH  41  42
ENDBRANCH  33  36
ENDBRANCH  31  32
ENDBRANCH  30  31
ENDBRANCH   1  30
TORSDOF 14
ENDMDL
MODEL 2
REMARK VINA RESULT:     -12.6      1.457      6.160
REMARK SMILES Cc1noc(C)c1CCC(=O)N1CCC2(CC1)NC(=O)C[C@@H]2C(=O)NCCCCNC(=O)c1ccc(-c2c3nc(c(-c4c(F)cccc4F)c4ccc([nH]4)c(-c4c(F)cccc4F)c4nc(c(-c5c(F)cccc5F)c5ccc2[nH]5)C=C4)C=C3)cc1
REMARK SMILES IDX 27 1 26 2 25 3 23 4 24 5 22 7 10 8 11 9 12 10 13 11 17 12
REMARK SMILES IDX 14 13 16 14 15 15 18 16 19 17 21 19 20 20 9 21 8 22 7 23
REMARK SMILES IDX 1 24 2 25 3 26 4 27 5 28 6 29 28 30 29 31 30 32 31 33 32 35
REMARK SMILES IDX 33 36 34 37 86 38 35 39 85 40 36 41 37 42 38 43 79 44 39 45
REMARK SMILES IDX 84 46 78 47 80 48 40 49 83 50 77 51 76 52 41 54 67 55 50 56
REMARK SMILES IDX 66 57 51 58 54 59 65 60 81 61 52 62 53 63 64 65 82 66 55 67
REMARK SMILES IDX 42 68 43 69 48 70 44 71 45 72 47 73 49 74 46 75 68 76 69 77
REMARK SMILES IDX 74 78 70 79 71 80 73 81 75 82 72 83 56 84 57 85 62 86 58 87
REMARK SMILES IDX 59 88 61 89 63 90 60 91
REMARK H PARENT 25 6 18 18 30 34 80 53 54 64
REMARK Flexibility Score: inf
ROOT
ATOM      1  C   UNL A   1      37.184  22.431  25.286  1.00  0.00     0.023 C 
ENDROOT
BRANCH   1   2
ATOM      2  C   UNL A   1      36.637  22.933  23.957  1.00  0.00     0.116 C 
BRANCH   2   3
ATOM      3  N   UNL A   1      35.476  22.208  23.492  1.00  0.00    -0.356 N 
ATOM      4  C   UNL A   1      34.345  22.946  23.259  1.00  0.00     0.226 C 
ATOM      5  O   UNL A   1      34.351  23.799  22.370  1.00  0.00    -0.275 OA
ATOM      6  H   UNL A   1      35.497  21.233  23.352  1.00  0.00     0.163 HD
BRANCH   4   7
ATOM      7  C   UNL A   1      33.050  22.555  23.962  1.00  0.00     0.113 C 
ATOM      8  C   UNL A   1      32.665  27.187  25.720  1.00  0.00     0.222 C 
ATOM      9  O   UNL A   1      33.744  27.748  25.506  1.00  0.00    -0.275 OA
ATOM     10  N   UNL A   1      32.579  25.796  25.892  1.00  0.00    -0.343 N 
ATOM     11  C   UNL A   1      33.849  25.108  25.939  1.00  0.00     0.122 C 
ATOM     12  C   UNL A   1      31.466  25.050  25.334  1.00  0.00     0.122 C 
ATOM     13  C   UNL A   1      33.765  23.634  26.310  1.00  0.00     0.051 C 
ATOM     14  C   UNL A   1      31.407  23.569  25.657  1.00  0.00     0.051 C 
ATOM     15  C   UNL A   1      32.759  22.845  25.469  1.00  0.00     0.055 C 
ATOM     16  N   UNL A   1      32.590  21.520  26.036  1.00  0.00    -0.350 N 
ATOM     17  C   UNL A   1      32.488  20.512  25.117  1.00  0.00     0.221 C 
ATOM     18  H   UNL A   1      32.553  21.360  27.007  1.00  0.00     0.164 HD
ATOM     19  C   UNL A   1      32.860  21.040  23.769  1.00  0.00     0.116 C 
ATOM     20  O   UNL A   1      32.154  19.373  25.376  1.00  0.00    -0.275 OA
BRANCH   8  21
ATOM     21  C   UNL A   1      31.403  28.021  25.853  1.00  0.00     0.105 C 
BRANCH  21  22
ATOM     22  C   UNL A   1      31.382  29.290  25.001  1.00  0.00     0.051 C 
BRANCH  22  23
ATOM     23  C   UNL A   1      30.611  29.181  23.728  1.00  0.00     0.018 A 
ATOM     24  C   UNL A   1      29.002  31.255  23.876  1.00  0.00     0.071 C 
ATOM     25  C   UNL A   1      29.560  30.025  23.258  1.00  0.00     0.084 A 
ATOM     26  N   UNL A   1      29.148  29.658  22.039  1.00  0.00    -0.085 NA
ATOM     27  O   UNL A   1      29.924  28.578  21.684  1.00  0.00    -0.361 OA
ATOM     28  C   UNL A   1      30.807  28.300  22.678  1.00  0.00     0.137 A 
ATOM     29  C   UNL A   1      31.798  27.246  22.375  1.00  0.00     0.091 C 
ENDBRANCH  22  23
ENDBRANCH  21  22
ENDBRANCH   8  21
ENDBRANCH   4   7
ENDBRANCH   2   3
ENDBRANCH   1   2
BRANCH   1  30
ATOM     30  C   UNL A   1      37.975  21.136  25.115  1.00  0.00     0.023 C 
BRANCH  30  31
ATOM     31  C   UNL A   1      39.089  20.905  26.136  1.00  0.00     0.116 C 
BRANCH  31  32
ATOM     32  N   UNL A   1      39.875  19.704  25.917  1.00  0.00    -0.352 N 
ATOM     33  C   UNL A   1      41.239  19.530  26.020  1.00  0.00     0.251 C 
ATOM     34  H   UNL A   1      39.364  18.902  25.660  1.00  0.00     0.163 HD
ATOM     35  O   UNL A   1      41.762  18.455  25.752  1.00  0.00    -0.269 OA
BRANCH  33  36
ATOM     36  C   UNL A   1      42.080  20.689  26.388  1.00  0.00     0.039 A 
ATOM     37  C   UNL A   1      42.612  21.478  25.369  1.00  0.00     0.014 A 
ATOM     38  C   UNL A   1      42.239  21.059  27.724  1.00  0.00     0.014 A 
ATOM     39  C   UNL A   1      43.194  22.707  25.687  1.00  0.00     0.010 A 
ATOM     40  C   UNL A   1      42.702  22.334  28.026  1.00  0.00     0.010 A 
ATOM     41  C   UNL A   1      43.177  23.178  27.011  1.00  0.00    -0.014 A 
BRANCH  41  42
ATOM     42  C   UNL A   1      43.633  24.553  27.346  1.00  0.00     0.031 A 
ATOM     43  C   UNL A   1      42.640  25.594  27.784  1.00  0.00     0.074 A 
ATOM     44  C   UNL A   1      44.929  24.890  27.183  1.00  0.00     0.049 A 
ATOM     45  N   UNL A   1      42.833  26.860  28.058  1.00  0.00    -0.248 NA
ATOM     46  C   UNL A   1      41.235  25.167  27.893  1.00  0.00     0.031 C 
ATOM     47  C   UNL A   1      45.985  24.000  26.692  1.00  0.00     0.029 A 
ATOM     48  N   UNL A   1      45.582  26.078  27.404  1.00  0.00    -0.354 N 
ATOM     49  C   UNL A   1      41.578  27.378  28.348  1.00  0.00     0.074 A 
ATOM     50  C   UNL A   1      40.623  26.311  28.152  1.00  0.00     0.031 C 
ATOM     51  C   UNL A   1      47.153  24.660  26.684  1.00  0.00     0.029 A 
ATOM     52  C   UNL A   1      46.928  26.033  27.127  1.00  0.00     0.049 A 
ATOM     53  H   UNL A   1      45.127  26.889  27.731  1.00  0.00     0.167 HD
ATOM     54  C   UNL A   1      41.250  28.622  28.772  1.00  0.00     0.037 A 
ATOM     55  C   UNL A   1      47.874  26.987  27.217  1.00  0.00     0.037 A 
ATOM     56  C   UNL A   1      42.205  29.673  29.001  1.00  0.00     0.049 A 
ATOM     57  C   UNL A   1      47.490  28.356  27.706  1.00  0.00     0.074 A 
ATOM     58  C   UNL A   1      41.984  30.943  29.504  1.00  0.00     0.029 A 
ATOM     59  N   UNL A   1      43.564  29.576  28.740  1.00  0.00    -0.354 N 
ATOM     60  N   UNL A   1      46.311  28.806  28.063  1.00  0.00    -0.248 NA
ATOM     61  C   UNL A   1      48.568  29.349  27.814  1.00  0.00     0.031 C 
ATOM     62  C   UNL A   1      43.201  31.631  29.501  1.00  0.00     0.029 A 
ATOM     63  C   UNL A   1      44.190  30.773  29.048  1.00  0.00     0.049 A 
ATOM     64  H   UNL A   1      44.016  28.776  28.388  1.00  0.00     0.167 HD
ATOM     65  C   UNL A   1      46.510  30.122  28.461  1.00  0.00     0.074 A 
ATOM     66  C   UNL A   1      47.925  30.393  28.317  1.00  0.00     0.031 C 
ATOM     67  C   UNL A   1      45.601  31.025  28.906  1.00  0.00     0.037 A 
BRANCH  54  68
ATOM     68  C   UNL A   1      39.797  28.905  29.021  1.00  0.00     0.057 A 
ATOM     69  C   UNL A   1      38.937  29.322  27.995  1.00  0.00     0.134 A 
ATOM     70  C   UNL A   1      39.245  28.741  30.297  1.00  0.00     0.134 A 
ATOM     71  F   UNL A   1      39.404  29.512  26.751  1.00  0.00    -0.206 F 
ATOM     72  C   UNL A   1      37.591  29.600  28.238  1.00  0.00     0.040 A 
ATOM     73  C   UNL A   1      37.892  28.985  30.545  1.00  0.00     0.040 A 
ATOM     74  F   UNL A   1      40.007  28.338  31.324  1.00  0.00    -0.206 F 
ATOM     75  C   UNL A   1      37.064  29.426  29.515  1.00  0.00     0.006 A 
ENDBRANCH  54  68
BRANCH  55  76
ATOM     76  C   UNL A   1      49.283  26.677  26.859  1.00  0.00     0.057 A 
ATOM     77  C   UNL A   1      49.776  26.930  25.574  1.00  0.00     0.134 A 
ATOM     78  C   UNL A   1      50.166  26.112  27.787  1.00  0.00     0.134 A 
ATOM     79  F   UNL A   1      48.974  27.453  24.635  1.00  0.00    -0.206 F 
ATOM     80  C   UNL A   1      51.089  26.615  25.217  1.00  0.00     0.040 A 
ATOM     81  C   UNL A   1      51.488  25.816  27.453  1.00  0.00     0.040 A 
ATOM     82  F   UNL A   1      49.759  25.852  29.039  1.00  0.00    -0.206 F 
ATOM     83  C   UNL A   1      51.951  26.060  26.161  1.00  0.00     0.006 A 
ENDBRANCH  55  76
BRANCH  67  84
ATOM     84  C   UNL A   1      46.113  32.379  29.301  1.00  0.00     0.057 A 
ATOM     85  C   UNL A   1      46.156  33.449  28.398  1.00  0.00     0.134 A 
ATOM     86  C   UNL A   1      46.526  32.627  30.617  1.00  0.00     0.134 A 
ATOM     87  F   UNL A   1      45.786  33.275  27.120  1.00  0.00    -0.206 F 
ATOM     88  C   UNL A   1      46.611  34.710  28.783  1.00  0.00     0.040 A 
ATOM     89  C   UNL A   1      46.957  33.890  31.022  1.00  0.00     0.040 A 
ATOM     90  F   UNL A   1      46.502  31.648  31.534  1.00  0.00    -0.206 F 
ATOM     91  C   UNL A   1      47.006  34.935  30.101  1.00  0.00     0.006 A 
ENDBRANCH  67  84
ENDBRANCH  41  42
ENDBRANCH  33  36
ENDBRANCH  31  32
ENDBRANCH  30  31
ENDBRANCH   1  30
TORSDOF 14
ENDMDL
MODEL 3
REMARK VINA RESULT:     -12.5      3.914      7.774
REMARK SMILES Cc1noc(C)c1CCC(=O)N1CCC2(CC1)NC(=O)C[C@@H]2C(=O)NCCCCNC(=O)c1ccc(-c2c3nc(c(-c4c(F)cccc4F)c4ccc([nH]4)c(-c4c(F)cccc4F)c4nc(c(-c5c(F)cccc5F)c5ccc2[nH]5)C=C4)C=C3)cc1
REMARK SMILES IDX 27 1 26 2 25 3 23 4 24 5 22 7 10 8 11 9 12 10 13 11 17 12
REMARK SMILES IDX 14 13 16 14 15 15 18 16 19 17 21 19 20 20 9 21 8 22 7 23
REMARK SMILES IDX 1 24 2 25 3 26 4 27 5 28 6 29 28 30 29 31 30 32 31 33 32 35
REMARK SMILES IDX 33 36 34 37 86 38 35 39 85 40 36 41 37 42 38 43 79 44 39 45
REMARK SMILES IDX 84 46 78 47 80 48 40 49 83 50 77 51 76 52 41 54 67 55 50 56
REMARK SMILES IDX 66 57 51 58 54 59 65 60 81 61 52 62 53 63 64 65 82 66 55 67
REMARK SMILES IDX 42 68 43 69 48 70 44 71 45 72 47 73 49 74 46 75 68 76 69 77
REMARK SMILES IDX 74 78 70 79 71 80 73 81 75 82 72 83 56 84 57 85 62 86 58 87
REMARK SMILES IDX 59 88 61 89 63 90 60 91
REMARK H PARENT 25 6 18 18 30 34 80 53 54 64
REMARK Flexibility Score: inf
ROOT
ATOM      1  C   UNL A   1      36.685  22.987  25.248  1.00  0.00     0.023 C 
ENDROOT
BRANCH   1   2
ATOM      2  C   UNL A   1      36.576  23.094  23.733  1.00  0.00     0.116 C 
BRANCH   2   3
ATOM      3  N   UNL A   1      35.326  22.603  23.201  1.00  0.00    -0.356 N 
ATOM      4  C   UNL A   1      34.280  23.488  23.174  1.00  0.00     0.226 C 
ATOM      5  O   UNL A   1      34.355  24.494  22.467  1.00  0.00    -0.275 OA
ATOM      6  H   UNL A   1      35.230  21.678  22.874  1.00  0.00     0.163 HD
BRANCH   4   7
ATOM      7  C   UNL A   1      32.972  23.106  23.857  1.00  0.00     0.113 C 
ATOM      8  C   UNL A   1      32.707  27.675  25.795  1.00  0.00     0.222 C 
ATOM      9  O   UNL A   1      33.802  28.213  25.606  1.00  0.00    -0.275 OA
ATOM     10  N   UNL A   1      32.582  26.282  25.911  1.00  0.00    -0.343 N 
ATOM     11  C   UNL A   1      33.832  25.557  25.936  1.00  0.00     0.122 C 
ATOM     12  C   UNL A   1      31.452  25.589  25.321  1.00  0.00     0.122 C 
ATOM     13  C   UNL A   1      33.706  24.072  26.248  1.00  0.00     0.051 C 
ATOM     14  C   UNL A   1      31.350  24.099  25.585  1.00  0.00     0.051 C 
ATOM     15  C   UNL A   1      32.683  23.346  25.374  1.00  0.00     0.055 C 
ATOM     16  N   UNL A   1      32.474  22.005  25.888  1.00  0.00    -0.350 N 
ATOM     17  C   UNL A   1      32.349  21.036  24.930  1.00  0.00     0.221 C 
ATOM     18  H   UNL A   1      32.428  21.807  26.852  1.00  0.00     0.164 HD
ATOM     19  C   UNL A   1      32.741  21.605  23.605  1.00  0.00     0.116 C 
ATOM     20  O   UNL A   1      31.981  19.897  25.143  1.00  0.00    -0.275 OA
BRANCH   8  21
ATOM     21  C   UNL A   1      31.468  28.538  25.955  1.00  0.00     0.105 C 
BRANCH  21  22
ATOM     22  C   UNL A   1      31.362  29.698  24.966  1.00  0.00     0.051 C 
BRANCH  22  23
ATOM     23  C   UNL A   1      30.609  29.392  23.715  1.00  0.00     0.018 A 
ATOM     24  C   UNL A   1      28.714  31.215  23.751  1.00  0.00     0.071 C 
ATOM     25  C   UNL A   1      29.443  30.041  23.207  1.00  0.00     0.084 A 
ATOM     26  N   UNL A   1      29.082  29.536  22.021  1.00  0.00    -0.085 NA
ATOM     27  O   UNL A   1      30.006  28.559  21.726  1.00  0.00    -0.361 OA
ATOM     28  C   UNL A   1      30.925  28.480  22.723  1.00  0.00     0.137 A 
ATOM     29  C   UNL A   1      32.058  27.564  22.475  1.00  0.00     0.091 C 
ENDBRANCH  22  23
ENDBRANCH  21  22
ENDBRANCH   8  21
ENDBRANCH   4   7
ENDBRANCH   2   3
ENDBRANCH   1   2
BRANCH   1  30
ATOM     30  C   UNL A   1      37.695  23.983  25.812  1.00  0.00     0.023 C 
BRANCH  30  31
ATOM     31  C   UNL A   1      38.812  23.378  26.661  1.00  0.00     0.116 C 
BRANCH  31  32
ATOM     32  N   UNL A   1      40.153  23.599  26.149  1.00  0.00    -0.352 N 
ATOM     33  C   UNL A   1      41.008  24.655  26.386  1.00  0.00     0.251 C 
ATOM     34  H   UNL A   1      40.500  22.899  25.548  1.00  0.00     0.163 HD
ATOM     35  O   UNL A   1      42.100  24.721  25.833  1.00  0.00    -0.269 OA
BRANCH  33  36
ATOM     36  C   UNL A   1      40.557  25.755  27.264  1.00  0.00     0.039 A 
ATOM     37  C   UNL A   1      39.789  25.443  28.386  1.00  0.00     0.014 A 
ATOM     38  C   UNL A   1      40.990  27.063  27.047  1.00  0.00     0.014 A 
ATOM     39  C   UNL A   1      39.564  26.422  29.355  1.00  0.00     0.010 A 
ATOM     40  C   UNL A   1      40.874  27.998  28.069  1.00  0.00     0.010 A 
ATOM     41  C   UNL A   1      40.167  27.686  29.240  1.00  0.00    -0.014 A 
BRANCH  41  42
ATOM     42  C   UNL A   1      40.085  28.683  30.341  1.00  0.00     0.031 A 
ATOM     43  C   UNL A   1      39.067  29.788  30.287  1.00  0.00     0.074 A 
ATOM     44  C   UNL A   1      40.976  28.641  31.353  1.00  0.00     0.049 A 
ATOM     45  N   UNL A   1      38.881  30.784  31.116  1.00  0.00    -0.248 NA
ATOM     46  C   UNL A   1      38.159  29.797  29.128  1.00  0.00     0.031 C 
ATOM     47  C   UNL A   1      42.064  27.669  31.490  1.00  0.00     0.029 A 
ATOM     48  N   UNL A   1      41.116  29.444  32.459  1.00  0.00    -0.354 N 
ATOM     49  C   UNL A   1      37.856  31.544  30.568  1.00  0.00     0.074 A 
ATOM     50  C   UNL A   1      37.505  30.935  29.305  1.00  0.00     0.031 C 
ATOM     51  C   UNL A   1      42.733  27.910  32.628  1.00  0.00     0.029 A 
ATOM     52  C   UNL A   1      42.153  29.078  33.284  1.00  0.00     0.049 A 
ATOM     53  H   UNL A   1      40.527  30.212  32.644  1.00  0.00     0.167 HD
ATOM     54  C   UNL A   1      37.238  32.633  31.083  1.00  0.00     0.037 A 
ATOM     55  C   UNL A   1      42.590  29.621  34.436  1.00  0.00     0.037 A 
ATOM     56  C   UNL A   1      37.563  33.218  32.357  1.00  0.00     0.049 A 
ATOM     57  C   UNL A   1      41.877  30.820  34.998  1.00  0.00     0.074 A 
ATOM     58  C   UNL A   1      36.945  34.274  33.002  1.00  0.00     0.029 A 
ATOM     59  N   UNL A   1      38.599  32.797  33.176  1.00  0.00    -0.354 N 
ATOM     60  N   UNL A   1      40.851  31.475  34.511  1.00  0.00    -0.248 NA
ATOM     61  C   UNL A   1      42.378  31.353  36.273  1.00  0.00     0.031 C 
ATOM     62  C   UNL A   1      37.638  34.524  34.191  1.00  0.00     0.029 A 
ATOM     63  C   UNL A   1      38.653  33.589  34.312  1.00  0.00     0.049 A 
ATOM     64  H   UNL A   1      39.206  32.047  32.981  1.00  0.00     0.167 HD
ATOM     65  C   UNL A   1      40.567  32.476  35.431  1.00  0.00     0.074 A 
ATOM     66  C   UNL A   1      41.519  32.334  36.512  1.00  0.00     0.031 C 
ATOM     67  C   UNL A   1      39.603  33.429  35.383  1.00  0.00     0.037 A 
BRANCH  54  68
ATOM     68  C   UNL A   1      36.142  33.255  30.266  1.00  0.00     0.057 A 
ATOM     69  C   UNL A   1      36.414  34.065  29.155  1.00  0.00     0.134 A 
ATOM     70  C   UNL A   1      34.797  33.026  30.582  1.00  0.00     0.134 A 
ATOM     71  F   UNL A   1      37.682  34.335  28.804  1.00  0.00    -0.206 F 
ATOM     72  C   UNL A   1      35.390  34.653  28.411  1.00  0.00     0.040 A 
ATOM     73  C   UNL A   1      33.764  33.584  29.826  1.00  0.00     0.040 A 
ATOM     74  F   UNL A   1      34.463  32.256  31.629  1.00  0.00    -0.206 F 
ATOM     75  C   UNL A   1      34.060  34.408  28.743  1.00  0.00     0.006 A 
ENDBRANCH  54  68
BRANCH  55  76
ATOM     76  C   UNL A   1      43.747  29.023  35.151  1.00  0.00     0.057 A 
ATOM     77  C   UNL A   1      43.560  28.071  36.160  1.00  0.00     0.134 A 
ATOM     78  C   UNL A   1      45.064  29.393  34.853  1.00  0.00     0.134 A 
ATOM     79  F   UNL A   1      42.322  27.687  36.505  1.00  0.00    -0.206 F 
ATOM     80  C   UNL A   1      44.637  27.523  36.861  1.00  0.00     0.040 A 
ATOM     81  C   UNL A   1      46.152  28.836  35.527  1.00  0.00     0.040 A 
ATOM     82  F   UNL A   1      45.313  30.295  33.891  1.00  0.00    -0.206 F 
ATOM     83  C   UNL A   1      45.939  27.903  36.541  1.00  0.00     0.006 A 
ENDBRANCH  55  76
BRANCH  67  84
ATOM     84  C   UNL A   1      39.509  34.371  36.548  1.00  0.00     0.057 A 
ATOM     85  C   UNL A   1      38.839  34.025  37.729  1.00  0.00     0.134 A 
ATOM     86  C   UNL A   1      40.136  35.623  36.503  1.00  0.00     0.134 A 
ATOM     87  F   UNL A   1      38.208  32.846  37.832  1.00  0.00    -0.206 F 
ATOM     88  C   UNL A   1      38.778  34.899  38.815  1.00  0.00     0.040 A 
ATOM     89  C   UNL A   1      40.106  36.494  37.593  1.00  0.00     0.040 A 
ATOM     90  F   UNL A   1      40.802  36.012  35.406  1.00  0.00    -0.206 F 
ATOM     91  C   UNL A   1      39.420  36.134  38.751  1.00  0.00     0.006 A 
ENDBRANCH  67  84
ENDBRANCH  41  42
ENDBRANCH  33  36
ENDBRANCH  31  32
ENDBRANCH  30  31
ENDBRANCH   1  30
TORSDOF 14
ENDMDL
