MODEL 1
REMARK VINA RESULT:     -12.1      0.000      0.000
REMARK SMILES O=C(NCCCCNC(=O)c1ccc(-c2c3nc(c(-c4c(F)cccc4F)c4ccc([nH]4)c(-c4c(F)cccc4F)c4nc(c(-c5c(F)cccc5F)c5ccc2[nH]5)C=C4)C=C3)cc1)C1=Cc2c(ccc(Cl)c2Sc2ccccc2)O[C@H]1C(F)(F)F
REMARK SMILES IDX 5 1 4 2 3 3 1 4 2 5 65 7 66 8 82 9 67 10 81 11 68 12 73 13
REMARK SMILES IDX 69 14 71 15 70 16 72 17 83 18 84 19 85 20 86 21 74 22 75 23
REMARK SMILES IDX 76 24 80 25 77 26 79 27 78 28 6 29 7 30 8 31 9 32 10 34
REMARK SMILES IDX 11 35 12 36 64 37 13 38 63 39 14 40 15 41 16 42 57 43 17 44
REMARK SMILES IDX 62 45 56 46 58 47 18 48 61 49 55 50 54 51 19 53 45 54 28 55
REMARK SMILES IDX 44 56 29 57 32 58 43 59 59 60 30 61 31 62 42 64 60 65 33 66
REMARK SMILES IDX 20 67 21 68 26 69 22 70 23 71 25 72 27 73 24 74 46 75 47 76
REMARK SMILES IDX 52 77 48 78 49 79 51 80 53 81 50 82 34 83 35 84 40 85 36 86
REMARK SMILES IDX 37 87 39 88 41 89 38 90
REMARK H PARENT 3 6 8 33 58 52 32 63
REMARK Flexibility Score: inf
ROOT
ATOM      1  C   UNL A   1      32.192  27.496  26.526  1.00  0.00     0.023 C 
ENDROOT
BRANCH   1   2
ATOM      2  C   UNL A   1      31.642  26.080  26.361  1.00  0.00     0.116 C 
BRANCH   2   3
ATOM      3  N   UNL A   1      30.482  26.009  25.489  1.00  0.00    -0.352 N 
ATOM      4  O   UNL A   1      29.314  25.733  23.590  1.00  0.00    -0.270 OA
ATOM      5  C   UNL A   1      30.385  25.625  24.183  1.00  0.00     0.251 C 
ATOM      6  H   UNL A   1      29.633  26.281  25.907  1.00  0.00     0.163 HD
BRANCH   5   7
ATOM      7  C   UNL A   1      31.558  25.102  23.456  1.00  0.00     0.067 C 
ATOM      8  C   UNL A   1      31.860  23.798  23.497  1.00  0.00     0.026 C 
ATOM      9  C   UNL A   1      32.603  26.061  22.988  1.00  0.00     0.314 C 
ATOM     10  C   UNL A   1      33.064  23.551  24.320  1.00  0.00     0.033 A 
ATOM     11  O   UNL A   1      33.922  25.724  23.526  1.00  0.00    -0.475 OA
ATOM     12  C   UNL A   1      34.031  24.589  24.302  1.00  0.00     0.129 A 
ATOM     13  C   UNL A   1      33.177  22.445  25.201  1.00  0.00     0.042 A 
ATOM     14  C   UNL A   1      35.107  24.561  25.178  1.00  0.00     0.049 A 
ATOM     15  C   UNL A   1      34.258  22.484  26.117  1.00  0.00     0.055 A 
ATOM     16  C   UNL A   1      35.201  23.527  26.103  1.00  0.00     0.025 A 
ATOM     17  Cl  UNL A   1      34.471  21.305  27.377  1.00  0.00    -0.083 Cl
BRANCH   9  18
ATOM     18  C   UNL A   1      32.653  26.126  21.452  1.00  0.00     0.429 C 
ATOM     19  F   UNL A   1      33.145  24.985  20.911  1.00  0.00    -0.167 F 
ATOM     20  F   UNL A   1      31.431  26.332  20.911  1.00  0.00    -0.167 F 
ATOM     21  F   UNL A   1      33.447  27.140  21.032  1.00  0.00    -0.167 F 
ENDBRANCH   9  18
BRANCH  13  22
ATOM     22  S   UNL A   1      32.029  21.034  25.303  1.00  0.00    -0.088 SA
BRANCH  22  23
ATOM     23  C   UNL A   1      32.701  19.702  24.338  1.00  0.00     0.012 A 
ATOM     24  C   UNL A   1      33.796  18.974  24.824  1.00  0.00     0.015 A 
ATOM     25  C   UNL A   1      32.100  19.315  23.133  1.00  0.00     0.015 A 
ATOM     26  C   UNL A   1      34.212  17.811  24.172  1.00  0.00     0.001 A 
ATOM     27  C   UNL A   1      32.515  18.147  22.486  1.00  0.00     0.001 A 
ATOM     28  C   UNL A   1      33.557  17.386  23.017  1.00  0.00     0.000 A 
ENDBRANCH  22  23
ENDBRANCH  13  22
ENDBRANCH   5   7
ENDBRANCH   2   3
ENDBRANCH   1   2
BRANCH   1  29
ATOM     29  C   UNL A   1      33.715  27.593  26.540  1.00  0.00     0.023 C 
BRANCH  29  30
ATOM     30  C   UNL A   1      34.323  28.869  25.957  1.00  0.00     0.116 C 
BRANCH  30  31
ATOM     31  N   UNL A   1      33.790  30.102  26.517  1.00  0.00    -0.352 N 
ATOM     32  C   UNL A   1      34.313  30.900  27.510  1.00  0.00     0.251 C 
ATOM     33  H   UNL A   1      32.937  30.408  26.132  1.00  0.00     0.163 HD
ATOM     34  O   UNL A   1      33.699  31.896  27.886  1.00  0.00    -0.269 OA
BRANCH  32  35
ATOM     35  C   UNL A   1      35.587  30.527  28.166  1.00  0.00     0.039 A 
ATOM     36  C   UNL A   1      35.551  29.678  29.276  1.00  0.00     0.014 A 
ATOM     37  C   UNL A   1      36.814  30.973  27.668  1.00  0.00     0.014 A 
ATOM     38  C   UNL A   1      36.746  29.203  29.828  1.00  0.00     0.010 A 
ATOM     39  C   UNL A   1      38.000  30.441  28.171  1.00  0.00     0.010 A 
ATOM     40  C   UNL A   1      37.980  29.545  29.251  1.00  0.00    -0.014 A 
BRANCH  40  41
ATOM     41  C   UNL A   1      39.256  28.981  29.768  1.00  0.00     0.031 A 
ATOM     42  C   UNL A   1      39.908  29.583  30.984  1.00  0.00     0.074 A 
ATOM     43  C   UNL A   1      39.862  27.969  29.115  1.00  0.00     0.049 A 
ATOM     44  N   UNL A   1      41.057  29.286  31.540  1.00  0.00    -0.248 NA
ATOM     45  C   UNL A   1      39.187  30.681  31.646  1.00  0.00     0.031 C 
ATOM     46  C   UNL A   1      39.366  27.327  27.896  1.00  0.00     0.029 A 
ATOM     47  N   UNL A   1      41.038  27.308  29.380  1.00  0.00    -0.354 N 
ATOM     48  C   UNL A   1      41.198  30.166  32.607  1.00  0.00     0.074 A 
ATOM     49  C   UNL A   1      40.047  31.043  32.586  1.00  0.00     0.031 C 
ATOM     50  C   UNL A   1      40.220  26.355  27.530  1.00  0.00     0.029 A 
ATOM     51  C   UNL A   1      41.337  26.323  28.469  1.00  0.00     0.049 A 
ATOM     52  H   UNL A   1      41.612  27.521  30.151  1.00  0.00     0.167 HD
ATOM     53  C   UNL A   1      42.179  30.221  33.538  1.00  0.00     0.037 A 
ATOM     54  C   UNL A   1      42.393  25.490  28.399  1.00  0.00     0.037 A 
ATOM     55  C   UNL A   1      43.313  29.335  33.578  1.00  0.00     0.049 A 
ATOM     56  C   UNL A   1      43.459  25.559  29.458  1.00  0.00     0.074 A 
ATOM     57  C   UNL A   1      44.353  29.305  34.490  1.00  0.00     0.029 A 
ATOM     58  N   UNL A   1      43.546  28.314  32.672  1.00  0.00    -0.354 N 
ATOM     59  N   UNL A   1      43.554  26.368  30.486  1.00  0.00    -0.248 NA
ATOM     60  C   UNL A   1      44.558  24.587  29.359  1.00  0.00     0.031 C 
ATOM     61  C   UNL A   1      45.226  28.275  34.125  1.00  0.00     0.029 A 
ATOM     62  C   UNL A   1      44.708  27.641  33.008  1.00  0.00     0.049 A 
ATOM     63  H   UNL A   1      42.970  28.098  31.903  1.00  0.00     0.167 HD
ATOM     64  C   UNL A   1      44.694  25.977  31.174  1.00  0.00     0.074 A 
ATOM     65  C   UNL A   1      45.254  24.853  30.455  1.00  0.00     0.031 C 
ATOM     66  C   UNL A   1      45.233  26.503  32.301  1.00  0.00     0.037 A 
BRANCH  53  67
ATOM     67  C   UNL A   1      42.053  31.264  34.609  1.00  0.00     0.057 A 
ATOM     68  C   UNL A   1      42.621  32.536  34.459  1.00  0.00     0.134 A 
ATOM     69  C   UNL A   1      41.333  31.011  35.782  1.00  0.00     0.134 A 
ATOM     70  F   UNL A   1      43.335  32.837  33.364  1.00  0.00    -0.206 F 
ATOM     71  C   UNL A   1      42.496  33.512  35.449  1.00  0.00     0.040 A 
ATOM     72  C   UNL A   1      41.180  31.988  36.769  1.00  0.00     0.040 A 
ATOM     73  F   UNL A   1      40.759  29.816  35.987  1.00  0.00    -0.206 F 
ATOM     74  C   UNL A   1      41.768  33.240  36.605  1.00  0.00     0.006 A 
ENDBRANCH  53  67
BRANCH  54  75
ATOM     75  C   UNL A   1      42.493  24.491  27.303  1.00  0.00     0.057 A 
ATOM     76  C   UNL A   1      42.035  23.179  27.479  1.00  0.00     0.134 A 
ATOM     77  C   UNL A   1      43.087  24.807  26.077  1.00  0.00     0.134 A 
ATOM     78  F   UNL A   1      41.474  22.809  28.639  1.00  0.00    -0.206 F 
ATOM     79  C   UNL A   1      42.195  22.209  26.487  1.00  0.00     0.040 A 
ATOM     80  C   UNL A   1      43.231  23.854  25.066  1.00  0.00     0.040 A 
ATOM     81  F   UNL A   1      43.540  26.047  25.843  1.00  0.00    -0.206 F 
ATOM     82  C   UNL A   1      42.794  22.547  25.276  1.00  0.00     0.006 A 
ENDBRANCH  54  75
BRANCH  66  83
ATOM     83  C   UNL A   1      46.447  25.827  32.863  1.00  0.00     0.057 A 
ATOM     84  C   UNL A   1      47.745  26.207  32.501  1.00  0.00     0.134 A 
ATOM     85  C   UNL A   1      46.312  24.799  33.805  1.00  0.00     0.134 A 
ATOM     86  F   UNL A   1      47.942  27.176  31.593  1.00  0.00    -0.206 F 
ATOM     87  C   UNL A   1      48.866  25.572  33.036  1.00  0.00     0.040 A 
ATOM     88  C   UNL A   1      47.426  24.173  34.367  1.00  0.00     0.040 A 
ATOM     89  F   UNL A   1      45.096  24.392  34.201  1.00  0.00    -0.206 F 
ATOM     90  C   UNL A   1      48.708  24.554  33.976  1.00  0.00     0.006 A 
ENDBRANCH  66  83
ENDBRANCH  40  41
ENDBRANCH  32  35
ENDBRANCH  30  31
ENDBRANCH  29  30
ENDBRANCH   1  29
TORSDOF 14
ENDMDL
MODEL 2
REMARK VINA RESULT:     -11.7      3.453      8.447
REMARK SMILES O=C(NCCCCNC(=O)c1ccc(-c2c3nc(c(-c4c(F)cccc4F)c4ccc([nH]4)c(-c4c(F)cccc4F)c4nc(c(-c5c(F)cccc5F)c5ccc2[nH]5)C=C4)C=C3)cc1)C1=Cc2c(ccc(Cl)c2Sc2ccccc2)O[C@H]1C(F)(F)F
REMARK SMILES IDX 5 1 4 2 3 3 1 4 2 5 65 7 66 8 82 9 67 10 81 11 68 12 73 13
REMARK SMILES IDX 69 14 71 15 70 16 72 17 83 18 84 19 85 20 86 21 74 22 75 23
REMARK SMILES IDX 76 24 80 25 77 26 79 27 78 28 6 29 7 30 8 31 9 32 10 34
REMARK SMILES IDX 11 35 12 36 64 37 13 38 63 39 14 40 15 41 16 42 57 43 17 44
REMARK SMILES IDX 62 45 56 46 58 47 18 48 61 49 55 50 54 51 19 53 45 54 28 55
REMARK SMILES IDX 44 56 29 57 32 58 43 59 59 60 30 61 31 62 42 64 60 65 33 66
REMARK SMILES IDX 20 67 21 68 26 69 22 70 23 71 25 72 27 73 24 74 46 75 47 76
REMARK SMILES IDX 52 77 48 78 49 79 51 80 53 81 50 82 34 83 35 84 40 85 36 86
REMARK SMILES IDX 37 87 39 88 41 89 38 90
REMARK H PARENT 3 6 8 33 58 52 32 63
REMARK Flexibility Score: inf
ROOT
ATOM      1  C   UNL A   1      36.991  23.703  25.486  1.00  0.00     0.023 C 
ENDROOT
BRANCH   1   2
ATOM      2  C   UNL A   1      35.598  23.085  25.385  1.00  0.00     0.116 C 
BRANCH   2   3
ATOM      3  N   UNL A   1      34.613  23.737  26.230  1.00  0.00    -0.352 N 
ATOM      4  O   UNL A   1      32.790  24.935  26.765  1.00  0.00    -0.270 OA
ATOM      5  C   UNL A   1      33.438  24.349  25.902  1.00  0.00     0.251 C 
ATOM      6  H   UNL A   1      34.828  23.739  27.191  1.00  0.00     0.163 HD
BRANCH   5   7
ATOM      7  C   UNL A   1      32.940  24.340  24.512  1.00  0.00     0.067 C 
ATOM      8  C   UNL A   1      33.068  25.423  23.736  1.00  0.00     0.026 C 
ATOM      9  C   UNL A   1      31.979  23.275  24.096  1.00  0.00     0.314 C 
ATOM     10  C   UNL A   1      31.764  26.087  23.520  1.00  0.00     0.033 A 
ATOM     11  O   UNL A   1      30.734  23.846  23.580  1.00  0.00    -0.475 OA
ATOM     12  C   UNL A   1      30.642  25.219  23.492  1.00  0.00     0.129 A 
ATOM     13  C   UNL A   1      31.612  27.498  23.515  1.00  0.00     0.042 A 
ATOM     14  C   UNL A   1      29.354  25.736  23.490  1.00  0.00     0.049 A 
ATOM     15  C   UNL A   1      30.282  27.984  23.570  1.00  0.00     0.055 A 
ATOM     16  C   UNL A   1      29.177  27.114  23.561  1.00  0.00     0.025 A 
ATOM     17  Cl  UNL A   1      29.899  29.672  23.734  1.00  0.00    -0.083 Cl
BRANCH   9  18
ATOM     18  C   UNL A   1      32.606  22.333  23.056  1.00  0.00     0.429 C 
ATOM     19  F   UNL A   1      33.370  23.002  22.159  1.00  0.00    -0.167 F 
ATOM     20  F   UNL A   1      33.392  21.393  23.629  1.00  0.00    -0.167 F 
ATOM     21  F   UNL A   1      31.652  21.675  22.355  1.00  0.00    -0.167 F 
ENDBRANCH   9  18
BRANCH  13  22
ATOM     22  S   UNL A   1      32.963  28.721  23.516  1.00  0.00    -0.088 SA
BRANCH  22  23
ATOM     23  C   UNL A   1      33.313  29.158  25.202  1.00  0.00     0.012 A 
ATOM     24  C   UNL A   1      34.347  28.508  25.889  1.00  0.00     0.015 A 
ATOM     25  C   UNL A   1      32.622  30.203  25.831  1.00  0.00     0.015 A 
ATOM     26  C   UNL A   1      34.757  28.970  27.142  1.00  0.00     0.001 A 
ATOM     27  C   UNL A   1      33.039  30.666  27.082  1.00  0.00     0.001 A 
ATOM     28  C   UNL A   1      34.119  30.062  27.727  1.00  0.00     0.000 A 
ENDBRANCH  22  23
ENDBRANCH  13  22
ENDBRANCH   5   7
ENDBRANCH   2   3
ENDBRANCH   1   2
BRANCH   1  29
ATOM     29  C   UNL A   1      38.090  22.737  25.921  1.00  0.00     0.023 C 
BRANCH  29  30
ATOM     30  C   UNL A   1      39.195  23.315  26.804  1.00  0.00     0.116 C 
BRANCH  30  31
ATOM     31  N   UNL A   1      40.449  23.573  26.112  1.00  0.00    -0.352 N 
ATOM     32  C   UNL A   1      41.316  24.633  26.255  1.00  0.00     0.251 C 
ATOM     33  H   UNL A   1      40.713  22.895  25.448  1.00  0.00     0.163 HD
ATOM     34  O   UNL A   1      42.320  24.706  25.549  1.00  0.00    -0.269 OA
BRANCH  32  35
ATOM     35  C   UNL A   1      41.010  25.715  27.218  1.00  0.00     0.039 A 
ATOM     36  C   UNL A   1      40.126  25.454  28.269  1.00  0.00     0.014 A 
ATOM     37  C   UNL A   1      41.622  26.967  27.116  1.00  0.00     0.014 A 
ATOM     38  C   UNL A   1      39.927  26.414  29.266  1.00  0.00     0.010 A 
ATOM     39  C   UNL A   1      41.481  27.893  28.149  1.00  0.00     0.010 A 
ATOM     40  C   UNL A   1      40.637  27.625  29.239  1.00  0.00    -0.014 A 
BRANCH  40  41
ATOM     41  C   UNL A   1      40.506  28.622  30.335  1.00  0.00     0.031 A 
ATOM     42  C   UNL A   1      39.457  29.697  30.255  1.00  0.00     0.074 A 
ATOM     43  C   UNL A   1      41.366  28.601  31.375  1.00  0.00     0.049 A 
ATOM     44  N   UNL A   1      39.235  30.702  31.066  1.00  0.00    -0.248 NA
ATOM     45  C   UNL A   1      38.553  29.654  29.094  1.00  0.00     0.031 C 
ATOM     46  C   UNL A   1      42.461  27.646  31.552  1.00  0.00     0.029 A 
ATOM     47  N   UNL A   1      41.458  29.418  32.476  1.00  0.00    -0.354 N 
ATOM     48  C   UNL A   1      38.178  31.411  30.509  1.00  0.00     0.074 A 
ATOM     49  C   UNL A   1      37.840  30.757  29.264  1.00  0.00     0.031 C 
ATOM     50  C   UNL A   1      43.103  27.920  32.701  1.00  0.00     0.029 A 
ATOM     51  C   UNL A   1      42.486  29.085  33.327  1.00  0.00     0.049 A 
ATOM     52  H   UNL A   1      40.846  30.171  32.640  1.00  0.00     0.167 HD
ATOM     53  C   UNL A   1      37.527  32.491  31.002  1.00  0.00     0.037 A 
ATOM     54  C   UNL A   1      42.884  29.656  34.480  1.00  0.00     0.037 A 
ATOM     55  C   UNL A   1      37.843  33.131  32.252  1.00  0.00     0.049 A 
ATOM     56  C   UNL A   1      42.130  30.842  35.016  1.00  0.00     0.074 A 
ATOM     57  C   UNL A   1      37.231  34.223  32.842  1.00  0.00     0.029 A 
ATOM     58  N   UNL A   1      38.851  32.725  33.111  1.00  0.00    -0.354 N 
ATOM     59  N   UNL A   1      41.104  31.473  34.498  1.00  0.00    -0.248 NA
ATOM     60  C   UNL A   1      42.578  31.387  36.307  1.00  0.00     0.031 C 
ATOM     61  C   UNL A   1      37.882  34.489  34.052  1.00  0.00     0.029 A 
ATOM     62  C   UNL A   1      38.873  33.539  34.231  1.00  0.00     0.049 A 
ATOM     63  H   UNL A   1      39.461  31.969  32.949  1.00  0.00     0.167 HD
ATOM     64  C   UNL A   1      40.760  32.457  35.415  1.00  0.00     0.074 A 
ATOM     65  C   UNL A   1      41.679  32.336  36.526  1.00  0.00     0.031 C 
ATOM     66  C   UNL A   1      39.773  33.383  35.343  1.00  0.00     0.037 A 
BRANCH  53  67
ATOM     67  C   UNL A   1      36.386  33.034  30.194  1.00  0.00     0.057 A 
ATOM     68  C   UNL A   1      36.605  33.849  29.076  1.00  0.00     0.134 A 
ATOM     69  C   UNL A   1      35.060  32.716  30.512  1.00  0.00     0.134 A 
ATOM     70  F   UNL A   1      37.852  34.201  28.726  1.00  0.00    -0.206 F 
ATOM     71  C   UNL A   1      35.546  34.346  28.315  1.00  0.00     0.040 A 
ATOM     72  C   UNL A   1      33.993  33.188  29.744  1.00  0.00     0.040 A 
ATOM     73  F   UNL A   1      34.779  31.937  31.568  1.00  0.00    -0.206 F 
ATOM     74  C   UNL A   1      34.235  34.010  28.646  1.00  0.00     0.006 A 
ENDBRANCH  53  67
BRANCH  54  75
ATOM     75  C   UNL A   1      44.040  29.103  35.234  1.00  0.00     0.057 A 
ATOM     76  C   UNL A   1      45.349  29.510  34.949  1.00  0.00     0.134 A 
ATOM     77  C   UNL A   1      43.869  28.127  36.222  1.00  0.00     0.134 A 
ATOM     78  F   UNL A   1      45.579  30.427  33.998  1.00  0.00    -0.206 F 
ATOM     79  C   UNL A   1      46.449  28.941  35.593  1.00  0.00     0.040 A 
ATOM     80  C   UNL A   1      44.959  27.568  36.893  1.00  0.00     0.040 A 
ATOM     81  F   UNL A   1      42.641  27.700  36.548  1.00  0.00    -0.206 F 
ATOM     82  C   UNL A   1      46.255  27.967  36.570  1.00  0.00     0.006 A 
ENDBRANCH  54  75
BRANCH  66  83
ATOM     83  C   UNL A   1      39.591  34.287  36.525  1.00  0.00     0.057 A 
ATOM     84  C   UNL A   1      38.896  33.883  37.671  1.00  0.00     0.134 A 
ATOM     85  C   UNL A   1      40.149  35.573  36.524  1.00  0.00     0.134 A 
ATOM     86  F   UNL A   1      38.328  32.668  37.729  1.00  0.00    -0.206 F 
ATOM     87  C   UNL A   1      38.740  34.734  38.766  1.00  0.00     0.040 A 
ATOM     88  C   UNL A   1      40.021  36.423  37.623  1.00  0.00     0.040 A 
ATOM     89  F   UNL A   1      40.834  36.018  35.460  1.00  0.00    -0.206 F 
ATOM     90  C   UNL A   1      39.308  36.007  38.745  1.00  0.00     0.006 A 
ENDBRANCH  66  83
ENDBRANCH  40  41
ENDBRANCH  32  35
ENDBRANCH  30  31
ENDBRANCH  29  30
ENDBRANCH   1  29
TORSDOF 14
ENDMDL
MODEL 3
REMARK VINA RESULT:     -11.7      4.042      8.587
REMARK SMILES O=C(NCCCCNC(=O)c1ccc(-c2c3nc(c(-c4c(F)cccc4F)c4ccc([nH]4)c(-c4c(F)cccc4F)c4nc(c(-c5c(F)cccc5F)c5ccc2[nH]5)C=C4)C=C3)cc1)C1=Cc2c(ccc(Cl)c2Sc2ccccc2)O[C@H]1C(F)(F)F
REMARK SMILES IDX 5 1 4 2 3 3 1 4 2 5 65 7 66 8 82 9 67 10 81 11 68 12 73 13
REMARK SMILES IDX 69 14 71 15 70 16 72 17 83 18 84 19 85 20 86 21 74 22 75 23
REMARK SMILES IDX 76 24 80 25 77 26 79 27 78 28 6 29 7 30 8 31 9 32 10 34
REMARK SMILES IDX 11 35 12 36 64 37 13 38 63 39 14 40 15 41 16 42 57 43 17 44
REMARK SMILES IDX 62 45 56 46 58 47 18 48 61 49 55 50 54 51 19 53 45 54 28 55
REMARK SMILES IDX 44 56 29 57 32 58 43 59 59 60 30 61 31 62 42 64 60 65 33 66
REMARK SMILES IDX 20 67 21 68 26 69 22 70 23 71 25 72 27 73 24 74 46 75 47 76
REMARK SMILES IDX 52 77 48 78 49 79 51 80 53 81 50 82 34 83 35 84 40 85 36 86
REMARK SMILES IDX 37 87 39 88 41 89 38 90
REMARK H PARENT 3 6 8 33 58 52 32 63
REMARK Flexibility Score: inf
ROOT
ATOM      1  C   UNL A   1      35.161  21.373  25.805  1.00  0.00     0.023 C 
ENDROOT
BRANCH   1   2
ATOM      2  C   UNL A   1      35.388  22.881  25.718  1.00  0.00     0.116 C 
BRANCH   2   3
ATOM      3  N   UNL A   1      34.433  23.654  26.493  1.00  0.00    -0.352 N 
ATOM      4  O   UNL A   1      32.693  25.016  26.898  1.00  0.00    -0.270 OA
ATOM      5  C   UNL A   1      33.318  24.332  26.091  1.00  0.00     0.251 C 
ATOM      6  H   UNL A   1      34.620  23.697  27.458  1.00  0.00     0.163 HD
BRANCH   5   7
ATOM      7  C   UNL A   1      32.860  24.279  24.689  1.00  0.00     0.067 C 
ATOM      8  C   UNL A   1      33.026  25.331  23.878  1.00  0.00     0.026 C 
ATOM      9  C   UNL A   1      31.898  23.212  24.284  1.00  0.00     0.314 C 
ATOM     10  C   UNL A   1      31.738  26.003  23.600  1.00  0.00     0.033 A 
ATOM     11  O   UNL A   1      30.676  23.778  23.711  1.00  0.00    -0.475 OA
ATOM     12  C   UNL A   1      30.605  25.148  23.570  1.00  0.00     0.129 A 
ATOM     13  C   UNL A   1      31.606  27.414  23.539  1.00  0.00     0.042 A 
ATOM     14  C   UNL A   1      29.325  25.681  23.511  1.00  0.00     0.049 A 
ATOM     15  C   UNL A   1      30.281  27.918  23.537  1.00  0.00     0.055 A 
ATOM     16  C   UNL A   1      29.165  27.063  23.527  1.00  0.00     0.025 A 
ATOM     17  Cl  UNL A   1      29.916  29.616  23.629  1.00  0.00    -0.083 Cl
BRANCH   9  18
ATOM     18  C   UNL A   1      32.542  22.224  23.297  1.00  0.00     0.429 C 
ATOM     19  F   UNL A   1      32.690  20.990  23.837  1.00  0.00    -0.167 F 
ATOM     20  F   UNL A   1      31.811  22.081  22.168  1.00  0.00    -0.167 F 
ATOM     21  F   UNL A   1      33.774  22.644  22.920  1.00  0.00    -0.167 F 
ENDBRANCH   9  18
BRANCH  13  22
ATOM     22  S   UNL A   1      32.972  28.620  23.536  1.00  0.00    -0.088 SA
BRANCH  22  23
ATOM     23  C   UNL A   1      33.286  29.105  25.216  1.00  0.00     0.012 A 
ATOM     24  C   UNL A   1      34.350  28.525  25.921  1.00  0.00     0.015 A 
ATOM     25  C   UNL A   1      32.534  30.121  25.822  1.00  0.00     0.015 A 
ATOM     26  C   UNL A   1      34.725  29.030  27.167  1.00  0.00     0.001 A 
ATOM     27  C   UNL A   1      32.917  30.628  27.067  1.00  0.00     0.001 A 
ATOM     28  C   UNL A   1      34.024  30.096  27.729  1.00  0.00     0.000 A 
ENDBRANCH  22  23
ENDBRANCH  13  22
ENDBRANCH   5   7
ENDBRANCH   2   3
ENDBRANCH   1   2
BRANCH   1  29
ATOM     29  C   UNL A   1      36.155  20.529  25.011  1.00  0.00     0.023 C 
BRANCH  29  30
ATOM     30  C   UNL A   1      37.599  21.028  24.976  1.00  0.00     0.116 C 
BRANCH  30  31
ATOM     31  N   UNL A   1      38.589  20.043  25.385  1.00  0.00    -0.352 N 
ATOM     32  C   UNL A   1      39.742  20.223  26.115  1.00  0.00     0.251 C 
ATOM     33  H   UNL A   1      38.407  19.118  25.101  1.00  0.00     0.163 HD
ATOM     34  O   UNL A   1      40.487  19.271  26.336  1.00  0.00    -0.269 OA
BRANCH  32  35
ATOM     35  C   UNL A   1      40.117  21.577  26.585  1.00  0.00     0.039 A 
ATOM     36  C   UNL A   1      41.196  21.712  27.464  1.00  0.00     0.014 A 
ATOM     37  C   UNL A   1      39.440  22.712  26.132  1.00  0.00     0.014 A 
ATOM     38  C   UNL A   1      41.653  22.986  27.814  1.00  0.00     0.010 A 
ATOM     39  C   UNL A   1      39.942  23.980  26.421  1.00  0.00     0.010 A 
ATOM     40  C   UNL A   1      41.059  24.132  27.259  1.00  0.00    -0.014 A 
BRANCH  40  41
ATOM     41  C   UNL A   1      41.585  25.493  27.549  1.00  0.00     0.031 A 
ATOM     42  C   UNL A   1      42.967  25.880  27.094  1.00  0.00     0.074 A 
ATOM     43  C   UNL A   1      40.850  26.363  28.272  1.00  0.00     0.049 A 
ATOM     44  N   UNL A   1      43.633  26.985  27.316  1.00  0.00    -0.248 NA
ATOM     45  C   UNL A   1      43.708  24.881  26.307  1.00  0.00     0.031 C 
ATOM     46  C   UNL A   1      39.517  26.099  28.819  1.00  0.00     0.029 A 
ATOM     47  N   UNL A   1      41.127  27.645  28.681  1.00  0.00    -0.354 N 
ATOM     48  C   UNL A   1      44.870  26.810  26.707  1.00  0.00     0.074 A 
ATOM     49  C   UNL A   1      44.883  25.472  26.157  1.00  0.00     0.031 C 
ATOM     50  C   UNL A   1      39.086  27.190  29.474  1.00  0.00     0.029 A 
ATOM     51  C   UNL A   1      40.120  28.219  29.421  1.00  0.00     0.049 A 
ATOM     52  H   UNL A   1      41.967  28.109  28.464  1.00  0.00     0.167 HD
ATOM     53  C   UNL A   1      45.891  27.691  26.590  1.00  0.00     0.037 A 
ATOM     54  C   UNL A   1      40.041  29.437  29.991  1.00  0.00     0.037 A 
ATOM     55  C   UNL A   1      45.874  29.031  27.115  1.00  0.00     0.049 A 
ATOM     56  C   UNL A   1      41.183  30.403  29.828  1.00  0.00     0.074 A 
ATOM     57  C   UNL A   1      46.856  30.002  27.035  1.00  0.00     0.029 A 
ATOM     58  N   UNL A   1      44.812  29.592  27.805  1.00  0.00    -0.354 N 
ATOM     59  N   UNL A   1      42.327  30.236  29.211  1.00  0.00    -0.248 NA
ATOM     60  C   UNL A   1      41.015  31.737  30.426  1.00  0.00     0.031 C 
ATOM     61  C   UNL A   1      46.395  31.147  27.693  1.00  0.00     0.029 A 
ATOM     62  C   UNL A   1      45.111  30.899  28.149  1.00  0.00     0.049 A 
ATOM     63  H   UNL A   1      43.969  29.130  28.018  1.00  0.00     0.167 HD
ATOM     64  C   UNL A   1      42.994  31.450  29.311  1.00  0.00     0.074 A 
ATOM     65  C   UNL A   1      42.125  32.349  30.039  1.00  0.00     0.031 C 
ATOM     66  C   UNL A   1      44.220  31.790  28.844  1.00  0.00     0.037 A 
BRANCH  53  67
ATOM     67  C   UNL A   1      47.109  27.236  25.841  1.00  0.00     0.057 A 
ATOM     68  C   UNL A   1      47.251  27.470  24.467  1.00  0.00     0.134 A 
ATOM     69  C   UNL A   1      48.162  26.591  26.500  1.00  0.00     0.134 A 
ATOM     70  F   UNL A   1      46.271  28.071  23.775  1.00  0.00    -0.206 F 
ATOM     71  C   UNL A   1      48.388  27.058  23.770  1.00  0.00     0.040 A 
ATOM     72  C   UNL A   1      49.316  26.196  25.818  1.00  0.00     0.040 A 
ATOM     73  F   UNL A   1      48.093  26.340  27.816  1.00  0.00    -0.206 F 
ATOM     74  C   UNL A   1      49.427  26.425  24.448  1.00  0.00     0.006 A 
ENDBRANCH  53  67
BRANCH  54  75
ATOM     75  C   UNL A   1      38.828  29.836  30.751  1.00  0.00     0.057 A 
ATOM     76  C   UNL A   1      38.725  29.594  32.127  1.00  0.00     0.134 A 
ATOM     77  C   UNL A   1      37.728  30.424  30.117  1.00  0.00     0.134 A 
ATOM     78  F   UNL A   1      39.738  29.014  32.787  1.00  0.00    -0.206 F 
ATOM     79  C   UNL A   1      37.561  29.890  32.838  1.00  0.00     0.040 A 
ATOM     80  C   UNL A   1      36.566  30.749  30.820  1.00  0.00     0.040 A 
ATOM     81  F   UNL A   1      37.766  30.689  28.803  1.00  0.00    -0.206 F 
ATOM     82  C   UNL A   1      36.477  30.471  32.183  1.00  0.00     0.006 A 
ENDBRANCH  54  75
BRANCH  66  83
ATOM     83  C   UNL A   1      44.662  33.209  29.044  1.00  0.00     0.057 A 
ATOM     84  C   UNL A   1      45.372  33.614  30.181  1.00  0.00     0.134 A 
ATOM     85  C   UNL A   1      44.398  34.177  28.065  1.00  0.00     0.134 A 
ATOM     86  F   UNL A   1      45.644  32.738  31.160  1.00  0.00    -0.206 F 
ATOM     87  C   UNL A   1      45.781  34.937  30.350  1.00  0.00     0.040 A 
ATOM     88  C   UNL A   1      44.824  35.497  28.212  1.00  0.00     0.040 A 
ATOM     89  F   UNL A   1      43.730  33.852  26.948  1.00  0.00    -0.206 F 
ATOM     90  C   UNL A   1      45.511  35.882  29.361  1.00  0.00     0.006 A 
ENDBRANCH  66  83
ENDBRANCH  40  41
ENDBRANCH  32  35
ENDBRANCH  30  31
ENDBRANCH  29  30
ENDBRANCH   1  29
TORSDOF 14
ENDMDL
