MODEL 1
REMARK VINA RESULT:     -12.0      0.000      0.000
REMARK SMILES COc1ccc(-c2csc(NC(=O)[C@H](CC(=O)NCCCCNC(=O)c3ccc(-c4c5nc(c(-c6c(F)cccc6F)c6ccc([nH]6)c(-c6c(F)cccc6F)c6nc(c(-c7c(F)cccc7F)c7ccc4[nH]7)C=C6)C=C5)cc3)[NH+]3CCCCC3)n2)cc1
REMARK SMILES IDX 19 1 18 2 16 3 17 4 15 6 14 7 12 8 11 9 13 11 10 12 7 13
REMARK SMILES IDX 8 14 86 15 9 16 6 17 3 18 4 19 88 20 5 21 87 22 2 23 1 24
REMARK SMILES IDX 80 25 81 26 85 27 82 29 84 30 83 31 20 32 21 33 22 34 23 35
REMARK SMILES IDX 24 36 25 38 26 39 27 40 79 41 28 42 78 43 29 44 30 45 31 46
REMARK SMILES IDX 72 47 32 48 77 49 71 50 73 51 33 52 76 53 70 54 69 55 34 57
REMARK SMILES IDX 60 58 43 59 59 60 44 61 47 62 58 63 74 64 45 65 46 66 57 68
REMARK SMILES IDX 75 69 48 70 35 71 36 72 41 73 37 74 38 75 40 76 42 77 39 78
REMARK SMILES IDX 61 79 62 80 67 81 63 82 64 83 66 84 68 85 65 86 49 87 50 88
REMARK SMILES IDX 55 89 51 90 52 91 54 92 56 93 53 94
REMARK H PARENT 18 5 11 10 80 28 23 37 73 56 47 67
REMARK Flexibility Score: inf
ROOT
ATOM      1  C   UNL A   1      36.795  22.164  25.198  1.00  0.00     0.116 C 
ENDROOT
BRANCH   1   2
ATOM      2  N   UNL A   1      35.868  22.833  26.084  1.00  0.00    -0.356 N 
ATOM      3  C   UNL A   1      35.024  23.873  25.904  1.00  0.00     0.226 C 
ATOM      4  O   UNL A   1      34.004  23.826  26.614  1.00  0.00    -0.275 OA
ATOM      5  H   UNL A   1      35.849  22.459  26.995  1.00  0.00     0.163 HD
BRANCH   3   6
ATOM      6  C   UNL A   1      35.151  25.057  24.953  1.00  0.00     0.175 C 
BRANCH   6   7
ATOM      7  C   UNL A   1      34.056  25.777  24.150  1.00  0.00     0.284 C 
BRANCH   7   8
ATOM      8  C   UNL A   1      33.415  25.027  22.908  1.00  0.00     0.285 C 
ATOM      9  N   UNL A   1      32.314  24.219  22.967  1.00  0.00    -0.297 N 
ATOM     10  H   UNL A   1      31.564  24.495  22.391  1.00  0.00     0.172 HD
ATOM     11  O   UNL A   1      33.774  25.377  21.770  1.00  0.00    -0.268 OA
BRANCH   9  12
ATOM     12  C   UNL A   1      32.094  23.087  23.702  1.00  0.00     0.190 A 
ATOM     13  C   UNL A   1      32.174  20.998  24.408  1.00  0.00     0.084 A 
ATOM     14  C   UNL A   1      31.250  21.530  25.291  1.00  0.00     0.097 A 
ATOM     15  N   UNL A   1      32.662  21.916  23.479  1.00  0.00    -0.220 NA
ATOM     16  S   UNL A   1      31.313  23.228  25.204  1.00  0.00    -0.105 S 
BRANCH  13  17
ATOM     17  C   UNL A   1      32.451  19.561  24.437  1.00  0.00     0.001 A 
ATOM     18  C   UNL A   1      33.560  16.970  24.331  1.00  0.00     0.118 A 
ATOM     19  C   UNL A   1      33.238  17.566  25.556  1.00  0.00     0.047 A 
ATOM     20  C   UNL A   1      33.211  17.624  23.156  1.00  0.00     0.047 A 
ATOM     21  C   UNL A   1      32.685  18.855  25.617  1.00  0.00     0.014 A 
ATOM     22  C   UNL A   1      32.646  18.898  23.214  1.00  0.00     0.014 A 
BRANCH  18  23
ATOM     23  O   UNL A   1      34.208  15.768  24.400  1.00  0.00    -0.497 OA
ATOM     24  C   UNL A   1      35.364  15.716  25.234  1.00  0.00     0.278 C 
ENDBRANCH  18  23
ENDBRANCH  13  17
ENDBRANCH   9  12
ENDBRANCH   7   8
BRANCH   7  25
ATOM     25  N   UNL A   1      33.095  26.631  24.916  1.00  0.00    -0.324 N 
ATOM     26  C   UNL A   1      33.715  27.325  26.060  1.00  0.00     0.262 C 
ATOM     27  C   UNL A   1      32.381  27.631  24.101  1.00  0.00     0.262 C 
ATOM     28  H   UNL A   1      32.413  25.952  25.253  1.00  0.00     0.348 HD
ATOM     29  C   UNL A   1      32.657  27.946  26.978  1.00  0.00     0.062 C 
ATOM     30  C   UNL A   1      31.212  28.213  24.901  1.00  0.00     0.062 C 
ATOM     31  C   UNL A   1      31.644  28.807  26.237  1.00  0.00     0.012 C 
ENDBRANCH   7  25
ENDBRANCH   6   7
ENDBRANCH   3   6
ENDBRANCH   1   2
BRANCH   1  32
ATOM     32  C   UNL A   1      36.604  20.664  25.027  1.00  0.00     0.023 C 
BRANCH  32  33
ATOM     33  C   UNL A   1      37.799  19.739  25.017  1.00  0.00     0.023 C 
BRANCH  33  34
ATOM     34  C   UNL A   1      39.024  20.190  25.767  1.00  0.00     0.116 C 
BRANCH  34  35
ATOM     35  N   UNL A   1      40.107  19.225  25.748  1.00  0.00    -0.352 N 
ATOM     36  C   UNL A   1      41.438  19.421  26.060  1.00  0.00     0.251 C 
ATOM     37  H   UNL A   1      39.861  18.311  25.479  1.00  0.00     0.163 HD
ATOM     38  O   UNL A   1      42.253  18.534  25.866  1.00  0.00    -0.269 OA
BRANCH  36  39
ATOM     39  C   UNL A   1      41.880  20.735  26.596  1.00  0.00     0.039 A 
ATOM     40  C   UNL A   1      42.294  21.728  25.706  1.00  0.00     0.014 A 
ATOM     41  C   UNL A   1      41.849  21.003  27.965  1.00  0.00     0.014 A 
ATOM     42  C   UNL A   1      42.613  23.004  26.187  1.00  0.00     0.010 A 
ATOM     43  C   UNL A   1      42.044  22.302  28.424  1.00  0.00     0.010 A 
ATOM     44  C   UNL A   1      42.450  23.320  27.547  1.00  0.00    -0.014 A 
BRANCH  44  45
ATOM     45  C   UNL A   1      42.714  24.689  28.074  1.00  0.00     0.031 A 
ATOM     46  C   UNL A   1      44.111  25.088  28.488  1.00  0.00     0.074 A 
ATOM     47  C   UNL A   1      41.701  25.565  28.245  1.00  0.00     0.049 A 
ATOM     48  N   UNL A   1      44.532  26.210  29.018  1.00  0.00    -0.248 NA
ATOM     49  C   UNL A   1      45.171  24.081  28.314  1.00  0.00     0.031 C 
ATOM     50  C   UNL A   1      40.289  25.299  27.964  1.00  0.00     0.029 A 
ATOM     51  N   UNL A   1      41.706  26.859  28.706  1.00  0.00    -0.354 N 
ATOM     52  C   UNL A   1      45.888  26.029  29.261  1.00  0.00     0.074 A 
ATOM     53  C   UNL A   1      46.205  24.668  28.895  1.00  0.00     0.031 C 
ATOM     54  C   UNL A   1      39.571  26.403  28.226  1.00  0.00     0.029 A 
ATOM     55  C   UNL A   1      40.463  27.446  28.723  1.00  0.00     0.049 A 
ATOM     56  H   UNL A   1      42.524  27.323  28.998  1.00  0.00     0.167 HD
ATOM     57  C   UNL A   1      46.803  26.923  29.708  1.00  0.00     0.037 A 
ATOM     58  C   UNL A   1      40.082  28.684  29.092  1.00  0.00     0.037 A 
ATOM     59  C   UNL A   1      46.507  28.293  30.027  1.00  0.00     0.049 A 
ATOM     60  C   UNL A   1      41.117  29.665  29.572  1.00  0.00     0.074 A 
ATOM     61  C   UNL A   1      47.379  29.296  30.414  1.00  0.00     0.029 A 
ATOM     62  N   UNL A   1      45.240  28.856  29.994  1.00  0.00    -0.354 N 
ATOM     63  N   UNL A   1      42.410  29.505  29.711  1.00  0.00    -0.248 NA
ATOM     64  C   UNL A   1      40.638  31.007  29.935  1.00  0.00     0.031 C 
ATOM     65  C   UNL A   1      46.635  30.453  30.659  1.00  0.00     0.029 A 
ATOM     66  C   UNL A   1      45.306  30.187  30.373  1.00  0.00     0.049 A 
ATOM     67  H   UNL A   1      44.416  28.381  29.739  1.00  0.00     0.167 HD
ATOM     68  C   UNL A   1      42.902  30.731  30.143  1.00  0.00     0.074 A 
ATOM     69  C   UNL A   1      41.771  31.629  30.230  1.00  0.00     0.031 C 
ATOM     70  C   UNL A   1      44.178  31.078  30.441  1.00  0.00     0.037 A 
BRANCH  57  71
ATOM     71  C   UNL A   1      48.221  26.447  29.854  1.00  0.00     0.057 A 
ATOM     72  C   UNL A   1      49.153  26.569  28.814  1.00  0.00     0.134 A 
ATOM     73  C   UNL A   1      48.667  25.882  31.055  1.00  0.00     0.134 A 
ATOM     74  F   UNL A   1      48.789  27.091  27.633  1.00  0.00    -0.206 F 
ATOM     75  C   UNL A   1      50.466  26.113  28.950  1.00  0.00     0.040 A 
ATOM     76  C   UNL A   1      49.985  25.453  31.214  1.00  0.00     0.040 A 
ATOM     77  F   UNL A   1      47.831  25.742  32.095  1.00  0.00    -0.206 F 
ATOM     78  C   UNL A   1      50.886  25.559  30.156  1.00  0.00     0.006 A 
ENDBRANCH  57  71
BRANCH  58  79
ATOM     79  C   UNL A   1      38.657  29.091  28.984  1.00  0.00     0.057 A 
ATOM     80  C   UNL A   1      37.800  29.010  30.088  1.00  0.00     0.134 A 
ATOM     81  C   UNL A   1      38.111  29.542  27.777  1.00  0.00     0.134 A 
ATOM     82  F   UNL A   1      38.258  28.565  31.268  1.00  0.00    -0.206 F 
ATOM     83  C   UNL A   1      36.446  29.335  29.991  1.00  0.00     0.040 A 
ATOM     84  C   UNL A   1      36.765  29.898  27.672  1.00  0.00     0.040 A 
ATOM     85  F   UNL A   1      38.879  29.648  26.683  1.00  0.00    -0.206 F 
ATOM     86  C   UNL A   1      35.926  29.786  28.779  1.00  0.00     0.006 A 
ENDBRANCH  58  79
BRANCH  70  87
ATOM     87  C   UNL A   1      44.432  32.502  30.846  1.00  0.00     0.057 A 
ATOM     88  C   UNL A   1      44.711  33.503  29.906  1.00  0.00     0.134 A 
ATOM     89  C   UNL A   1      44.350  32.885  32.191  1.00  0.00     0.134 A 
ATOM     90  F   UNL A   1      44.815  33.203  28.603  1.00  0.00    -0.206 F 
ATOM     91  C   UNL A   1      44.922  34.828  30.293  1.00  0.00     0.040 A 
ATOM     92  C   UNL A   1      44.529  34.210  32.586  1.00  0.00     0.040 A 
ATOM     93  F   UNL A   1      44.076  31.978  33.141  1.00  0.00    -0.206 F 
ATOM     94  C   UNL A   1      44.822  35.185  31.636  1.00  0.00     0.006 A 
ENDBRANCH  70  87
ENDBRANCH  44  45
ENDBRANCH  36  39
ENDBRANCH  34  35
ENDBRANCH  33  34
ENDBRANCH  32  33
ENDBRANCH   1  32
TORSDOF 17
ENDMDL
MODEL 2
REMARK VINA RESULT:     -12.0      3.572      9.364
REMARK SMILES COc1ccc(-c2csc(NC(=O)[C@H](CC(=O)NCCCCNC(=O)c3ccc(-c4c5nc(c(-c6c(F)cccc6F)c6ccc([nH]6)c(-c6c(F)cccc6F)c6nc(c(-c7c(F)cccc7F)c7ccc4[nH]7)C=C6)C=C5)cc3)[NH+]3CCCCC3)n2)cc1
REMARK SMILES IDX 19 1 18 2 16 3 17 4 15 6 14 7 12 8 11 9 13 11 10 12 7 13
REMARK SMILES IDX 8 14 86 15 9 16 6 17 3 18 4 19 88 20 5 21 87 22 2 23 1 24
REMARK SMILES IDX 80 25 81 26 85 27 82 29 84 30 83 31 20 32 21 33 22 34 23 35
REMARK SMILES IDX 24 36 25 38 26 39 27 40 79 41 28 42 78 43 29 44 30 45 31 46
REMARK SMILES IDX 72 47 32 48 77 49 71 50 73 51 33 52 76 53 70 54 69 55 34 57
REMARK SMILES IDX 60 58 43 59 59 60 44 61 47 62 58 63 74 64 45 65 46 66 57 68
REMARK SMILES IDX 75 69 48 70 35 71 36 72 41 73 37 74 38 75 40 76 42 77 39 78
REMARK SMILES IDX 61 79 62 80 67 81 63 82 64 83 66 84 68 85 65 86 49 87 50 88
REMARK SMILES IDX 55 89 51 90 52 91 54 92 56 93 53 94
REMARK H PARENT 18 5 11 10 80 28 23 37 73 56 47 67
REMARK Flexibility Score: inf
ROOT
ATOM      1  C   UNL A   1      32.711  29.496  26.283  1.00  0.00     0.116 C 
ENDROOT
BRANCH   1   2
ATOM      2  N   UNL A   1      33.451  28.782  25.266  1.00  0.00    -0.356 N 
ATOM      3  C   UNL A   1      33.743  27.473  25.102  1.00  0.00     0.226 C 
ATOM      4  O   UNL A   1      33.859  27.126  23.913  1.00  0.00    -0.275 OA
ATOM      5  H   UNL A   1      33.812  29.362  24.557  1.00  0.00     0.163 HD
BRANCH   3   6
ATOM      6  C   UNL A   1      33.926  26.392  26.160  1.00  0.00     0.175 C 
BRANCH   6   7
ATOM      7  C   UNL A   1      33.466  24.926  26.136  1.00  0.00     0.284 C 
BRANCH   7   8
ATOM      8  C   UNL A   1      31.909  24.623  26.149  1.00  0.00     0.285 C 
ATOM      9  N   UNL A   1      31.125  24.520  25.034  1.00  0.00    -0.297 N 
ATOM     10  H   UNL A   1      30.656  23.660  24.933  1.00  0.00     0.172 HD
ATOM     11  O   UNL A   1      31.406  24.213  27.209  1.00  0.00    -0.268 OA
BRANCH   9  12
ATOM     12  C   UNL A   1      30.891  25.427  24.038  1.00  0.00     0.190 A 
ATOM     13  C   UNL A   1      30.206  27.228  22.961  1.00  0.00     0.084 A 
ATOM     14  C   UNL A   1      30.749  26.497  21.918  1.00  0.00     0.097 A 
ATOM     15  N   UNL A   1      30.292  26.594  24.200  1.00  0.00    -0.220 NA
ATOM     16  S   UNL A   1      31.699  25.238  22.556  1.00  0.00    -0.105 S 
BRANCH  13  17
ATOM     17  C   UNL A   1      29.509  28.482  22.674  1.00  0.00     0.001 A 
ATOM     18  C   UNL A   1      28.200  30.979  22.738  1.00  0.00     0.118 A 
ATOM     19  C   UNL A   1      29.499  30.860  22.230  1.00  0.00     0.047 A 
ATOM     20  C   UNL A   1      27.514  29.827  23.099  1.00  0.00     0.047 A 
ATOM     21  C   UNL A   1      30.158  29.620  22.193  1.00  0.00     0.014 A 
ATOM     22  C   UNL A   1      28.160  28.591  23.048  1.00  0.00     0.014 A 
BRANCH  18  23
ATOM     23  O   UNL A   1      27.711  32.252  22.839  1.00  0.00    -0.497 OA
ATOM     24  C   UNL A   1      28.675  33.300  22.928  1.00  0.00     0.278 C 
ENDBRANCH  18  23
ENDBRANCH  13  17
ENDBRANCH   9  12
ENDBRANCH   7   8
BRANCH   7  25
ATOM     25  N   UNL A   1      34.272  23.967  25.316  1.00  0.00    -0.324 N 
ATOM     26  C   UNL A   1      35.724  24.216  25.389  1.00  0.00     0.262 C 
ATOM     27  C   UNL A   1      34.030  22.546  25.621  1.00  0.00     0.262 C 
ATOM     28  H   UNL A   1      33.939  24.149  24.370  1.00  0.00     0.348 HD
ATOM     29  C   UNL A   1      36.482  23.417  24.324  1.00  0.00     0.062 C 
ATOM     30  C   UNL A   1      34.644  21.669  24.527  1.00  0.00     0.062 C 
ATOM     31  C   UNL A   1      36.131  21.935  24.316  1.00  0.00     0.012 C 
ENDBRANCH   7  25
ENDBRANCH   6   7
ENDBRANCH   3   6
ENDBRANCH   1   2
BRANCH   1  32
ATOM     32  C   UNL A   1      31.621  30.438  25.792  1.00  0.00     0.023 C 
BRANCH  32  33
ATOM     33  C   UNL A   1      31.391  31.763  26.479  1.00  0.00     0.023 C 
BRANCH  33  34
ATOM     34  C   UNL A   1      32.582  32.418  27.129  1.00  0.00     0.116 C 
BRANCH  34  35
ATOM     35  N   UNL A   1      32.336  33.782  27.557  1.00  0.00    -0.352 N 
ATOM     36  C   UNL A   1      33.076  34.555  28.429  1.00  0.00     0.251 C 
ATOM     37  H   UNL A   1      31.538  34.212  27.175  1.00  0.00     0.163 HD
ATOM     38  O   UNL A   1      32.661  35.644  28.790  1.00  0.00    -0.269 OA
BRANCH  36  39
ATOM     39  C   UNL A   1      34.364  34.035  28.957  1.00  0.00     0.039 A 
ATOM     40  C   UNL A   1      34.350  33.171  30.054  1.00  0.00     0.014 A 
ATOM     41  C   UNL A   1      35.578  34.364  28.353  1.00  0.00     0.014 A 
ATOM     42  C   UNL A   1      35.545  32.590  30.497  1.00  0.00     0.010 A 
ATOM     43  C   UNL A   1      36.740  33.690  28.714  1.00  0.00     0.010 A 
ATOM     44  C   UNL A   1      36.748  32.808  29.806  1.00  0.00    -0.014 A 
BRANCH  44  45
ATOM     45  C   UNL A   1      38.022  32.148  30.214  1.00  0.00     0.031 A 
ATOM     46  C   UNL A   1      38.926  32.801  31.232  1.00  0.00     0.074 A 
ATOM     47  C   UNL A   1      38.409  30.992  29.634  1.00  0.00     0.049 A 
ATOM     48  N   UNL A   1      40.096  32.413  31.676  1.00  0.00    -0.248 NA
ATOM     49  C   UNL A   1      38.470  34.079  31.805  1.00  0.00     0.031 C 
ATOM     50  C   UNL A   1      37.682  30.281  28.581  1.00  0.00     0.029 A 
ATOM     51  N   UNL A   1      39.522  30.215  29.846  1.00  0.00    -0.354 N 
ATOM     52  C   UNL A   1      40.519  33.405  32.551  1.00  0.00     0.074 A 
ATOM     53  C   UNL A   1      39.521  34.451  32.518  1.00  0.00     0.031 C 
ATOM     54  C   UNL A   1      38.348  29.159  28.265  1.00  0.00     0.029 A 
ATOM     55  C   UNL A   1      39.565  29.083  29.066  1.00  0.00     0.049 A 
ATOM     56  H   UNL A   1      40.225  30.446  30.497  1.00  0.00     0.167 HD
ATOM     57  C   UNL A   1      41.615  33.434  33.345  1.00  0.00     0.037 A 
ATOM     58  C   UNL A   1      40.478  28.094  29.005  1.00  0.00     0.037 A 
ATOM     59  C   UNL A   1      42.588  32.377  33.421  1.00  0.00     0.049 A 
ATOM     60  C   UNL A   1      41.681  28.138  29.907  1.00  0.00     0.074 A 
ATOM     61  C   UNL A   1      43.691  32.279  34.252  1.00  0.00     0.029 A 
ATOM     62  N   UNL A   1      42.572  31.232  32.641  1.00  0.00    -0.354 N 
ATOM     63  N   UNL A   1      42.020  29.042  30.793  1.00  0.00    -0.248 NA
ATOM     64  C   UNL A   1      42.624  27.015  29.807  1.00  0.00     0.031 C 
ATOM     65  C   UNL A   1      44.368  31.097  33.942  1.00  0.00     0.029 A 
ATOM     66  C   UNL A   1      43.657  30.432  32.956  1.00  0.00     0.049 A 
ATOM     67  H   UNL A   1      41.890  31.018  31.962  1.00  0.00     0.167 HD
ATOM     68  C   UNL A   1      43.193  28.581  31.379  1.00  0.00     0.074 A 
ATOM     69  C   UNL A   1      43.499  27.311  30.758  1.00  0.00     0.031 C 
ATOM     70  C   UNL A   1      43.947  29.161  32.344  1.00  0.00     0.037 A 
BRANCH  57  71
ATOM     71  C   UNL A   1      41.807  34.644  34.217  1.00  0.00     0.057 A 
ATOM     72  C   UNL A   1      42.415  35.812  33.736  1.00  0.00     0.134 A 
ATOM     73  C   UNL A   1      41.359  34.649  35.544  1.00  0.00     0.134 A 
ATOM     74  F   UNL A   1      42.878  35.870  32.478  1.00  0.00    -0.206 F 
ATOM     75  C   UNL A   1      42.603  36.928  34.553  1.00  0.00     0.040 A 
ATOM     76  C   UNL A   1      41.511  35.771  36.359  1.00  0.00     0.040 A 
ATOM     77  F   UNL A   1      40.761  33.568  36.066  1.00  0.00    -0.206 F 
ATOM     78  C   UNL A   1      42.143  36.911  35.868  1.00  0.00     0.006 A 
ENDBRANCH  57  71
BRANCH  58  79
ATOM     79  C   UNL A   1      40.272  26.946  28.085  1.00  0.00     0.057 A 
ATOM     80  C   UNL A   1      39.510  25.838  28.474  1.00  0.00     0.134 A 
ATOM     81  C   UNL A   1      40.851  26.913  26.811  1.00  0.00     0.134 A 
ATOM     82  F   UNL A   1      38.947  25.801  29.691  1.00  0.00    -0.206 F 
ATOM     83  C   UNL A   1      39.352  24.728  27.643  1.00  0.00     0.040 A 
ATOM     84  C   UNL A   1      40.678  25.821  25.958  1.00  0.00     0.040 A 
ATOM     85  F   UNL A   1      41.589  27.944  26.374  1.00  0.00    -0.206 F 
ATOM     86  C   UNL A   1      39.934  24.720  26.377  1.00  0.00     0.006 A 
ENDBRANCH  58  79
BRANCH  70  87
ATOM     87  C   UNL A   1      45.154  28.408  32.826  1.00  0.00     0.057 A 
ATOM     88  C   UNL A   1      45.085  27.491  33.882  1.00  0.00     0.134 A 
ATOM     89  C   UNL A   1      46.393  28.572  32.194  1.00  0.00     0.134 A 
ATOM     90  F   UNL A   1      43.931  27.294  34.538  1.00  0.00    -0.206 F 
ATOM     91  C   UNL A   1      46.210  26.779  34.305  1.00  0.00     0.040 A 
ATOM     92  C   UNL A   1      47.516  27.846  32.587  1.00  0.00     0.040 A 
ATOM     93  F   UNL A   1      46.527  29.429  31.169  1.00  0.00    -0.206 F 
ATOM     94  C   UNL A   1      47.428  26.951  33.651  1.00  0.00     0.006 A 
ENDBRANCH  70  87
ENDBRANCH  44  45
ENDBRANCH  36  39
ENDBRANCH  34  35
ENDBRANCH  33  34
ENDBRANCH  32  33
ENDBRANCH   1  32
TORSDOF 17
ENDMDL
MODEL 3
REMARK VINA RESULT:     -11.9      4.275      9.303
REMARK SMILES COc1ccc(-c2csc(NC(=O)[C@H](CC(=O)NCCCCNC(=O)c3ccc(-c4c5nc(c(-c6c(F)cccc6F)c6ccc([nH]6)c(-c6c(F)cccc6F)c6nc(c(-c7c(F)cccc7F)c7ccc4[nH]7)C=C6)C=C5)cc3)[NH+]3CCCCC3)n2)cc1
REMARK SMILES IDX 19 1 18 2 16 3 17 4 15 6 14 7 12 8 11 9 13 11 10 12 7 13
REMARK SMILES IDX 8 14 86 15 9 16 6 17 3 18 4 19 88 20 5 21 87 22 2 23 1 24
REMARK SMILES IDX 80 25 81 26 85 27 82 29 84 30 83 31 20 32 21 33 22 34 23 35
REMARK SMILES IDX 24 36 25 38 26 39 27 40 79 41 28 42 78 43 29 44 30 45 31 46
REMARK SMILES IDX 72 47 32 48 77 49 71 50 73 51 33 52 76 53 70 54 69 55 34 57
REMARK SMILES IDX 60 58 43 59 59 60 44 61 47 62 58 63 74 64 45 65 46 66 57 68
REMARK SMILES IDX 75 69 48 70 35 71 36 72 41 73 37 74 38 75 40 76 42 77 39 78
REMARK SMILES IDX 61 79 62 80 67 81 63 82 64 83 66 84 68 85 65 86 49 87 50 88
REMARK SMILES IDX 55 89 51 90 52 91 54 92 56 93 53 94
REMARK H PARENT 18 5 11 10 80 28 23 37 73 56 47 67
REMARK Flexibility Score: inf
ROOT
ATOM      1  C   UNL A   1      32.013  29.243  26.041  1.00  0.00     0.116 C 
ENDROOT
BRANCH   1   2
ATOM      2  N   UNL A   1      33.068  28.744  25.186  1.00  0.00    -0.356 N 
ATOM      3  C   UNL A   1      33.651  27.530  25.072  1.00  0.00     0.226 C 
ATOM      4  O   UNL A   1      34.066  27.274  23.928  1.00  0.00    -0.275 OA
ATOM      5  H   UNL A   1      33.432  29.420  24.569  1.00  0.00     0.163 HD
BRANCH   3   6
ATOM      6  C   UNL A   1      33.845  26.456  26.136  1.00  0.00     0.175 C 
BRANCH   6   7
ATOM      7  C   UNL A   1      33.361  24.998  26.138  1.00  0.00     0.284 C 
BRANCH   7   8
ATOM      8  C   UNL A   1      31.799  24.721  26.119  1.00  0.00     0.285 C 
ATOM      9  N   UNL A   1      31.034  24.641  24.988  1.00  0.00    -0.297 N 
ATOM     10  H   UNL A   1      30.553  23.790  24.870  1.00  0.00     0.172 HD
ATOM     11  O   UNL A   1      31.269  24.310  27.165  1.00  0.00    -0.268 OA
BRANCH   9  12
ATOM     12  C   UNL A   1      30.835  25.560  23.996  1.00  0.00     0.190 A 
ATOM     13  C   UNL A   1      30.173  27.366  22.913  1.00  0.00     0.084 A 
ATOM     14  C   UNL A   1      30.782  26.663  21.888  1.00  0.00     0.097 A 
ATOM     15  N   UNL A   1      30.207  26.713  24.145  1.00  0.00    -0.220 NA
ATOM     16  S   UNL A   1      31.722  25.411  22.554  1.00  0.00    -0.105 S 
BRANCH  13  17
ATOM     17  C   UNL A   1      29.468  28.612  22.611  1.00  0.00     0.001 A 
ATOM     18  C   UNL A   1      28.212  31.137  22.629  1.00  0.00     0.118 A 
ATOM     19  C   UNL A   1      29.445  30.952  21.995  1.00  0.00     0.047 A 
ATOM     20  C   UNL A   1      27.551  30.030  23.146  1.00  0.00     0.047 A 
ATOM     21  C   UNL A   1      30.077  29.698  21.980  1.00  0.00     0.014 A 
ATOM     22  C   UNL A   1      28.168  28.779  23.118  1.00  0.00     0.014 A 
BRANCH  18  23
ATOM     23  O   UNL A   1      27.755  32.425  22.688  1.00  0.00    -0.497 OA
ATOM     24  C   UNL A   1      28.718  33.427  23.013  1.00  0.00     0.278 C 
ENDBRANCH  18  23
ENDBRANCH  13  17
ENDBRANCH   9  12
ENDBRANCH   7   8
BRANCH   7  25
ATOM     25  N   UNL A   1      34.170  24.005  25.364  1.00  0.00    -0.324 N 
ATOM     26  C   UNL A   1      35.618  24.285  25.395  1.00  0.00     0.262 C 
ATOM     27  C   UNL A   1      33.962  22.601  25.763  1.00  0.00     0.262 C 
ATOM     28  H   UNL A   1      33.817  24.121  24.415  1.00  0.00     0.348 HD
ATOM     29  C   UNL A   1      36.373  23.434  24.367  1.00  0.00     0.062 C 
ATOM     30  C   UNL A   1      34.574  21.669  24.714  1.00  0.00     0.062 C 
ATOM     31  C   UNL A   1      36.051  21.949  24.459  1.00  0.00     0.012 C 
ENDBRANCH   7  25
ENDBRANCH   6   7
ENDBRANCH   3   6
ENDBRANCH   1   2
BRANCH   1  32
ATOM     32  C   UNL A   1      31.141  30.349  25.464  1.00  0.00     0.023 C 
BRANCH  32  33
ATOM     33  C   UNL A   1      31.072  31.698  26.141  1.00  0.00     0.023 C 
BRANCH  33  34
ATOM     34  C   UNL A   1      32.362  32.271  26.666  1.00  0.00     0.116 C 
BRANCH  34  35
ATOM     35  N   UNL A   1      32.230  33.616  27.194  1.00  0.00    -0.352 N 
ATOM     36  C   UNL A   1      33.001  34.240  28.154  1.00  0.00     0.251 C 
ATOM     37  H   UNL A   1      31.497  34.152  26.818  1.00  0.00     0.163 HD
ATOM     38  O   UNL A   1      32.678  35.334  28.587  1.00  0.00    -0.269 OA
BRANCH  36  39
ATOM     39  C   UNL A   1      34.206  33.553  28.688  1.00  0.00     0.039 A 
ATOM     40  C   UNL A   1      35.424  34.235  28.709  1.00  0.00     0.014 A 
ATOM     41  C   UNL A   1      34.131  32.258  29.204  1.00  0.00     0.014 A 
ATOM     42  C   UNL A   1      36.544  33.641  29.304  1.00  0.00     0.010 A 
ATOM     43  C   UNL A   1      35.207  31.725  29.904  1.00  0.00     0.010 A 
ATOM     44  C   UNL A   1      36.439  32.397  29.948  1.00  0.00    -0.014 A 
BRANCH  44  45
ATOM     45  C   UNL A   1      37.597  31.773  30.650  1.00  0.00     0.031 A 
ATOM     46  C   UNL A   1      38.433  30.723  29.956  1.00  0.00     0.074 A 
ATOM     47  C   UNL A   1      37.874  32.094  31.931  1.00  0.00     0.049 A 
ATOM     48  N   UNL A   1      39.443  30.027  30.415  1.00  0.00    -0.248 NA
ATOM     49  C   UNL A   1      38.062  30.386  28.571  1.00  0.00     0.031 C 
ATOM     50  C   UNL A   1      37.113  33.032  32.758  1.00  0.00     0.029 A 
ATOM     51  N   UNL A   1      38.873  31.656  32.767  1.00  0.00    -0.354 N 
ATOM     52  C   UNL A   1      39.805  29.162  29.391  1.00  0.00     0.074 A 
ATOM     53  C   UNL A   1      38.860  29.361  28.316  1.00  0.00     0.031 C 
ATOM     54  C   UNL A   1      37.691  33.124  33.968  1.00  0.00     0.029 A 
ATOM     55  C   UNL A   1      38.843  32.230  34.016  1.00  0.00     0.049 A 
ATOM     56  H   UNL A   1      39.549  30.992  32.497  1.00  0.00     0.167 HD
ATOM     57  C   UNL A   1      40.852  28.305  29.326  1.00  0.00     0.037 A 
ATOM     58  C   UNL A   1      39.653  32.062  35.079  1.00  0.00     0.037 A 
ATOM     59  C   UNL A   1      41.825  28.135  30.371  1.00  0.00     0.049 A 
ATOM     60  C   UNL A   1      40.819  31.116  34.980  1.00  0.00     0.074 A 
ATOM     61  C   UNL A   1      42.964  27.349  30.368  1.00  0.00     0.029 A 
ATOM     62  N   UNL A   1      41.777  28.765  31.605  1.00  0.00    -0.354 N 
ATOM     63  N   UNL A   1      41.199  30.370  33.971  1.00  0.00    -0.248 NA
ATOM     64  C   UNL A   1      41.677  30.997  36.167  1.00  0.00     0.031 C 
ATOM     65  C   UNL A   1      43.581  27.467  31.616  1.00  0.00     0.029 A 
ATOM     66  C   UNL A   1      42.856  28.369  32.378  1.00  0.00     0.049 A 
ATOM     67  H   UNL A   1      41.080  29.400  31.889  1.00  0.00     0.167 HD
ATOM     68  C   UNL A   1      42.355  29.723  34.389  1.00  0.00     0.074 A 
ATOM     69  C   UNL A   1      42.623  30.175  35.737  1.00  0.00     0.031 C 
ATOM     70  C   UNL A   1      43.124  28.835  33.714  1.00  0.00     0.037 A 
BRANCH  57  71
ATOM     71  C   UNL A   1      41.010  27.500  28.066  1.00  0.00     0.057 A 
ATOM     72  C   UNL A   1      41.759  27.970  26.978  1.00  0.00     0.134 A 
ATOM     73  C   UNL A   1      40.428  26.232  27.948  1.00  0.00     0.134 A 
ATOM     74  F   UNL A   1      42.334  29.181  27.020  1.00  0.00    -0.206 F 
ATOM     75  C   UNL A   1      41.892  27.224  25.805  1.00  0.00     0.040 A 
ATOM     76  C   UNL A   1      40.582  25.463  26.794  1.00  0.00     0.040 A 
ATOM     77  F   UNL A   1      39.705  25.717  28.954  1.00  0.00    -0.206 F 
ATOM     78  C   UNL A   1      41.307  25.963  25.714  1.00  0.00     0.006 A 
ENDBRANCH  57  71
BRANCH  58  79
ATOM     79  C   UNL A   1      39.422  32.838  36.324  1.00  0.00     0.057 A 
ATOM     80  C   UNL A   1      40.080  34.054  36.548  1.00  0.00     0.134 A 
ATOM     81  C   UNL A   1      38.563  32.377  37.329  1.00  0.00     0.134 A 
ATOM     82  F   UNL A   1      40.931  34.538  35.632  1.00  0.00    -0.206 F 
ATOM     83  C   UNL A   1      39.915  34.769  37.735  1.00  0.00     0.040 A 
ATOM     84  C   UNL A   1      38.368  33.096  38.510  1.00  0.00     0.040 A 
ATOM     85  F   UNL A   1      37.898  31.223  37.175  1.00  0.00    -0.206 F 
ATOM     86  C   UNL A   1      39.052  34.291  38.719  1.00  0.00     0.006 A 
ENDBRANCH  58  79
BRANCH  70  87
ATOM     87  C   UNL A   1      44.357  28.322  34.401  1.00  0.00     0.057 A 
ATOM     88  C   UNL A   1      45.570  29.023  34.371  1.00  0.00     0.134 A 
ATOM     89  C   UNL A   1      44.317  27.134  35.142  1.00  0.00     0.134 A 
ATOM     90  F   UNL A   1      45.680  30.162  33.671  1.00  0.00    -0.206 F 
ATOM     91  C   UNL A   1      46.703  28.548  35.034  1.00  0.00     0.040 A 
ATOM     92  C   UNL A   1      45.433  26.665  35.833  1.00  0.00     0.040 A 
ATOM     93  F   UNL A   1      43.184  26.419  35.220  1.00  0.00    -0.206 F 
ATOM     94  C   UNL A   1      46.634  27.370  35.775  1.00  0.00     0.006 A 
ENDBRANCH  70  87
ENDBRANCH  44  45
ENDBRANCH  36  39
ENDBRANCH  34  35
ENDBRANCH  33  34
ENDBRANCH  32  33
ENDBRANCH   1  32
TORSDOF 17
ENDMDL
