MODEL 1
REMARK VINA RESULT:     -12.2      0.000      0.000
REMARK SMILES CC(C)CCc1cc2c(cc1Cl)C=C(C(=O)NCCCCNC(=O)c1ccc(-c3c4nc(c(-c5c(F)cccc5F)c5ccc([nH]5)c(-c5c(F)cccc5F)c5nc(c(-c6c(F)cccc6F)c6ccc3[nH]6)C=C5)C=C4)cc1)[C@H](C(F)(F)F)O2
REMARK SMILES IDX 19 1 18 2 17 3 15 4 16 5 14 7 6 8 7 9 11 10 8 11 10 12 12 13
REMARK SMILES IDX 9 14 84 15 13 16 79 17 5 18 4 19 2 20 1 21 3 22 80 23 81 24
REMARK SMILES IDX 82 25 83 26 20 27 21 28 22 29 23 30 24 32 25 33 26 34 78 35
REMARK SMILES IDX 27 36 77 37 28 38 29 39 30 40 71 41 31 42 76 43 70 44 72 45
REMARK SMILES IDX 32 46 75 47 69 48 68 49 33 51 59 52 42 53 58 54 43 55 46 56
REMARK SMILES IDX 57 57 73 58 44 59 45 60 56 62 74 63 47 64 34 65 35 66 40 67
REMARK SMILES IDX 36 68 37 69 39 70 41 71 38 72 60 73 61 74 66 75 62 76 63 77
REMARK SMILES IDX 65 78 67 79 64 80 48 81 49 82 54 83 50 84 51 85 53 86 55 87
REMARK SMILES IDX 52 88
REMARK H PARENT 17 6 22 31 72 50 46 61
REMARK Flexibility Score: inf
ROOT
ATOM      1  C   UNL A   1      37.158  22.511  24.646  1.00  0.00     0.023 C 
ENDROOT
BRANCH   1   2
ATOM      2  C   UNL A   1      36.478  23.440  25.651  1.00  0.00     0.116 C 
BRANCH   2   3
ATOM      3  N   UNL A   1      35.403  22.779  26.374  1.00  0.00    -0.352 N 
ATOM      4  C   UNL A   1      34.049  22.800  26.388  1.00  0.00     0.251 C 
ATOM      5  O   UNL A   1      33.523  21.984  27.153  1.00  0.00    -0.270 OA
ATOM      6  H   UNL A   1      35.757  22.141  27.035  1.00  0.00     0.163 HD
BRANCH   4   7
ATOM      7  C   UNL A   1      33.183  23.706  25.580  1.00  0.00     0.067 C 
ATOM      8  C   UNL A   1      30.542  27.561  23.699  1.00  0.00    -0.026 A 
ATOM      9  C   UNL A   1      30.531  26.173  23.522  1.00  0.00     0.052 A 
ATOM     10  C   UNL A   1      31.307  28.074  24.764  1.00  0.00     0.045 A 
ATOM     11  C   UNL A   1      31.356  25.350  24.276  1.00  0.00     0.128 A 
ATOM     12  C   UNL A   1      32.068  27.223  25.588  1.00  0.00     0.032 A 
ATOM     13  Cl  UNL A   1      31.356  29.762  25.131  1.00  0.00    -0.084 Cl
ATOM     14  C   UNL A   1      32.117  25.854  25.326  1.00  0.00     0.019 A 
ATOM     15  O   UNL A   1      31.390  24.033  23.915  1.00  0.00    -0.475 OA
ATOM     16  C   UNL A   1      32.920  24.919  26.109  1.00  0.00     0.025 C 
ATOM     17  C   UNL A   1      32.659  23.388  24.207  1.00  0.00     0.314 C 
BRANCH   8  18
ATOM     18  C   UNL A   1      29.737  28.409  22.735  1.00  0.00     0.037 C 
BRANCH  18  19
ATOM     19  C   UNL A   1      28.278  28.682  23.165  1.00  0.00     0.008 C 
BRANCH  19  20
ATOM     20  C   UNL A   1      27.595  29.958  22.617  1.00  0.00    -0.017 C 
ATOM     21  C   UNL A   1      27.612  31.122  23.611  1.00  0.00     0.007 C 
ATOM     22  C   UNL A   1      28.259  30.401  21.309  1.00  0.00     0.007 C 
ENDBRANCH  19  20
ENDBRANCH  18  19
ENDBRANCH   8  18
BRANCH  17  23
ATOM     23  C   UNL A   1      33.692  23.634  23.091  1.00  0.00     0.429 C 
ATOM     24  F   UNL A   1      34.457  24.727  23.299  1.00  0.00    -0.167 F 
ATOM     25  F   UNL A   1      34.541  22.591  22.937  1.00  0.00    -0.167 F 
ATOM     26  F   UNL A   1      33.063  23.803  21.899  1.00  0.00    -0.167 F 
ENDBRANCH  17  23
ENDBRANCH   4   7
ENDBRANCH   2   3
ENDBRANCH   1   2
BRANCH   1  27
ATOM     27  C   UNL A   1      37.582  21.159  25.219  1.00  0.00     0.023 C 
BRANCH  27  28
ATOM     28  C   UNL A   1      38.911  21.163  25.961  1.00  0.00     0.116 C 
BRANCH  28  29
ATOM     29  N   UNL A   1      39.743  19.993  25.719  1.00  0.00    -0.352 N 
ATOM     30  C   UNL A   1      41.097  19.867  25.956  1.00  0.00     0.251 C 
ATOM     31  H   UNL A   1      39.289  19.203  25.345  1.00  0.00     0.163 HD
ATOM     32  O   UNL A   1      41.707  18.855  25.654  1.00  0.00    -0.269 OA
BRANCH  30  33
ATOM     33  C   UNL A   1      41.803  21.032  26.531  1.00  0.00     0.039 A 
ATOM     34  C   UNL A   1      41.927  21.149  27.915  1.00  0.00     0.014 A 
ATOM     35  C   UNL A   1      42.198  22.072  25.687  1.00  0.00     0.014 A 
ATOM     36  C   UNL A   1      42.255  22.380  28.462  1.00  0.00     0.010 A 
ATOM     37  C   UNL A   1      42.619  23.283  26.243  1.00  0.00     0.010 A 
ATOM     38  C   UNL A   1      42.587  23.467  27.634  1.00  0.00    -0.014 A 
BRANCH  38  39
ATOM     39  C   UNL A   1      42.863  24.787  28.259  1.00  0.00     0.031 A 
ATOM     40  C   UNL A   1      44.270  25.215  28.581  1.00  0.00     0.074 A 
ATOM     41  C   UNL A   1      41.838  25.639  28.451  1.00  0.00     0.049 A 
ATOM     42  N   UNL A   1      44.693  26.352  29.076  1.00  0.00    -0.248 NA
ATOM     43  C   UNL A   1      45.344  24.242  28.321  1.00  0.00     0.031 C 
ATOM     44  C   UNL A   1      40.432  25.343  28.168  1.00  0.00     0.029 A 
ATOM     45  N   UNL A   1      41.824  26.938  28.888  1.00  0.00    -0.354 N 
ATOM     46  C   UNL A   1      46.070  26.222  29.211  1.00  0.00     0.074 A 
ATOM     47  C   UNL A   1      46.413  24.890  28.765  1.00  0.00     0.031 C 
ATOM     48  C   UNL A   1      39.703  26.449  28.367  1.00  0.00     0.029 A 
ATOM     49  C   UNL A   1      40.577  27.510  28.854  1.00  0.00     0.049 A 
ATOM     50  H   UNL A   1      42.629  27.413  29.197  1.00  0.00     0.167 HD
ATOM     51  C   UNL A   1      46.967  27.135  29.659  1.00  0.00     0.037 A 
ATOM     52  C   UNL A   1      40.178  28.752  29.182  1.00  0.00     0.037 A 
ATOM     53  C   UNL A   1      46.630  28.473  30.071  1.00  0.00     0.049 A 
ATOM     54  C   UNL A   1      41.190  29.735  29.689  1.00  0.00     0.074 A 
ATOM     55  C   UNL A   1      47.472  29.478  30.516  1.00  0.00     0.029 A 
ATOM     56  N   UNL A   1      45.346  28.995  30.081  1.00  0.00    -0.354 N 
ATOM     57  N   UNL A   1      42.486  29.594  29.817  1.00  0.00    -0.248 NA
ATOM     58  C   UNL A   1      40.678  31.045  30.114  1.00  0.00     0.031 C 
ATOM     59  C   UNL A   1      46.692  30.598  30.827  1.00  0.00     0.029 A 
ATOM     60  C   UNL A   1      45.369  30.302  30.542  1.00  0.00     0.049 A 
ATOM     61  H   UNL A   1      44.536  28.509  29.804  1.00  0.00     0.167 HD
ATOM     62  C   UNL A   1      42.947  30.794  30.337  1.00  0.00     0.074 A 
ATOM     63  C   UNL A   1      41.796  31.662  30.472  1.00  0.00     0.031 C 
ATOM     64  C   UNL A   1      44.210  31.144  30.682  1.00  0.00     0.037 A 
BRANCH  51  65
ATOM     65  C   UNL A   1      48.404  26.709  29.742  1.00  0.00     0.057 A 
ATOM     66  C   UNL A   1      49.284  26.963  28.682  1.00  0.00     0.134 A 
ATOM     67  C   UNL A   1      48.909  26.017  30.850  1.00  0.00     0.134 A 
ATOM     68  F   UNL A   1      48.862  27.617  27.589  1.00  0.00    -0.206 F 
ATOM     69  C   UNL A   1      50.616  26.544  28.722  1.00  0.00     0.040 A 
ATOM     70  C   UNL A   1      50.244  25.611  30.910  1.00  0.00     0.040 A 
ATOM     71  F   UNL A   1      48.122  25.754  31.904  1.00  0.00    -0.206 F 
ATOM     72  C   UNL A   1      51.100  25.870  29.840  1.00  0.00     0.006 A 
ENDBRANCH  51  65
BRANCH  52  73
ATOM     73  C   UNL A   1      38.750  29.128  29.045  1.00  0.00     0.057 A 
ATOM     74  C   UNL A   1      38.229  29.578  27.827  1.00  0.00     0.134 A 
ATOM     75  C   UNL A   1      37.878  29.055  30.138  1.00  0.00     0.134 A 
ATOM     76  F   UNL A   1      39.018  29.674  26.748  1.00  0.00    -0.206 F 
ATOM     77  C   UNL A   1      36.893  29.959  27.702  1.00  0.00     0.040 A 
ATOM     78  C   UNL A   1      36.535  29.410  30.020  1.00  0.00     0.040 A 
ATOM     79  F   UNL A   1      38.319  28.615  31.324  1.00  0.00    -0.206 F 
ATOM     80  C   UNL A   1      36.041  29.870  28.801  1.00  0.00     0.006 A 
ENDBRANCH  52  73
BRANCH  64  81
ATOM     81  C   UNL A   1      44.397  32.523  31.236  1.00  0.00     0.057 A 
ATOM     82  C   UNL A   1      44.641  33.609  30.388  1.00  0.00     0.134 A 
ATOM     83  C   UNL A   1      44.333  32.773  32.612  1.00  0.00     0.134 A 
ATOM     84  F   UNL A   1      44.716  33.434  29.059  1.00  0.00    -0.206 F 
ATOM     85  C   UNL A   1      44.812  34.899  30.890  1.00  0.00     0.040 A 
ATOM     86  C   UNL A   1      44.482  34.061  33.125  1.00  0.00     0.040 A 
ATOM     87  F   UNL A   1      44.084  31.774  33.473  1.00  0.00    -0.206 F 
ATOM     88  C   UNL A   1      44.724  35.129  32.262  1.00  0.00     0.006 A 
ENDBRANCH  64  81
ENDBRANCH  38  39
ENDBRANCH  30  33
ENDBRANCH  28  29
ENDBRANCH  27  28
ENDBRANCH   1  27
TORSDOF 15
ENDMDL
MODEL 2
REMARK VINA RESULT:     -12.2      1.099      1.849
REMARK SMILES CC(C)CCc1cc2c(cc1Cl)C=C(C(=O)NCCCCNC(=O)c1ccc(-c3c4nc(c(-c5c(F)cccc5F)c5ccc([nH]5)c(-c5c(F)cccc5F)c5nc(c(-c6c(F)cccc6F)c6ccc3[nH]6)C=C5)C=C4)cc1)[C@H](C(F)(F)F)O2
REMARK SMILES IDX 19 1 18 2 17 3 15 4 16 5 14 7 6 8 7 9 11 10 8 11 10 12 12 13
REMARK SMILES IDX 9 14 84 15 13 16 79 17 5 18 4 19 2 20 1 21 3 22 80 23 81 24
REMARK SMILES IDX 82 25 83 26 20 27 21 28 22 29 23 30 24 32 25 33 26 34 78 35
REMARK SMILES IDX 27 36 77 37 28 38 29 39 30 40 71 41 31 42 76 43 70 44 72 45
REMARK SMILES IDX 32 46 75 47 69 48 68 49 33 51 59 52 42 53 58 54 43 55 46 56
REMARK SMILES IDX 57 57 73 58 44 59 45 60 56 62 74 63 47 64 34 65 35 66 40 67
REMARK SMILES IDX 36 68 37 69 39 70 41 71 38 72 60 73 61 74 66 75 62 76 63 77
REMARK SMILES IDX 65 78 67 79 64 80 48 81 49 82 54 83 50 84 51 85 53 86 55 87
REMARK SMILES IDX 52 88
REMARK H PARENT 17 6 22 31 72 50 46 61
REMARK Flexibility Score: inf
ROOT
ATOM      1  C   UNL A   1      37.005  22.623  24.776  1.00  0.00     0.023 C 
ENDROOT
BRANCH   1   2
ATOM      2  C   UNL A   1      36.623  23.265  26.109  1.00  0.00     0.116 C 
BRANCH   2   3
ATOM      3  N   UNL A   1      35.552  22.546  26.780  1.00  0.00    -0.352 N 
ATOM      4  C   UNL A   1      34.219  22.691  26.973  1.00  0.00     0.251 C 
ATOM      5  O   UNL A   1      33.676  21.760  27.578  1.00  0.00    -0.270 OA
ATOM      6  H   UNL A   1      35.889  21.729  27.214  1.00  0.00     0.163 HD
BRANCH   4   7
ATOM      7  C   UNL A   1      33.396  23.852  26.529  1.00  0.00     0.067 C 
ATOM      8  C   UNL A   1      31.629  28.102  24.480  1.00  0.00    -0.026 A 
ATOM      9  C   UNL A   1      31.221  27.259  25.520  1.00  0.00     0.052 A 
ATOM     10  C   UNL A   1      32.916  27.898  23.946  1.00  0.00     0.045 A 
ATOM     11  C   UNL A   1      31.997  26.176  25.909  1.00  0.00     0.128 A 
ATOM     12  C   UNL A   1      33.739  26.855  24.412  1.00  0.00     0.032 A 
ATOM     13  Cl  UNL A   1      33.566  28.908  22.703  1.00  0.00    -0.084 Cl
ATOM     14  C   UNL A   1      33.267  25.969  25.380  1.00  0.00     0.019 A 
ATOM     15  O   UNL A   1      31.436  25.324  26.817  1.00  0.00    -0.475 OA
ATOM     16  C   UNL A   1      34.047  24.838  25.876  1.00  0.00     0.025 C 
ATOM     17  C   UNL A   1      31.905  23.954  26.690  1.00  0.00     0.314 C 
BRANCH   8  18
ATOM     18  C   UNL A   1      30.661  29.166  24.003  1.00  0.00     0.037 C 
BRANCH  18  19
ATOM     19  C   UNL A   1      29.546  28.661  23.060  1.00  0.00     0.008 C 
BRANCH  19  20
ATOM     20  C   UNL A   1      28.271  29.527  22.928  1.00  0.00    -0.017 C 
ATOM     21  C   UNL A   1      28.145  30.204  21.561  1.00  0.00     0.007 C 
ATOM     22  C   UNL A   1      27.021  28.681  23.189  1.00  0.00     0.007 C 
ENDBRANCH  19  20
ENDBRANCH  18  19
ENDBRANCH   8  18
BRANCH  17  23
ATOM     23  C   UNL A   1      31.122  23.184  25.610  1.00  0.00     0.429 C 
ATOM     24  F   UNL A   1      30.314  22.226  26.113  1.00  0.00    -0.167 F 
ATOM     25  F   UNL A   1      30.339  23.997  24.863  1.00  0.00    -0.167 F 
ATOM     26  F   UNL A   1      31.981  22.575  24.752  1.00  0.00    -0.167 F 
ENDBRANCH  17  23
ENDBRANCH   4   7
ENDBRANCH   2   3
ENDBRANCH   1   2
BRANCH   1  27
ATOM     27  C   UNL A   1      37.665  21.250  24.900  1.00  0.00     0.023 C 
BRANCH  27  28
ATOM     28  C   UNL A   1      38.908  21.211  25.779  1.00  0.00     0.116 C 
BRANCH  28  29
ATOM     29  N   UNL A   1      39.701  19.996  25.653  1.00  0.00    -0.352 N 
ATOM     30  C   UNL A   1      41.026  19.824  25.998  1.00  0.00     0.251 C 
ATOM     31  H   UNL A   1      39.240  19.210  25.279  1.00  0.00     0.163 HD
ATOM     32  O   UNL A   1      41.609  18.774  25.788  1.00  0.00    -0.269 OA
BRANCH  30  33
ATOM     33  C   UNL A   1      41.739  20.983  26.576  1.00  0.00     0.039 A 
ATOM     34  C   UNL A   1      41.807  21.130  27.962  1.00  0.00     0.014 A 
ATOM     35  C   UNL A   1      42.199  21.991  25.727  1.00  0.00     0.014 A 
ATOM     36  C   UNL A   1      42.146  22.365  28.494  1.00  0.00     0.010 A 
ATOM     37  C   UNL A   1      42.630  23.203  26.272  1.00  0.00     0.010 A 
ATOM     38  C   UNL A   1      42.544  23.422  27.656  1.00  0.00    -0.014 A 
BRANCH  38  39
ATOM     39  C   UNL A   1      42.830  24.748  28.261  1.00  0.00     0.031 A 
ATOM     40  C   UNL A   1      44.242  25.176  28.562  1.00  0.00     0.074 A 
ATOM     41  C   UNL A   1      41.810  25.606  28.454  1.00  0.00     0.049 A 
ATOM     42  N   UNL A   1      44.673  26.319  29.037  1.00  0.00    -0.248 NA
ATOM     43  C   UNL A   1      45.310  24.198  28.302  1.00  0.00     0.031 C 
ATOM     44  C   UNL A   1      40.400  25.310  28.190  1.00  0.00     0.029 A 
ATOM     45  N   UNL A   1      41.803  26.910  28.875  1.00  0.00    -0.354 N 
ATOM     46  C   UNL A   1      46.051  26.187  29.159  1.00  0.00     0.074 A 
ATOM     47  C   UNL A   1      46.385  24.848  28.726  1.00  0.00     0.031 C 
ATOM     48  C   UNL A   1      39.676  26.421  28.384  1.00  0.00     0.029 A 
ATOM     49  C   UNL A   1      40.558  27.485  28.847  1.00  0.00     0.049 A 
ATOM     50  H   UNL A   1      42.614  27.386  29.169  1.00  0.00     0.167 HD
ATOM     51  C   UNL A   1      46.956  27.102  29.585  1.00  0.00     0.037 A 
ATOM     52  C   UNL A   1      40.165  28.732  29.164  1.00  0.00     0.037 A 
ATOM     53  C   UNL A   1      46.627  28.446  29.984  1.00  0.00     0.049 A 
ATOM     54  C   UNL A   1      41.186  29.719  29.648  1.00  0.00     0.074 A 
ATOM     55  C   UNL A   1      47.476  29.455  30.408  1.00  0.00     0.029 A 
ATOM     56  N   UNL A   1      45.344  28.972  30.003  1.00  0.00    -0.354 N 
ATOM     57  N   UNL A   1      42.483  29.576  29.763  1.00  0.00    -0.248 NA
ATOM     58  C   UNL A   1      40.682  31.034  30.062  1.00  0.00     0.031 C 
ATOM     59  C   UNL A   1      46.703  30.581  30.713  1.00  0.00     0.029 A 
ATOM     60  C   UNL A   1      45.376  30.284  30.447  1.00  0.00     0.049 A 
ATOM     61  H   UNL A   1      44.530  28.485  29.741  1.00  0.00     0.167 HD
ATOM     62  C   UNL A   1      42.953  30.781  30.263  1.00  0.00     0.074 A 
ATOM     63  C   UNL A   1      41.805  31.654  30.401  1.00  0.00     0.031 C 
ATOM     64  C   UNL A   1      44.220  31.131  30.590  1.00  0.00     0.037 A 
BRANCH  51  65
ATOM     65  C   UNL A   1      48.392  26.674  29.658  1.00  0.00     0.057 A 
ATOM     66  C   UNL A   1      49.253  26.883  28.572  1.00  0.00     0.134 A 
ATOM     67  C   UNL A   1      48.916  26.024  30.782  1.00  0.00     0.134 A 
ATOM     68  F   UNL A   1      48.812  27.495  27.463  1.00  0.00    -0.206 F 
ATOM     69  C   UNL A   1      50.583  26.460  28.603  1.00  0.00     0.040 A 
ATOM     70  C   UNL A   1      50.251  25.614  30.832  1.00  0.00     0.040 A 
ATOM     71  F   UNL A   1      48.149  25.806  31.860  1.00  0.00    -0.206 F 
ATOM     72  C   UNL A   1      51.086  25.828  29.737  1.00  0.00     0.006 A 
ENDBRANCH  51  65
BRANCH  52  73
ATOM     73  C   UNL A   1      38.737  29.110  29.039  1.00  0.00     0.057 A 
ATOM     74  C   UNL A   1      37.868  29.040  30.133  1.00  0.00     0.134 A 
ATOM     75  C   UNL A   1      38.209  29.538  27.816  1.00  0.00     0.134 A 
ATOM     76  F   UNL A   1      38.315  28.631  31.329  1.00  0.00    -0.206 F 
ATOM     77  C   UNL A   1      36.517  29.368  30.013  1.00  0.00     0.040 A 
ATOM     78  C   UNL A   1      36.866  29.892  27.688  1.00  0.00     0.040 A 
ATOM     79  F   UNL A   1      39.001  29.641  26.739  1.00  0.00    -0.206 F 
ATOM     80  C   UNL A   1      36.015  29.800  28.787  1.00  0.00     0.006 A 
ENDBRANCH  52  73
BRANCH  64  81
ATOM     81  C   UNL A   1      44.416  32.516  31.124  1.00  0.00     0.057 A 
ATOM     82  C   UNL A   1      44.376  32.768  32.500  1.00  0.00     0.134 A 
ATOM     83  C   UNL A   1      44.647  33.603  30.271  1.00  0.00     0.134 A 
ATOM     84  F   UNL A   1      44.156  31.769  33.369  1.00  0.00    -0.206 F 
ATOM     85  C   UNL A   1      44.562  34.052  33.011  1.00  0.00     0.040 A 
ATOM     86  C   UNL A   1      44.855  34.889  30.770  1.00  0.00     0.040 A 
ATOM     87  F   UNL A   1      44.714  33.421  28.943  1.00  0.00    -0.206 F 
ATOM     88  C   UNL A   1      44.810  35.116  32.145  1.00  0.00     0.006 A 
ENDBRANCH  64  81
ENDBRANCH  38  39
ENDBRANCH  30  33
ENDBRANCH  28  29
ENDBRANCH  27  28
ENDBRANCH   1  27
TORSDOF 15
ENDMDL
MODEL 3
REMARK VINA RESULT:     -12.1      0.350      6.072
REMARK SMILES CC(C)CCc1cc2c(cc1Cl)C=C(C(=O)NCCCCNC(=O)c1ccc(-c3c4nc(c(-c5c(F)cccc5F)c5ccc([nH]5)c(-c5c(F)cccc5F)c5nc(c(-c6c(F)cccc6F)c6ccc3[nH]6)C=C5)C=C4)cc1)[C@H](C(F)(F)F)O2
REMARK SMILES IDX 19 1 18 2 17 3 15 4 16 5 14 7 6 8 7 9 11 10 8 11 10 12 12 13
REMARK SMILES IDX 9 14 84 15 13 16 79 17 5 18 4 19 2 20 1 21 3 22 80 23 81 24
REMARK SMILES IDX 82 25 83 26 20 27 21 28 22 29 23 30 24 32 25 33 26 34 78 35
REMARK SMILES IDX 27 36 77 37 28 38 29 39 30 40 71 41 31 42 76 43 70 44 72 45
REMARK SMILES IDX 32 46 75 47 69 48 68 49 33 51 59 52 42 53 58 54 43 55 46 56
REMARK SMILES IDX 57 57 73 58 44 59 45 60 56 62 74 63 47 64 34 65 35 66 40 67
REMARK SMILES IDX 36 68 37 69 39 70 41 71 38 72 60 73 61 74 66 75 62 76 63 77
REMARK SMILES IDX 65 78 67 79 64 80 48 81 49 82 54 83 50 84 51 85 53 86 55 87
REMARK SMILES IDX 52 88
REMARK H PARENT 17 6 22 31 72 50 46 61
REMARK Flexibility Score: inf
ROOT
ATOM      1  C   UNL A   1      36.982  22.776  24.619  1.00  0.00     0.023 C 
ENDROOT
BRANCH   1   2
ATOM      2  C   UNL A   1      36.466  23.646  25.765  1.00  0.00     0.116 C 
BRANCH   2   3
ATOM      3  N   UNL A   1      35.424  22.984  26.533  1.00  0.00    -0.352 N 
ATOM      4  C   UNL A   1      34.070  22.959  26.565  1.00  0.00     0.251 C 
ATOM      5  O   UNL A   1      33.583  22.164  27.376  1.00  0.00    -0.270 OA
ATOM      6  H   UNL A   1      35.808  22.391  27.218  1.00  0.00     0.163 HD
BRANCH   4   7
ATOM      7  C   UNL A   1      33.163  23.794  25.728  1.00  0.00     0.067 C 
ATOM      8  C   UNL A   1      30.401  27.475  23.677  1.00  0.00    -0.026 A 
ATOM      9  C   UNL A   1      30.404  26.078  23.600  1.00  0.00     0.052 A 
ATOM     10  C   UNL A   1      31.197  28.072  24.674  1.00  0.00     0.045 A 
ATOM     11  C   UNL A   1      31.267  25.320  24.379  1.00  0.00     0.128 A 
ATOM     12  C   UNL A   1      31.999  27.291  25.527  1.00  0.00     0.032 A 
ATOM     13  Cl  UNL A   1      31.236  29.782  24.917  1.00  0.00    -0.084 Cl
ATOM     14  C   UNL A   1      32.058  25.907  25.361  1.00  0.00     0.019 A 
ATOM     15  O   UNL A   1      31.306  23.982  24.111  1.00  0.00    -0.475 OA
ATOM     16  C   UNL A   1      32.902  25.040  26.179  1.00  0.00     0.025 C 
ATOM     17  C   UNL A   1      32.594  23.373  24.402  1.00  0.00     0.314 C 
BRANCH   8  18
ATOM     18  C   UNL A   1      29.550  28.243  22.686  1.00  0.00     0.037 C 
BRANCH  18  19
ATOM     19  C   UNL A   1      28.168  28.686  23.215  1.00  0.00     0.008 C 
BRANCH  19  20
ATOM     20  C   UNL A   1      27.575  30.003  22.661  1.00  0.00    -0.017 C 
ATOM     21  C   UNL A   1      27.684  31.170  23.646  1.00  0.00     0.007 C 
ATOM     22  C   UNL A   1      28.260  30.387  21.346  1.00  0.00     0.007 C 
ENDBRANCH  19  20
ENDBRANCH  18  19
ENDBRANCH   8  18
BRANCH  17  23
ATOM     23  C   UNL A   1      33.582  23.550  23.233  1.00  0.00     0.429 C 
ATOM     24  F   UNL A   1      32.975  23.718  22.038  1.00  0.00    -0.167 F 
ATOM     25  F   UNL A   1      34.397  24.617  23.405  1.00  0.00    -0.167 F 
ATOM     26  F   UNL A   1      34.385  22.460  23.126  1.00  0.00    -0.167 F 
ENDBRANCH  17  23
ENDBRANCH   4   7
ENDBRANCH   2   3
ENDBRANCH   1   2
BRANCH   1  27
ATOM     27  C   UNL A   1      37.453  21.385  25.042  1.00  0.00     0.023 C 
BRANCH  27  28
ATOM     28  C   UNL A   1      38.756  21.359  25.830  1.00  0.00     0.116 C 
BRANCH  28  29
ATOM     29  N   UNL A   1      39.519  20.125  25.697  1.00  0.00    -0.352 N 
ATOM     30  C   UNL A   1      40.848  19.927  26.011  1.00  0.00     0.251 C 
ATOM     31  H   UNL A   1      39.031  19.346  25.345  1.00  0.00     0.163 HD
ATOM     32  O   UNL A   1      41.402  18.862  25.799  1.00  0.00    -0.269 OA
BRANCH  30  33
ATOM     33  C   UNL A   1      41.601  21.076  26.557  1.00  0.00     0.039 A 
ATOM     34  C   UNL A   1      41.584  21.323  27.930  1.00  0.00     0.014 A 
ATOM     35  C   UNL A   1      42.191  21.984  25.675  1.00  0.00     0.014 A 
ATOM     36  C   UNL A   1      41.973  22.569  28.397  1.00  0.00     0.010 A 
ATOM     37  C   UNL A   1      42.670  23.202  26.163  1.00  0.00     0.010 A 
ATOM     38  C   UNL A   1      42.504  23.531  27.518  1.00  0.00    -0.014 A 
BRANCH  38  39
ATOM     39  C   UNL A   1      42.842  24.877  28.047  1.00  0.00     0.031 A 
ATOM     40  C   UNL A   1      41.768  25.899  28.311  1.00  0.00     0.074 A 
ATOM     41  C   UNL A   1      44.121  25.142  28.376  1.00  0.00     0.049 A 
ATOM     42  N   UNL A   1      41.882  27.100  28.823  1.00  0.00    -0.248 NA
ATOM     43  C   UNL A   1      40.388  25.532  27.952  1.00  0.00     0.031 C 
ATOM     44  C   UNL A   1      45.248  24.229  28.178  1.00  0.00     0.029 A 
ATOM     45  N   UNL A   1      44.681  26.236  28.983  1.00  0.00    -0.354 N 
ATOM     46  C   UNL A   1      40.601  27.640  28.820  1.00  0.00     0.074 A 
ATOM     47  C   UNL A   1      39.726  26.644  28.240  1.00  0.00     0.031 C 
ATOM     48  C   UNL A   1      46.349  24.767  28.720  1.00  0.00     0.029 A 
ATOM     49  C   UNL A   1      46.020  26.088  29.244  1.00  0.00     0.049 A 
ATOM     50  H   UNL A   1      44.172  27.048  29.209  1.00  0.00     0.167 HD
ATOM     51  C   UNL A   1      40.190  28.851  29.270  1.00  0.00     0.037 A 
ATOM     52  C   UNL A   1      46.891  26.924  29.835  1.00  0.00     0.037 A 
ATOM     53  C   UNL A   1      41.055  29.828  29.879  1.00  0.00     0.049 A 
ATOM     54  C   UNL A   1      46.412  28.264  30.308  1.00  0.00     0.074 A 
ATOM     55  C   UNL A   1      40.728  31.074  30.388  1.00  0.00     0.029 A 
ATOM     56  N   UNL A   1      42.419  29.666  30.067  1.00  0.00    -0.354 N 
ATOM     57  N   UNL A   1      45.200  28.760  30.292  1.00  0.00    -0.248 NA
ATOM     58  C   UNL A   1      47.429  29.166  30.865  1.00  0.00     0.031 C 
ATOM     59  C   UNL A   1      41.901  31.679  30.855  1.00  0.00     0.029 A 
ATOM     60  C   UNL A   1      42.951  30.796  30.669  1.00  0.00     0.049 A 
ATOM     61  H   UNL A   1      42.933  28.867  29.811  1.00  0.00     0.167 HD
ATOM     62  C   UNL A   1      45.305  30.032  30.835  1.00  0.00     0.074 A 
ATOM     63  C   UNL A   1      46.695  30.219  31.198  1.00  0.00     0.031 C 
ATOM     64  C   UNL A   1      44.340  30.967  31.009  1.00  0.00     0.037 A 
BRANCH  51  65
ATOM     65  C   UNL A   1      38.739  29.195  29.104  1.00  0.00     0.057 A 
ATOM     66  C   UNL A   1      38.248  29.632  27.867  1.00  0.00     0.134 A 
ATOM     67  C   UNL A   1      37.834  29.130  30.171  1.00  0.00     0.134 A 
ATOM     68  F   UNL A   1      39.063  29.722  26.805  1.00  0.00    -0.206 F 
ATOM     69  C   UNL A   1      36.909  29.993  27.697  1.00  0.00     0.040 A 
ATOM     70  C   UNL A   1      36.489  29.469  30.009  1.00  0.00     0.040 A 
ATOM     71  F   UNL A   1      38.237  28.706  31.378  1.00  0.00    -0.206 F 
ATOM     72  C   UNL A   1      36.025  29.907  28.770  1.00  0.00     0.006 A 
ENDBRANCH  51  65
BRANCH  52  73
ATOM     73  C   UNL A   1      48.306  26.516  30.004  1.00  0.00     0.057 A 
ATOM     74  C   UNL A   1      48.729  25.803  31.132  1.00  0.00     0.134 A 
ATOM     75  C   UNL A   1      49.270  26.841  29.044  1.00  0.00     0.134 A 
ATOM     76  F   UNL A   1      47.851  25.469  32.089  1.00  0.00    -0.206 F 
ATOM     77  C   UNL A   1      50.064  25.442  31.309  1.00  0.00     0.040 A 
ATOM     78  C   UNL A   1      50.605  26.465  29.196  1.00  0.00     0.040 A 
ATOM     79  F   UNL A   1      48.919  27.508  27.935  1.00  0.00    -0.206 F 
ATOM     80  C   UNL A   1      51.005  25.769  30.335  1.00  0.00     0.006 A 
ENDBRANCH  52  73
BRANCH  64  81
ATOM     81  C   UNL A   1      44.767  32.267  31.618  1.00  0.00     0.057 A 
ATOM     82  C   UNL A   1      45.183  33.334  30.814  1.00  0.00     0.134 A 
ATOM     83  C   UNL A   1      44.764  32.460  33.005  1.00  0.00     0.134 A 
ATOM     84  F   UNL A   1      45.211  33.210  29.477  1.00  0.00    -0.206 F 
ATOM     85  C   UNL A   1      45.579  34.551  31.368  1.00  0.00     0.040 A 
ATOM     86  C   UNL A   1      45.137  33.679  33.571  1.00  0.00     0.040 A 
ATOM     87  F   UNL A   1      44.357  31.480  33.826  1.00  0.00    -0.206 F 
ATOM     88  C   UNL A   1      45.548  34.729  32.750  1.00  0.00     0.006 A 
ENDBRANCH  64  81
ENDBRANCH  38  39
ENDBRANCH  30  33
ENDBRANCH  28  29
ENDBRANCH  27  28
ENDBRANCH   1  27
TORSDOF 15
ENDMDL
