MODEL 1
REMARK VINA RESULT:     -12.9      0.000      0.000
REMARK SMILES O=C(NCCCCNC(=O)[C@@H]1CCCN1S(=O)(=O)c1ccc2[nH]c(=O)c(=O)[nH]c2c1)c1ccc(-c2c3nc(c(-c4c(F)cccc4F)c4ccc([nH]4)c(-c4c(F)cccc4F)c4nc(c(-c5c(F)cccc5F)c5ccc2[nH]5)C=C4)C=C3)cc1
REMARK SMILES IDX 5 1 4 2 3 3 1 4 2 5 31 7 32 8 84 9 33 10 83 11 34 12 35 13
REMARK SMILES IDX 36 14 77 15 37 16 82 17 76 18 78 19 38 20 81 21 75 22 74 23
REMARK SMILES IDX 39 25 65 26 48 27 64 28 49 29 52 30 63 31 79 32 50 33 51 34
REMARK SMILES IDX 62 36 80 37 53 38 40 39 41 40 46 41 42 42 43 43 45 44 47 45
REMARK SMILES IDX 44 46 66 47 67 48 72 49 68 50 69 51 71 52 73 53 70 54 54 55
REMARK SMILES IDX 55 56 60 57 56 58 57 59 59 60 61 61 58 62 6 63 7 64 8 65
REMARK SMILES IDX 9 66 10 68 11 69 12 70 15 71 13 72 14 73 16 74 17 75 18 76
REMARK SMILES IDX 19 77 20 78 30 79 21 80 29 81 22 82 28 83 23 84 26 85 24 87
REMARK SMILES IDX 27 89 25 90
REMARK H PARENT 3 6 78 24 52 35 8 67 28 86 23 88
REMARK Flexibility Score: inf
ROOT
ATOM      1  C   UNL A   1      31.109  31.666  26.501  1.00  0.00     0.023 C 
ENDROOT
BRANCH   1   2
ATOM      2  C   UNL A   1      32.290  32.581  26.667  1.00  0.00     0.116 C 
BRANCH   2   3
ATOM      3  N   UNL A   1      32.113  33.815  27.406  1.00  0.00    -0.352 N 
ATOM      4  O   UNL A   1      32.749  35.512  28.760  1.00  0.00    -0.269 OA
ATOM      5  C   UNL A   1      33.007  34.411  28.283  1.00  0.00     0.251 C 
ATOM      6  H   UNL A   1      31.258  34.285  27.269  1.00  0.00     0.163 HD
BRANCH   5   7
ATOM      7  C   UNL A   1      34.234  33.680  28.703  1.00  0.00     0.039 A 
ATOM      8  C   UNL A   1      34.151  32.380  29.182  1.00  0.00     0.014 A 
ATOM      9  C   UNL A   1      35.472  34.327  28.727  1.00  0.00     0.014 A 
ATOM     10  C   UNL A   1      35.157  31.880  29.982  1.00  0.00     0.010 A 
ATOM     11  C   UNL A   1      36.581  33.696  29.315  1.00  0.00     0.010 A 
ATOM     12  C   UNL A   1      36.420  32.479  29.990  1.00  0.00    -0.014 A 
BRANCH  12  13
ATOM     13  C   UNL A   1      37.524  31.717  30.636  1.00  0.00     0.031 A 
ATOM     14  C   UNL A   1      38.373  30.739  29.876  1.00  0.00     0.074 A 
ATOM     15  C   UNL A   1      37.813  32.011  31.924  1.00  0.00     0.049 A 
ATOM     16  N   UNL A   1      39.395  30.040  30.308  1.00  0.00    -0.248 NA
ATOM     17  C   UNL A   1      38.035  30.494  28.466  1.00  0.00     0.031 C 
ATOM     18  C   UNL A   1      37.046  32.937  32.771  1.00  0.00     0.029 A 
ATOM     19  N   UNL A   1      38.849  31.624  32.734  1.00  0.00    -0.354 N 
ATOM     20  C   UNL A   1      39.809  29.266  29.231  1.00  0.00     0.074 A 
ATOM     21  C   UNL A   1      38.912  29.557  28.134  1.00  0.00     0.031 C 
ATOM     22  C   UNL A   1      37.697  33.136  33.921  1.00  0.00     0.029 A 
ATOM     23  C   UNL A   1      38.842  32.242  33.962  1.00  0.00     0.049 A 
ATOM     24  H   UNL A   1      39.532  30.969  32.463  1.00  0.00     0.167 HD
ATOM     25  C   UNL A   1      40.846  28.397  29.167  1.00  0.00     0.037 A 
ATOM     26  C   UNL A   1      39.634  32.079  35.037  1.00  0.00     0.037 A 
ATOM     27  C   UNL A   1      41.734  28.118  30.269  1.00  0.00     0.049 A 
ATOM     28  C   UNL A   1      40.740  31.076  34.947  1.00  0.00     0.074 A 
ATOM     29  C   UNL A   1      42.800  27.236  30.318  1.00  0.00     0.029 A 
ATOM     30  N   UNL A   1      41.657  28.719  31.518  1.00  0.00    -0.354 N 
ATOM     31  N   UNL A   1      41.104  30.340  33.927  1.00  0.00    -0.248 NA
ATOM     32  C   UNL A   1      41.536  30.868  36.161  1.00  0.00     0.031 C 
ATOM     33  C   UNL A   1      43.338  27.271  31.610  1.00  0.00     0.029 A 
ATOM     34  C   UNL A   1      42.646  28.216  32.349  1.00  0.00     0.049 A 
ATOM     35  H   UNL A   1      40.997  29.403  31.775  1.00  0.00     0.167 HD
ATOM     36  C   UNL A   1      42.173  29.579  34.371  1.00  0.00     0.074 A 
ATOM     37  C   UNL A   1      42.424  29.978  35.742  1.00  0.00     0.031 C 
ATOM     38  C   UNL A   1      42.875  28.626  33.712  1.00  0.00     0.037 A 
BRANCH  25  39
ATOM     39  C   UNL A   1      41.064  27.664  27.873  1.00  0.00     0.057 A 
ATOM     40  C   UNL A   1      41.870  28.184  26.852  1.00  0.00     0.134 A 
ATOM     41  C   UNL A   1      40.496  26.401  27.662  1.00  0.00     0.134 A 
ATOM     42  F   UNL A   1      42.445  29.389  26.986  1.00  0.00    -0.206 F 
ATOM     43  C   UNL A   1      42.085  27.485  25.661  1.00  0.00     0.040 A 
ATOM     44  C   UNL A   1      40.725  25.680  26.488  1.00  0.00     0.040 A 
ATOM     45  F   UNL A   1      39.722  25.836  28.602  1.00  0.00    -0.206 F 
ATOM     46  C   UNL A   1      41.518  26.225  25.481  1.00  0.00     0.006 A 
ENDBRANCH  25  39
BRANCH  26  47
ATOM     47  C   UNL A   1      39.354  32.824  36.291  1.00  0.00     0.057 A 
ATOM     48  C   UNL A   1      39.951  34.060  36.559  1.00  0.00     0.134 A 
ATOM     49  C   UNL A   1      38.473  32.314  37.256  1.00  0.00     0.134 A 
ATOM     50  F   UNL A   1      40.813  34.598  35.684  1.00  0.00    -0.206 F 
ATOM     51  C   UNL A   1      39.700  34.750  37.747  1.00  0.00     0.040 A 
ATOM     52  C   UNL A   1      38.183  33.011  38.427  1.00  0.00     0.040 A 
ATOM     53  F   UNL A   1      37.856  31.139  37.058  1.00  0.00    -0.206 F 
ATOM     54  C   UNL A   1      38.808  34.228  38.682  1.00  0.00     0.006 A 
ENDBRANCH  26  47
BRANCH  38  55
ATOM     55  C   UNL A   1      43.998  27.984  34.469  1.00  0.00     0.057 A 
ATOM     56  C   UNL A   1      45.288  28.531  34.481  1.00  0.00     0.134 A 
ATOM     57  C   UNL A   1      43.788  26.800  35.184  1.00  0.00     0.134 A 
ATOM     58  F   UNL A   1      45.559  29.654  33.798  1.00  0.00    -0.206 F 
ATOM     59  C   UNL A   1      46.340  27.899  35.146  1.00  0.00     0.040 A 
ATOM     60  C   UNL A   1      44.824  26.177  35.881  1.00  0.00     0.040 A 
ATOM     61  F   UNL A   1      42.575  26.229  35.217  1.00  0.00    -0.206 F 
ATOM     62  C   UNL A   1      46.107  26.721  35.853  1.00  0.00     0.006 A 
ENDBRANCH  38  55
ENDBRANCH  12  13
ENDBRANCH   5   7
ENDBRANCH   2   3
ENDBRANCH   1   2
BRANCH   1  63
ATOM     63  C   UNL A   1      31.360  30.440  25.647  1.00  0.00     0.023 C 
BRANCH  63  64
ATOM     64  C   UNL A   1      32.663  29.732  26.009  1.00  0.00     0.116 C 
BRANCH  64  65
ATOM     65  N   UNL A   1      33.573  29.544  24.888  1.00  0.00    -0.355 N 
ATOM     66  C   UNL A   1      33.927  28.428  24.200  1.00  0.00     0.238 C 
ATOM     67  H   UNL A   1      34.006  30.370  24.574  1.00  0.00     0.163 HD
ATOM     68  O   UNL A   1      34.633  28.572  23.198  1.00  0.00    -0.273 OA
BRANCH  66  69
ATOM     69  C   UNL A   1      33.430  27.060  24.606  1.00  0.00     0.162 C 
ATOM     70  C   UNL A   1      34.366  26.536  25.701  1.00  0.00     0.032 C 
ATOM     71  N   UNL A   1      33.475  26.006  23.562  1.00  0.00    -0.185 NA
ATOM     72  C   UNL A   1      34.056  25.061  25.736  1.00  0.00     0.019 C 
ATOM     73  C   UNL A   1      33.694  24.707  24.295  1.00  0.00     0.103 C 
BRANCH  71  74
ATOM     74  S   UNL A   1      32.287  25.867  22.348  1.00  0.00     0.243 S 
ATOM     75  O   UNL A   1      32.936  26.366  21.148  1.00  0.00    -0.207 OA
ATOM     76  O   UNL A   1      31.760  24.523  22.393  1.00  0.00    -0.207 OA
BRANCH  74  77
ATOM     77  C   UNL A   1      30.919  26.969  22.662  1.00  0.00     0.084 A 
ATOM     78  C   UNL A   1      29.751  26.499  23.265  1.00  0.00     0.024 A 
ATOM     79  C   UNL A   1      30.972  28.293  22.189  1.00  0.00     0.050 A 
ATOM     80  C   UNL A   1      28.700  27.379  23.550  1.00  0.00     0.030 A 
ATOM     81  C   UNL A   1      29.899  29.158  22.431  1.00  0.00     0.066 A 
ATOM     82  C   UNL A   1      28.784  28.711  23.147  1.00  0.00     0.065 A 
ATOM     83  N   UNL A   1      29.956  30.488  21.997  1.00  0.00    -0.316 N 
ATOM     84  N   UNL A   1      27.763  29.603  23.482  1.00  0.00    -0.316 N 
ATOM     85  C   UNL A   1      28.969  31.414  22.265  1.00  0.00     0.314 A 
ATOM     86  H   UNL A   1      30.738  30.777  21.474  1.00  0.00     0.170 HD
ATOM     87  C   UNL A   1      27.776  30.933  23.124  1.00  0.00     0.314 A 
ATOM     88  H   UNL A   1      26.997  29.265  24.001  1.00  0.00     0.170 HD
ATOM     89  O   UNL A   1      29.026  32.566  21.857  1.00  0.00    -0.263 OA
ATOM     90  O   UNL A   1      26.892  31.703  23.470  1.00  0.00    -0.263 OA
ENDBRANCH  74  77
ENDBRANCH  71  74
ENDBRANCH  66  69
ENDBRANCH  64  65
ENDBRANCH  63  64
ENDBRANCH   1  63
TORSDOF 13
ENDMDL
MODEL 2
REMARK VINA RESULT:     -12.9      1.384      6.442
REMARK SMILES O=C(NCCCCNC(=O)[C@@H]1CCCN1S(=O)(=O)c1ccc2[nH]c(=O)c(=O)[nH]c2c1)c1ccc(-c2c3nc(c(-c4c(F)cccc4F)c4ccc([nH]4)c(-c4c(F)cccc4F)c4nc(c(-c5c(F)cccc5F)c5ccc2[nH]5)C=C4)C=C3)cc1
REMARK SMILES IDX 5 1 4 2 3 3 1 4 2 5 31 7 32 8 84 9 33 10 83 11 34 12 35 13
REMARK SMILES IDX 36 14 77 15 37 16 82 17 76 18 78 19 38 20 81 21 75 22 74 23
REMARK SMILES IDX 39 25 65 26 48 27 64 28 49 29 52 30 63 31 79 32 50 33 51 34
REMARK SMILES IDX 62 36 80 37 53 38 40 39 41 40 46 41 42 42 43 43 45 44 47 45
REMARK SMILES IDX 44 46 66 47 67 48 72 49 68 50 69 51 71 52 73 53 70 54 54 55
REMARK SMILES IDX 55 56 60 57 56 58 57 59 59 60 61 61 58 62 6 63 7 64 8 65
REMARK SMILES IDX 9 66 10 68 11 69 12 70 15 71 13 72 14 73 16 74 17 75 18 76
REMARK SMILES IDX 19 77 20 78 30 79 21 80 29 81 22 82 28 83 23 84 26 85 24 87
REMARK SMILES IDX 27 89 25 90
REMARK H PARENT 3 6 78 24 52 35 8 67 28 86 23 88
REMARK Flexibility Score: inf
ROOT
ATOM      1  C   UNL A   1      31.583  29.048  26.157  1.00  0.00     0.023 C 
ENDROOT
BRANCH   1   2
ATOM      2  C   UNL A   1      32.499  30.231  26.016  1.00  0.00     0.116 C 
BRANCH   2   3
ATOM      3  N   UNL A   1      32.053  31.517  26.512  1.00  0.00    -0.352 N 
ATOM      4  O   UNL A   1      32.293  33.536  27.504  1.00  0.00    -0.269 OA
ATOM      5  C   UNL A   1      32.785  32.444  27.238  1.00  0.00     0.251 C 
ATOM      6  H   UNL A   1      31.120  31.762  26.309  1.00  0.00     0.163 HD
BRANCH   5   7
ATOM      7  C   UNL A   1      34.133  32.082  27.760  1.00  0.00     0.039 A 
ATOM      8  C   UNL A   1      34.413  30.777  28.140  1.00  0.00     0.014 A 
ATOM      9  C   UNL A   1      35.097  33.068  27.978  1.00  0.00     0.014 A 
ATOM     10  C   UNL A   1      35.441  30.528  29.025  1.00  0.00     0.010 A 
ATOM     11  C   UNL A   1      36.285  32.747  28.657  1.00  0.00     0.010 A 
ATOM     12  C   UNL A   1      36.447  31.478  29.228  1.00  0.00    -0.014 A 
BRANCH  12  13
ATOM     13  C   UNL A   1      37.664  31.027  29.955  1.00  0.00     0.031 A 
ATOM     14  C   UNL A   1      37.901  31.355  31.402  1.00  0.00     0.074 A 
ATOM     15  C   UNL A   1      38.519  30.212  29.295  1.00  0.00     0.049 A 
ATOM     16  N   UNL A   1      38.900  30.987  32.168  1.00  0.00    -0.248 NA
ATOM     17  C   UNL A   1      36.914  32.210  32.077  1.00  0.00     0.031 C 
ATOM     18  C   UNL A   1      38.400  29.836  27.878  1.00  0.00     0.029 A 
ATOM     19  N   UNL A   1      39.612  29.504  29.721  1.00  0.00    -0.354 N 
ATOM     20  C   UNL A   1      38.668  31.577  33.404  1.00  0.00     0.074 A 
ATOM     21  C   UNL A   1      37.452  32.350  33.280  1.00  0.00     0.031 C 
ATOM     22  C   UNL A   1      39.295  28.886  27.590  1.00  0.00     0.029 A 
ATOM     23  C   UNL A   1      40.151  28.695  28.749  1.00  0.00     0.049 A 
ATOM     24  H   UNL A   1      39.976  29.568  30.633  1.00  0.00     0.167 HD
ATOM     25  C   UNL A   1      39.403  31.475  34.537  1.00  0.00     0.037 A 
ATOM     26  C   UNL A   1      41.247  27.915  28.758  1.00  0.00     0.037 A 
ATOM     27  C   UNL A   1      40.614  30.699  34.646  1.00  0.00     0.049 A 
ATOM     28  C   UNL A   1      42.062  27.864  30.011  1.00  0.00     0.074 A 
ATOM     29  C   UNL A   1      41.450  30.550  35.740  1.00  0.00     0.029 A 
ATOM     30  N   UNL A   1      41.162  29.941  33.620  1.00  0.00    -0.354 N 
ATOM     31  N   UNL A   1      41.838  28.444  31.163  1.00  0.00    -0.248 NA
ATOM     32  C   UNL A   1      43.291  27.066  29.961  1.00  0.00     0.031 C 
ATOM     33  C   UNL A   1      42.525  29.738  35.362  1.00  0.00     0.029 A 
ATOM     34  C   UNL A   1      42.332  29.333  34.051  1.00  0.00     0.049 A 
ATOM     35  H   UNL A   1      40.776  29.847  32.720  1.00  0.00     0.167 HD
ATOM     36  C   UNL A   1      42.895  28.082  31.981  1.00  0.00     0.074 A 
ATOM     37  C   UNL A   1      43.738  27.196  31.201  1.00  0.00     0.031 C 
ATOM     38  C   UNL A   1      43.156  28.458  33.256  1.00  0.00     0.037 A 
BRANCH  25  39
ATOM     39  C   UNL A   1      38.937  32.242  35.743  1.00  0.00     0.057 A 
ATOM     40  C   UNL A   1      38.161  31.646  36.745  1.00  0.00     0.134 A 
ATOM     41  C   UNL A   1      39.307  33.581  35.926  1.00  0.00     0.134 A 
ATOM     42  F   UNL A   1      37.770  30.368  36.635  1.00  0.00    -0.206 F 
ATOM     43  C   UNL A   1      37.750  32.361  37.874  1.00  0.00     0.040 A 
ATOM     44  C   UNL A   1      38.926  34.298  37.063  1.00  0.00     0.040 A 
ATOM     45  F   UNL A   1      40.059  34.212  35.012  1.00  0.00    -0.206 F 
ATOM     46  C   UNL A   1      38.140  33.688  38.039  1.00  0.00     0.006 A 
ENDBRANCH  25  39
BRANCH  26  47
ATOM     47  C   UNL A   1      41.661  27.195  27.525  1.00  0.00     0.057 A 
ATOM     48  C   UNL A   1      42.412  27.822  26.527  1.00  0.00     0.134 A 
ATOM     49  C   UNL A   1      41.312  25.852  27.319  1.00  0.00     0.134 A 
ATOM     50  F   UNL A   1      42.768  29.109  26.656  1.00  0.00    -0.206 F 
ATOM     51  C   UNL A   1      42.785  27.149  25.362  1.00  0.00     0.040 A 
ATOM     52  C   UNL A   1      41.712  25.156  26.179  1.00  0.00     0.040 A 
ATOM     53  F   UNL A   1      40.602  25.186  28.242  1.00  0.00    -0.206 F 
ATOM     54  C   UNL A   1      42.440  25.810  25.189  1.00  0.00     0.006 A 
ENDBRANCH  26  47
BRANCH  38  55
ATOM     55  C   UNL A   1      44.388  27.878  33.882  1.00  0.00     0.057 A 
ATOM     56  C   UNL A   1      44.365  26.652  34.561  1.00  0.00     0.134 A 
ATOM     57  C   UNL A   1      45.608  28.559  33.814  1.00  0.00     0.134 A 
ATOM     58  F   UNL A   1      43.220  25.960  34.679  1.00  0.00    -0.206 F 
ATOM     59  C   UNL A   1      45.504  26.144  35.185  1.00  0.00     0.040 A 
ATOM     60  C   UNL A   1      46.763  28.044  34.405  1.00  0.00     0.040 A 
ATOM     61  F   UNL A   1      45.700  29.734  33.174  1.00  0.00    -0.206 F 
ATOM     62  C   UNL A   1      46.710  26.839  35.103  1.00  0.00     0.006 A 
ENDBRANCH  38  55
ENDBRANCH  12  13
ENDBRANCH   5   7
ENDBRANCH   2   3
ENDBRANCH   1   2
BRANCH   1  63
ATOM     63  C   UNL A   1      32.035  27.997  27.150  1.00  0.00     0.023 C 
BRANCH  63  64
ATOM     64  C   UNL A   1      32.383  26.671  26.479  1.00  0.00     0.116 C 
BRANCH  64  65
ATOM     65  N   UNL A   1      31.486  25.575  26.820  1.00  0.00    -0.355 N 
ATOM     66  C   UNL A   1      31.584  24.238  26.605  1.00  0.00     0.238 C 
ATOM     67  H   UNL A   1      30.665  25.853  27.287  1.00  0.00     0.163 HD
ATOM     68  O   UNL A   1      30.727  23.511  27.116  1.00  0.00    -0.273 OA
BRANCH  66  69
ATOM     69  C   UNL A   1      32.733  23.648  25.820  1.00  0.00     0.162 C 
ATOM     70  C   UNL A   1      33.896  23.434  26.794  1.00  0.00     0.032 C 
ATOM     71  N   UNL A   1      33.311  24.505  24.755  1.00  0.00    -0.185 NA
ATOM     72  C   UNL A   1      35.079  23.252  25.878  1.00  0.00     0.019 C 
ATOM     73  C   UNL A   1      34.768  24.126  24.665  1.00  0.00     0.103 C 
BRANCH  71  74
ATOM     74  S   UNL A   1      32.593  24.667  23.219  1.00  0.00     0.243 S 
ATOM     75  O   UNL A   1      33.692  24.495  22.284  1.00  0.00    -0.207 OA
ATOM     76  O   UNL A   1      31.445  23.792  23.170  1.00  0.00    -0.207 OA
BRANCH  74  77
ATOM     77  C   UNL A   1      31.988  26.326  22.966  1.00  0.00     0.084 A 
ATOM     78  C   UNL A   1      32.873  27.377  22.721  1.00  0.00     0.024 A 
ATOM     79  C   UNL A   1      30.618  26.599  23.136  1.00  0.00     0.050 A 
ATOM     80  C   UNL A   1      32.389  28.667  22.478  1.00  0.00     0.030 A 
ATOM     81  C   UNL A   1      30.141  27.900  22.941  1.00  0.00     0.066 A 
ATOM     82  C   UNL A   1      31.021  28.922  22.572  1.00  0.00     0.065 A 
ATOM     83  N   UNL A   1      28.775  28.175  23.072  1.00  0.00    -0.316 N 
ATOM     84  N   UNL A   1      30.529  30.195  22.272  1.00  0.00    -0.316 N 
ATOM     85  C   UNL A   1      28.225  29.416  22.822  1.00  0.00     0.314 A 
ATOM     86  H   UNL A   1      28.176  27.448  23.355  1.00  0.00     0.170 HD
ATOM     87  C   UNL A   1      29.194  30.522  22.338  1.00  0.00     0.314 A 
ATOM     88  H   UNL A   1      31.170  30.892  22.000  1.00  0.00     0.170 HD
ATOM     89  O   UNL A   1      27.032  29.643  22.963  1.00  0.00    -0.263 OA
ATOM     90  O   UNL A   1      28.785  31.631  22.026  1.00  0.00    -0.263 OA
ENDBRANCH  74  77
ENDBRANCH  71  74
ENDBRANCH  66  69
ENDBRANCH  64  65
ENDBRANCH  63  64
ENDBRANCH   1  63
TORSDOF 13
ENDMDL
MODEL 3
REMARK VINA RESULT:     -12.8      0.415      6.151
REMARK SMILES O=C(NCCCCNC(=O)[C@@H]1CCCN1S(=O)(=O)c1ccc2[nH]c(=O)c(=O)[nH]c2c1)c1ccc(-c2c3nc(c(-c4c(F)cccc4F)c4ccc([nH]4)c(-c4c(F)cccc4F)c4nc(c(-c5c(F)cccc5F)c5ccc2[nH]5)C=C4)C=C3)cc1
REMARK SMILES IDX 5 1 4 2 3 3 1 4 2 5 31 7 32 8 84 9 33 10 83 11 34 12 35 13
REMARK SMILES IDX 36 14 77 15 37 16 82 17 76 18 78 19 38 20 81 21 75 22 74 23
REMARK SMILES IDX 39 25 65 26 48 27 64 28 49 29 52 30 63 31 79 32 50 33 51 34
REMARK SMILES IDX 62 36 80 37 53 38 40 39 41 40 46 41 42 42 43 43 45 44 47 45
REMARK SMILES IDX 44 46 66 47 67 48 72 49 68 50 69 51 71 52 73 53 70 54 54 55
REMARK SMILES IDX 55 56 60 57 56 58 57 59 59 60 61 61 58 62 6 63 7 64 8 65
REMARK SMILES IDX 9 66 10 68 11 69 12 70 15 71 13 72 14 73 16 74 17 75 18 76
REMARK SMILES IDX 19 77 20 78 30 79 21 80 29 81 22 82 28 83 23 84 26 85 24 87
REMARK SMILES IDX 27 89 25 90
REMARK H PARENT 3 6 78 24 52 35 8 67 28 86 23 88
REMARK Flexibility Score: inf
ROOT
ATOM      1  C   UNL A   1      31.423  31.764  26.804  1.00  0.00     0.023 C 
ENDROOT
BRANCH   1   2
ATOM      2  C   UNL A   1      32.420  32.889  26.792  1.00  0.00     0.116 C 
BRANCH   2   3
ATOM      3  N   UNL A   1      32.158  34.057  27.609  1.00  0.00    -0.352 N 
ATOM      4  O   UNL A   1      32.666  35.683  29.098  1.00  0.00    -0.269 OA
ATOM      5  C   UNL A   1      32.994  34.633  28.554  1.00  0.00     0.251 C 
ATOM      6  H   UNL A   1      31.285  34.493  27.477  1.00  0.00     0.163 HD
BRANCH   5   7
ATOM      7  C   UNL A   1      34.245  33.935  28.963  1.00  0.00     0.039 A 
ATOM      8  C   UNL A   1      34.188  32.761  29.701  1.00  0.00     0.014 A 
ATOM      9  C   UNL A   1      35.493  34.508  28.706  1.00  0.00     0.014 A 
ATOM     10  C   UNL A   1      35.274  32.376  30.459  1.00  0.00     0.010 A 
ATOM     11  C   UNL A   1      36.650  33.947  29.271  1.00  0.00     0.010 A 
ATOM     12  C   UNL A   1      36.544  32.897  30.193  1.00  0.00    -0.014 A 
BRANCH  12  13
ATOM     13  C   UNL A   1      37.700  32.221  30.842  1.00  0.00     0.031 A 
ATOM     14  C   UNL A   1      38.080  32.480  32.272  1.00  0.00     0.074 A 
ATOM     15  C   UNL A   1      38.348  31.273  30.128  1.00  0.00     0.049 A 
ATOM     16  N   UNL A   1      39.039  31.925  32.973  1.00  0.00    -0.248 NA
ATOM     17  C   UNL A   1      37.310  33.492  33.009  1.00  0.00     0.031 C 
ATOM     18  C   UNL A   1      38.076  30.944  28.720  1.00  0.00     0.029 A 
ATOM     19  N   UNL A   1      39.317  30.370  30.483  1.00  0.00    -0.354 N 
ATOM     20  C   UNL A   1      38.996  32.531  34.223  1.00  0.00     0.074 A 
ATOM     21  C   UNL A   1      37.937  33.515  34.177  1.00  0.00     0.031 C 
ATOM     22  C   UNL A   1      38.762  29.850  28.375  1.00  0.00     0.029 A 
ATOM     23  C   UNL A   1      39.637  29.489  29.477  1.00  0.00     0.049 A 
ATOM     24  H   UNL A   1      39.741  30.354  31.371  1.00  0.00     0.167 HD
ATOM     25  C   UNL A   1      39.768  32.280  35.307  1.00  0.00     0.037 A 
ATOM     26  C   UNL A   1      40.570  28.522  29.416  1.00  0.00     0.037 A 
ATOM     27  C   UNL A   1      40.820  31.294  35.339  1.00  0.00     0.049 A 
ATOM     28  C   UNL A   1      41.437  28.306  30.615  1.00  0.00     0.074 A 
ATOM     29  C   UNL A   1      41.679  30.979  36.378  1.00  0.00     0.029 A 
ATOM     30  N   UNL A   1      41.155  30.462  34.279  1.00  0.00    -0.354 N 
ATOM     31  N   UNL A   1      41.394  28.900  31.781  1.00  0.00    -0.248 NA
ATOM     32  C   UNL A   1      42.493  27.296  30.487  1.00  0.00     0.031 C 
ATOM     33  C   UNL A   1      42.562  29.989  35.931  1.00  0.00     0.029 A 
ATOM     34  C   UNL A   1      42.218  29.645  34.635  1.00  0.00     0.049 A 
ATOM     35  H   UNL A   1      40.705  30.453  33.404  1.00  0.00     0.167 HD
ATOM     36  C   UNL A   1      42.415  28.340  32.530  1.00  0.00     0.074 A 
ATOM     37  C   UNL A   1      43.031  27.325  31.697  1.00  0.00     0.031 C 
ATOM     38  C   UNL A   1      42.817  28.645  33.787  1.00  0.00     0.037 A 
BRANCH  25  39
ATOM     39  C   UNL A   1      39.525  33.103  36.541  1.00  0.00     0.057 A 
ATOM     40  C   UNL A   1      40.207  34.303  36.778  1.00  0.00     0.134 A 
ATOM     41  C   UNL A   1      38.565  32.711  37.485  1.00  0.00     0.134 A 
ATOM     42  F   UNL A   1      41.140  34.738  35.918  1.00  0.00    -0.206 F 
ATOM     43  C   UNL A   1      39.959  35.073  37.918  1.00  0.00     0.040 A 
ATOM     44  C   UNL A   1      38.288  33.486  38.613  1.00  0.00     0.040 A 
ATOM     45  F   UNL A   1      37.866  31.579  37.316  1.00  0.00    -0.206 F 
ATOM     46  C   UNL A   1      38.991  34.668  38.835  1.00  0.00     0.006 A 
ENDBRANCH  25  39
BRANCH  26  47
ATOM     47  C   UNL A   1      40.768  27.756  28.158  1.00  0.00     0.057 A 
ATOM     48  C   UNL A   1      40.149  26.521  27.946  1.00  0.00     0.134 A 
ATOM     49  C   UNL A   1      41.588  28.248  27.132  1.00  0.00     0.134 A 
ATOM     50  F   UNL A   1      39.362  25.987  28.892  1.00  0.00    -0.206 F 
ATOM     51  C   UNL A   1      40.352  25.794  26.771  1.00  0.00     0.040 A 
ATOM     52  C   UNL A   1      41.767  27.552  25.938  1.00  0.00     0.040 A 
ATOM     53  F   UNL A   1      42.204  29.432  27.264  1.00  0.00    -0.206 F 
ATOM     54  C   UNL A   1      41.158  26.314  25.760  1.00  0.00     0.006 A 
ENDBRANCH  26  47
BRANCH  38  55
ATOM     55  C   UNL A   1      43.957  27.840  34.334  1.00  0.00     0.057 A 
ATOM     56  C   UNL A   1      43.755  26.609  34.971  1.00  0.00     0.134 A 
ATOM     57  C   UNL A   1      45.272  28.308  34.231  1.00  0.00     0.134 A 
ATOM     58  F   UNL A   1      42.515  26.115  35.120  1.00  0.00    -0.206 F 
ATOM     59  C   UNL A   1      44.816  25.891  35.522  1.00  0.00     0.040 A 
ATOM     60  C   UNL A   1      46.346  27.583  34.748  1.00  0.00     0.040 A 
ATOM     61  F   UNL A   1      45.535  29.477  33.628  1.00  0.00    -0.206 F 
ATOM     62  C   UNL A   1      46.118  26.376  35.406  1.00  0.00     0.006 A 
ENDBRANCH  38  55
ENDBRANCH  12  13
ENDBRANCH   5   7
ENDBRANCH   2   3
ENDBRANCH   1   2
BRANCH   1  63
ATOM     63  C   UNL A   1      32.021  30.374  26.883  1.00  0.00     0.023 C 
BRANCH  63  64
ATOM     64  C   UNL A   1      31.814  29.576  25.599  1.00  0.00     0.116 C 
BRANCH  64  65
ATOM     65  N   UNL A   1      33.000  29.473  24.760  1.00  0.00    -0.355 N 
ATOM     66  C   UNL A   1      33.657  28.392  24.267  1.00  0.00     0.238 C 
ATOM     67  H   UNL A   1      33.394  30.339  24.507  1.00  0.00     0.163 HD
ATOM     68  O   UNL A   1      34.576  28.595  23.468  1.00  0.00    -0.273 OA
BRANCH  66  69
ATOM     69  C   UNL A   1      33.246  26.984  24.634  1.00  0.00     0.162 C 
ATOM     70  C   UNL A   1      34.250  26.466  25.669  1.00  0.00     0.032 C 
ATOM     71  N   UNL A   1      33.303  25.977  23.545  1.00  0.00    -0.185 NA
ATOM     72  C   UNL A   1      34.017  24.977  25.653  1.00  0.00     0.019 C 
ATOM     73  C   UNL A   1      33.616  24.663  24.214  1.00  0.00     0.103 C 
BRANCH  71  74
ATOM     74  S   UNL A   1      32.078  25.826  22.371  1.00  0.00     0.243 S 
ATOM     75  O   UNL A   1      32.702  26.268  21.136  1.00  0.00    -0.207 OA
ATOM     76  O   UNL A   1      31.520  24.498  22.478  1.00  0.00    -0.207 OA
BRANCH  74  77
ATOM     77  C   UNL A   1      30.746  26.971  22.685  1.00  0.00     0.084 A 
ATOM     78  C   UNL A   1      29.565  26.540  23.292  1.00  0.00     0.024 A 
ATOM     79  C   UNL A   1      30.838  28.292  22.209  1.00  0.00     0.050 A 
ATOM     80  C   UNL A   1      28.543  27.453  23.577  1.00  0.00     0.030 A 
ATOM     81  C   UNL A   1      29.794  29.191  22.451  1.00  0.00     0.066 A 
ATOM     82  C   UNL A   1      28.667  28.780  23.171  1.00  0.00     0.065 A 
ATOM     83  N   UNL A   1      29.892  30.517  22.014  1.00  0.00    -0.316 N 
ATOM     84  N   UNL A   1      27.676  29.705  23.507  1.00  0.00    -0.316 N 
ATOM     85  C   UNL A   1      28.935  31.475  22.282  1.00  0.00     0.314 A 
ATOM     86  H   UNL A   1      30.682  30.780  21.489  1.00  0.00     0.170 HD
ATOM     87  C   UNL A   1      27.729  31.033  23.146  1.00  0.00     0.314 A 
ATOM     88  H   UNL A   1      26.901  29.392  24.027  1.00  0.00     0.170 HD
ATOM     89  O   UNL A   1      29.028  32.624  21.872  1.00  0.00    -0.263 OA
ATOM     90  O   UNL A   1      26.871  31.831  23.492  1.00  0.00    -0.263 OA
ENDBRANCH  74  77
ENDBRANCH  71  74
ENDBRANCH  66  69
ENDBRANCH  64  65
ENDBRANCH  63  64
ENDBRANCH   1  63
TORSDOF 13
ENDMDL
