MODEL 1
REMARK VINA RESULT:     -13.0      0.000      0.000
REMARK SMILES O=C(NCCCCNC(=O)c1ccc(-c2c3nc(c(-c4c(F)cccc4F)c4ccc([nH]4)c(-c4c(F)cccc4F)c4nc(c(-c5c(F)cccc5F)c5ccc2[nH]5)C=C4)C=C3)cc1)C1=Cc2cc(Cl)cc(-c3ccccc3)c2O[C@@H]1C(F)(F)F
REMARK SMILES IDX 6 1 5 2 4 3 3 4 1 5 2 6 65 8 66 9 81 10 67 11 80 12 68 13
REMARK SMILES IDX 79 14 69 15 72 16 70 17 71 18 82 19 83 20 84 21 85 22 73 23
REMARK SMILES IDX 74 24 78 25 75 26 77 27 76 28 7 29 8 30 9 31 10 33 11 34
REMARK SMILES IDX 12 35 64 36 13 37 63 38 14 39 15 40 16 41 57 42 17 43 62 44
REMARK SMILES IDX 56 45 58 46 18 47 61 48 55 49 54 50 19 52 45 53 28 54 44 55
REMARK SMILES IDX 29 56 32 57 43 58 59 59 30 60 31 61 42 63 60 64 33 65 20 66
REMARK SMILES IDX 21 67 26 68 22 69 23 70 25 71 27 72 24 73 46 74 47 75 52 76
REMARK SMILES IDX 48 77 49 78 51 79 53 80 50 81 34 82 35 83 40 84 36 85 37 86
REMARK SMILES IDX 39 87 41 88 38 89
REMARK H PARENT 3 7 8 32 58 51 32 62
REMARK Flexibility Score: inf
ROOT
ATOM      1  C   UNL A   1      32.196  27.884  27.271  1.00  0.00     0.023 C 
ENDROOT
BRANCH   1   2
ATOM      2  C   UNL A   1      31.791  27.230  25.953  1.00  0.00     0.023 C 
BRANCH   2   3
ATOM      3  C   UNL A   1      30.714  26.154  26.079  1.00  0.00     0.116 C 
BRANCH   3   4
ATOM      4  N   UNL A   1      31.127  24.988  26.846  1.00  0.00    -0.352 N 
ATOM      5  O   UNL A   1      32.453  23.316  27.545  1.00  0.00    -0.270 OA
ATOM      6  C   UNL A   1      32.134  24.081  26.638  1.00  0.00     0.251 C 
ATOM      7  H   UNL A   1      30.590  24.821  27.654  1.00  0.00     0.163 HD
BRANCH   6   8
ATOM      8  C   UNL A   1      32.946  24.091  25.390  1.00  0.00     0.067 C 
ATOM      9  C   UNL A   1      34.266  24.314  25.414  1.00  0.00     0.025 C 
ATOM     10  C   UNL A   1      32.402  23.195  24.316  1.00  0.00     0.314 C 
ATOM     11  C   UNL A   1      35.096  23.175  24.994  1.00  0.00     0.019 A 
ATOM     12  O   UNL A   1      33.123  21.941  24.266  1.00  0.00    -0.475 OA
ATOM     13  C   UNL A   1      36.434  23.185  25.398  1.00  0.00     0.032 A 
ATOM     14  C   UNL A   1      34.455  21.964  24.627  1.00  0.00     0.135 A 
ATOM     15  C   UNL A   1      37.112  21.980  25.508  1.00  0.00     0.042 A 
ATOM     16  C   UNL A   1      35.113  20.727  24.824  1.00  0.00     0.026 A 
ATOM     17  Cl  UNL A   1      38.705  21.961  26.158  1.00  0.00    -0.084 Cl
ATOM     18  C   UNL A   1      36.464  20.773  25.235  1.00  0.00     0.033 A 
BRANCH  10  19
ATOM     19  C   UNL A   1      32.386  23.947  22.967  1.00  0.00     0.429 C 
ATOM     20  F   UNL A   1      31.122  24.210  22.558  1.00  0.00    -0.167 F 
ATOM     21  F   UNL A   1      33.024  25.141  23.057  1.00  0.00    -0.167 F 
ATOM     22  F   UNL A   1      32.992  23.256  21.972  1.00  0.00    -0.167 F 
ENDBRANCH  10  19
BRANCH  16  23
ATOM     23  C   UNL A   1      34.410  19.414  24.821  1.00  0.00    -0.015 A 
ATOM     24  C   UNL A   1      35.039  18.277  24.268  1.00  0.00     0.009 A 
ATOM     25  C   UNL A   1      33.133  19.225  25.368  1.00  0.00     0.009 A 
ATOM     26  C   UNL A   1      34.417  17.026  24.234  1.00  0.00     0.001 A 
ATOM     27  C   UNL A   1      32.514  17.966  25.355  1.00  0.00     0.001 A 
ATOM     28  C   UNL A   1      33.152  16.869  24.783  1.00  0.00     0.000 A 
ENDBRANCH  16  23
ENDBRANCH   6   8
ENDBRANCH   3   4
ENDBRANCH   2   3
ENDBRANCH   1   2
BRANCH   1  29
ATOM     29  C   UNL A   1      33.550  28.591  27.276  1.00  0.00     0.116 C 
BRANCH  29  30
ATOM     30  N   UNL A   1      33.520  29.976  27.718  1.00  0.00    -0.352 N 
ATOM     31  C   UNL A   1      34.548  30.718  28.253  1.00  0.00     0.251 C 
ATOM     32  H   UNL A   1      32.656  30.440  27.623  1.00  0.00     0.163 HD
ATOM     33  O   UNL A   1      34.354  31.882  28.602  1.00  0.00    -0.269 OA
BRANCH  31  34
ATOM     34  C   UNL A   1      35.886  30.111  28.439  1.00  0.00     0.039 A 
ATOM     35  C   UNL A   1      36.797  30.150  27.381  1.00  0.00     0.014 A 
ATOM     36  C   UNL A   1      36.255  29.529  29.656  1.00  0.00     0.014 A 
ATOM     37  C   UNL A   1      38.100  29.684  27.570  1.00  0.00     0.010 A 
ATOM     38  C   UNL A   1      37.566  29.117  29.864  1.00  0.00     0.010 A 
ATOM     39  C   UNL A   1      38.501  29.200  28.826  1.00  0.00    -0.014 A 
BRANCH  39  40
ATOM     40  C   UNL A   1      39.904  28.812  29.087  1.00  0.00     0.031 A 
ATOM     41  C   UNL A   1      40.850  29.784  29.731  1.00  0.00     0.074 A 
ATOM     42  C   UNL A   1      40.337  27.609  28.664  1.00  0.00     0.049 A 
ATOM     43  N   UNL A   1      42.116  29.634  30.020  1.00  0.00    -0.248 NA
ATOM     44  C   UNL A   1      40.306  31.109  30.073  1.00  0.00     0.031 C 
ATOM     45  C   UNL A   1      39.521  26.621  27.953  1.00  0.00     0.029 A 
ATOM     46  N   UNL A   1      41.570  27.019  28.751  1.00  0.00    -0.354 N 
ATOM     47  C   UNL A   1      42.515  30.832  30.597  1.00  0.00     0.074 A 
ATOM     48  C   UNL A   1      41.378  31.726  30.549  1.00  0.00     0.031 C 
ATOM     49  C   UNL A   1      40.275  25.544  27.677  1.00  0.00     0.029 A 
ATOM     50  C   UNL A   1      41.628  25.774  28.173  1.00  0.00     0.049 A 
ATOM     51  H   UNL A   1      42.343  27.448  29.187  1.00  0.00     0.167 HD
ATOM     52  C   UNL A   1      43.712  31.145  31.147  1.00  0.00     0.037 A 
ATOM     53  C   UNL A   1      42.658  24.916  28.061  1.00  0.00     0.037 A 
ATOM     54  C   UNL A   1      44.842  30.251  31.172  1.00  0.00     0.049 A 
ATOM     55  C   UNL A   1      43.979  25.292  28.677  1.00  0.00     0.074 A 
ATOM     56  C   UNL A   1      46.097  30.458  31.716  1.00  0.00     0.029 A 
ATOM     57  N   UNL A   1      44.849  28.977  30.623  1.00  0.00    -0.354 N 
ATOM     58  N   UNL A   1      44.320  26.396  29.295  1.00  0.00    -0.248 NA
ATOM     59  C   UNL A   1      45.049  24.288  28.605  1.00  0.00     0.031 C 
ATOM     60  C   UNL A   1      46.875  29.322  31.465  1.00  0.00     0.029 A 
ATOM     61  C   UNL A   1      46.087  28.387  30.814  1.00  0.00     0.049 A 
ATOM     62  H   UNL A   1      44.087  28.555  30.165  1.00  0.00     0.167 HD
ATOM     63  C   UNL A   1      45.626  26.204  29.727  1.00  0.00     0.074 A 
ATOM     64  C   UNL A   1      46.009  24.870  29.310  1.00  0.00     0.031 C 
ATOM     65  C   UNL A   1      46.439  27.050  30.408  1.00  0.00     0.037 A 
BRANCH  52  66
ATOM     66  C   UNL A   1      43.852  32.495  31.789  1.00  0.00     0.057 A 
ATOM     67  C   UNL A   1      43.570  32.689  33.149  1.00  0.00     0.134 A 
ATOM     68  C   UNL A   1      44.320  33.599  31.066  1.00  0.00     0.134 A 
ATOM     69  F   UNL A   1      43.105  31.678  33.898  1.00  0.00    -0.206 F 
ATOM     70  C   UNL A   1      43.732  33.933  33.760  1.00  0.00     0.040 A 
ATOM     71  C   UNL A   1      44.513  34.842  31.672  1.00  0.00     0.040 A 
ATOM     72  F   UNL A   1      44.613  33.485  29.762  1.00  0.00    -0.206 F 
ATOM     73  C   UNL A   1      44.214  35.012  33.023  1.00  0.00     0.006 A 
ENDBRANCH  52  66
BRANCH  53  74
ATOM     74  C   UNL A   1      42.482  23.611  27.375  1.00  0.00     0.057 A 
ATOM     75  C   UNL A   1      42.128  22.458  28.086  1.00  0.00     0.134 A 
ATOM     76  C   UNL A   1      42.697  23.475  25.997  1.00  0.00     0.134 A 
ATOM     77  F   UNL A   1      41.919  22.520  29.409  1.00  0.00    -0.206 F 
ATOM     78  C   UNL A   1      42.034  21.212  27.463  1.00  0.00     0.040 A 
ATOM     79  C   UNL A   1      42.577  22.241  25.356  1.00  0.00     0.040 A 
ATOM     80  F   UNL A   1      43.023  24.543  25.254  1.00  0.00    -0.206 F 
ATOM     81  C   UNL A   1      42.259  21.102  26.093  1.00  0.00     0.006 A 
ENDBRANCH  53  74
BRANCH  65  82
ATOM     82  C   UNL A   1      47.790  26.528  30.800  1.00  0.00     0.057 A 
ATOM     83  C   UNL A   1      48.903  26.625  29.956  1.00  0.00     0.134 A 
ATOM     84  C   UNL A   1      47.977  25.922  32.050  1.00  0.00     0.134 A 
ATOM     85  F   UNL A   1      48.790  27.183  28.741  1.00  0.00    -0.206 F 
ATOM     86  C   UNL A   1      50.144  26.102  30.324  1.00  0.00     0.040 A 
ATOM     87  C   UNL A   1      49.220  25.425  32.442  1.00  0.00     0.040 A 
ATOM     88  F   UNL A   1      46.955  25.808  32.912  1.00  0.00    -0.206 F 
ATOM     89  C   UNL A   1      50.305  25.504  31.571  1.00  0.00     0.006 A 
ENDBRANCH  65  82
ENDBRANCH  39  40
ENDBRANCH  31  34
ENDBRANCH  29  30
ENDBRANCH   1  29
TORSDOF 13
ENDMDL
MODEL 2
REMARK VINA RESULT:     -12.8      3.863      5.332
REMARK SMILES O=C(NCCCCNC(=O)c1ccc(-c2c3nc(c(-c4c(F)cccc4F)c4ccc([nH]4)c(-c4c(F)cccc4F)c4nc(c(-c5c(F)cccc5F)c5ccc2[nH]5)C=C4)C=C3)cc1)C1=Cc2cc(Cl)cc(-c3ccccc3)c2O[C@@H]1C(F)(F)F
REMARK SMILES IDX 6 1 5 2 4 3 3 4 1 5 2 6 65 8 66 9 81 10 67 11 80 12 68 13
REMARK SMILES IDX 79 14 69 15 72 16 70 17 71 18 82 19 83 20 84 21 85 22 73 23
REMARK SMILES IDX 74 24 78 25 75 26 77 27 76 28 7 29 8 30 9 31 10 33 11 34
REMARK SMILES IDX 12 35 64 36 13 37 63 38 14 39 15 40 16 41 57 42 17 43 62 44
REMARK SMILES IDX 56 45 58 46 18 47 61 48 55 49 54 50 19 52 45 53 28 54 44 55
REMARK SMILES IDX 29 56 32 57 43 58 59 59 30 60 31 61 42 63 60 64 33 65 20 66
REMARK SMILES IDX 21 67 26 68 22 69 23 70 25 71 27 72 24 73 46 74 47 75 52 76
REMARK SMILES IDX 48 77 49 78 51 79 53 80 50 81 34 82 35 83 40 84 36 85 37 86
REMARK SMILES IDX 39 87 41 88 38 89
REMARK H PARENT 3 7 8 32 58 51 32 62
REMARK Flexibility Score: inf
ROOT
ATOM      1  C   UNL A   1      30.807  31.579  26.206  1.00  0.00     0.023 C 
ENDROOT
BRANCH   1   2
ATOM      2  C   UNL A   1      30.421  31.588  24.729  1.00  0.00     0.023 C 
BRANCH   2   3
ATOM      3  C   UNL A   1      30.071  30.218  24.153  1.00  0.00     0.116 C 
BRANCH   3   4
ATOM      4  N   UNL A   1      31.144  29.605  23.383  1.00  0.00    -0.352 N 
ATOM      5  O   UNL A   1      32.802  28.172  22.894  1.00  0.00    -0.270 OA
ATOM      6  C   UNL A   1      32.153  28.757  23.759  1.00  0.00     0.251 C 
ATOM      7  H   UNL A   1      31.144  29.840  22.427  1.00  0.00     0.163 HD
BRANCH   6   8
ATOM      8  C   UNL A   1      32.395  28.419  25.189  1.00  0.00     0.067 C 
ATOM      9  C   UNL A   1      31.495  27.735  25.909  1.00  0.00     0.025 C 
ATOM     10  C   UNL A   1      33.846  28.244  25.524  1.00  0.00     0.314 C 
ATOM     11  C   UNL A   1      31.936  26.404  26.350  1.00  0.00     0.019 A 
ATOM     12  O   UNL A   1      34.206  26.842  25.577  1.00  0.00    -0.475 OA
ATOM     13  C   UNL A   1      30.936  25.495  26.711  1.00  0.00     0.032 A 
ATOM     14  C   UNL A   1      33.227  25.954  25.974  1.00  0.00     0.135 A 
ATOM     15  C   UNL A   1      31.200  24.136  26.626  1.00  0.00     0.042 A 
ATOM     16  C   UNL A   1      33.472  24.572  25.799  1.00  0.00     0.026 A 
ATOM     17  Cl  UNL A   1      29.933  23.008  26.910  1.00  0.00    -0.084 Cl
ATOM     18  C   UNL A   1      32.440  23.681  26.171  1.00  0.00     0.033 A 
BRANCH  10  19
ATOM     19  C   UNL A   1      34.178  29.011  26.824  1.00  0.00     0.429 C 
ATOM     20  F   UNL A   1      35.300  28.532  27.412  1.00  0.00    -0.167 F 
ATOM     21  F   UNL A   1      34.396  30.328  26.580  1.00  0.00    -0.167 F 
ATOM     22  F   UNL A   1      33.185  28.944  27.742  1.00  0.00    -0.167 F 
ENDBRANCH  10  19
BRANCH  16  23
ATOM     23  C   UNL A   1      34.652  24.034  25.066  1.00  0.00    -0.015 A 
ATOM     24  C   UNL A   1      34.539  23.689  23.701  1.00  0.00     0.009 A 
ATOM     25  C   UNL A   1      35.911  23.861  25.658  1.00  0.00     0.009 A 
ATOM     26  C   UNL A   1      35.614  23.172  22.974  1.00  0.00     0.001 A 
ATOM     27  C   UNL A   1      36.998  23.362  24.925  1.00  0.00     0.001 A 
ATOM     28  C   UNL A   1      36.849  23.012  23.586  1.00  0.00     0.000 A 
ENDBRANCH  16  23
ENDBRANCH   6   8
ENDBRANCH   3   4
ENDBRANCH   2   3
ENDBRANCH   1   2
BRANCH   1  29
ATOM     29  C   UNL A   1      32.158  32.202  26.546  1.00  0.00     0.116 C 
BRANCH  29  30
ATOM     30  N   UNL A   1      32.093  33.518  27.162  1.00  0.00    -0.352 N 
ATOM     31  C   UNL A   1      32.973  34.080  28.058  1.00  0.00     0.251 C 
ATOM     32  H   UNL A   1      31.322  34.076  26.907  1.00  0.00     0.163 HD
ATOM     33  O   UNL A   1      32.762  35.206  28.509  1.00  0.00    -0.269 OA
BRANCH  31  34
ATOM     34  C   UNL A   1      34.163  33.322  28.508  1.00  0.00     0.039 A 
ATOM     35  C   UNL A   1      35.428  33.890  28.338  1.00  0.00     0.014 A 
ATOM     36  C   UNL A   1      34.037  32.071  29.119  1.00  0.00     0.014 A 
ATOM     37  C   UNL A   1      36.554  33.244  28.854  1.00  0.00     0.010 A 
ATOM     38  C   UNL A   1      35.147  31.454  29.683  1.00  0.00     0.010 A 
ATOM     39  C   UNL A   1      36.412  32.040  29.563  1.00  0.00    -0.014 A 
BRANCH  39  40
ATOM     40  C   UNL A   1      37.570  31.396  30.222  1.00  0.00     0.031 A 
ATOM     41  C   UNL A   1      37.939  31.765  31.630  1.00  0.00     0.074 A 
ATOM     42  C   UNL A   1      38.332  30.542  29.512  1.00  0.00     0.049 A 
ATOM     43  N   UNL A   1      38.928  31.326  32.365  1.00  0.00    -0.248 NA
ATOM     44  C   UNL A   1      37.100  32.778  32.291  1.00  0.00     0.031 C 
ATOM     45  C   UNL A   1      38.109  30.178  28.110  1.00  0.00     0.029 A 
ATOM     46  N   UNL A   1      39.455  29.840  29.862  1.00  0.00    -0.354 N 
ATOM     47  C   UNL A   1      38.818  31.990  33.579  1.00  0.00     0.074 A 
ATOM     48  C   UNL A   1      37.714  32.917  33.458  1.00  0.00     0.031 C 
ATOM     49  C   UNL A   1      39.062  29.314  27.724  1.00  0.00     0.029 A 
ATOM     50  C   UNL A   1      39.969  29.079  28.842  1.00  0.00     0.049 A 
ATOM     51  H   UNL A   1      39.856  29.878  30.762  1.00  0.00     0.167 HD
ATOM     52  C   UNL A   1      39.552  31.817  34.704  1.00  0.00     0.037 A 
ATOM     53  C   UNL A   1      41.051  28.279  28.816  1.00  0.00     0.037 A 
ATOM     54  C   UNL A   1      40.661  30.903  34.805  1.00  0.00     0.049 A 
ATOM     55  C   UNL A   1      41.852  28.108  30.078  1.00  0.00     0.074 A 
ATOM     56  C   UNL A   1      41.465  30.636  35.899  1.00  0.00     0.029 A 
ATOM     57  N   UNL A   1      41.123  30.108  33.766  1.00  0.00    -0.354 N 
ATOM     58  N   UNL A   1      41.687  28.679  31.247  1.00  0.00    -0.248 NA
ATOM     59  C   UNL A   1      42.972  27.159  30.026  1.00  0.00     0.031 C 
ATOM     60  C   UNL A   1      42.436  29.705  35.511  1.00  0.00     0.029 A 
ATOM     61  C   UNL A   1      42.201  29.352  34.193  1.00  0.00     0.049 A 
ATOM     62  H   UNL A   1      40.741  30.085  32.859  1.00  0.00     0.167 HD
ATOM     63  C   UNL A   1      42.650  28.126  32.081  1.00  0.00     0.074 A 
ATOM     64  C   UNL A   1      43.384  27.164  31.286  1.00  0.00     0.031 C 
ATOM     65  C   UNL A   1      42.905  28.386  33.388  1.00  0.00     0.037 A 
BRANCH  52  66
ATOM     66  C   UNL A   1      39.162  32.610  35.918  1.00  0.00     0.057 A 
ATOM     67  C   UNL A   1      38.333  32.065  36.909  1.00  0.00     0.134 A 
ATOM     68  C   UNL A   1      39.657  33.901  36.132  1.00  0.00     0.134 A 
ATOM     69  F   UNL A   1      37.814  30.837  36.761  1.00  0.00    -0.206 F 
ATOM     70  C   UNL A   1      37.996  32.783  38.058  1.00  0.00     0.040 A 
ATOM     71  C   UNL A   1      39.350  34.619  37.290  1.00  0.00     0.040 A 
ATOM     72  F   UNL A   1      40.459  34.483  35.228  1.00  0.00    -0.206 F 
ATOM     73  C   UNL A   1      38.514  34.061  38.255  1.00  0.00     0.006 A 
ENDBRANCH  52  66
BRANCH  53  74
ATOM     74  C   UNL A   1      41.423  27.552  27.575  1.00  0.00     0.057 A 
ATOM     75  C   UNL A   1      42.229  28.147  26.597  1.00  0.00     0.134 A 
ATOM     76  C   UNL A   1      40.955  26.257  27.320  1.00  0.00     0.134 A 
ATOM     77  F   UNL A   1      42.700  29.390  26.777  1.00  0.00    -0.206 F 
ATOM     78  C   UNL A   1      42.521  27.501  25.395  1.00  0.00     0.040 A 
ATOM     79  C   UNL A   1      41.264  25.587  26.135  1.00  0.00     0.040 A 
ATOM     80  F   UNL A   1      40.192  25.622  28.222  1.00  0.00    -0.206 F 
ATOM     81  C   UNL A   1      42.038  26.216  25.162  1.00  0.00     0.006 A 
ENDBRANCH  53  74
BRANCH  65  82
ATOM     82  C   UNL A   1      43.977  27.567  34.047  1.00  0.00     0.057 A 
ATOM     83  C   UNL A   1      45.321  27.961  34.053  1.00  0.00     0.134 A 
ATOM     84  C   UNL A   1      43.652  26.367  34.693  1.00  0.00     0.134 A 
ATOM     85  F   UNL A   1      45.701  29.093  33.442  1.00  0.00    -0.206 F 
ATOM     86  C   UNL A   1      46.309  27.169  34.640  1.00  0.00     0.040 A 
ATOM     87  C   UNL A   1      44.626  25.585  35.313  1.00  0.00     0.040 A 
ATOM     88  F   UNL A   1      42.381  25.939  34.737  1.00  0.00    -0.206 F 
ATOM     89  C   UNL A   1      45.961  25.980  35.276  1.00  0.00     0.006 A 
ENDBRANCH  65  82
ENDBRANCH  39  40
ENDBRANCH  31  34
ENDBRANCH  29  30
ENDBRANCH   1  29
TORSDOF 13
ENDMDL
MODEL 3
REMARK VINA RESULT:     -12.7      1.607      2.031
REMARK SMILES O=C(NCCCCNC(=O)c1ccc(-c2c3nc(c(-c4c(F)cccc4F)c4ccc([nH]4)c(-c4c(F)cccc4F)c4nc(c(-c5c(F)cccc5F)c5ccc2[nH]5)C=C4)C=C3)cc1)C1=Cc2cc(Cl)cc(-c3ccccc3)c2O[C@@H]1C(F)(F)F
REMARK SMILES IDX 6 1 5 2 4 3 3 4 1 5 2 6 65 8 66 9 81 10 67 11 80 12 68 13
REMARK SMILES IDX 79 14 69 15 72 16 70 17 71 18 82 19 83 20 84 21 85 22 73 23
REMARK SMILES IDX 74 24 78 25 75 26 77 27 76 28 7 29 8 30 9 31 10 33 11 34
REMARK SMILES IDX 12 35 64 36 13 37 63 38 14 39 15 40 16 41 57 42 17 43 62 44
REMARK SMILES IDX 56 45 58 46 18 47 61 48 55 49 54 50 19 52 45 53 28 54 44 55
REMARK SMILES IDX 29 56 32 57 43 58 59 59 30 60 31 61 42 63 60 64 33 65 20 66
REMARK SMILES IDX 21 67 26 68 22 69 23 70 25 71 27 72 24 73 46 74 47 75 52 76
REMARK SMILES IDX 48 77 49 78 51 79 53 80 50 81 34 82 35 83 40 84 36 85 37 86
REMARK SMILES IDX 39 87 41 88 38 89
REMARK H PARENT 3 7 8 32 58 51 32 62
REMARK Flexibility Score: inf
ROOT
ATOM      1  C   UNL A   1      33.111  27.494  25.871  1.00  0.00     0.023 C 
ENDROOT
BRANCH   1   2
ATOM      2  C   UNL A   1      31.816  27.289  26.652  1.00  0.00     0.023 C 
BRANCH   2   3
ATOM      3  C   UNL A   1      30.994  26.079  26.217  1.00  0.00     0.116 C 
BRANCH   3   4
ATOM      4  N   UNL A   1      31.323  24.850  26.925  1.00  0.00    -0.352 N 
ATOM      5  O   UNL A   1      32.513  23.039  27.513  1.00  0.00    -0.270 OA
ATOM      6  C   UNL A   1      32.237  23.866  26.647  1.00  0.00     0.251 C 
ATOM      7  H   UNL A   1      30.799  24.699  27.745  1.00  0.00     0.163 HD
BRANCH   6   8
ATOM      8  C   UNL A   1      33.005  23.854  25.372  1.00  0.00     0.067 C 
ATOM      9  C   UNL A   1      34.329  24.054  25.350  1.00  0.00     0.025 C 
ATOM     10  C   UNL A   1      32.411  22.959  24.324  1.00  0.00     0.314 C 
ATOM     11  C   UNL A   1      35.125  22.899  24.910  1.00  0.00     0.019 A 
ATOM     12  O   UNL A   1      33.110  21.693  24.260  1.00  0.00    -0.475 OA
ATOM     13  C   UNL A   1      36.477  22.890  25.269  1.00  0.00     0.032 A 
ATOM     14  C   UNL A   1      34.453  21.696  24.575  1.00  0.00     0.135 A 
ATOM     15  C   UNL A   1      37.139  21.675  25.365  1.00  0.00     0.042 A 
ATOM     16  C   UNL A   1      35.097  20.450  24.759  1.00  0.00     0.026 A 
ATOM     17  Cl  UNL A   1      38.752  21.634  25.961  1.00  0.00    -0.084 Cl
ATOM     18  C   UNL A   1      36.462  20.477  25.124  1.00  0.00     0.033 A 
BRANCH  10  19
ATOM     19  C   UNL A   1      32.361  23.702  22.971  1.00  0.00     0.429 C 
ATOM     20  F   UNL A   1      32.916  22.966  21.979  1.00  0.00    -0.167 F 
ATOM     21  F   UNL A   1      31.083  23.964  22.596  1.00  0.00    -0.167 F 
ATOM     22  F   UNL A   1      33.010  24.890  22.999  1.00  0.00    -0.167 F 
ENDBRANCH  10  19
BRANCH  16  23
ATOM     23  C   UNL A   1      34.373  19.149  24.790  1.00  0.00    -0.015 A 
ATOM     24  C   UNL A   1      34.976  17.992  24.250  1.00  0.00     0.009 A 
ATOM     25  C   UNL A   1      33.100  18.991  25.357  1.00  0.00     0.009 A 
ATOM     26  C   UNL A   1      34.333  16.751  24.248  1.00  0.00     0.001 A 
ATOM     27  C   UNL A   1      32.461  17.743  25.376  1.00  0.00     0.001 A 
ATOM     28  C   UNL A   1      33.074  16.625  24.817  1.00  0.00     0.000 A 
ENDBRANCH  16  23
ENDBRANCH   6   8
ENDBRANCH   3   4
ENDBRANCH   2   3
ENDBRANCH   1   2
BRANCH   1  29
ATOM     29  C   UNL A   1      34.172  28.355  26.553  1.00  0.00     0.116 C 
BRANCH  29  30
ATOM     30  N   UNL A   1      33.764  29.719  26.845  1.00  0.00    -0.352 N 
ATOM     31  C   UNL A   1      34.429  30.662  27.596  1.00  0.00     0.251 C 
ATOM     32  H   UNL A   1      32.905  30.005  26.458  1.00  0.00     0.163 HD
ATOM     33  O   UNL A   1      33.935  31.776  27.770  1.00  0.00    -0.269 OA
BRANCH  31  34
ATOM     34  C   UNL A   1      35.729  30.331  28.224  1.00  0.00     0.039 A 
ATOM     35  C   UNL A   1      35.735  29.712  29.477  1.00  0.00     0.014 A 
ATOM     36  C   UNL A   1      36.938  30.603  27.575  1.00  0.00     0.014 A 
ATOM     37  C   UNL A   1      36.942  29.292  30.038  1.00  0.00     0.010 A 
ATOM     38  C   UNL A   1      38.134  30.135  28.104  1.00  0.00     0.010 A 
ATOM     39  C   UNL A   1      38.146  29.468  29.335  1.00  0.00    -0.014 A 
BRANCH  39  40
ATOM     40  C   UNL A   1      39.422  28.927  29.850  1.00  0.00     0.031 A 
ATOM     41  C   UNL A   1      40.096  29.570  31.028  1.00  0.00     0.074 A 
ATOM     42  C   UNL A   1      40.007  27.905  29.196  1.00  0.00     0.049 A 
ATOM     43  N   UNL A   1      41.224  29.252  31.607  1.00  0.00    -0.248 NA
ATOM     44  C   UNL A   1      39.424  30.740  31.617  1.00  0.00     0.031 C 
ATOM     45  C   UNL A   1      39.478  27.261  27.991  1.00  0.00     0.029 A 
ATOM     46  N   UNL A   1      41.182  27.241  29.438  1.00  0.00    -0.354 N 
ATOM     47  C   UNL A   1      41.387  30.165  32.640  1.00  0.00     0.074 A 
ATOM     48  C   UNL A   1      40.283  31.096  32.562  1.00  0.00     0.031 C 
ATOM     49  C   UNL A   1      40.321  26.289  27.605  1.00  0.00     0.029 A 
ATOM     50  C   UNL A   1      41.456  26.256  28.522  1.00  0.00     0.049 A 
ATOM     51  H   UNL A   1      41.773  27.452  30.197  1.00  0.00     0.167 HD
ATOM     52  C   UNL A   1      42.354  30.202  33.587  1.00  0.00     0.037 A 
ATOM     53  C   UNL A   1      42.506  25.418  28.437  1.00  0.00     0.037 A 
ATOM     54  C   UNL A   1      43.460  29.279  33.642  1.00  0.00     0.049 A 
ATOM     55  C   UNL A   1      43.568  25.484  29.500  1.00  0.00     0.074 A 
ATOM     56  C   UNL A   1      44.488  29.215  34.565  1.00  0.00     0.029 A 
ATOM     57  N   UNL A   1      43.679  28.260  32.727  1.00  0.00    -0.354 N 
ATOM     58  N   UNL A   1      43.668  26.299  30.523  1.00  0.00    -0.248 NA
ATOM     59  C   UNL A   1      44.650  24.494  29.415  1.00  0.00     0.031 C 
ATOM     60  C   UNL A   1      45.349  28.178  34.189  1.00  0.00     0.029 A 
ATOM     61  C   UNL A   1      44.826  27.562  33.064  1.00  0.00     0.049 A 
ATOM     62  H   UNL A   1      43.104  28.061  31.953  1.00  0.00     0.167 HD
ATOM     63  C   UNL A   1      44.794  25.892  31.227  1.00  0.00     0.074 A 
ATOM     64  C   UNL A   1      45.333  24.749  30.521  1.00  0.00     0.031 C 
ATOM     65  C   UNL A   1      45.334  26.414  32.356  1.00  0.00     0.037 A 
BRANCH  52  66
ATOM     66  C   UNL A   1      42.245  31.254  34.653  1.00  0.00     0.057 A 
ATOM     67  C   UNL A   1      41.545  31.015  35.845  1.00  0.00     0.134 A 
ATOM     68  C   UNL A   1      42.883  32.493  34.519  1.00  0.00     0.134 A 
ATOM     69  F   UNL A   1      40.900  29.854  36.032  1.00  0.00    -0.206 F 
ATOM     70  C   UNL A   1      41.470  31.975  36.855  1.00  0.00     0.040 A 
ATOM     71  C   UNL A   1      42.838  33.452  35.535  1.00  0.00     0.040 A 
ATOM     72  F   UNL A   1      43.573  32.789  33.408  1.00  0.00    -0.206 F 
ATOM     73  C   UNL A   1      42.126  33.195  36.705  1.00  0.00     0.006 A 
ENDBRANCH  52  66
BRANCH  53  74
ATOM     74  C   UNL A   1      42.592  24.426  27.336  1.00  0.00     0.057 A 
ATOM     75  C   UNL A   1      42.143  23.110  27.506  1.00  0.00     0.134 A 
ATOM     76  C   UNL A   1      43.155  24.756  26.097  1.00  0.00     0.134 A 
ATOM     77  F   UNL A   1      41.604  22.727  28.673  1.00  0.00    -0.206 F 
ATOM     78  C   UNL A   1      42.290  22.150  26.503  1.00  0.00     0.040 A 
ATOM     79  C   UNL A   1      43.280  23.814  25.074  1.00  0.00     0.040 A 
ATOM     80  F   UNL A   1      43.590  26.003  25.861  1.00  0.00    -0.206 F 
ATOM     81  C   UNL A   1      42.859  22.503  25.282  1.00  0.00     0.006 A 
ENDBRANCH  53  74
BRANCH  65  82
ATOM     82  C   UNL A   1      46.527  25.705  32.929  1.00  0.00     0.057 A 
ATOM     83  C   UNL A   1      47.837  26.025  32.553  1.00  0.00     0.134 A 
ATOM     84  C   UNL A   1      46.356  24.689  33.879  1.00  0.00     0.134 A 
ATOM     85  F   UNL A   1      48.070  26.979  31.640  1.00  0.00    -0.206 F 
ATOM     86  C   UNL A   1      48.933  25.331  33.070  1.00  0.00     0.040 A 
ATOM     87  C   UNL A   1      47.445  24.012  34.428  1.00  0.00     0.040 A 
ATOM     88  F   UNL A   1      45.128  24.342  34.293  1.00  0.00    -0.206 F 
ATOM     89  C   UNL A   1      48.738  24.325  34.013  1.00  0.00     0.006 A 
ENDBRANCH  65  82
ENDBRANCH  39  40
ENDBRANCH  31  34
ENDBRANCH  29  30
ENDBRANCH   1  29
TORSDOF 13
ENDMDL
