MODEL 1
REMARK VINA RESULT:     -10.9      0.000      0.000
REMARK SMILES Cc1n[nH]c(C)c1S(=O)(=O)N[C@H](C(=O)NCCCCNC(=O)c1ccc(-c2c3nc(c(-c4c(F)cccc4F)c4ccc([nH]4)c(-c4c(F)cccc4F)c4nc(c(-c5c(F)cccc5F)c5ccc2[nH]5)C=C4)C=C3)cc1)C(C)C
REMARK SMILES IDX 17 1 16 2 15 3 13 4 14 5 12 7 11 8 8 10 9 11 10 12 7 13 1 14
REMARK SMILES IDX 2 15 3 16 4 17 5 18 6 20 77 21 78 22 79 23 18 24 19 25 20 26
REMARK SMILES IDX 21 27 22 29 23 30 24 31 76 32 25 33 75 34 26 35 27 36 28 37
REMARK SMILES IDX 69 38 29 39 74 40 68 41 70 42 30 43 73 44 67 45 66 46 31 48
REMARK SMILES IDX 57 49 40 50 56 51 41 52 44 53 55 54 71 55 42 56 43 57 54 59
REMARK SMILES IDX 72 60 45 61 32 62 33 63 38 64 34 65 35 66 37 67 39 68 36 69
REMARK SMILES IDX 58 70 59 71 64 72 60 73 61 74 63 75 65 76 62 77 46 78 47 79
REMARK SMILES IDX 52 80 48 81 49 82 51 83 53 84 50 85
REMARK H PARENT 15 6 11 9 4 19 20 28 70 47 44 58
REMARK Flexibility Score: inf
ROOT
ATOM      1  C   UNL A   1      36.556  20.123  25.139  1.00  0.00     0.023 C 
ENDROOT
BRANCH   1   2
ATOM      2  C   UNL A   1      36.260  21.567  25.553  1.00  0.00     0.116 C 
BRANCH   2   3
ATOM      3  N   UNL A   1      36.290  22.441  24.399  1.00  0.00    -0.355 N 
ATOM      4  C   UNL A   1      35.264  22.922  23.641  1.00  0.00     0.238 C 
ATOM      5  O   UNL A   1      35.559  23.443  22.558  1.00  0.00    -0.273 OA
ATOM      6  H   UNL A   1      37.187  22.734  24.119  1.00  0.00     0.163 HD
BRANCH   4   7
ATOM      7  C   UNL A   1      33.777  22.892  24.138  1.00  0.00     0.161 C 
BRANCH   7   8
ATOM      8  N   UNL A   1      33.447  24.330  23.927  1.00  0.00    -0.198 NA
ATOM      9  H   UNL A   1      34.288  24.739  23.522  1.00  0.00     0.142 HD
BRANCH   8  10
ATOM     10  S   UNL A   1      32.960  25.407  25.089  1.00  0.00     0.244 S 
ATOM     11  O   UNL A   1      32.605  26.645  24.451  1.00  0.00    -0.207 OA
ATOM     12  O   UNL A   1      33.965  25.369  26.133  1.00  0.00    -0.207 OA
BRANCH  10  13
ATOM     13  C   UNL A   1      31.539  24.832  25.860  1.00  0.00     0.125 A 
ATOM     14  C   UNL A   1      32.518  22.889  27.324  1.00  0.00     0.070 C 
ATOM     15  C   UNL A   1      31.448  23.769  26.788  1.00  0.00     0.079 A 
ATOM     16  N   UNL A   1      30.182  23.599  27.199  1.00  0.00    -0.179 NA
ATOM     17  N   UNL A   1      29.478  24.497  26.494  1.00  0.00    -0.281 N 
ATOM     18  C   UNL A   1      30.244  25.282  25.678  1.00  0.00     0.052 A 
ATOM     19  H   UNL A   1      28.500  24.582  26.559  1.00  0.00     0.190 HD
ATOM     20  C   UNL A   1      29.660  26.332  24.814  1.00  0.00     0.067 C 
ENDBRANCH  10  13
ENDBRANCH   8  10
ENDBRANCH   7   8
BRANCH   7  21
ATOM     21  C   UNL A   1      32.908  21.907  23.322  1.00  0.00     0.010 C 
ATOM     22  C   UNL A   1      32.791  20.538  23.998  1.00  0.00     0.009 C 
ATOM     23  C   UNL A   1      31.472  22.408  23.105  1.00  0.00     0.009 C 
ENDBRANCH   7  21
ENDBRANCH   4   7
ENDBRANCH   2   3
ENDBRANCH   1   2
BRANCH   1  24
ATOM     24  C   UNL A   1      37.994  19.859  24.708  1.00  0.00     0.023 C 
BRANCH  24  25
ATOM     25  C   UNL A   1      39.036  20.194  25.761  1.00  0.00     0.116 C 
BRANCH  25  26
ATOM     26  N   UNL A   1      40.158  19.265  25.770  1.00  0.00    -0.352 N 
ATOM     27  C   UNL A   1      41.479  19.493  26.070  1.00  0.00     0.251 C 
ATOM     28  H   UNL A   1      39.937  18.337  25.525  1.00  0.00     0.163 HD
ATOM     29  O   UNL A   1      42.312  18.610  25.895  1.00  0.00    -0.269 OA
BRANCH  27  30
ATOM     30  C   UNL A   1      41.891  20.817  26.575  1.00  0.00     0.039 A 
ATOM     31  C   UNL A   1      42.312  21.790  25.667  1.00  0.00     0.014 A 
ATOM     32  C   UNL A   1      41.830  21.104  27.940  1.00  0.00     0.014 A 
ATOM     33  C   UNL A   1      42.609  23.075  26.124  1.00  0.00     0.010 A 
ATOM     34  C   UNL A   1      42.018  22.406  28.377  1.00  0.00     0.010 A 
ATOM     35  C   UNL A   1      42.430  23.400  27.478  1.00  0.00    -0.014 A 
BRANCH  35  36
ATOM     36  C   UNL A   1      42.708  24.763  27.991  1.00  0.00     0.031 A 
ATOM     37  C   UNL A   1      44.110  25.136  28.387  1.00  0.00     0.074 A 
ATOM     38  C   UNL A   1      41.695  25.629  28.178  1.00  0.00     0.049 A 
ATOM     39  N   UNL A   1      44.551  26.239  28.934  1.00  0.00    -0.248 NA
ATOM     40  C   UNL A   1      45.149  24.111  28.185  1.00  0.00     0.031 C 
ATOM     41  C   UNL A   1      40.282  25.355  27.908  1.00  0.00     0.029 A 
ATOM     42  N   UNL A   1      41.700  26.916  28.652  1.00  0.00    -0.354 N 
ATOM     43  C   UNL A   1      45.905  26.029  29.163  1.00  0.00     0.074 A 
ATOM     44  C   UNL A   1      46.198  24.671  28.766  1.00  0.00     0.031 C 
ATOM     45  C   UNL A   1      39.559  26.449  28.200  1.00  0.00     0.029 A 
ATOM     46  C   UNL A   1      40.453  27.488  28.701  1.00  0.00     0.049 A 
ATOM     47  H   UNL A   1      42.519  27.384  28.932  1.00  0.00     0.167 HD
ATOM     48  C   UNL A   1      46.830  26.900  29.628  1.00  0.00     0.037 A 
ATOM     49  C   UNL A   1      40.075  28.715  29.104  1.00  0.00     0.037 A 
ATOM     50  C   UNL A   1      46.541  28.264  29.979  1.00  0.00     0.049 A 
ATOM     51  C   UNL A   1      41.124  29.687  29.565  1.00  0.00     0.074 A 
ATOM     52  C   UNL A   1      47.413  29.255  30.389  1.00  0.00     0.029 A 
ATOM     53  N   UNL A   1      45.274  28.829  29.953  1.00  0.00    -0.354 N 
ATOM     54  N   UNL A   1      42.416  29.503  29.701  1.00  0.00    -0.248 NA
ATOM     55  C   UNL A   1      40.669  31.039  29.911  1.00  0.00     0.031 C 
ATOM     56  C   UNL A   1      46.669  30.413  30.644  1.00  0.00     0.029 A 
ATOM     57  C   UNL A   1      45.339  30.154  30.352  1.00  0.00     0.049 A 
ATOM     58  H   UNL A   1      44.451  28.358  29.691  1.00  0.00     0.167 HD
ATOM     59  C   UNL A   1      42.930  30.720  30.129  1.00  0.00     0.074 A 
ATOM     60  C   UNL A   1      41.813  31.639  30.212  1.00  0.00     0.031 C 
ATOM     61  C   UNL A   1      44.212  31.049  30.427  1.00  0.00     0.037 A 
BRANCH  48  62
ATOM     62  C   UNL A   1      48.237  26.395  29.766  1.00  0.00     0.057 A 
ATOM     63  C   UNL A   1      48.689  25.774  30.940  1.00  0.00     0.134 A 
ATOM     64  C   UNL A   1      49.159  26.544  28.722  1.00  0.00     0.134 A 
ATOM     65  F   UNL A   1      47.862  25.615  31.984  1.00  0.00    -0.206 F 
ATOM     66  C   UNL A   1      50.013  25.358  31.086  1.00  0.00     0.040 A 
ATOM     67  C   UNL A   1      50.478  26.105  28.845  1.00  0.00     0.040 A 
ATOM     68  F   UNL A   1      48.795  27.126  27.570  1.00  0.00    -0.206 F 
ATOM     69  C   UNL A   1      50.912  25.521  30.034  1.00  0.00     0.006 A 
ENDBRANCH  48  62
BRANCH  49  70
ATOM     70  C   UNL A   1      38.644  29.101  29.045  1.00  0.00     0.057 A 
ATOM     71  C   UNL A   1      37.828  29.024  30.179  1.00  0.00     0.134 A 
ATOM     72  C   UNL A   1      38.065  29.579  27.864  1.00  0.00     0.134 A 
ATOM     73  F   UNL A   1      38.323  28.561  31.337  1.00  0.00    -0.206 F 
ATOM     74  C   UNL A   1      36.482  29.394  30.139  1.00  0.00     0.040 A 
ATOM     75  C   UNL A   1      36.727  29.975  27.814  1.00  0.00     0.040 A 
ATOM     76  F   UNL A   1      38.798  29.689  26.747  1.00  0.00    -0.206 F 
ATOM     77  C   UNL A   1      35.930  29.877  28.954  1.00  0.00     0.006 A 
ENDBRANCH  49  70
BRANCH  61  78
ATOM     78  C   UNL A   1      44.474  32.464  30.847  1.00  0.00     0.057 A 
ATOM     79  C   UNL A   1      44.746  33.471  29.912  1.00  0.00     0.134 A 
ATOM     80  C   UNL A   1      44.412  32.831  32.197  1.00  0.00     0.134 A 
ATOM     81  F   UNL A   1      44.829  33.182  28.605  1.00  0.00    -0.206 F 
ATOM     82  C   UNL A   1      44.970  34.790  30.309  1.00  0.00     0.040 A 
ATOM     83  C   UNL A   1      44.610  34.150  32.603  1.00  0.00     0.040 A 
ATOM     84  F   UNL A   1      44.146  31.914  33.140  1.00  0.00    -0.206 F 
ATOM     85  C   UNL A   1      44.896  35.133  31.659  1.00  0.00     0.006 A 
ENDBRANCH  61  78
ENDBRANCH  35  36
ENDBRANCH  27  30
ENDBRANCH  25  26
ENDBRANCH  24  25
ENDBRANCH   1  24
TORSDOF 15
ENDMDL
MODEL 2
REMARK VINA RESULT:     -10.9      1.370      2.456
REMARK SMILES Cc1n[nH]c(C)c1S(=O)(=O)N[C@H](C(=O)NCCCCNC(=O)c1ccc(-c2c3nc(c(-c4c(F)cccc4F)c4ccc([nH]4)c(-c4c(F)cccc4F)c4nc(c(-c5c(F)cccc5F)c5ccc2[nH]5)C=C4)C=C3)cc1)C(C)C
REMARK SMILES IDX 17 1 16 2 15 3 13 4 14 5 12 7 11 8 8 10 9 11 10 12 7 13 1 14
REMARK SMILES IDX 2 15 3 16 4 17 5 18 6 20 77 21 78 22 79 23 18 24 19 25 20 26
REMARK SMILES IDX 21 27 22 29 23 30 24 31 76 32 25 33 75 34 26 35 27 36 28 37
REMARK SMILES IDX 69 38 29 39 74 40 68 41 70 42 30 43 73 44 67 45 66 46 31 48
REMARK SMILES IDX 57 49 40 50 56 51 41 52 44 53 55 54 71 55 42 56 43 57 54 59
REMARK SMILES IDX 72 60 45 61 32 62 33 63 38 64 34 65 35 66 37 67 39 68 36 69
REMARK SMILES IDX 58 70 59 71 64 72 60 73 61 74 63 75 65 76 62 77 46 78 47 79
REMARK SMILES IDX 52 80 48 81 49 82 51 83 53 84 50 85
REMARK H PARENT 15 6 11 9 4 19 20 28 70 47 44 58
REMARK Flexibility Score: inf
ROOT
ATOM      1  C   UNL A   1      36.513  19.392  25.026  1.00  0.00     0.023 C 
ENDROOT
BRANCH   1   2
ATOM      2  C   UNL A   1      35.270  20.258  24.801  1.00  0.00     0.116 C 
BRANCH   2   3
ATOM      3  N   UNL A   1      34.906  20.947  26.021  1.00  0.00    -0.355 N 
ATOM      4  C   UNL A   1      34.796  22.282  26.271  1.00  0.00     0.238 C 
ATOM      5  O   UNL A   1      34.718  22.630  27.456  1.00  0.00    -0.273 OA
ATOM      6  H   UNL A   1      34.705  20.362  26.787  1.00  0.00     0.163 HD
BRANCH   4   7
ATOM      7  C   UNL A   1      34.695  23.339  25.116  1.00  0.00     0.161 C 
BRANCH   7   8
ATOM      8  N   UNL A   1      33.839  24.341  25.811  1.00  0.00    -0.198 NA
ATOM      9  H   UNL A   1      33.230  23.795  26.420  1.00  0.00     0.142 HD
BRANCH   8  10
ATOM     10  S   UNL A   1      32.842  25.451  25.090  1.00  0.00     0.244 S 
ATOM     11  O   UNL A   1      33.337  26.770  25.374  1.00  0.00    -0.207 OA
ATOM     12  O   UNL A   1      31.486  25.073  25.436  1.00  0.00    -0.207 OA
BRANCH  10  13
ATOM     13  C   UNL A   1      32.900  25.267  23.384  1.00  0.00     0.125 A 
ATOM     14  C   UNL A   1      33.840  27.606  22.663  1.00  0.00     0.070 C 
ATOM     15  C   UNL A   1      33.336  26.226  22.441  1.00  0.00     0.079 A 
ATOM     16  N   UNL A   1      33.258  25.742  21.193  1.00  0.00    -0.179 NA
ATOM     17  N   UNL A   1      32.722  24.522  21.341  1.00  0.00    -0.281 N 
ATOM     18  C   UNL A   1      32.496  24.171  22.643  1.00  0.00     0.052 A 
ATOM     19  H   UNL A   1      32.511  23.933  20.581  1.00  0.00     0.190 HD
ATOM     20  C   UNL A   1      31.907  22.867  23.021  1.00  0.00     0.067 C 
ENDBRANCH  10  13
ENDBRANCH   8  10
ENDBRANCH   7   8
BRANCH   7  21
ATOM     21  C   UNL A   1      36.083  23.868  24.686  1.00  0.00     0.010 C 
ATOM     22  C   UNL A   1      37.153  23.626  25.754  1.00  0.00     0.009 C 
ATOM     23  C   UNL A   1      36.602  23.217  23.396  1.00  0.00     0.009 C 
ENDBRANCH   7  21
ENDBRANCH   4   7
ENDBRANCH   2   3
ENDBRANCH   1   2
BRANCH   1  24
ATOM     24  C   UNL A   1      37.831  20.039  24.616  1.00  0.00     0.023 C 
BRANCH  24  25
ATOM     25  C   UNL A   1      38.801  20.265  25.762  1.00  0.00     0.116 C 
BRANCH  25  26
ATOM     26  N   UNL A   1      39.910  19.320  25.766  1.00  0.00    -0.352 N 
ATOM     27  C   UNL A   1      41.233  19.526  26.074  1.00  0.00     0.251 C 
ATOM     28  H   UNL A   1      39.677  18.398  25.510  1.00  0.00     0.163 HD
ATOM     29  O   UNL A   1      42.054  18.634  25.894  1.00  0.00    -0.269 OA
BRANCH  27  30
ATOM     30  C   UNL A   1      41.661  20.839  26.595  1.00  0.00     0.039 A 
ATOM     31  C   UNL A   1      42.120  21.808  25.701  1.00  0.00     0.014 A 
ATOM     32  C   UNL A   1      41.578  21.120  27.960  1.00  0.00     0.014 A 
ATOM     33  C   UNL A   1      42.433  23.084  26.172  1.00  0.00     0.010 A 
ATOM     34  C   UNL A   1      41.783  22.416  28.408  1.00  0.00     0.010 A 
ATOM     35  C   UNL A   1      42.234  23.406  27.524  1.00  0.00    -0.014 A 
BRANCH  35  36
ATOM     36  C   UNL A   1      42.528  24.760  28.050  1.00  0.00     0.031 A 
ATOM     37  C   UNL A   1      43.928  25.100  28.482  1.00  0.00     0.074 A 
ATOM     38  C   UNL A   1      41.531  25.648  28.215  1.00  0.00     0.049 A 
ATOM     39  N   UNL A   1      44.379  26.191  29.046  1.00  0.00    -0.248 NA
ATOM     40  C   UNL A   1      44.949  24.053  28.302  1.00  0.00     0.031 C 
ATOM     41  C   UNL A   1      40.119  25.406  27.909  1.00  0.00     0.029 A 
ATOM     42  N   UNL A   1      41.552  26.932  28.695  1.00  0.00    -0.354 N 
ATOM     43  C   UNL A   1      45.722  25.950  29.307  1.00  0.00     0.074 A 
ATOM     44  C   UNL A   1      45.995  24.587  28.912  1.00  0.00     0.031 C 
ATOM     45  C   UNL A   1      39.414  26.514  28.187  1.00  0.00     0.029 A 
ATOM     46  C   UNL A   1      40.317  27.532  28.715  1.00  0.00     0.049 A 
ATOM     47  H   UNL A   1      42.374  27.381  28.997  1.00  0.00     0.167 HD
ATOM     48  C   UNL A   1      46.654  26.799  29.800  1.00  0.00     0.037 A 
ATOM     49  C   UNL A   1      39.956  28.765  29.115  1.00  0.00     0.037 A 
ATOM     50  C   UNL A   1      46.386  28.167  30.150  1.00  0.00     0.049 A 
ATOM     51  C   UNL A   1      41.015  29.711  29.606  1.00  0.00     0.074 A 
ATOM     52  C   UNL A   1      47.270  29.137  30.586  1.00  0.00     0.029 A 
ATOM     53  N   UNL A   1      45.133  28.760  30.095  1.00  0.00    -0.354 N 
ATOM     54  N   UNL A   1      42.298  29.499  29.774  1.00  0.00    -0.248 NA
ATOM     55  C   UNL A   1      40.581  31.072  29.947  1.00  0.00     0.031 C 
ATOM     56  C   UNL A   1      46.545  30.310  30.827  1.00  0.00     0.029 A 
ATOM     57  C   UNL A   1      45.217  30.081  30.501  1.00  0.00     0.049 A 
ATOM     58  H   UNL A   1      44.307  28.309  29.810  1.00  0.00     0.167 HD
ATOM     59  C   UNL A   1      42.828  30.702  30.220  1.00  0.00     0.074 A 
ATOM     60  C   UNL A   1      41.729  31.645  30.280  1.00  0.00     0.031 C 
ATOM     61  C   UNL A   1      44.109  31.001  30.552  1.00  0.00     0.037 A 
BRANCH  48  62
ATOM     62  C   UNL A   1      48.046  26.262  29.971  1.00  0.00     0.057 A 
ATOM     63  C   UNL A   1      48.481  25.705  31.183  1.00  0.00     0.134 A 
ATOM     64  C   UNL A   1      48.969  26.315  28.920  1.00  0.00     0.134 A 
ATOM     65  F   UNL A   1      47.651  25.640  32.235  1.00  0.00    -0.206 F 
ATOM     66  C   UNL A   1      49.792  25.261  31.356  1.00  0.00     0.040 A 
ATOM     67  C   UNL A   1      50.275  25.845  29.071  1.00  0.00     0.040 A 
ATOM     68  F   UNL A   1      48.621  26.831  27.732  1.00  0.00    -0.206 F 
ATOM     69  C   UNL A   1      50.693  25.328  30.296  1.00  0.00     0.006 A 
ENDBRANCH  48  62
BRANCH  49  70
ATOM     70  C   UNL A   1      38.536  29.183  29.021  1.00  0.00     0.057 A 
ATOM     71  C   UNL A   1      37.997  29.647  27.816  1.00  0.00     0.134 A 
ATOM     72  C   UNL A   1      37.678  29.105  30.125  1.00  0.00     0.134 A 
ATOM     73  F   UNL A   1      38.773  29.755  26.727  1.00  0.00    -0.206 F 
ATOM     74  C   UNL A   1      36.660  30.032  27.713  1.00  0.00     0.040 A 
ATOM     75  C   UNL A   1      36.332  29.466  30.031  1.00  0.00     0.040 A 
ATOM     76  F   UNL A   1      38.130  28.657  31.303  1.00  0.00    -0.206 F 
ATOM     77  C   UNL A   1      35.822  29.937  28.822  1.00  0.00     0.006 A 
ENDBRANCH  49  70
BRANCH  61  78
ATOM     78  C   UNL A   1      44.391  32.409  30.985  1.00  0.00     0.057 A 
ATOM     79  C   UNL A   1      44.360  32.785  32.333  1.00  0.00     0.134 A 
ATOM     80  C   UNL A   1      44.736  33.387  30.044  1.00  0.00     0.134 A 
ATOM     81  F   UNL A   1      44.026  31.897  33.281  1.00  0.00    -0.206 F 
ATOM     82  C   UNL A   1      44.641  34.094  32.728  1.00  0.00     0.040 A 
ATOM     83  C   UNL A   1      45.043  34.692  30.430  1.00  0.00     0.040 A 
ATOM     84  F   UNL A   1      44.791  33.087  28.738  1.00  0.00    -0.206 F 
ATOM     85  C   UNL A   1      44.990  35.050  31.775  1.00  0.00     0.006 A 
ENDBRANCH  61  78
ENDBRANCH  35  36
ENDBRANCH  27  30
ENDBRANCH  25  26
ENDBRANCH  24  25
ENDBRANCH   1  24
TORSDOF 15
ENDMDL
MODEL 3
REMARK VINA RESULT:     -10.8      1.763      3.042
REMARK SMILES Cc1n[nH]c(C)c1S(=O)(=O)N[C@H](C(=O)NCCCCNC(=O)c1ccc(-c2c3nc(c(-c4c(F)cccc4F)c4ccc([nH]4)c(-c4c(F)cccc4F)c4nc(c(-c5c(F)cccc5F)c5ccc2[nH]5)C=C4)C=C3)cc1)C(C)C
REMARK SMILES IDX 17 1 16 2 15 3 13 4 14 5 12 7 11 8 8 10 9 11 10 12 7 13 1 14
REMARK SMILES IDX 2 15 3 16 4 17 5 18 6 20 77 21 78 22 79 23 18 24 19 25 20 26
REMARK SMILES IDX 21 27 22 29 23 30 24 31 76 32 25 33 75 34 26 35 27 36 28 37
REMARK SMILES IDX 69 38 29 39 74 40 68 41 70 42 30 43 73 44 67 45 66 46 31 48
REMARK SMILES IDX 57 49 40 50 56 51 41 52 44 53 55 54 71 55 42 56 43 57 54 59
REMARK SMILES IDX 72 60 45 61 32 62 33 63 38 64 34 65 35 66 37 67 39 68 36 69
REMARK SMILES IDX 58 70 59 71 64 72 60 73 61 74 63 75 65 76 62 77 46 78 47 79
REMARK SMILES IDX 52 80 48 81 49 82 51 83 53 84 50 85
REMARK H PARENT 15 6 11 9 4 19 20 28 70 47 44 58
REMARK Flexibility Score: inf
ROOT
ATOM      1  C   UNL A   1      38.659  21.914  25.815  1.00  0.00     0.023 C 
ENDROOT
BRANCH   1   2
ATOM      2  C   UNL A   1      37.399  22.636  25.330  1.00  0.00     0.116 C 
BRANCH   2   3
ATOM      3  N   UNL A   1      36.344  22.530  26.315  1.00  0.00    -0.355 N 
ATOM      4  C   UNL A   1      35.000  22.716  26.180  1.00  0.00     0.238 C 
ATOM      5  O   UNL A   1      34.337  22.817  27.220  1.00  0.00    -0.273 OA
ATOM      6  H   UNL A   1      36.641  22.285  27.221  1.00  0.00     0.163 HD
BRANCH   4   7
ATOM      7  C   UNL A   1      34.299  22.727  24.777  1.00  0.00     0.161 C 
BRANCH   7   8
ATOM      8  N   UNL A   1      33.335  21.615  25.006  1.00  0.00    -0.198 NA
ATOM      9  H   UNL A   1      32.905  21.816  25.909  1.00  0.00     0.142 HD
BRANCH   8  10
ATOM     10  S   UNL A   1      33.692  19.997  25.051  1.00  0.00     0.244 S 
ATOM     11  O   UNL A   1      33.054  19.415  26.199  1.00  0.00    -0.207 OA
ATOM     12  O   UNL A   1      35.124  19.887  24.858  1.00  0.00    -0.207 OA
BRANCH  10  13
ATOM     13  C   UNL A   1      33.028  19.214  23.676  1.00  0.00     0.125 A 
ATOM     14  C   UNL A   1      33.867  16.758  24.049  1.00  0.00     0.070 C 
ATOM     15  C   UNL A   1      33.151  17.847  23.336  1.00  0.00     0.079 A 
ATOM     16  N   UNL A   1      32.495  17.574  22.198  1.00  0.00    -0.179 NA
ATOM     17  N   UNL A   1      32.021  18.761  21.794  1.00  0.00    -0.281 N 
ATOM     18  C   UNL A   1      32.297  19.789  22.652  1.00  0.00     0.052 A 
ATOM     19  H   UNL A   1      31.519  18.882  20.955  1.00  0.00     0.190 HD
ATOM     20  C   UNL A   1      31.865  21.180  22.388  1.00  0.00     0.067 C 
ENDBRANCH  10  13
ENDBRANCH   8  10
ENDBRANCH   7   8
BRANCH   7  21
ATOM     21  C   UNL A   1      33.643  24.092  24.463  1.00  0.00     0.010 C 
ATOM     22  C   UNL A   1      34.404  25.261  25.095  1.00  0.00     0.009 C 
ATOM     23  C   UNL A   1      33.562  24.389  22.958  1.00  0.00     0.009 C 
ENDBRANCH   7  21
ENDBRANCH   4   7
ENDBRANCH   2   3
ENDBRANCH   1   2
BRANCH   1  24
ATOM     24  C   UNL A   1      38.858  20.514  25.247  1.00  0.00     0.023 C 
BRANCH  24  25
ATOM     25  C   UNL A   1      39.471  19.523  26.221  1.00  0.00     0.116 C 
BRANCH  25  26
ATOM     26  N   UNL A   1      40.775  19.034  25.793  1.00  0.00    -0.352 N 
ATOM     27  C   UNL A   1      41.987  19.681  25.773  1.00  0.00     0.251 C 
ATOM     28  H   UNL A   1      40.790  18.104  25.471  1.00  0.00     0.163 HD
ATOM     29  O   UNL A   1      42.961  19.148  25.252  1.00  0.00    -0.269 OA
BRANCH  27  30
ATOM     30  C   UNL A   1      42.099  21.032  26.356  1.00  0.00     0.039 A 
ATOM     31  C   UNL A   1      41.978  21.189  27.738  1.00  0.00     0.014 A 
ATOM     32  C   UNL A   1      42.354  22.135  25.539  1.00  0.00     0.014 A 
ATOM     33  C   UNL A   1      42.180  22.447  28.307  1.00  0.00     0.010 A 
ATOM     34  C   UNL A   1      42.663  23.358  26.114  1.00  0.00     0.010 A 
ATOM     35  C   UNL A   1      42.558  23.533  27.501  1.00  0.00    -0.014 A 
BRANCH  35  36
ATOM     36  C   UNL A   1      42.810  24.875  28.078  1.00  0.00     0.031 A 
ATOM     37  C   UNL A   1      44.190  25.231  28.556  1.00  0.00     0.074 A 
ATOM     38  C   UNL A   1      41.788  25.735  28.248  1.00  0.00     0.049 A 
ATOM     39  N   UNL A   1      44.603  26.313  29.165  1.00  0.00    -0.248 NA
ATOM     40  C   UNL A   1      45.239  24.214  28.366  1.00  0.00     0.031 C 
ATOM     41  C   UNL A   1      40.390  25.472  27.900  1.00  0.00     0.029 A 
ATOM     42  N   UNL A   1      41.768  27.002  28.771  1.00  0.00    -0.354 N 
ATOM     43  C   UNL A   1      45.944  26.093  29.452  1.00  0.00     0.074 A 
ATOM     44  C   UNL A   1      46.257  24.751  29.019  1.00  0.00     0.031 C 
ATOM     45  C   UNL A   1      39.653  26.554  28.197  1.00  0.00     0.029 A 
ATOM     46  C   UNL A   1      40.520  27.573  28.780  1.00  0.00     0.049 A 
ATOM     47  H   UNL A   1      42.572  27.459  29.107  1.00  0.00     0.167 HD
ATOM     48  C   UNL A   1      46.845  26.946  29.994  1.00  0.00     0.037 A 
ATOM     49  C   UNL A   1      40.121  28.784  29.211  1.00  0.00     0.037 A 
ATOM     50  C   UNL A   1      46.537  28.295  30.383  1.00  0.00     0.049 A 
ATOM     51  C   UNL A   1      41.146  29.737  29.758  1.00  0.00     0.074 A 
ATOM     52  C   UNL A   1      47.388  29.269  30.872  1.00  0.00     0.029 A 
ATOM     53  N   UNL A   1      45.272  28.862  30.316  1.00  0.00    -0.354 N 
ATOM     54  N   UNL A   1      42.430  29.547  29.951  1.00  0.00    -0.248 NA
ATOM     55  C   UNL A   1      40.673  31.076  30.133  1.00  0.00     0.031 C 
ATOM     56  C   UNL A   1      46.630  30.417  31.133  1.00  0.00     0.029 A 
ATOM     57  C   UNL A   1      45.317  30.170  30.767  1.00  0.00     0.049 A 
ATOM     58  H   UNL A   1      44.464  28.402  29.996  1.00  0.00     0.167 HD
ATOM     59  C   UNL A   1      42.921  30.746  30.449  1.00  0.00     0.074 A 
ATOM     60  C   UNL A   1      41.800  31.662  30.512  1.00  0.00     0.031 C 
ATOM     61  C   UNL A   1      44.187  31.062  30.822  1.00  0.00     0.037 A 
BRANCH  48  62
ATOM     62  C   UNL A   1      48.244  26.434  30.181  1.00  0.00     0.057 A 
ATOM     63  C   UNL A   1      48.643  25.783  31.358  1.00  0.00     0.134 A 
ATOM     64  C   UNL A   1      49.211  26.607  29.183  1.00  0.00     0.134 A 
ATOM     65  F   UNL A   1      47.770  25.600  32.361  1.00  0.00    -0.206 F 
ATOM     66  C   UNL A   1      49.959  25.361  31.552  1.00  0.00     0.040 A 
ATOM     67  C   UNL A   1      50.523  26.163  29.353  1.00  0.00     0.040 A 
ATOM     68  F   UNL A   1      48.898  27.219  28.031  1.00  0.00    -0.206 F 
ATOM     69  C   UNL A   1      50.903  25.548  30.545  1.00  0.00     0.006 A 
ENDBRANCH  48  62
BRANCH  49  70
ATOM     70  C   UNL A   1      38.694  29.173  29.096  1.00  0.00     0.057 A 
ATOM     71  C   UNL A   1      38.159  29.605  27.878  1.00  0.00     0.134 A 
ATOM     72  C   UNL A   1      37.828  29.099  30.193  1.00  0.00     0.134 A 
ATOM     73  F   UNL A   1      38.944  29.709  26.795  1.00  0.00    -0.206 F 
ATOM     74  C   UNL A   1      36.815  29.963  27.755  1.00  0.00     0.040 A 
ATOM     75  C   UNL A   1      36.476  29.433  30.080  1.00  0.00     0.040 A 
ATOM     76  F   UNL A   1      38.277  28.681  31.384  1.00  0.00    -0.206 F 
ATOM     77  C   UNL A   1      35.969  29.872  28.858  1.00  0.00     0.006 A 
ENDBRANCH  49  70
BRANCH  61  78
ATOM     78  C   UNL A   1      44.426  32.461  31.307  1.00  0.00     0.057 A 
ATOM     79  C   UNL A   1      44.350  32.793  32.666  1.00  0.00     0.134 A 
ATOM     80  C   UNL A   1      44.775  33.477  30.408  1.00  0.00     0.134 A 
ATOM     81  F   UNL A   1      44.009  31.867  33.574  1.00  0.00    -0.206 F 
ATOM     82  C   UNL A   1      44.591  34.093  33.110  1.00  0.00     0.040 A 
ATOM     83  C   UNL A   1      45.042  34.775  30.844  1.00  0.00     0.040 A 
ATOM     84  F   UNL A   1      44.873  33.221  29.095  1.00  0.00    -0.206 F 
ATOM     85  C   UNL A   1      44.945  35.087  32.198  1.00  0.00     0.006 A 
ENDBRANCH  61  78
ENDBRANCH  35  36
ENDBRANCH  27  30
ENDBRANCH  25  26
ENDBRANCH  24  25
ENDBRANCH   1  24
TORSDOF 15
ENDMDL
