MODEL 1
REMARK VINA RESULT:     -13.0      0.000      0.000
REMARK SMILES CC(C)n1c2c(c3ccccc31)[C@@H](c1ccccc1)N(CC(=O)NCCCCNC(=O)c1ccc(-c3c4nc(c(-c5c(F)cccc5F)c5ccc([nH]5)c(-c5c(F)cccc5F)c5nc(c(-c6c(F)cccc6F)c6ccc3[nH]6)C=C5)C=C4)cc1)C2=O
REMARK SMILES IDX 26 1 25 2 24 3 22 4 23 5 21 7 20 8 4 9 5 10 12 11 6 12 86 13
REMARK SMILES IDX 7 14 11 15 13 16 87 17 8 18 10 19 9 20 2 21 1 22 3 23 14 24
REMARK SMILES IDX 15 25 19 26 16 27 18 28 17 29 27 30 28 31 29 32 30 33 31 35
REMARK SMILES IDX 32 36 33 37 85 38 34 39 84 40 35 41 36 42 37 43 78 44 38 45
REMARK SMILES IDX 83 46 77 47 79 48 39 49 82 50 76 51 75 52 40 54 66 55 49 56
REMARK SMILES IDX 65 57 50 58 53 59 64 60 80 61 51 62 52 63 63 65 81 66 54 67
REMARK SMILES IDX 41 68 42 69 47 70 43 71 44 72 46 73 48 74 45 75 67 76 68 77
REMARK SMILES IDX 73 78 69 79 70 80 72 81 74 82 71 83 55 84 56 85 61 86 57 87
REMARK SMILES IDX 58 88 60 89 62 90 59 91
REMARK H PARENT 24 6 29 34 79 53 53 64
REMARK Flexibility Score: inf
ROOT
ATOM      1  C   UNL A   1      31.974  29.402  27.212  1.00  0.00     0.023 C 
ENDROOT
BRANCH   1   2
ATOM      2  C   UNL A   1      31.753  27.889  27.179  1.00  0.00     0.116 C 
BRANCH   2   3
ATOM      3  N   UNL A   1      30.926  27.495  26.057  1.00  0.00    -0.355 N 
ATOM      4  C   UNL A   1      30.576  26.232  25.675  1.00  0.00     0.239 C 
ATOM      5  O   UNL A   1      29.891  26.092  24.660  1.00  0.00    -0.273 OA
ATOM      6  H   UNL A   1      30.572  28.229  25.503  1.00  0.00     0.163 HD
BRANCH   4   7
ATOM      7  C   UNL A   1      31.064  25.021  26.480  1.00  0.00     0.220 C 
BRANCH   7   8
ATOM      8  N   UNL A   1      32.107  24.303  25.767  1.00  0.00    -0.317 N 
ATOM      9  N   UNL A   1      34.037  21.355  25.008  1.00  0.00    -0.334 N 
ATOM     10  C   UNL A   1      33.323  22.510  25.199  1.00  0.00     0.114 A 
ATOM     11  C   UNL A   1      35.404  21.710  25.054  1.00  0.00     0.049 A 
ATOM     12  C   UNL A   1      34.189  23.559  25.392  1.00  0.00     0.018 A 
ATOM     13  C   UNL A   1      31.976  22.974  25.368  1.00  0.00     0.272 C 
ATOM     14  C   UNL A   1      35.497  23.076  25.381  1.00  0.00     0.006 A 
ATOM     15  C   UNL A   1      36.583  20.967  24.849  1.00  0.00     0.027 A 
ATOM     16  C   UNL A   1      33.477  24.841  25.625  1.00  0.00     0.150 C 
ATOM     17  O   UNL A   1      30.922  22.355  25.312  1.00  0.00    -0.267 OA
ATOM     18  C   UNL A   1      36.755  23.679  25.581  1.00  0.00     0.011 A 
ATOM     19  C   UNL A   1      37.824  21.582  25.063  1.00  0.00     0.002 A 
ATOM     20  C   UNL A   1      37.911  22.916  25.435  1.00  0.00     0.001 A 
BRANCH   9  21
ATOM     21  C   UNL A   1      33.530  19.996  24.753  1.00  0.00     0.082 C 
ATOM     22  C   UNL A   1      32.859  19.332  25.971  1.00  0.00     0.031 C 
ATOM     23  C   UNL A   1      32.533  19.855  23.597  1.00  0.00     0.031 C 
ENDBRANCH   9  21
BRANCH  16  24
ATOM     24  C   UNL A   1      33.588  25.738  24.398  1.00  0.00    -0.021 A 
ATOM     25  C   UNL A   1      33.993  27.074  24.589  1.00  0.00     0.006 A 
ATOM     26  C   UNL A   1      33.261  25.349  23.084  1.00  0.00     0.006 A 
ATOM     27  C   UNL A   1      34.017  27.988  23.532  1.00  0.00     0.000 A 
ATOM     28  C   UNL A   1      33.312  26.256  22.022  1.00  0.00     0.000 A 
ATOM     29  C   UNL A   1      33.674  27.579  22.248  1.00  0.00     0.000 A 
ENDBRANCH  16  24
ENDBRANCH   7   8
ENDBRANCH   4   7
ENDBRANCH   2   3
ENDBRANCH   1   2
BRANCH   1  30
ATOM     30  C   UNL A   1      33.356  29.853  26.721  1.00  0.00     0.023 C 
BRANCH  30  31
ATOM     31  C   UNL A   1      34.516  29.223  27.492  1.00  0.00     0.116 C 
BRANCH  31  32
ATOM     32  N   UNL A   1      34.950  30.027  28.618  1.00  0.00    -0.352 N 
ATOM     33  C   UNL A   1      36.135  30.219  29.262  1.00  0.00     0.251 C 
ATOM     34  H   UNL A   1      34.218  30.556  29.007  1.00  0.00     0.163 HD
ATOM     35  O   UNL A   1      36.144  31.082  30.143  1.00  0.00    -0.269 OA
BRANCH  33  36
ATOM     36  C   UNL A   1      37.357  29.408  29.045  1.00  0.00     0.039 A 
ATOM     37  C   UNL A   1      37.897  28.497  29.955  1.00  0.00     0.014 A 
ATOM     38  C   UNL A   1      38.066  29.693  27.864  1.00  0.00     0.014 A 
ATOM     39  C   UNL A   1      39.186  28.026  29.788  1.00  0.00     0.010 A 
ATOM     40  C   UNL A   1      39.339  29.192  27.671  1.00  0.00     0.010 A 
ATOM     41  C   UNL A   1      39.922  28.440  28.685  1.00  0.00    -0.014 A 
BRANCH  41  42
ATOM     42  C   UNL A   1      41.310  28.021  28.598  1.00  0.00     0.031 A 
ATOM     43  C   UNL A   1      41.512  26.699  27.936  1.00  0.00     0.074 A 
ATOM     44  C   UNL A   1      42.296  28.852  28.995  1.00  0.00     0.049 A 
ATOM     45  N   UNL A   1      42.113  25.650  28.394  1.00  0.00    -0.248 NA
ATOM     46  C   UNL A   1      40.824  26.476  26.651  1.00  0.00     0.031 C 
ATOM     47  C   UNL A   1      42.179  30.241  29.457  1.00  0.00     0.029 A 
ATOM     48  N   UNL A   1      43.641  28.662  28.956  1.00  0.00    -0.354 N 
ATOM     49  C   UNL A   1      42.054  24.701  27.372  1.00  0.00     0.074 A 
ATOM     50  C   UNL A   1      41.122  25.202  26.401  1.00  0.00     0.031 C 
ATOM     51  C   UNL A   1      43.391  30.836  29.404  1.00  0.00     0.029 A 
ATOM     52  C   UNL A   1      44.380  29.838  29.049  1.00  0.00     0.049 A 
ATOM     53  H   UNL A   1      44.055  27.774  28.871  1.00  0.00     0.167 HD
ATOM     54  C   UNL A   1      42.967  23.694  27.286  1.00  0.00     0.037 A 
ATOM     55  C   UNL A   1      45.695  29.969  28.746  1.00  0.00     0.037 A 
ATOM     56  C   UNL A   1      43.584  23.439  28.560  1.00  0.00     0.049 A 
ATOM     57  C   UNL A   1      46.289  28.608  28.770  1.00  0.00     0.074 A 
ATOM     58  C   UNL A   1      43.137  23.000  29.791  1.00  0.00     0.029 A 
ATOM     59  N   UNL A   1      44.828  23.973  28.789  1.00  0.00    -0.354 N 
ATOM     60  N   UNL A   1      46.408  27.899  29.860  1.00  0.00    -0.248 NA
ATOM     61  C   UNL A   1      46.269  27.848  27.528  1.00  0.00     0.031 C 
ATOM     62  C   UNL A   1      43.899  23.739  30.743  1.00  0.00     0.029 A 
ATOM     63  C   UNL A   1      44.803  24.533  30.039  1.00  0.00     0.049 A 
ATOM     64  H   UNL A   1      45.594  23.957  28.171  1.00  0.00     0.167 HD
ATOM     65  C   UNL A   1      46.058  26.609  29.487  1.00  0.00     0.074 A 
ATOM     66  C   UNL A   1      46.033  26.630  28.024  1.00  0.00     0.031 C 
ATOM     67  C   UNL A   1      45.537  25.726  30.388  1.00  0.00     0.037 A 
BRANCH  54  68
ATOM     68  C   UNL A   1      43.604  23.255  25.984  1.00  0.00     0.057 A 
ATOM     69  C   UNL A   1      44.432  24.075  25.190  1.00  0.00     0.134 A 
ATOM     70  C   UNL A   1      43.680  21.879  25.698  1.00  0.00     0.134 A 
ATOM     71  F   UNL A   1      44.499  25.403  25.340  1.00  0.00    -0.206 F 
ATOM     72  C   UNL A   1      45.328  23.562  24.250  1.00  0.00     0.040 A 
ATOM     73  C   UNL A   1      44.606  21.352  24.790  1.00  0.00     0.040 A 
ATOM     74  F   UNL A   1      42.925  20.994  26.365  1.00  0.00    -0.206 F 
ATOM     75  C   UNL A   1      45.450  22.194  24.079  1.00  0.00     0.006 A 
ENDBRANCH  54  68
BRANCH  55  76
ATOM     76  C   UNL A   1      46.342  31.119  28.071  1.00  0.00     0.057 A 
ATOM     77  C   UNL A   1      47.397  31.823  28.680  1.00  0.00     0.134 A 
ATOM     78  C   UNL A   1      45.784  31.712  26.934  1.00  0.00     0.134 A 
ATOM     79  F   UNL A   1      47.945  31.396  29.828  1.00  0.00    -0.206 F 
ATOM     80  C   UNL A   1      47.876  33.039  28.185  1.00  0.00     0.040 A 
ATOM     81  C   UNL A   1      46.249  32.936  26.429  1.00  0.00     0.040 A 
ATOM     82  F   UNL A   1      44.737  31.146  26.316  1.00  0.00    -0.206 F 
ATOM     83  C   UNL A   1      47.294  33.606  27.058  1.00  0.00     0.006 A 
ENDBRANCH  55  76
BRANCH  67  84
ATOM     84  C   UNL A   1      45.513  26.140  31.834  1.00  0.00     0.057 A 
ATOM     85  C   UNL A   1      46.599  25.817  32.651  1.00  0.00     0.134 A 
ATOM     86  C   UNL A   1      44.395  26.708  32.463  1.00  0.00     0.134 A 
ATOM     87  F   UNL A   1      47.677  25.208  32.132  1.00  0.00    -0.206 F 
ATOM     88  C   UNL A   1      46.584  26.063  34.026  1.00  0.00     0.040 A 
ATOM     89  C   UNL A   1      44.377  26.989  33.833  1.00  0.00     0.040 A 
ATOM     90  F   UNL A   1      43.268  26.948  31.783  1.00  0.00    -0.206 F 
ATOM     91  C   UNL A   1      45.477  26.663  34.620  1.00  0.00     0.006 A 
ENDBRANCH  67  84
ENDBRANCH  41  42
ENDBRANCH  33  36
ENDBRANCH  31  32
ENDBRANCH  30  31
ENDBRANCH   1  30
TORSDOF 14
ENDMDL
MODEL 2
REMARK VINA RESULT:     -12.8      2.730      7.604
REMARK SMILES CC(C)n1c2c(c3ccccc31)[C@@H](c1ccccc1)N(CC(=O)NCCCCNC(=O)c1ccc(-c3c4nc(c(-c5c(F)cccc5F)c5ccc([nH]5)c(-c5c(F)cccc5F)c5nc(c(-c6c(F)cccc6F)c6ccc3[nH]6)C=C5)C=C4)cc1)C2=O
REMARK SMILES IDX 26 1 25 2 24 3 22 4 23 5 21 7 20 8 4 9 5 10 12 11 6 12 86 13
REMARK SMILES IDX 7 14 11 15 13 16 87 17 8 18 10 19 9 20 2 21 1 22 3 23 14 24
REMARK SMILES IDX 15 25 19 26 16 27 18 28 17 29 27 30 28 31 29 32 30 33 31 35
REMARK SMILES IDX 32 36 33 37 85 38 34 39 84 40 35 41 36 42 37 43 78 44 38 45
REMARK SMILES IDX 83 46 77 47 79 48 39 49 82 50 76 51 75 52 40 54 66 55 49 56
REMARK SMILES IDX 65 57 50 58 53 59 64 60 80 61 51 62 52 63 63 65 81 66 54 67
REMARK SMILES IDX 41 68 42 69 47 70 43 71 44 72 46 73 48 74 45 75 67 76 68 77
REMARK SMILES IDX 73 78 69 79 70 80 72 81 74 82 71 83 55 84 56 85 61 86 57 87
REMARK SMILES IDX 58 88 60 89 62 90 59 91
REMARK H PARENT 24 6 29 34 79 53 53 64
REMARK Flexibility Score: inf
ROOT
ATOM      1  C   UNL A   1      40.993  19.964  26.971  1.00  0.00     0.023 C 
ENDROOT
BRANCH   1   2
ATOM      2  C   UNL A   1      39.915  20.264  25.929  1.00  0.00     0.116 C 
BRANCH   2   3
ATOM      3  N   UNL A   1      39.216  21.497  26.225  1.00  0.00    -0.355 N 
ATOM      4  C   UNL A   1      38.061  21.963  25.663  1.00  0.00     0.239 C 
ATOM      5  O   UNL A   1      37.635  23.063  26.020  1.00  0.00    -0.273 OA
ATOM      6  H   UNL A   1      39.622  22.069  26.916  1.00  0.00     0.163 HD
BRANCH   4   7
ATOM      7  C   UNL A   1      37.341  21.140  24.588  1.00  0.00     0.220 C 
BRANCH   7   8
ATOM      8  N   UNL A   1      35.994  21.637  24.364  1.00  0.00    -0.317 N 
ATOM      9  N   UNL A   1      33.589  24.264  23.803  1.00  0.00    -0.334 N 
ATOM     10  C   UNL A   1      34.439  23.200  23.965  1.00  0.00     0.114 A 
ATOM     11  C   UNL A   1      32.523  24.075  24.711  1.00  0.00     0.049 A 
ATOM     12  C   UNL A   1      33.961  22.377  24.955  1.00  0.00     0.018 A 
ATOM     13  C   UNL A   1      35.712  22.711  23.520  1.00  0.00     0.272 C 
ATOM     14  C   UNL A   1      32.802  22.937  25.493  1.00  0.00     0.006 A 
ATOM     15  C   UNL A   1      31.334  24.794  24.939  1.00  0.00     0.027 A 
ATOM     16  C   UNL A   1      34.848  21.210  25.195  1.00  0.00     0.150 C 
ATOM     17  O   UNL A   1      36.477  23.169  22.683  1.00  0.00    -0.267 OA
ATOM     18  C   UNL A   1      31.943  22.566  26.545  1.00  0.00     0.011 A 
ATOM     19  C   UNL A   1      30.498  24.414  25.997  1.00  0.00     0.002 A 
ATOM     20  C   UNL A   1      30.802  23.323  26.798  1.00  0.00     0.001 A 
BRANCH   9  21
ATOM     21  C   UNL A   1      33.695  25.384  22.852  1.00  0.00     0.082 C 
ATOM     22  C   UNL A   1      32.644  25.361  21.727  1.00  0.00     0.031 C 
ATOM     23  C   UNL A   1      33.628  26.791  23.459  1.00  0.00     0.031 C 
ENDBRANCH   9  21
BRANCH  16  24
ATOM     24  C   UNL A   1      34.213  19.941  24.642  1.00  0.00    -0.021 A 
ATOM     25  C   UNL A   1      34.947  18.741  24.730  1.00  0.00     0.006 A 
ATOM     26  C   UNL A   1      32.964  19.882  23.993  1.00  0.00     0.006 A 
ATOM     27  C   UNL A   1      34.482  17.557  24.152  1.00  0.00     0.000 A 
ATOM     28  C   UNL A   1      32.487  18.691  23.438  1.00  0.00     0.000 A 
ATOM     29  C   UNL A   1      33.252  17.533  23.503  1.00  0.00     0.000 A 
ENDBRANCH  16  24
ENDBRANCH   7   8
ENDBRANCH   4   7
ENDBRANCH   2   3
ENDBRANCH   1   2
BRANCH   1  30
ATOM     30  C   UNL A   1      42.428  20.210  26.489  1.00  0.00     0.023 C 
BRANCH  30  31
ATOM     31  C   UNL A   1      43.109  18.964  25.926  1.00  0.00     0.116 C 
BRANCH  31  32
ATOM     32  N   UNL A   1      43.700  19.183  24.620  1.00  0.00    -0.352 N 
ATOM     33  C   UNL A   1      44.460  20.166  24.061  1.00  0.00     0.251 C 
ATOM     34  H   UNL A   1      43.507  18.451  23.992  1.00  0.00     0.163 HD
ATOM     35  O   UNL A   1      44.873  19.953  22.919  1.00  0.00    -0.269 OA
BRANCH  33  36
ATOM     36  C   UNL A   1      44.730  21.484  24.684  1.00  0.00     0.039 A 
ATOM     37  C   UNL A   1      45.663  21.726  25.694  1.00  0.00     0.014 A 
ATOM     38  C   UNL A   1      43.876  22.527  24.280  1.00  0.00     0.014 A 
ATOM     39  C   UNL A   1      45.624  22.909  26.409  1.00  0.00     0.010 A 
ATOM     40  C   UNL A   1      43.861  23.727  24.965  1.00  0.00     0.010 A 
ATOM     41  C   UNL A   1      44.671  23.867  26.086  1.00  0.00    -0.014 A 
BRANCH  41  42
ATOM     42  C   UNL A   1      44.580  25.046  26.928  1.00  0.00     0.031 A 
ATOM     43  C   UNL A   1      45.713  26.003  26.770  1.00  0.00     0.074 A 
ATOM     44  C   UNL A   1      43.482  25.257  27.684  1.00  0.00     0.049 A 
ATOM     45  N   UNL A   1      46.513  26.465  27.675  1.00  0.00    -0.248 NA
ATOM     46  C   UNL A   1      46.091  26.379  25.395  1.00  0.00     0.031 C 
ATOM     47  C   UNL A   1      42.245  24.466  27.726  1.00  0.00     0.029 A 
ATOM     48  N   UNL A   1      43.193  26.306  28.497  1.00  0.00    -0.354 N 
ATOM     49  C   UNL A   1      47.367  27.348  27.013  1.00  0.00     0.074 A 
ATOM     50  C   UNL A   1      47.168  27.134  25.606  1.00  0.00     0.031 C 
ATOM     51  C   UNL A   1      41.266  25.192  28.309  1.00  0.00     0.029 A 
ATOM     52  C   UNL A   1      41.841  26.427  28.805  1.00  0.00     0.049 A 
ATOM     53  H   UNL A   1      43.878  26.926  28.838  1.00  0.00     0.167 HD
ATOM     54  C   UNL A   1      47.991  28.362  27.674  1.00  0.00     0.037 A 
ATOM     55  C   UNL A   1      41.247  27.523  29.339  1.00  0.00     0.037 A 
ATOM     56  C   UNL A   1      48.085  28.086  29.083  1.00  0.00     0.049 A 
ATOM     57  C   UNL A   1      42.319  28.345  29.957  1.00  0.00     0.074 A 
ATOM     58  C   UNL A   1      48.717  27.126  29.849  1.00  0.00     0.029 A 
ATOM     59  N   UNL A   1      47.167  28.677  29.915  1.00  0.00    -0.354 N 
ATOM     60  N   UNL A   1      43.000  27.962  31.003  1.00  0.00    -0.248 NA
ATOM     61  C   UNL A   1      42.972  29.336  29.113  1.00  0.00     0.031 C 
ATOM     62  C   UNL A   1      47.812  26.856  30.919  1.00  0.00     0.029 A 
ATOM     63  C   UNL A   1      46.718  27.708  30.774  1.00  0.00     0.049 A 
ATOM     64  H   UNL A   1      46.885  29.620  29.898  1.00  0.00     0.167 HD
ATOM     65  C   UNL A   1      44.310  28.332  30.731  1.00  0.00     0.074 A 
ATOM     66  C   UNL A   1      44.221  29.223  29.573  1.00  0.00     0.031 C 
ATOM     67  C   UNL A   1      45.366  27.660  31.275  1.00  0.00     0.037 A 
BRANCH  54  68
ATOM     68  C   UNL A   1      48.113  29.767  27.123  1.00  0.00     0.057 A 
ATOM     69  C   UNL A   1      47.016  30.616  26.865  1.00  0.00     0.134 A 
ATOM     70  C   UNL A   1      49.362  30.411  27.183  1.00  0.00     0.134 A 
ATOM     71  F   UNL A   1      45.756  30.174  26.794  1.00  0.00    -0.206 F 
ATOM     72  C   UNL A   1      47.140  32.003  26.764  1.00  0.00     0.040 A 
ATOM     73  C   UNL A   1      49.491  31.804  27.127  1.00  0.00     0.040 A 
ATOM     74  F   UNL A   1      50.488  29.714  27.397  1.00  0.00    -0.206 F 
ATOM     75  C   UNL A   1      48.374  32.607  26.940  1.00  0.00     0.006 A 
ENDBRANCH  54  68
BRANCH  55  76
ATOM     76  C   UNL A   1      39.911  28.065  28.999  1.00  0.00     0.057 A 
ATOM     77  C   UNL A   1      39.682  28.730  27.780  1.00  0.00     0.134 A 
ATOM     78  C   UNL A   1      38.894  28.167  29.955  1.00  0.00     0.134 A 
ATOM     79  F   UNL A   1      40.625  28.778  26.828  1.00  0.00    -0.206 F 
ATOM     80  C   UNL A   1      38.510  29.447  27.522  1.00  0.00     0.040 A 
ATOM     81  C   UNL A   1      37.716  28.888  29.713  1.00  0.00     0.040 A 
ATOM     82  F   UNL A   1      39.043  27.614  31.167  1.00  0.00    -0.206 F 
ATOM     83  C   UNL A   1      37.524  29.537  28.496  1.00  0.00     0.006 A 
ENDBRANCH  55  76
BRANCH  67  84
ATOM     84  C   UNL A   1      45.063  26.613  32.313  1.00  0.00     0.057 A 
ATOM     85  C   UNL A   1      45.166  26.947  33.665  1.00  0.00     0.134 A 
ATOM     86  C   UNL A   1      44.823  25.264  32.011  1.00  0.00     0.134 A 
ATOM     87  F   UNL A   1      45.462  28.205  34.029  1.00  0.00    -0.206 F 
ATOM     88  C   UNL A   1      45.019  25.991  34.673  1.00  0.00     0.040 A 
ATOM     89  C   UNL A   1      44.643  24.301  33.009  1.00  0.00     0.040 A 
ATOM     90  F   UNL A   1      44.819  24.829  30.746  1.00  0.00    -0.206 F 
ATOM     91  C   UNL A   1      44.744  24.665  34.348  1.00  0.00     0.006 A 
ENDBRANCH  67  84
ENDBRANCH  41  42
ENDBRANCH  33  36
ENDBRANCH  31  32
ENDBRANCH  30  31
ENDBRANCH   1  30
TORSDOF 14
ENDMDL
MODEL 3
REMARK VINA RESULT:     -12.7      1.727      5.734
REMARK SMILES CC(C)n1c2c(c3ccccc31)[C@@H](c1ccccc1)N(CC(=O)NCCCCNC(=O)c1ccc(-c3c4nc(c(-c5c(F)cccc5F)c5ccc([nH]5)c(-c5c(F)cccc5F)c5nc(c(-c6c(F)cccc6F)c6ccc3[nH]6)C=C5)C=C4)cc1)C2=O
REMARK SMILES IDX 26 1 25 2 24 3 22 4 23 5 21 7 20 8 4 9 5 10 12 11 6 12 86 13
REMARK SMILES IDX 7 14 11 15 13 16 87 17 8 18 10 19 9 20 2 21 1 22 3 23 14 24
REMARK SMILES IDX 15 25 19 26 16 27 18 28 17 29 27 30 28 31 29 32 30 33 31 35
REMARK SMILES IDX 32 36 33 37 85 38 34 39 84 40 35 41 36 42 37 43 78 44 38 45
REMARK SMILES IDX 83 46 77 47 79 48 39 49 82 50 76 51 75 52 40 54 66 55 49 56
REMARK SMILES IDX 65 57 50 58 53 59 64 60 80 61 51 62 52 63 63 65 81 66 54 67
REMARK SMILES IDX 41 68 42 69 47 70 43 71 44 72 46 73 48 74 45 75 67 76 68 77
REMARK SMILES IDX 73 78 69 79 70 80 72 81 74 82 71 83 55 84 56 85 61 86 57 87
REMARK SMILES IDX 58 88 60 89 62 90 59 91
REMARK H PARENT 24 6 29 34 79 53 53 64
REMARK Flexibility Score: inf
ROOT
ATOM      1  C   UNL A   1      31.827  29.100  27.149  1.00  0.00     0.023 C 
ENDROOT
BRANCH   1   2
ATOM      2  C   UNL A   1      31.469  27.615  27.218  1.00  0.00     0.116 C 
BRANCH   2   3
ATOM      3  N   UNL A   1      30.738  27.187  26.044  1.00  0.00    -0.355 N 
ATOM      4  C   UNL A   1      30.490  25.910  25.628  1.00  0.00     0.239 C 
ATOM      5  O   UNL A   1      29.877  25.743  24.572  1.00  0.00    -0.273 OA
ATOM      6  H   UNL A   1      30.374  27.905  25.476  1.00  0.00     0.163 HD
BRANCH   4   7
ATOM      7  C   UNL A   1      31.000  24.720  26.450  1.00  0.00     0.220 C 
BRANCH   7   8
ATOM      8  N   UNL A   1      32.099  24.050  25.774  1.00  0.00    -0.317 N 
ATOM      9  N   UNL A   1      34.167  21.184  25.066  1.00  0.00    -0.334 N 
ATOM     10  C   UNL A   1      33.403  22.309  25.239  1.00  0.00     0.114 A 
ATOM     11  C   UNL A   1      35.517  21.588  25.174  1.00  0.00     0.049 A 
ATOM     12  C   UNL A   1      34.220  23.386  25.480  1.00  0.00     0.018 A 
ATOM     13  C   UNL A   1      32.034  22.721  25.355  1.00  0.00     0.272 C 
ATOM     14  C   UNL A   1      35.546  22.953  25.519  1.00  0.00     0.006 A 
ATOM     15  C   UNL A   1      36.730  20.891  25.012  1.00  0.00     0.027 A 
ATOM     16  C   UNL A   1      33.453  24.639  25.696  1.00  0.00     0.150 C 
ATOM     17  O   UNL A   1      31.007  22.065  25.248  1.00  0.00    -0.267 OA
ATOM     18  C   UNL A   1      36.770  23.598  25.779  1.00  0.00     0.011 A 
ATOM     19  C   UNL A   1      37.937  21.548  25.284  1.00  0.00     0.002 A 
ATOM     20  C   UNL A   1      37.959  22.880  25.674  1.00  0.00     0.001 A 
BRANCH   9  21
ATOM     21  C   UNL A   1      33.721  19.810  24.776  1.00  0.00     0.082 C 
ATOM     22  C   UNL A   1      32.987  19.123  25.942  1.00  0.00     0.031 C 
ATOM     23  C   UNL A   1      32.814  19.641  23.552  1.00  0.00     0.031 C 
ENDBRANCH   9  21
BRANCH  16  24
ATOM     24  C   UNL A   1      33.582  25.554  24.485  1.00  0.00    -0.021 A 
ATOM     25  C   UNL A   1      33.914  26.905  24.708  1.00  0.00     0.006 A 
ATOM     26  C   UNL A   1      33.339  25.166  23.152  1.00  0.00     0.006 A 
ATOM     27  C   UNL A   1      33.947  27.831  23.662  1.00  0.00     0.000 A 
ATOM     28  C   UNL A   1      33.399  26.087  22.102  1.00  0.00     0.000 A 
ATOM     29  C   UNL A   1      33.687  27.422  22.359  1.00  0.00     0.000 A 
ENDBRANCH  16  24
ENDBRANCH   7   8
ENDBRANCH   4   7
ENDBRANCH   2   3
ENDBRANCH   1   2
BRANCH   1  30
ATOM     30  C   UNL A   1      33.318  29.404  27.346  1.00  0.00     0.023 C 
BRANCH  30  31
ATOM     31  C   UNL A   1      33.661  30.889  27.242  1.00  0.00     0.116 C 
BRANCH  31  32
ATOM     32  N   UNL A   1      33.939  31.497  28.528  1.00  0.00    -0.352 N 
ATOM     33  C   UNL A   1      35.048  31.630  29.309  1.00  0.00     0.251 C 
ATOM     34  H   UNL A   1      33.142  31.910  28.930  1.00  0.00     0.163 HD
ATOM     35  O   UNL A   1      34.921  32.319  30.324  1.00  0.00    -0.269 OA
BRANCH  33  36
ATOM     36  C   UNL A   1      36.336  30.934  29.075  1.00  0.00     0.039 A 
ATOM     37  C   UNL A   1      36.484  29.572  28.810  1.00  0.00     0.014 A 
ATOM     38  C   UNL A   1      37.487  31.722  29.258  1.00  0.00     0.014 A 
ATOM     39  C   UNL A   1      37.726  28.974  28.909  1.00  0.00     0.010 A 
ATOM     40  C   UNL A   1      38.737  31.136  29.317  1.00  0.00     0.010 A 
ATOM     41  C   UNL A   1      38.830  29.752  29.238  1.00  0.00    -0.014 A 
BRANCH  41  42
ATOM     42  C   UNL A   1      40.099  29.077  29.447  1.00  0.00     0.031 A 
ATOM     43  C   UNL A   1      40.547  29.038  30.869  1.00  0.00     0.074 A 
ATOM     44  C   UNL A   1      40.716  28.458  28.419  1.00  0.00     0.049 A 
ATOM     45  N   UNL A   1      41.659  29.459  31.378  1.00  0.00    -0.248 NA
ATOM     46  C   UNL A   1      39.561  28.604  31.875  1.00  0.00     0.031 C 
ATOM     47  C   UNL A   1      40.229  28.278  27.045  1.00  0.00     0.029 A 
ATOM     48  N   UNL A   1      41.874  27.748  28.420  1.00  0.00    -0.354 N 
ATOM     49  C   UNL A   1      41.594  29.156  32.739  1.00  0.00     0.074 A 
ATOM     50  C   UNL A   1      40.233  28.784  33.011  1.00  0.00     0.031 C 
ATOM     51  C   UNL A   1      40.946  27.308  26.437  1.00  0.00     0.029 A 
ATOM     52  C   UNL A   1      42.023  26.908  27.320  1.00  0.00     0.049 A 
ATOM     53  H   UNL A   1      42.547  27.820  29.134  1.00  0.00     0.167 HD
ATOM     54  C   UNL A   1      42.722  28.995  33.485  1.00  0.00     0.037 A 
ATOM     55  C   UNL A   1      42.917  25.894  27.216  1.00  0.00     0.037 A 
ATOM     56  C   UNL A   1      43.846  29.660  32.881  1.00  0.00     0.049 A 
ATOM     57  C   UNL A   1      43.977  26.139  28.227  1.00  0.00     0.074 A 
ATOM     58  C   UNL A   1      44.163  30.972  32.589  1.00  0.00     0.029 A 
ATOM     59  N   UNL A   1      44.728  28.898  32.156  1.00  0.00    -0.354 N 
ATOM     60  N   UNL A   1      44.811  27.141  28.161  1.00  0.00    -0.248 NA
ATOM     61  C   UNL A   1      43.775  25.579  29.557  1.00  0.00     0.031 C 
ATOM     62  C   UNL A   1      44.860  30.913  31.347  1.00  0.00     0.029 A 
ATOM     63  C   UNL A   1      44.980  29.571  30.990  1.00  0.00     0.049 A 
ATOM     64  H   UNL A   1      45.108  28.030  32.424  1.00  0.00     0.167 HD
ATOM     65  C   UNL A   1      44.912  27.607  29.464  1.00  0.00     0.074 A 
ATOM     66  C   UNL A   1      44.292  26.571  30.289  1.00  0.00     0.031 C 
ATOM     67  C   UNL A   1      45.221  28.910  29.730  1.00  0.00     0.037 A 
BRANCH  54  68
ATOM     68  C   UNL A   1      42.897  27.888  34.503  1.00  0.00     0.057 A 
ATOM     69  C   UNL A   1      42.560  28.004  35.868  1.00  0.00     0.134 A 
ATOM     70  C   UNL A   1      43.073  26.569  34.044  1.00  0.00     0.134 A 
ATOM     71  F   UNL A   1      42.339  29.180  36.464  1.00  0.00    -0.206 F 
ATOM     72  C   UNL A   1      42.331  26.897  36.688  1.00  0.00     0.040 A 
ATOM     73  C   UNL A   1      42.802  25.454  34.846  1.00  0.00     0.040 A 
ATOM     74  F   UNL A   1      43.419  26.322  32.772  1.00  0.00    -0.206 F 
ATOM     75  C   UNL A   1      42.407  25.617  36.166  1.00  0.00     0.006 A 
ENDBRANCH  54  68
BRANCH  55  76
ATOM     76  C   UNL A   1      42.691  24.571  26.589  1.00  0.00     0.057 A 
ATOM     77  C   UNL A   1      41.738  23.672  27.104  1.00  0.00     0.134 A 
ATOM     78  C   UNL A   1      43.569  24.052  25.630  1.00  0.00     0.134 A 
ATOM     79  F   UNL A   1      40.907  24.034  28.093  1.00  0.00    -0.206 F 
ATOM     80  C   UNL A   1      41.656  22.341  26.686  1.00  0.00     0.040 A 
ATOM     81  C   UNL A   1      43.502  22.717  25.206  1.00  0.00     0.040 A 
ATOM     82  F   UNL A   1      44.547  24.815  25.122  1.00  0.00    -0.206 F 
ATOM     83  C   UNL A   1      42.547  21.855  25.739  1.00  0.00     0.006 A 
ENDBRANCH  55  76
BRANCH  67  84
ATOM     84  C   UNL A   1      45.614  29.783  28.569  1.00  0.00     0.057 A 
ATOM     85  C   UNL A   1      46.970  29.998  28.309  1.00  0.00     0.134 A 
ATOM     86  C   UNL A   1      44.698  30.525  27.808  1.00  0.00     0.134 A 
ATOM     87  F   UNL A   1      47.905  29.375  29.043  1.00  0.00    -0.206 F 
ATOM     88  C   UNL A   1      47.397  30.893  27.326  1.00  0.00     0.040 A 
ATOM     89  C   UNL A   1      45.110  31.403  26.800  1.00  0.00     0.040 A 
ATOM     90  F   UNL A   1      43.386  30.471  28.061  1.00  0.00    -0.206 F 
ATOM     91  C   UNL A   1      46.467  31.590  26.558  1.00  0.00     0.006 A 
ENDBRANCH  67  84
ENDBRANCH  41  42
ENDBRANCH  33  36
ENDBRANCH  31  32
ENDBRANCH  30  31
ENDBRANCH   1  30
TORSDOF 14
ENDMDL
