MODEL 1
REMARK VINA RESULT:     -13.9      0.000      0.000
REMARK SMILES COc1ccc(-c2[nH]nc3nc(-c4ccc(C(F)(F)F)cc4)cc(C(=O)NCCCCNC(=O)c4ccc(-c5c6nc(c(-c7c(F)cccc7F)c7ccc([nH]7)c(-c7c(F)cccc7F)c7nc(c(-c8c(F)cccc8F)c8ccc5[nH]8)C=C7)C=C6)cc4)c23)cc1
REMARK SMILES IDX 29 1 28 2 27 3 25 4 26 5 24 7 7 8 8 9 89 10 9 11 10 13 11 14
REMARK SMILES IDX 23 15 12 16 6 17 3 18 4 19 91 20 5 21 90 22 2 23 1 24 13 25
REMARK SMILES IDX 14 26 22 27 15 28 21 29 16 30 17 31 18 32 19 33 20 34 30 35
REMARK SMILES IDX 31 36 32 37 33 38 34 40 35 41 36 42 88 43 37 44 87 45 38 46
REMARK SMILES IDX 39 47 40 48 81 49 41 50 86 51 80 52 82 53 42 54 85 55 79 56
REMARK SMILES IDX 78 57 43 59 69 60 52 61 68 62 53 63 56 64 67 65 83 66 54 67
REMARK SMILES IDX 55 68 66 70 84 71 57 72 44 73 45 74 50 75 46 76 47 77 49 78
REMARK SMILES IDX 51 79 48 80 70 81 71 82 76 83 72 84 73 85 75 86 77 87 74 88
REMARK SMILES IDX 58 89 59 90 64 91 60 92 61 93 63 94 65 95 62 96
REMARK H PARENT 27 6 8 12 32 39 82 58 56 69
REMARK Flexibility Score: inf
ROOT
ATOM      1  C   UNL A   1      33.266  29.243  26.977  1.00  0.00     0.023 C 
ENDROOT
BRANCH   1   2
ATOM      2  C   UNL A   1      32.491  28.538  25.865  1.00  0.00     0.116 C 
BRANCH   2   3
ATOM      3  N   UNL A   1      31.894  27.285  26.276  1.00  0.00    -0.352 N 
ATOM      4  C   UNL A   1      32.177  25.957  26.087  1.00  0.00     0.252 C 
ATOM      5  O   UNL A   1      31.616  25.216  26.889  1.00  0.00    -0.269 OA
ATOM      6  H   UNL A   1      31.088  27.420  26.826  1.00  0.00     0.163 HD
BRANCH   4   7
ATOM      7  C   UNL A   1      33.114  25.410  25.077  1.00  0.00     0.055 A 
ATOM      8  C   UNL A   1      31.858  25.706  22.878  1.00  0.00     0.075 A 
ATOM      9  N   UNL A   1      32.172  25.236  21.621  1.00  0.00    -0.275 N 
ATOM     10  C   UNL A   1      32.886  25.248  23.692  1.00  0.00     0.059 A 
ATOM     11  N   UNL A   1      33.303  24.529  21.540  1.00  0.00    -0.154 NA
ATOM     12  H   UNL A   1      31.601  25.409  20.837  1.00  0.00     0.190 HD
ATOM     13  C   UNL A   1      33.763  24.530  22.789  1.00  0.00     0.182 A 
ATOM     14  N   UNL A   1      34.908  23.922  23.192  1.00  0.00    -0.226 NA
ATOM     15  C   UNL A   1      34.366  24.872  25.398  1.00  0.00     0.043 A 
ATOM     16  C   UNL A   1      35.162  24.111  24.507  1.00  0.00     0.074 A 
BRANCH   8  17
ATOM     17  C   UNL A   1      30.661  26.519  23.058  1.00  0.00     0.001 A 
ATOM     18  C   UNL A   1      28.318  28.063  23.265  1.00  0.00     0.118 A 
ATOM     19  C   UNL A   1      29.459  28.590  22.661  1.00  0.00     0.047 A 
ATOM     20  C   UNL A   1      28.352  26.767  23.783  1.00  0.00     0.047 A 
ATOM     21  C   UNL A   1      30.627  27.830  22.564  1.00  0.00     0.014 A 
ATOM     22  C   UNL A   1      29.525  26.006  23.696  1.00  0.00     0.014 A 
BRANCH  18  23
ATOM     23  O   UNL A   1      27.219  28.876  23.236  1.00  0.00    -0.497 OA
ATOM     24  C   UNL A   1      27.455  30.214  22.819  1.00  0.00     0.278 C 
ENDBRANCH  18  23
ENDBRANCH   8  17
BRANCH  16  25
ATOM     25  C   UNL A   1      36.316  23.398  25.080  1.00  0.00     0.000 A 
ATOM     26  C   UNL A   1      36.643  22.092  24.700  1.00  0.00     0.011 A 
ATOM     27  C   UNL A   1      37.188  24.075  25.956  1.00  0.00     0.011 A 
ATOM     28  C   UNL A   1      37.839  21.504  25.134  1.00  0.00     0.014 A 
ATOM     29  C   UNL A   1      38.379  23.492  26.391  1.00  0.00     0.014 A 
ATOM     30  C   UNL A   1      38.725  22.203  25.970  1.00  0.00     0.056 A 
BRANCH  30  31
ATOM     31  C   UNL A   1      40.032  21.576  26.395  1.00  0.00     0.416 C 
ATOM     32  F   UNL A   1      41.071  21.936  25.594  1.00  0.00    -0.166 F 
ATOM     33  F   UNL A   1      40.389  21.933  27.660  1.00  0.00    -0.166 F 
ATOM     34  F   UNL A   1      40.008  20.213  26.389  1.00  0.00    -0.166 F 
ENDBRANCH  30  31
ENDBRANCH  16  25
ENDBRANCH   4   7
ENDBRANCH   2   3
ENDBRANCH   1   2
BRANCH   1  35
ATOM     35  C   UNL A   1      34.763  28.894  27.056  1.00  0.00     0.023 C 
BRANCH  35  36
ATOM     36  C   UNL A   1      35.677  29.994  27.599  1.00  0.00     0.116 C 
BRANCH  36  37
ATOM     37  N   UNL A   1      35.660  30.107  29.061  1.00  0.00    -0.352 N 
ATOM     38  C   UNL A   1      36.509  29.517  29.989  1.00  0.00     0.251 C 
ATOM     39  H   UNL A   1      34.951  30.678  29.436  1.00  0.00     0.163 HD
ATOM     40  O   UNL A   1      36.173  29.371  31.152  1.00  0.00    -0.269 OA
BRANCH  38  41
ATOM     41  C   UNL A   1      37.854  29.109  29.548  1.00  0.00     0.039 A 
ATOM     42  C   UNL A   1      38.511  29.671  28.451  1.00  0.00     0.014 A 
ATOM     43  C   UNL A   1      38.466  28.121  30.302  1.00  0.00     0.014 A 
ATOM     44  C   UNL A   1      39.821  29.268  28.181  1.00  0.00     0.010 A 
ATOM     45  C   UNL A   1      39.804  27.901  30.187  1.00  0.00     0.010 A 
ATOM     46  C   UNL A   1      40.458  28.385  29.067  1.00  0.00    -0.014 A 
BRANCH  46  47
ATOM     47  C   UNL A   1      41.845  27.977  28.917  1.00  0.00     0.031 A 
ATOM     48  C   UNL A   1      42.034  26.733  28.127  1.00  0.00     0.074 A 
ATOM     49  C   UNL A   1      42.860  28.824  29.201  1.00  0.00     0.049 A 
ATOM     50  N   UNL A   1      42.456  25.586  28.544  1.00  0.00    -0.248 NA
ATOM     51  C   UNL A   1      41.543  26.713  26.738  1.00  0.00     0.031 C 
ATOM     52  C   UNL A   1      42.791  30.228  29.636  1.00  0.00     0.029 A 
ATOM     53  N   UNL A   1      44.196  28.638  29.039  1.00  0.00    -0.354 N 
ATOM     54  C   UNL A   1      42.500  24.764  27.419  1.00  0.00     0.074 A 
ATOM     55  C   UNL A   1      41.725  25.432  26.411  1.00  0.00     0.031 C 
ATOM     56  C   UNL A   1      43.995  30.819  29.469  1.00  0.00     0.029 A 
ATOM     57  C   UNL A   1      44.957  29.803  29.089  1.00  0.00     0.049 A 
ATOM     58  H   UNL A   1      44.594  27.749  28.896  1.00  0.00     0.167 HD
ATOM     59  C   UNL A   1      43.394  23.737  27.338  1.00  0.00     0.037 A 
ATOM     60  C   UNL A   1      46.277  29.905  28.794  1.00  0.00     0.037 A 
ATOM     61  C   UNL A   1      43.962  23.458  28.637  1.00  0.00     0.049 A 
ATOM     62  C   UNL A   1      46.838  28.528  28.846  1.00  0.00     0.074 A 
ATOM     63  C   UNL A   1      43.449  23.086  29.865  1.00  0.00     0.029 A 
ATOM     64  N   UNL A   1      45.222  23.944  28.893  1.00  0.00    -0.354 N 
ATOM     65  N   UNL A   1      46.935  27.829  29.944  1.00  0.00    -0.248 NA
ATOM     66  C   UNL A   1      46.817  27.756  27.611  1.00  0.00     0.031 C 
ATOM     67  C   UNL A   1      44.209  23.828  30.817  1.00  0.00     0.029 A 
ATOM     68  C   UNL A   1      45.191  24.539  30.125  1.00  0.00     0.049 A 
ATOM     69  H   UNL A   1      46.005  23.876  28.298  1.00  0.00     0.167 HD
ATOM     70  C   UNL A   1      46.561  26.542  29.579  1.00  0.00     0.074 A 
ATOM     71  C   UNL A   1      46.561  26.545  28.117  1.00  0.00     0.031 C 
ATOM     72  C   UNL A   1      45.992  25.688  30.481  1.00  0.00     0.037 A 
BRANCH  59  73
ATOM     73  C   UNL A   1      44.066  23.259  26.066  1.00  0.00     0.057 A 
ATOM     74  C   UNL A   1      44.147  21.872  25.831  1.00  0.00     0.134 A 
ATOM     75  C   UNL A   1      44.886  24.045  25.233  1.00  0.00     0.134 A 
ATOM     76  F   UNL A   1      43.400  21.006  26.535  1.00  0.00    -0.206 F 
ATOM     77  C   UNL A   1      45.062  21.309  24.934  1.00  0.00     0.040 A 
ATOM     78  C   UNL A   1      45.768  23.495  24.298  1.00  0.00     0.040 A 
ATOM     79  F   UNL A   1      44.960  25.376  25.328  1.00  0.00    -0.206 F 
ATOM     80  C   UNL A   1      45.892  22.122  24.176  1.00  0.00     0.006 A 
ENDBRANCH  59  73
BRANCH  60  81
ATOM     81  C   UNL A   1      47.006  31.031  28.166  1.00  0.00     0.057 A 
ATOM     82  C   UNL A   1      46.581  31.583  26.948  1.00  0.00     0.134 A 
ATOM     83  C   UNL A   1      47.961  31.779  28.879  1.00  0.00     0.134 A 
ATOM     84  F   UNL A   1      45.644  30.965  26.215  1.00  0.00    -0.206 F 
ATOM     85  C   UNL A   1      47.055  32.817  26.480  1.00  0.00     0.040 A 
ATOM     86  C   UNL A   1      48.446  33.010  28.421  1.00  0.00     0.040 A 
ATOM     87  F   UNL A   1      48.388  31.382  30.087  1.00  0.00    -0.206 F 
ATOM     88  C   UNL A   1      47.982  33.540  27.224  1.00  0.00     0.006 A 
ENDBRANCH  60  81
BRANCH  72  89
ATOM     89  C   UNL A   1      45.984  26.080  31.933  1.00  0.00     0.057 A 
ATOM     90  C   UNL A   1      44.881  26.644  32.593  1.00  0.00     0.134 A 
ATOM     91  C   UNL A   1      47.064  25.691  32.733  1.00  0.00     0.134 A 
ATOM     92  F   UNL A   1      43.763  26.962  31.929  1.00  0.00    -0.206 F 
ATOM     93  C   UNL A   1      44.865  26.834  33.979  1.00  0.00     0.040 A 
ATOM     94  C   UNL A   1      47.048  25.845  34.120  1.00  0.00     0.040 A 
ATOM     95  F   UNL A   1      48.131  25.094  32.179  1.00  0.00    -0.206 F 
ATOM     96  C   UNL A   1      45.949  26.424  34.748  1.00  0.00     0.006 A 
ENDBRANCH  72  89
ENDBRANCH  46  47
ENDBRANCH  38  41
ENDBRANCH  36  37
ENDBRANCH  35  36
ENDBRANCH   1  35
TORSDOF 15
ENDMDL
MODEL 2
REMARK VINA RESULT:     -12.8      1.949      5.721
REMARK SMILES COc1ccc(-c2[nH]nc3nc(-c4ccc(C(F)(F)F)cc4)cc(C(=O)NCCCCNC(=O)c4ccc(-c5c6nc(c(-c7c(F)cccc7F)c7ccc([nH]7)c(-c7c(F)cccc7F)c7nc(c(-c8c(F)cccc8F)c8ccc5[nH]8)C=C7)C=C6)cc4)c23)cc1
REMARK SMILES IDX 29 1 28 2 27 3 25 4 26 5 24 7 7 8 8 9 89 10 9 11 10 13 11 14
REMARK SMILES IDX 23 15 12 16 6 17 3 18 4 19 91 20 5 21 90 22 2 23 1 24 13 25
REMARK SMILES IDX 14 26 22 27 15 28 21 29 16 30 17 31 18 32 19 33 20 34 30 35
REMARK SMILES IDX 31 36 32 37 33 38 34 40 35 41 36 42 88 43 37 44 87 45 38 46
REMARK SMILES IDX 39 47 40 48 81 49 41 50 86 51 80 52 82 53 42 54 85 55 79 56
REMARK SMILES IDX 78 57 43 59 69 60 52 61 68 62 53 63 56 64 67 65 83 66 54 67
REMARK SMILES IDX 55 68 66 70 84 71 57 72 44 73 45 74 50 75 46 76 47 77 49 78
REMARK SMILES IDX 51 79 48 80 70 81 71 82 76 83 72 84 73 85 75 86 77 87 74 88
REMARK SMILES IDX 58 89 59 90 64 91 60 92 61 93 63 94 65 95 62 96
REMARK H PARENT 27 6 8 12 32 39 82 58 56 69
REMARK Flexibility Score: inf
ROOT
ATOM      1  C   UNL A   1      34.344  29.080  27.139  1.00  0.00     0.023 C 
ENDROOT
BRANCH   1   2
ATOM      2  C   UNL A   1      33.813  28.346  25.909  1.00  0.00     0.116 C 
BRANCH   2   3
ATOM      3  N   UNL A   1      32.913  27.257  26.225  1.00  0.00    -0.352 N 
ATOM      4  C   UNL A   1      32.862  25.916  25.946  1.00  0.00     0.252 C 
ATOM      5  O   UNL A   1      32.113  25.288  26.687  1.00  0.00    -0.269 OA
ATOM      6  H   UNL A   1      32.150  27.552  26.774  1.00  0.00     0.163 HD
BRANCH   4   7
ATOM      7  C   UNL A   1      33.663  25.220  24.910  1.00  0.00     0.055 A 
ATOM      8  C   UNL A   1      32.129  25.216  22.873  1.00  0.00     0.075 A 
ATOM      9  N   UNL A   1      32.278  24.570  21.666  1.00  0.00    -0.275 N 
ATOM     10  C   UNL A   1      33.257  24.866  23.604  1.00  0.00     0.059 A 
ATOM     11  N   UNL A   1      33.393  23.844  21.540  1.00  0.00    -0.154 NA
ATOM     12  H   UNL A   1      31.609  24.637  20.947  1.00  0.00     0.190 HD
ATOM     13  C   UNL A   1      34.013  24.016  22.705  1.00  0.00     0.182 A 
ATOM     14  N   UNL A   1      35.204  23.457  23.038  1.00  0.00    -0.226 NA
ATOM     15  C   UNL A   1      34.949  24.717  25.138  1.00  0.00     0.043 A 
ATOM     16  C   UNL A   1      35.626  23.827  24.268  1.00  0.00     0.074 A 
BRANCH   8  17
ATOM     17  C   UNL A   1      30.960  26.062  23.091  1.00  0.00     0.001 A 
ATOM     18  C   UNL A   1      28.663  27.662  23.373  1.00  0.00     0.118 A 
ATOM     19  C   UNL A   1      29.773  28.139  22.676  1.00  0.00     0.047 A 
ATOM     20  C   UNL A   1      28.706  26.390  23.946  1.00  0.00     0.047 A 
ATOM     21  C   UNL A   1      30.919  27.350  22.542  1.00  0.00     0.014 A 
ATOM     22  C   UNL A   1      29.858  25.602  23.820  1.00  0.00     0.014 A 
BRANCH  18  23
ATOM     23  O   UNL A   1      27.580  28.496  23.376  1.00  0.00    -0.497 OA
ATOM     24  C   UNL A   1      27.745  29.721  22.672  1.00  0.00     0.278 C 
ENDBRANCH  18  23
ENDBRANCH   8  17
BRANCH  16  25
ATOM     25  C   UNL A   1      36.850  23.188  24.781  1.00  0.00     0.000 A 
ATOM     26  C   UNL A   1      37.679  23.818  25.715  1.00  0.00     0.011 A 
ATOM     27  C   UNL A   1      37.150  21.861  24.412  1.00  0.00     0.011 A 
ATOM     28  C   UNL A   1      38.740  23.121  26.308  1.00  0.00     0.014 A 
ATOM     29  C   UNL A   1      38.207  21.164  25.000  1.00  0.00     0.014 A 
ATOM     30  C   UNL A   1      39.004  21.783  25.969  1.00  0.00     0.056 A 
BRANCH  30  31
ATOM     31  C   UNL A   1      40.122  21.028  26.648  1.00  0.00     0.416 C 
ATOM     32  F   UNL A   1      39.815  19.721  26.866  1.00  0.00    -0.166 F 
ATOM     33  F   UNL A   1      41.268  21.027  25.909  1.00  0.00    -0.166 F 
ATOM     34  F   UNL A   1      40.466  21.542  27.862  1.00  0.00    -0.166 F 
ENDBRANCH  30  31
ENDBRANCH  16  25
ENDBRANCH   4   7
ENDBRANCH   2   3
ENDBRANCH   1   2
BRANCH   1  35
ATOM     35  C   UNL A   1      33.745  30.477  27.378  1.00  0.00     0.023 C 
BRANCH  35  36
ATOM     36  C   UNL A   1      34.751  31.595  27.657  1.00  0.00     0.116 C 
BRANCH  36  37
ATOM     37  N   UNL A   1      34.485  32.331  28.898  1.00  0.00    -0.352 N 
ATOM     38  C   UNL A   1      34.980  32.092  30.174  1.00  0.00     0.251 C 
ATOM     39  H   UNL A   1      33.874  33.099  28.815  1.00  0.00     0.163 HD
ATOM     40  O   UNL A   1      34.406  32.510  31.165  1.00  0.00    -0.269 OA
BRANCH  38  41
ATOM     41  C   UNL A   1      36.249  31.355  30.307  1.00  0.00     0.039 A 
ATOM     42  C   UNL A   1      36.338  29.962  30.299  1.00  0.00     0.014 A 
ATOM     43  C   UNL A   1      37.390  32.131  30.428  1.00  0.00     0.014 A 
ATOM     44  C   UNL A   1      37.605  29.375  30.341  1.00  0.00     0.010 A 
ATOM     45  C   UNL A   1      38.618  31.578  30.234  1.00  0.00     0.010 A 
ATOM     46  C   UNL A   1      38.739  30.200  30.300  1.00  0.00    -0.014 A 
BRANCH  46  47
ATOM     47  C   UNL A   1      40.096  29.680  30.253  1.00  0.00     0.031 A 
ATOM     48  C   UNL A   1      40.662  29.331  31.582  1.00  0.00     0.074 A 
ATOM     49  C   UNL A   1      40.648  29.266  29.090  1.00  0.00     0.049 A 
ATOM     50  N   UNL A   1      41.636  29.907  32.204  1.00  0.00    -0.248 NA
ATOM     51  C   UNL A   1      39.960  28.320  32.391  1.00  0.00     0.031 C 
ATOM     52  C   UNL A   1      40.039  29.210  27.752  1.00  0.00     0.029 A 
ATOM     53  N   UNL A   1      41.857  28.682  28.882  1.00  0.00    -0.354 N 
ATOM     54  C   UNL A   1      41.817  29.185  33.382  1.00  0.00     0.074 A 
ATOM     55  C   UNL A   1      40.633  28.387  33.541  1.00  0.00     0.031 C 
ATOM     56  C   UNL A   1      40.779  28.417  26.946  1.00  0.00     0.029 A 
ATOM     57  C   UNL A   1      41.996  28.057  27.645  1.00  0.00     0.049 A 
ATOM     58  H   UNL A   1      42.577  28.698  29.554  1.00  0.00     0.167 HD
ATOM     59  C   UNL A   1      43.042  29.113  33.978  1.00  0.00     0.037 A 
ATOM     60  C   UNL A   1      43.033  27.270  27.263  1.00  0.00     0.037 A 
ATOM     61  C   UNL A   1      43.928  30.115  33.433  1.00  0.00     0.049 A 
ATOM     62  C   UNL A   1      44.156  27.553  28.197  1.00  0.00     0.074 A 
ATOM     63  C   UNL A   1      43.906  31.494  33.349  1.00  0.00     0.029 A 
ATOM     64  N   UNL A   1      44.852  29.702  32.501  1.00  0.00    -0.354 N 
ATOM     65  N   UNL A   1      44.785  28.696  28.245  1.00  0.00    -0.248 NA
ATOM     66  C   UNL A   1      44.235  26.743  29.406  1.00  0.00     0.031 C 
ATOM     67  C   UNL A   1      44.422  31.789  32.053  1.00  0.00     0.029 A 
ATOM     68  C   UNL A   1      44.807  30.587  31.458  1.00  0.00     0.049 A 
ATOM     69  H   UNL A   1      45.438  28.914  32.572  1.00  0.00     0.167 HD
ATOM     70  C   UNL A   1      44.971  28.942  29.599  1.00  0.00     0.074 A 
ATOM     71  C   UNL A   1      44.668  27.674  30.262  1.00  0.00     0.031 C 
ATOM     72  C   UNL A   1      45.052  30.217  30.083  1.00  0.00     0.037 A 
BRANCH  59  73
ATOM     73  C   UNL A   1      43.579  27.914  34.733  1.00  0.00     0.057 A 
ATOM     74  C   UNL A   1      43.581  26.661  34.086  1.00  0.00     0.134 A 
ATOM     75  C   UNL A   1      43.803  27.858  36.123  1.00  0.00     0.134 A 
ATOM     76  F   UNL A   1      43.405  26.568  32.758  1.00  0.00    -0.206 F 
ATOM     77  C   UNL A   1      43.667  25.450  34.783  1.00  0.00     0.040 A 
ATOM     78  C   UNL A   1      43.941  26.655  36.822  1.00  0.00     0.040 A 
ATOM     79  F   UNL A   1      43.811  28.943  36.904  1.00  0.00    -0.206 F 
ATOM     80  C   UNL A   1      43.830  25.445  36.161  1.00  0.00     0.006 A 
ENDBRANCH  59  73
BRANCH  60  81
ATOM     81  C   UNL A   1      43.023  26.082  26.378  1.00  0.00     0.057 A 
ATOM     82  C   UNL A   1      44.018  25.891  25.408  1.00  0.00     0.134 A 
ATOM     83  C   UNL A   1      42.207  24.969  26.650  1.00  0.00     0.134 A 
ATOM     84  F   UNL A   1      44.870  26.881  25.106  1.00  0.00    -0.206 F 
ATOM     85  C   UNL A   1      44.209  24.659  24.765  1.00  0.00     0.040 A 
ATOM     86  C   UNL A   1      42.385  23.734  26.014  1.00  0.00     0.040 A 
ATOM     87  F   UNL A   1      41.269  25.017  27.607  1.00  0.00    -0.206 F 
ATOM     88  C   UNL A   1      43.398  23.572  25.078  1.00  0.00     0.006 A 
ENDBRANCH  60  81
BRANCH  72  89
ATOM     89  C   UNL A   1      45.166  31.350  29.100  1.00  0.00     0.057 A 
ATOM     90  C   UNL A   1      44.072  32.075  28.601  1.00  0.00     0.134 A 
ATOM     91  C   UNL A   1      46.439  31.848  28.803  1.00  0.00     0.134 A 
ATOM     92  F   UNL A   1      42.815  31.735  28.907  1.00  0.00    -0.206 F 
ATOM     93  C   UNL A   1      44.241  33.226  27.822  1.00  0.00     0.040 A 
ATOM     94  C   UNL A   1      46.621  33.012  28.055  1.00  0.00     0.040 A 
ATOM     95  F   UNL A   1      47.530  31.239  29.293  1.00  0.00    -0.206 F 
ATOM     96  C   UNL A   1      45.520  33.703  27.557  1.00  0.00     0.006 A 
ENDBRANCH  72  89
ENDBRANCH  46  47
ENDBRANCH  38  41
ENDBRANCH  36  37
ENDBRANCH  35  36
ENDBRANCH   1  35
TORSDOF 15
ENDMDL
MODEL 3
REMARK VINA RESULT:     -12.8      1.830      2.467
REMARK SMILES COc1ccc(-c2[nH]nc3nc(-c4ccc(C(F)(F)F)cc4)cc(C(=O)NCCCCNC(=O)c4ccc(-c5c6nc(c(-c7c(F)cccc7F)c7ccc([nH]7)c(-c7c(F)cccc7F)c7nc(c(-c8c(F)cccc8F)c8ccc5[nH]8)C=C7)C=C6)cc4)c23)cc1
REMARK SMILES IDX 29 1 28 2 27 3 25 4 26 5 24 7 7 8 8 9 89 10 9 11 10 13 11 14
REMARK SMILES IDX 23 15 12 16 6 17 3 18 4 19 91 20 5 21 90 22 2 23 1 24 13 25
REMARK SMILES IDX 14 26 22 27 15 28 21 29 16 30 17 31 18 32 19 33 20 34 30 35
REMARK SMILES IDX 31 36 32 37 33 38 34 40 35 41 36 42 88 43 37 44 87 45 38 46
REMARK SMILES IDX 39 47 40 48 81 49 41 50 86 51 80 52 82 53 42 54 85 55 79 56
REMARK SMILES IDX 78 57 43 59 69 60 52 61 68 62 53 63 56 64 67 65 83 66 54 67
REMARK SMILES IDX 55 68 66 70 84 71 57 72 44 73 45 74 50 75 46 76 47 77 49 78
REMARK SMILES IDX 51 79 48 80 70 81 71 82 76 83 72 84 73 85 75 86 77 87 74 88
REMARK SMILES IDX 58 89 59 90 64 91 60 92 61 93 63 94 65 95 62 96
REMARK H PARENT 27 6 8 12 32 39 82 58 56 69
REMARK Flexibility Score: inf
ROOT
ATOM      1  C   UNL A   1      32.691  28.524  27.321  1.00  0.00     0.023 C 
ENDROOT
BRANCH   1   2
ATOM      2  C   UNL A   1      32.634  27.041  26.956  1.00  0.00     0.116 C 
BRANCH   2   3
ATOM      3  N   UNL A   1      31.339  26.610  26.476  1.00  0.00    -0.352 N 
ATOM      4  C   UNL A   1      30.888  25.680  25.575  1.00  0.00     0.252 C 
ATOM      5  O   UNL A   1      29.702  25.396  25.713  1.00  0.00    -0.269 OA
ATOM      6  H   UNL A   1      30.601  27.105  26.901  1.00  0.00     0.163 HD
BRANCH   4   7
ATOM      7  C   UNL A   1      31.718  24.995  24.555  1.00  0.00     0.055 A 
ATOM      8  C   UNL A   1      31.683  26.606  22.579  1.00  0.00     0.075 A 
ATOM      9  N   UNL A   1      32.152  26.428  21.296  1.00  0.00    -0.275 N 
ATOM     10  C   UNL A   1      31.963  25.410  23.227  1.00  0.00     0.059 A 
ATOM     11  N   UNL A   1      32.715  25.241  21.052  1.00  0.00    -0.154 NA
ATOM     12  H   UNL A   1      32.077  27.127  20.607  1.00  0.00     0.190 HD
ATOM     13  C   UNL A   1      32.620  24.604  22.217  1.00  0.00     0.182 A 
ATOM     14  N   UNL A   1      33.066  23.343  22.448  1.00  0.00    -0.226 NA
ATOM     15  C   UNL A   1      32.312  23.745  24.758  1.00  0.00     0.043 A 
ATOM     16  C   UNL A   1      32.880  22.952  23.729  1.00  0.00     0.074 A 
BRANCH   8  17
ATOM     17  C   UNL A   1      31.086  27.885  22.950  1.00  0.00     0.001 A 
ATOM     18  C   UNL A   1      29.852  30.279  23.763  1.00  0.00     0.118 A 
ATOM     19  C   UNL A   1      29.195  29.405  22.897  1.00  0.00     0.047 A 
ATOM     20  C   UNL A   1      31.137  29.965  24.210  1.00  0.00     0.047 A 
ATOM     21  C   UNL A   1      29.808  28.220  22.484  1.00  0.00     0.014 A 
ATOM     22  C   UNL A   1      31.758  28.782  23.789  1.00  0.00     0.014 A 
BRANCH  18  23
ATOM     23  O   UNL A   1      29.123  31.369  24.149  1.00  0.00    -0.497 OA
ATOM     24  C   UNL A   1      28.090  31.766  23.256  1.00  0.00     0.278 C 
ENDBRANCH  18  23
ENDBRANCH   8  17
BRANCH  16  25
ATOM     25  C   UNL A   1      33.219  21.559  24.065  1.00  0.00     0.000 A 
ATOM     26  C   UNL A   1      32.383  20.490  23.725  1.00  0.00     0.011 A 
ATOM     27  C   UNL A   1      34.469  21.267  24.649  1.00  0.00     0.011 A 
ATOM     28  C   UNL A   1      32.810  19.168  23.907  1.00  0.00     0.014 A 
ATOM     29  C   UNL A   1      34.896  19.951  24.832  1.00  0.00     0.014 A 
ATOM     30  C   UNL A   1      34.076  18.886  24.447  1.00  0.00     0.056 A 
BRANCH  30  31
ATOM     31  C   UNL A   1      34.542  17.457  24.596  1.00  0.00     0.416 C 
ATOM     32  F   UNL A   1      33.825  16.766  25.523  1.00  0.00    -0.166 F 
ATOM     33  F   UNL A   1      34.432  16.754  23.434  1.00  0.00    -0.166 F 
ATOM     34  F   UNL A   1      35.847  17.347  24.973  1.00  0.00    -0.166 F 
ENDBRANCH  30  31
ENDBRANCH  16  25
ENDBRANCH   4   7
ENDBRANCH   2   3
ENDBRANCH   1   2
BRANCH   1  35
ATOM     35  C   UNL A   1      33.901  29.291  26.762  1.00  0.00     0.023 C 
BRANCH  35  36
ATOM     36  C   UNL A   1      35.227  29.070  27.491  1.00  0.00     0.116 C 
BRANCH  36  37
ATOM     37  N   UNL A   1      35.280  29.690  28.820  1.00  0.00    -0.352 N 
ATOM     38  C   UNL A   1      36.246  29.549  29.808  1.00  0.00     0.251 C 
ATOM     39  H   UNL A   1      34.529  30.287  29.041  1.00  0.00     0.163 HD
ATOM     40  O   UNL A   1      35.998  29.793  30.977  1.00  0.00    -0.269 OA
BRANCH  38  41
ATOM     41  C   UNL A   1      37.604  29.142  29.407  1.00  0.00     0.039 A 
ATOM     42  C   UNL A   1      38.271  29.662  28.296  1.00  0.00     0.014 A 
ATOM     43  C   UNL A   1      38.217  28.197  30.215  1.00  0.00     0.014 A 
ATOM     44  C   UNL A   1      39.591  29.267  28.066  1.00  0.00     0.010 A 
ATOM     45  C   UNL A   1      39.559  27.992  30.131  1.00  0.00     0.010 A 
ATOM     46  C   UNL A   1      40.225  28.434  29.000  1.00  0.00    -0.014 A 
BRANCH  46  47
ATOM     47  C   UNL A   1      41.620  28.039  28.891  1.00  0.00     0.031 A 
ATOM     48  C   UNL A   1      41.848  26.822  28.070  1.00  0.00     0.074 A 
ATOM     49  C   UNL A   1      42.617  28.883  29.241  1.00  0.00     0.049 A 
ATOM     50  N   UNL A   1      42.262  25.665  28.466  1.00  0.00    -0.248 NA
ATOM     51  C   UNL A   1      41.411  26.844  26.663  1.00  0.00     0.031 C 
ATOM     52  C   UNL A   1      42.521  30.272  29.717  1.00  0.00     0.029 A 
ATOM     53  N   UNL A   1      43.959  28.710  29.124  1.00  0.00    -0.354 N 
ATOM     54  C   UNL A   1      42.355  24.880  27.318  1.00  0.00     0.074 A 
ATOM     55  C   UNL A   1      41.614  25.575  26.303  1.00  0.00     0.031 C 
ATOM     56  C   UNL A   1      43.726  30.875  29.615  1.00  0.00     0.029 A 
ATOM     57  C   UNL A   1      44.709  29.878  29.241  1.00  0.00     0.049 A 
ATOM     58  H   UNL A   1      44.369  27.828  28.968  1.00  0.00     0.167 HD
ATOM     59  C   UNL A   1      43.259  23.861  27.239  1.00  0.00     0.037 A 
ATOM     60  C   UNL A   1      46.039  29.997  29.001  1.00  0.00     0.037 A 
ATOM     61  C   UNL A   1      43.779  23.544  28.549  1.00  0.00     0.049 A 
ATOM     62  C   UNL A   1      46.608  28.622  29.030  1.00  0.00     0.074 A 
ATOM     63  C   UNL A   1      43.222  23.130  29.744  1.00  0.00     0.029 A 
ATOM     64  N   UNL A   1      45.025  24.029  28.869  1.00  0.00    -0.354 N 
ATOM     65  N   UNL A   1      46.668  27.889  30.108  1.00  0.00    -0.248 NA
ATOM     66  C   UNL A   1      46.639  27.890  27.771  1.00  0.00     0.031 C 
ATOM     67  C   UNL A   1      43.940  23.846  30.747  1.00  0.00     0.029 A 
ATOM     68  C   UNL A   1      44.942  24.585  30.117  1.00  0.00     0.049 A 
ATOM     69  H   UNL A   1      45.830  23.985  28.303  1.00  0.00     0.167 HD
ATOM     70  C   UNL A   1      46.318  26.612  29.688  1.00  0.00     0.074 A 
ATOM     71  C   UNL A   1      46.373  26.662  28.228  1.00  0.00     0.031 C 
ATOM     72  C   UNL A   1      45.721  25.726  30.540  1.00  0.00     0.037 A 
BRANCH  59  73
ATOM     73  C   UNL A   1      43.983  23.428  25.979  1.00  0.00     0.057 A 
ATOM     74  C   UNL A   1      44.016  22.055  25.663  1.00  0.00     0.134 A 
ATOM     75  C   UNL A   1      44.884  24.223  25.243  1.00  0.00     0.134 A 
ATOM     76  F   UNL A   1      43.192  21.186  26.270  1.00  0.00    -0.206 F 
ATOM     77  C   UNL A   1      44.957  21.504  24.786  1.00  0.00     0.040 A 
ATOM     78  C   UNL A   1      45.794  23.688  24.327  1.00  0.00     0.040 A 
ATOM     79  F   UNL A   1      45.010  25.541  25.425  1.00  0.00    -0.206 F 
ATOM     80  C   UNL A   1      45.864  22.321  24.127  1.00  0.00     0.006 A 
ENDBRANCH  59  73
BRANCH  60  81
ATOM     81  C   UNL A   1      46.783  31.147  28.437  1.00  0.00     0.057 A 
ATOM     82  C   UNL A   1      48.032  31.527  28.952  1.00  0.00     0.134 A 
ATOM     83  C   UNL A   1      46.426  31.721  27.203  1.00  0.00     0.134 A 
ATOM     84  F   UNL A   1      48.478  31.005  30.103  1.00  0.00    -0.206 F 
ATOM     85  C   UNL A   1      48.887  32.404  28.268  1.00  0.00     0.040 A 
ATOM     86  C   UNL A   1      47.269  32.600  26.512  1.00  0.00     0.040 A 
ATOM     87  F   UNL A   1      45.288  31.378  26.585  1.00  0.00    -0.206 F 
ATOM     88  C   UNL A   1      48.511  32.933  27.038  1.00  0.00     0.006 A 
ENDBRANCH  60  81
BRANCH  72  89
ATOM     89  C   UNL A   1      45.654  26.071  32.002  1.00  0.00     0.057 A 
ATOM     90  C   UNL A   1      44.522  26.607  32.637  1.00  0.00     0.134 A 
ATOM     91  C   UNL A   1      46.705  25.664  32.830  1.00  0.00     0.134 A 
ATOM     92  F   UNL A   1      43.427  26.938  31.941  1.00  0.00    -0.206 F 
ATOM     93  C   UNL A   1      44.452  26.752  34.027  1.00  0.00     0.040 A 
ATOM     94  C   UNL A   1      46.636  25.774  34.220  1.00  0.00     0.040 A 
ATOM     95  F   UNL A   1      47.797  25.093  32.299  1.00  0.00    -0.206 F 
ATOM     96  C   UNL A   1      45.508  26.325  34.823  1.00  0.00     0.006 A 
ENDBRANCH  72  89
ENDBRANCH  46  47
ENDBRANCH  38  41
ENDBRANCH  36  37
ENDBRANCH  35  36
ENDBRANCH   1  35
TORSDOF 15
ENDMDL
