MODEL 1
REMARK VINA RESULT:     -12.0      0.000      0.000
REMARK SMILES CN(C)c1ccc([C@H]2/C(=C(\NCCCCNC(=O)c3ccc(-c4c5nc(c(-c6c(F)cccc6F)c6ccc([nH]6)c(-c6c(F)cccc6F)c6nc(c(-c7c(F)cccc7F)c7ccc4[nH]7)C=C6)C=C5)cc3)c3ccccc3)C(=O)C(=O)N2CCC(=O)[O-])cc1
REMARK SMILES IDX 13 1 12 2 11 3 10 5 8 6 9 7 83 8 79 9 81 10 80 11 82 12 7 13
REMARK SMILES IDX 4 14 5 15 90 16 6 17 89 18 2 19 1 20 3 21 84 22 85 23 86 24
REMARK SMILES IDX 87 25 88 26 73 27 74 28 78 29 75 30 77 31 76 32 14 33 15 34
REMARK SMILES IDX 16 35 17 36 18 38 19 39 20 40 72 41 21 42 71 43 22 44 23 45
REMARK SMILES IDX 24 46 65 47 25 48 70 49 64 50 66 51 26 52 69 53 63 54 62 55
REMARK SMILES IDX 27 57 53 58 36 59 52 60 37 61 40 62 51 63 67 64 38 65 39 66
REMARK SMILES IDX 50 68 68 69 41 70 28 71 29 72 34 73 30 74 31 75 33 76 35 77
REMARK SMILES IDX 32 78 54 79 55 80 60 81 56 82 57 83 59 84 61 85 58 86 42 87
REMARK SMILES IDX 43 88 48 89 44 90 45 91 47 92 49 93 46 94
REMARK H PARENT 11 4 16 37 66 56 40 67
REMARK Flexibility Score: inf
ROOT
ATOM      1  C   UNL A   1      31.947  27.983  27.245  1.00  0.00     0.023 C 
ENDROOT
BRANCH   1   2
ATOM      2  C   UNL A   1      33.252  27.384  26.726  1.00  0.00     0.113 C 
BRANCH   2   3
ATOM      3  N   UNL A   1      33.040  26.066  26.135  1.00  0.00    -0.384 N 
ATOM      4  H   UNL A   1      32.888  25.325  26.766  1.00  0.00     0.160 HD
BRANCH   3   5
ATOM      5  C   UNL A   1      33.028  25.738  24.782  1.00  0.00     0.051 C 
ATOM      6  C   UNL A   1      33.440  23.201  25.043  1.00  0.00     0.153 C 
ATOM      7  C   UNL A   1      33.234  24.500  24.289  1.00  0.00     0.056 C 
ATOM      8  N   UNL A   1      32.748  22.240  24.191  1.00  0.00    -0.324 N 
ATOM      9  C   UNL A   1      33.165  24.095  22.854  1.00  0.00     0.250 C 
ATOM     10  C   UNL A   1      32.791  22.610  22.861  1.00  0.00     0.295 C 
ATOM     11  O   UNL A   1      33.363  24.757  21.859  1.00  0.00    -0.283 OA
ATOM     12  O   UNL A   1      32.526  21.950  21.878  1.00  0.00    -0.265 OA
BRANCH   6  13
ATOM     13  C   UNL A   1      34.932  22.880  25.198  1.00  0.00    -0.021 A 
ATOM     14  C   UNL A   1      37.665  22.194  25.749  1.00  0.00     0.036 A 
ATOM     15  C   UNL A   1      36.731  21.228  25.356  1.00  0.00     0.026 A 
ATOM     16  C   UNL A   1      37.214  23.517  25.794  1.00  0.00     0.026 A 
ATOM     17  C   UNL A   1      35.392  21.558  25.090  1.00  0.00     0.008 A 
ATOM     18  C   UNL A   1      35.886  23.858  25.515  1.00  0.00     0.008 A 
BRANCH  14  19
ATOM     19  N   UNL A   1      38.962  21.866  26.108  1.00  0.00    -0.378 N 
ATOM     20  C   UNL A   1      39.495  20.565  25.728  1.00  0.00     0.143 C 
ATOM     21  C   UNL A   1      39.843  22.842  26.720  1.00  0.00     0.143 C 
ENDBRANCH  14  19
ENDBRANCH   6  13
BRANCH   8  22
ATOM     22  C   UNL A   1      32.183  20.985  24.680  1.00  0.00     0.127 C 
BRANCH  22  23
ATOM     23  C   UNL A   1      32.516  19.796  23.783  1.00  0.00     0.074 C 
BRANCH  23  24
ATOM     24  C   UNL A   1      33.102  18.675  24.590  1.00  0.00     0.043 C 
ATOM     25  O   UNL A   1      34.282  18.365  24.628  1.00  0.00    -0.550 OA
ATOM     26  O   UNL A   1      32.161  17.961  25.235  1.00  0.00    -0.550 OA
ENDBRANCH  23  24
ENDBRANCH  22  23
ENDBRANCH   8  22
BRANCH   5  27
ATOM     27  C   UNL A   1      32.677  26.838  23.854  1.00  0.00    -0.002 A 
ATOM     28  C   UNL A   1      33.661  27.713  23.375  1.00  0.00     0.010 A 
ATOM     29  C   UNL A   1      31.333  27.066  23.526  1.00  0.00     0.010 A 
ATOM     30  C   UNL A   1      33.299  28.820  22.605  1.00  0.00     0.001 A 
ATOM     31  C   UNL A   1      30.977  28.164  22.742  1.00  0.00     0.001 A 
ATOM     32  C   UNL A   1      31.958  29.045  22.293  1.00  0.00     0.000 A 
ENDBRANCH   5  27
ENDBRANCH   3   5
ENDBRANCH   2   3
ENDBRANCH   1   2
BRANCH   1  33
ATOM     33  C   UNL A   1      31.401  29.171  26.456  1.00  0.00     0.023 C 
BRANCH  33  34
ATOM     34  C   UNL A   1      32.443  30.181  25.989  1.00  0.00     0.116 C 
BRANCH  34  35
ATOM     35  N   UNL A   1      32.128  31.546  26.380  1.00  0.00    -0.352 N 
ATOM     36  C   UNL A   1      32.781  32.382  27.254  1.00  0.00     0.251 C 
ATOM     37  H   UNL A   1      31.327  31.929  25.954  1.00  0.00     0.163 HD
ATOM     38  O   UNL A   1      32.279  33.456  27.568  1.00  0.00    -0.269 OA
BRANCH  36  39
ATOM     39  C   UNL A   1      34.077  31.977  27.845  1.00  0.00     0.039 A 
ATOM     40  C   UNL A   1      35.074  32.943  28.011  1.00  0.00     0.014 A 
ATOM     41  C   UNL A   1      34.313  30.656  28.233  1.00  0.00     0.014 A 
ATOM     42  C   UNL A   1      36.275  32.601  28.637  1.00  0.00     0.010 A 
ATOM     43  C   UNL A   1      35.477  30.334  28.926  1.00  0.00     0.010 A 
ATOM     44  C   UNL A   1      36.471  31.304  29.136  1.00  0.00    -0.014 A 
BRANCH  44  45
ATOM     45  C   UNL A   1      37.702  30.941  29.884  1.00  0.00     0.031 A 
ATOM     46  C   UNL A   1      38.755  30.082  29.240  1.00  0.00     0.074 A 
ATOM     47  C   UNL A   1      37.843  31.327  31.167  1.00  0.00     0.049 A 
ATOM     48  N   UNL A   1      39.857  29.598  29.755  1.00  0.00    -0.248 NA
ATOM     49  C   UNL A   1      38.524  29.693  27.841  1.00  0.00     0.031 C 
ATOM     50  C   UNL A   1      36.879  32.128  31.921  1.00  0.00     0.029 A 
ATOM     51  N   UNL A   1      38.852  31.087  32.067  1.00  0.00    -0.354 N 
ATOM     52  C   UNL A   1      40.443  28.840  28.749  1.00  0.00     0.074 A 
ATOM     53  C   UNL A   1      39.545  28.881  27.614  1.00  0.00     0.031 C 
ATOM     54  C   UNL A   1      37.356  32.340  33.159  1.00  0.00     0.029 A 
ATOM     55  C   UNL A   1      38.637  31.655  33.299  1.00  0.00     0.049 A 
ATOM     56  H   UNL A   1      39.654  30.558  31.850  1.00  0.00     0.167 HD
ATOM     57  C   UNL A   1      41.632  28.190  28.758  1.00  0.00     0.037 A 
ATOM     58  C   UNL A   1      39.386  31.624  34.418  1.00  0.00     0.037 A 
ATOM     59  C   UNL A   1      42.533  28.164  29.880  1.00  0.00     0.049 A 
ATOM     60  C   UNL A   1      40.688  30.874  34.413  1.00  0.00     0.074 A 
ATOM     61  C   UNL A   1      43.782  27.575  29.971  1.00  0.00     0.029 A 
ATOM     62  N   UNL A   1      42.279  28.752  31.110  1.00  0.00    -0.354 N 
ATOM     63  N   UNL A   1      41.257  30.209  33.436  1.00  0.00    -0.248 NA
ATOM     64  C   UNL A   1      41.456  30.874  35.666  1.00  0.00     0.031 C 
ATOM     65  C   UNL A   1      44.265  27.769  31.270  1.00  0.00     0.029 A 
ATOM     66  C   UNL A   1      43.338  28.520  31.974  1.00  0.00     0.049 A 
ATOM     67  H   UNL A   1      41.466  29.258  31.337  1.00  0.00     0.167 HD
ATOM     68  C   UNL A   1      42.460  29.738  33.947  1.00  0.00     0.074 A 
ATOM     69  C   UNL A   1      42.543  30.202  35.316  1.00  0.00     0.031 C 
ATOM     70  C   UNL A   1      43.411  28.991  33.334  1.00  0.00     0.037 A 
BRANCH  57  71
ATOM     71  C   UNL A   1      42.019  27.452  27.509  1.00  0.00     0.057 A 
ATOM     72  C   UNL A   1      41.806  26.072  27.370  1.00  0.00     0.134 A 
ATOM     73  C   UNL A   1      42.602  28.126  26.428  1.00  0.00     0.134 A 
ATOM     74  F   UNL A   1      41.264  25.364  28.373  1.00  0.00    -0.206 F 
ATOM     75  C   UNL A   1      42.192  25.385  26.218  1.00  0.00     0.040 A 
ATOM     76  C   UNL A   1      42.965  27.454  25.258  1.00  0.00     0.040 A 
ATOM     77  F   UNL A   1      42.828  29.446  26.489  1.00  0.00    -0.206 F 
ATOM     78  C   UNL A   1      42.768  26.078  25.156  1.00  0.00     0.006 A 
ENDBRANCH  57  71
BRANCH  58  79
ATOM     79  C   UNL A   1      38.938  32.355  35.629  1.00  0.00     0.057 A 
ATOM     80  C   UNL A   1      39.276  33.700  35.821  1.00  0.00     0.134 A 
ATOM     81  C   UNL A   1      38.164  31.737  36.618  1.00  0.00     0.134 A 
ATOM     82  F   UNL A   1      40.032  34.340  34.916  1.00  0.00    -0.206 F 
ATOM     83  C   UNL A   1      38.873  34.401  36.958  1.00  0.00     0.040 A 
ATOM     84  C   UNL A   1      37.734  32.433  37.749  1.00  0.00     0.040 A 
ATOM     85  F   UNL A   1      37.801  30.452  36.490  1.00  0.00    -0.206 F 
ATOM     86  C   UNL A   1      38.094  33.767  37.924  1.00  0.00     0.006 A 
ENDBRANCH  58  79
BRANCH  70  87
ATOM     87  C   UNL A   1      44.640  28.658  34.128  1.00  0.00     0.057 A 
ATOM     88  C   UNL A   1      45.753  29.507  34.164  1.00  0.00     0.134 A 
ATOM     89  C   UNL A   1      44.693  27.487  34.897  1.00  0.00     0.134 A 
ATOM     90  F   UNL A   1      45.769  30.636  33.440  1.00  0.00    -0.206 F 
ATOM     91  C   UNL A   1      46.884  29.194  34.919  1.00  0.00     0.040 A 
ATOM     92  C   UNL A   1      45.809  27.176  35.674  1.00  0.00     0.040 A 
ATOM     93  F   UNL A   1      43.659  26.633  34.912  1.00  0.00    -0.206 F 
ATOM     94  C   UNL A   1      46.912  28.027  35.682  1.00  0.00     0.006 A 
ENDBRANCH  70  87
ENDBRANCH  44  45
ENDBRANCH  36  39
ENDBRANCH  34  35
ENDBRANCH  33  34
ENDBRANCH   1  33
TORSDOF 17
ENDMDL
MODEL 2
REMARK VINA RESULT:     -11.9      0.350      5.918
REMARK SMILES CN(C)c1ccc([C@H]2/C(=C(\NCCCCNC(=O)c3ccc(-c4c5nc(c(-c6c(F)cccc6F)c6ccc([nH]6)c(-c6c(F)cccc6F)c6nc(c(-c7c(F)cccc7F)c7ccc4[nH]7)C=C6)C=C5)cc3)c3ccccc3)C(=O)C(=O)N2CCC(=O)[O-])cc1
REMARK SMILES IDX 13 1 12 2 11 3 10 5 8 6 9 7 83 8 79 9 81 10 80 11 82 12 7 13
REMARK SMILES IDX 4 14 5 15 90 16 6 17 89 18 2 19 1 20 3 21 84 22 85 23 86 24
REMARK SMILES IDX 87 25 88 26 73 27 74 28 78 29 75 30 77 31 76 32 14 33 15 34
REMARK SMILES IDX 16 35 17 36 18 38 19 39 20 40 72 41 21 42 71 43 22 44 23 45
REMARK SMILES IDX 24 46 65 47 25 48 70 49 64 50 66 51 26 52 69 53 63 54 62 55
REMARK SMILES IDX 27 57 53 58 36 59 52 60 37 61 40 62 51 63 67 64 38 65 39 66
REMARK SMILES IDX 50 68 68 69 41 70 28 71 29 72 34 73 30 74 31 75 33 76 35 77
REMARK SMILES IDX 32 78 54 79 55 80 60 81 56 82 57 83 59 84 61 85 58 86 42 87
REMARK SMILES IDX 43 88 48 89 44 90 45 91 47 92 49 93 46 94
REMARK H PARENT 11 4 16 37 66 56 40 67
REMARK Flexibility Score: inf
ROOT
ATOM      1  C   UNL A   1      31.911  27.989  27.296  1.00  0.00     0.023 C 
ENDROOT
BRANCH   1   2
ATOM      2  C   UNL A   1      33.243  27.453  26.778  1.00  0.00     0.113 C 
BRANCH   2   3
ATOM      3  N   UNL A   1      33.092  26.128  26.182  1.00  0.00    -0.384 N 
ATOM      4  H   UNL A   1      32.989  25.376  26.810  1.00  0.00     0.160 HD
BRANCH   3   5
ATOM      5  C   UNL A   1      33.078  25.808  24.827  1.00  0.00     0.051 C 
ATOM      6  C   UNL A   1      33.482  23.268  25.074  1.00  0.00     0.153 C 
ATOM      7  C   UNL A   1      33.279  24.572  24.327  1.00  0.00     0.056 C 
ATOM      8  N   UNL A   1      32.786  22.314  24.217  1.00  0.00    -0.324 N 
ATOM      9  C   UNL A   1      33.208  24.174  22.890  1.00  0.00     0.250 C 
ATOM     10  C   UNL A   1      32.830  22.691  22.890  1.00  0.00     0.295 C 
ATOM     11  O   UNL A   1      33.407  24.841  21.898  1.00  0.00    -0.283 OA
ATOM     12  O   UNL A   1      32.562  22.037  21.903  1.00  0.00    -0.265 OA
BRANCH   6  13
ATOM     13  C   UNL A   1      34.974  22.942  25.226  1.00  0.00    -0.021 A 
ATOM     14  C   UNL A   1      37.707  22.256  25.774  1.00  0.00     0.036 A 
ATOM     15  C   UNL A   1      36.763  21.284  25.422  1.00  0.00     0.026 A 
ATOM     16  C   UNL A   1      37.266  23.582  25.779  1.00  0.00     0.026 A 
ATOM     17  C   UNL A   1      35.424  21.614  25.158  1.00  0.00     0.008 A 
ATOM     18  C   UNL A   1      35.937  23.924  25.500  1.00  0.00     0.008 A 
BRANCH  14  19
ATOM     19  N   UNL A   1      39.005  21.931  26.131  1.00  0.00    -0.378 N 
ATOM     20  C   UNL A   1      39.534  20.623  25.769  1.00  0.00     0.143 C 
ATOM     21  C   UNL A   1      39.891  22.914  26.725  1.00  0.00     0.143 C 
ENDBRANCH  14  19
ENDBRANCH   6  13
BRANCH   8  22
ATOM     22  C   UNL A   1      32.219  21.058  24.700  1.00  0.00     0.127 C 
BRANCH  22  23
ATOM     23  C   UNL A   1      32.581  19.866  23.818  1.00  0.00     0.074 C 
BRANCH  23  24
ATOM     24  C   UNL A   1      33.117  18.738  24.650  1.00  0.00     0.043 C 
ATOM     25  O   UNL A   1      34.219  18.230  24.535  1.00  0.00    -0.550 OA
ATOM     26  O   UNL A   1      32.205  18.265  25.521  1.00  0.00    -0.550 OA
ENDBRANCH  23  24
ENDBRANCH  22  23
ENDBRANCH   8  22
BRANCH   5  27
ATOM     27  C   UNL A   1      32.730  26.914  23.906  1.00  0.00    -0.002 A 
ATOM     28  C   UNL A   1      33.717  27.783  23.423  1.00  0.00     0.010 A 
ATOM     29  C   UNL A   1      31.385  27.153  23.587  1.00  0.00     0.010 A 
ATOM     30  C   UNL A   1      33.358  28.896  22.660  1.00  0.00     0.001 A 
ATOM     31  C   UNL A   1      31.032  28.256  22.809  1.00  0.00     0.001 A 
ATOM     32  C   UNL A   1      32.017  29.132  22.357  1.00  0.00     0.000 A 
ENDBRANCH   5  27
ENDBRANCH   3   5
ENDBRANCH   2   3
ENDBRANCH   1   2
BRANCH   1  33
ATOM     33  C   UNL A   1      31.411  29.275  26.640  1.00  0.00     0.023 C 
BRANCH  33  34
ATOM     34  C   UNL A   1      32.498  30.214  26.130  1.00  0.00     0.116 C 
BRANCH  34  35
ATOM     35  N   UNL A   1      32.283  31.598  26.520  1.00  0.00    -0.352 N 
ATOM     36  C   UNL A   1      33.020  32.397  27.362  1.00  0.00     0.251 C 
ATOM     37  H   UNL A   1      31.491  32.027  26.123  1.00  0.00     0.163 HD
ATOM     38  O   UNL A   1      32.598  33.503  27.685  1.00  0.00    -0.269 OA
BRANCH  36  39
ATOM     39  C   UNL A   1      34.311  31.918  27.905  1.00  0.00     0.039 A 
ATOM     40  C   UNL A   1      35.375  32.818  28.011  1.00  0.00     0.014 A 
ATOM     41  C   UNL A   1      34.477  30.590  28.306  1.00  0.00     0.014 A 
ATOM     42  C   UNL A   1      36.577  32.408  28.591  1.00  0.00     0.010 A 
ATOM     43  C   UNL A   1      35.647  30.203  28.954  1.00  0.00     0.010 A 
ATOM     44  C   UNL A   1      36.710  31.108  29.106  1.00  0.00    -0.014 A 
BRANCH  44  45
ATOM     45  C   UNL A   1      37.946  30.676  29.807  1.00  0.00     0.031 A 
ATOM     46  C   UNL A   1      38.208  31.114  31.221  1.00  0.00     0.074 A 
ATOM     47  C   UNL A   1      38.868  29.946  29.149  1.00  0.00     0.049 A 
ATOM     48  N   UNL A   1      39.260  30.904  31.972  1.00  0.00    -0.248 NA
ATOM     49  C   UNL A   1      37.159  31.917  31.868  1.00  0.00     0.031 C 
ATOM     50  C   UNL A   1      38.754  29.489  27.764  1.00  0.00     0.029 A 
ATOM     51  N   UNL A   1      40.087  29.467  29.558  1.00  0.00    -0.354 N 
ATOM     52  C   UNL A   1      39.005  31.557  33.170  1.00  0.00     0.074 A 
ATOM     53  C   UNL A   1      37.726  32.220  33.026  1.00  0.00     0.031 C 
ATOM     54  C   UNL A   1      39.844  28.771  27.447  1.00  0.00     0.029 A 
ATOM     55  C   UNL A   1      40.751  28.752  28.591  1.00  0.00     0.049 A 
ATOM     56  H   UNL A   1      40.452  29.621  30.460  1.00  0.00     0.167 HD
ATOM     57  C   UNL A   1      39.754  31.584  34.299  1.00  0.00     0.037 A 
ATOM     58  C   UNL A   1      41.956  28.152  28.621  1.00  0.00     0.037 A 
ATOM     59  C   UNL A   1      41.019  30.912  34.450  1.00  0.00     0.049 A 
ATOM     60  C   UNL A   1      42.781  28.218  29.875  1.00  0.00     0.074 A 
ATOM     61  C   UNL A   1      41.830  30.838  35.569  1.00  0.00     0.029 A 
ATOM     62  N   UNL A   1      41.657  30.198  33.446  1.00  0.00    -0.354 N 
ATOM     63  N   UNL A   1      42.503  28.792  31.020  1.00  0.00    -0.248 NA
ATOM     64  C   UNL A   1      44.089  27.547  29.841  1.00  0.00     0.031 C 
ATOM     65  C   UNL A   1      42.979  30.116  35.229  1.00  0.00     0.029 A 
ATOM     66  C   UNL A   1      42.863  29.699  33.913  1.00  0.00     0.049 A 
ATOM     67  H   UNL A   1      41.305  30.065  32.536  1.00  0.00     0.167 HD
ATOM     68  C   UNL A   1      43.584  28.527  31.851  1.00  0.00     0.074 A 
ATOM     69  C   UNL A   1      44.519  27.733  31.081  1.00  0.00     0.031 C 
ATOM     70  C   UNL A   1      43.782  28.906  33.137  1.00  0.00     0.037 A 
BRANCH  57  71
ATOM     71  C   UNL A   1      39.219  32.373  35.460  1.00  0.00     0.057 A 
ATOM     72  C   UNL A   1      39.521  33.732  35.631  1.00  0.00     0.134 A 
ATOM     73  C   UNL A   1      38.384  31.773  36.411  1.00  0.00     0.134 A 
ATOM     74  F   UNL A   1      40.326  34.364  34.763  1.00  0.00    -0.206 F 
ATOM     75  C   UNL A   1      39.043  34.455  36.725  1.00  0.00     0.040 A 
ATOM     76  C   UNL A   1      37.875  32.494  37.494  1.00  0.00     0.040 A 
ATOM     77  F   UNL A   1      38.048  30.480  36.305  1.00  0.00    -0.206 F 
ATOM     78  C   UNL A   1      38.213  33.837  37.657  1.00  0.00     0.006 A 
ENDBRANCH  57  71
BRANCH  58  79
ATOM     79  C   UNL A   1      42.441  27.406  27.433  1.00  0.00     0.057 A 
ATOM     80  C   UNL A   1      42.234  26.027  27.319  1.00  0.00     0.134 A 
ATOM     81  C   UNL A   1      43.116  28.046  26.387  1.00  0.00     0.134 A 
ATOM     82  F   UNL A   1      41.609  25.356  28.298  1.00  0.00    -0.206 F 
ATOM     83  C   UNL A   1      42.691  25.307  26.215  1.00  0.00     0.040 A 
ATOM     84  C   UNL A   1      43.559  27.342  25.266  1.00  0.00     0.040 A 
ATOM     85  F   UNL A   1      43.339  29.368  26.433  1.00  0.00    -0.206 F 
ATOM     86  C   UNL A   1      43.352  25.967  25.181  1.00  0.00     0.006 A 
ENDBRANCH  58  79
BRANCH  70  87
ATOM     87  C   UNL A   1      45.042  28.437  33.805  1.00  0.00     0.057 A 
ATOM     88  C   UNL A   1      46.213  29.204  33.800  1.00  0.00     0.134 A 
ATOM     89  C   UNL A   1      45.071  27.216  34.492  1.00  0.00     0.134 A 
ATOM     90  F   UNL A   1      46.256  30.376  33.149  1.00  0.00    -0.206 F 
ATOM     91  C   UNL A   1      47.375  28.765  34.438  1.00  0.00     0.040 A 
ATOM     92  C   UNL A   1      46.218  26.778  35.154  1.00  0.00     0.040 A 
ATOM     93  F   UNL A   1      43.981  26.435  34.540  1.00  0.00    -0.206 F 
ATOM     94  C   UNL A   1      47.377  27.550  35.123  1.00  0.00     0.006 A 
ENDBRANCH  70  87
ENDBRANCH  44  45
ENDBRANCH  36  39
ENDBRANCH  34  35
ENDBRANCH  33  34
ENDBRANCH   1  33
TORSDOF 17
ENDMDL
MODEL 3
REMARK VINA RESULT:     -11.7      3.571      7.371
REMARK SMILES CN(C)c1ccc([C@H]2/C(=C(\NCCCCNC(=O)c3ccc(-c4c5nc(c(-c6c(F)cccc6F)c6ccc([nH]6)c(-c6c(F)cccc6F)c6nc(c(-c7c(F)cccc7F)c7ccc4[nH]7)C=C6)C=C5)cc3)c3ccccc3)C(=O)C(=O)N2CCC(=O)[O-])cc1
REMARK SMILES IDX 13 1 12 2 11 3 10 5 8 6 9 7 83 8 79 9 81 10 80 11 82 12 7 13
REMARK SMILES IDX 4 14 5 15 90 16 6 17 89 18 2 19 1 20 3 21 84 22 85 23 86 24
REMARK SMILES IDX 87 25 88 26 73 27 74 28 78 29 75 30 77 31 76 32 14 33 15 34
REMARK SMILES IDX 16 35 17 36 18 38 19 39 20 40 72 41 21 42 71 43 22 44 23 45
REMARK SMILES IDX 24 46 65 47 25 48 70 49 64 50 66 51 26 52 69 53 63 54 62 55
REMARK SMILES IDX 27 57 53 58 36 59 52 60 37 61 40 62 51 63 67 64 38 65 39 66
REMARK SMILES IDX 50 68 68 69 41 70 28 71 29 72 34 73 30 74 31 75 33 76 35 77
REMARK SMILES IDX 32 78 54 79 55 80 60 81 56 82 57 83 59 84 61 85 58 86 42 87
REMARK SMILES IDX 43 88 48 89 44 90 45 91 47 92 49 93 46 94
REMARK H PARENT 11 4 16 37 66 56 40 67
REMARK Flexibility Score: inf
ROOT
ATOM      1  C   UNL A   1      36.221  23.304  23.551  1.00  0.00     0.023 C 
ENDROOT
BRANCH   1   2
ATOM      2  C   UNL A   1      34.772  23.459  23.095  1.00  0.00     0.113 C 
BRANCH   2   3
ATOM      3  N   UNL A   1      34.044  24.405  23.934  1.00  0.00    -0.384 N 
ATOM      4  H   UNL A   1      34.263  25.357  23.810  1.00  0.00     0.160 HD
BRANCH   3   5
ATOM      5  C   UNL A   1      33.076  24.114  24.892  1.00  0.00     0.051 C 
ATOM      6  C   UNL A   1      31.788  26.350  24.764  1.00  0.00     0.153 C 
ATOM      7  C   UNL A   1      32.107  24.963  25.288  1.00  0.00     0.056 C 
ATOM      8  N   UNL A   1      30.331  26.378  24.842  1.00  0.00    -0.324 N 
ATOM      9  C   UNL A   1      31.014  24.669  26.261  1.00  0.00     0.250 C 
ATOM     10  C   UNL A   1      29.859  25.598  25.879  1.00  0.00     0.295 C 
ATOM     11  O   UNL A   1      30.997  23.881  27.181  1.00  0.00    -0.283 OA
ATOM     12  O   UNL A   1      28.748  25.571  26.366  1.00  0.00    -0.265 OA
BRANCH   6  13
ATOM     13  C   UNL A   1      32.443  27.434  25.628  1.00  0.00    -0.021 A 
ATOM     14  C   UNL A   1      33.654  29.633  27.021  1.00  0.00     0.036 A 
ATOM     15  C   UNL A   1      32.265  29.529  26.881  1.00  0.00     0.026 A 
ATOM     16  C   UNL A   1      34.414  28.578  26.508  1.00  0.00     0.026 A 
ATOM     17  C   UNL A   1      31.669  28.458  26.196  1.00  0.00     0.008 A 
ATOM     18  C   UNL A   1      33.828  27.498  25.839  1.00  0.00     0.008 A 
BRANCH  14  19
ATOM     19  N   UNL A   1      34.258  30.732  27.609  1.00  0.00    -0.378 N 
ATOM     20  C   UNL A   1      35.665  30.657  27.978  1.00  0.00     0.143 C 
ATOM     21  C   UNL A   1      33.560  31.999  27.730  1.00  0.00     0.143 C 
ENDBRANCH  14  19
ENDBRANCH   6  13
BRANCH   8  22
ATOM     22  C   UNL A   1      29.492  27.223  23.996  1.00  0.00     0.127 C 
BRANCH  22  23
ATOM     23  C   UNL A   1      30.257  27.831  22.824  1.00  0.00     0.074 C 
BRANCH  23  24
ATOM     24  C   UNL A   1      29.986  29.304  22.726  1.00  0.00     0.043 C 
ATOM     25  O   UNL A   1      29.904  30.077  23.667  1.00  0.00    -0.550 OA
ATOM     26  O   UNL A   1      29.756  29.701  21.460  1.00  0.00    -0.550 OA
ENDBRANCH  23  24
ENDBRANCH  22  23
ENDBRANCH   8  22
BRANCH   5  27
ATOM     27  C   UNL A   1      33.095  22.734  25.430  1.00  0.00    -0.002 A 
ATOM     28  C   UNL A   1      33.823  22.425  26.586  1.00  0.00     0.010 A 
ATOM     29  C   UNL A   1      32.455  21.706  24.723  1.00  0.00     0.010 A 
ATOM     30  C   UNL A   1      33.936  21.099  27.009  1.00  0.00     0.001 A 
ATOM     31  C   UNL A   1      32.556  20.384  25.158  1.00  0.00     0.001 A 
ATOM     32  C   UNL A   1      33.306  20.081  26.293  1.00  0.00     0.000 A 
ENDBRANCH   5  27
ENDBRANCH   3   5
ENDBRANCH   2   3
ENDBRANCH   1   2
BRANCH   1  33
ATOM     33  C   UNL A   1      36.622  21.911  24.033  1.00  0.00     0.023 C 
BRANCH  33  34
ATOM     34  C   UNL A   1      37.079  21.828  25.485  1.00  0.00     0.116 C 
BRANCH  34  35
ATOM     35  N   UNL A   1      38.088  20.803  25.706  1.00  0.00    -0.352 N 
ATOM     36  C   UNL A   1      39.386  20.929  26.140  1.00  0.00     0.251 C 
ATOM     37  H   UNL A   1      37.797  19.882  25.515  1.00  0.00     0.163 HD
ATOM     38  O   UNL A   1      40.135  19.957  26.126  1.00  0.00    -0.269 OA
BRANCH  36  39
ATOM     39  C   UNL A   1      39.895  22.241  26.598  1.00  0.00     0.039 A 
ATOM     40  C   UNL A   1      40.940  22.273  27.526  1.00  0.00     0.014 A 
ATOM     41  C   UNL A   1      39.349  23.435  26.121  1.00  0.00     0.014 A 
ATOM     42  C   UNL A   1      41.488  23.498  27.914  1.00  0.00     0.010 A 
ATOM     43  C   UNL A   1      39.946  24.650  26.447  1.00  0.00     0.010 A 
ATOM     44  C   UNL A   1      41.023  24.695  27.346  1.00  0.00    -0.014 A 
BRANCH  44  45
ATOM     45  C   UNL A   1      41.649  26.001  27.675  1.00  0.00     0.031 A 
ATOM     46  C   UNL A   1      43.043  26.313  27.205  1.00  0.00     0.074 A 
ATOM     47  C   UNL A   1      40.991  26.881  28.455  1.00  0.00     0.049 A 
ATOM     48  N   UNL A   1      43.784  27.363  27.455  1.00  0.00    -0.248 NA
ATOM     49  C   UNL A   1      43.700  25.299  26.367  1.00  0.00     0.031 C 
ATOM     50  C   UNL A   1      39.650  26.684  29.008  1.00  0.00     0.029 A 
ATOM     51  N   UNL A   1      41.366  28.115  28.924  1.00  0.00    -0.354 N 
ATOM     52  C   UNL A   1      44.996  27.130  26.816  1.00  0.00     0.074 A 
ATOM     53  C   UNL A   1      44.910  25.815  26.218  1.00  0.00     0.031 C 
ATOM     54  C   UNL A   1      39.304  27.771  29.716  1.00  0.00     0.029 A 
ATOM     55  C   UNL A   1      40.411  28.722  29.702  1.00  0.00     0.049 A 
ATOM     56  H   UNL A   1      42.237  28.526  28.722  1.00  0.00     0.167 HD
ATOM     57  C   UNL A   1      46.073  27.946  26.713  1.00  0.00     0.037 A 
ATOM     58  C   UNL A   1      40.426  29.910  30.336  1.00  0.00     0.037 A 
ATOM     59  C   UNL A   1      46.152  29.261  27.293  1.00  0.00     0.049 A 
ATOM     60  C   UNL A   1      41.642  30.786  30.230  1.00  0.00     0.074 A 
ATOM     61  C   UNL A   1      47.180  30.184  27.204  1.00  0.00     0.029 A 
ATOM     62  N   UNL A   1      45.163  29.840  28.074  1.00  0.00    -0.354 N 
ATOM     63  N   UNL A   1      42.759  30.578  29.576  1.00  0.00    -0.248 NA
ATOM     64  C   UNL A   1      41.598  32.068  30.950  1.00  0.00     0.031 C 
ATOM     65  C   UNL A   1      46.830  31.303  27.967  1.00  0.00     0.029 A 
ATOM     66  C   UNL A   1      45.565  31.098  28.492  1.00  0.00     0.049 A 
ATOM     67  H   UNL A   1      44.302  29.419  28.299  1.00  0.00     0.167 HD
ATOM     68  C   UNL A   1      43.536  31.711  29.779  1.00  0.00     0.074 A 
ATOM     69  C   UNL A   1      42.760  32.607  30.610  1.00  0.00     0.031 C 
ATOM     70  C   UNL A   1      44.780  31.983  29.316  1.00  0.00     0.037 A 
BRANCH  57  71
ATOM     71  C   UNL A   1      47.254  27.428  25.943  1.00  0.00     0.057 A 
ATOM     72  C   UNL A   1      48.315  26.765  26.576  1.00  0.00     0.134 A 
ATOM     73  C   UNL A   1      47.329  27.585  24.553  1.00  0.00     0.134 A 
ATOM     74  F   UNL A   1      48.313  26.594  27.907  1.00  0.00    -0.206 F 
ATOM     75  C   UNL A   1      49.424  26.310  25.860  1.00  0.00     0.040 A 
ATOM     76  C   UNL A   1      48.419  27.107  23.823  1.00  0.00     0.040 A 
ATOM     77  F   UNL A   1      46.346  28.203  23.882  1.00  0.00    -0.206 F 
ATOM     78  C   UNL A   1      49.474  26.476  24.478  1.00  0.00     0.006 A 
ENDBRANCH  57  71
BRANCH  58  79
ATOM     79  C   UNL A   1      39.235  30.356  31.101  1.00  0.00     0.057 A 
ATOM     80  C   UNL A   1      38.309  31.239  30.535  1.00  0.00     0.134 A 
ATOM     81  C   UNL A   1      38.991  29.913  32.407  1.00  0.00     0.134 A 
ATOM     82  F   UNL A   1      38.499  31.711  29.294  1.00  0.00    -0.206 F 
ATOM     83  C   UNL A   1      37.189  31.677  31.243  1.00  0.00     0.040 A 
ATOM     84  C   UNL A   1      37.862  30.326  33.118  1.00  0.00     0.040 A 
ATOM     85  F   UNL A   1      39.837  29.061  33.003  1.00  0.00    -0.206 F 
ATOM     86  C   UNL A   1      36.961  31.215  32.537  1.00  0.00     0.006 A 
ENDBRANCH  58  79
BRANCH  70  87
ATOM     87  C   UNL A   1      45.366  33.320  29.668  1.00  0.00     0.057 A 
ATOM     88  C   UNL A   1      45.153  34.455  28.876  1.00  0.00     0.134 A 
ATOM     89  C   UNL A   1      46.124  33.478  30.836  1.00  0.00     0.134 A 
ATOM     90  F   UNL A   1      44.448  34.367  27.739  1.00  0.00    -0.206 F 
ATOM     91  C   UNL A   1      45.691  35.696  29.222  1.00  0.00     0.040 A 
ATOM     92  C   UNL A   1      46.645  34.719  31.204  1.00  0.00     0.040 A 
ATOM     93  F   UNL A   1      46.361  32.432  31.642  1.00  0.00    -0.206 F 
ATOM     94  C   UNL A   1      46.435  35.831  30.393  1.00  0.00     0.006 A 
ENDBRANCH  70  87
ENDBRANCH  44  45
ENDBRANCH  36  39
ENDBRANCH  34  35
ENDBRANCH  33  34
ENDBRANCH   1  33
TORSDOF 17
ENDMDL
