MODEL 1
REMARK VINA RESULT:     -12.0      0.000      0.000
REMARK SMILES CC[C@](C)(NC(=O)c1ccc2ccccc2c1O)C(=O)NCCCCNC(=O)c1ccc(-c2c3nc(c(-c4c(F)cccc4F)c4ccc([nH]4)c(-c4c(F)cccc4F)c4nc(c(-c5c(F)cccc5F)c5ccc2[nH]5)C=C4)C=C3)cc1
REMARK SMILES IDX 23 1 22 2 21 3 19 4 20 5 3 7 4 8 2 9 1 10 5 11 6 12 7 14
REMARK SMILES IDX 8 15 9 16 17 17 10 18 16 19 11 20 15 21 12 22 14 23 13 24
REMARK SMILES IDX 18 25 24 27 25 28 26 29 27 30 28 32 29 33 30 34 82 35 31 36
REMARK SMILES IDX 81 37 32 38 33 39 34 40 75 41 35 42 80 43 74 44 76 45 36 46
REMARK SMILES IDX 79 47 73 48 72 49 37 51 63 52 46 53 62 54 47 55 50 56 61 57
REMARK SMILES IDX 77 58 48 59 49 60 60 62 78 63 51 64 38 65 39 66 44 67 40 68
REMARK SMILES IDX 41 69 43 70 45 71 42 72 64 73 65 74 70 75 66 76 67 77 69 78
REMARK SMILES IDX 71 79 68 80 52 81 53 82 58 83 54 84 55 85 57 86 59 87 56 88
REMARK H PARENT 21 6 5 13 18 26 26 31 76 50 50 61
REMARK Flexibility Score: inf
ROOT
ATOM      1  C   UNL A   1      37.635  20.906  24.810  1.00  0.00     0.023 C 
ENDROOT
BRANCH   1   2
ATOM      2  C   UNL A   1      36.079  20.874  24.827  1.00  0.00     0.116 C 
BRANCH   2   3
ATOM      3  N   UNL A   1      35.304  20.986  26.088  1.00  0.00    -0.354 N 
ATOM      4  C   UNL A   1      34.166  21.681  26.520  1.00  0.00     0.245 C 
ATOM      5  O   UNL A   1      33.749  21.490  27.664  1.00  0.00    -0.272 OA
ATOM      6  H   UNL A   1      35.687  20.430  26.803  1.00  0.00     0.163 HD
BRANCH   4   7
ATOM      7  C   UNL A   1      33.423  22.570  25.542  1.00  0.00     0.116 C 
ATOM      8  C   UNL A   1      33.182  22.102  24.096  1.00  0.00     0.045 C 
BRANCH   7   9
ATOM      9  C   UNL A   1      34.415  23.800  25.432  1.00  0.00     0.035 C 
ATOM     10  C   UNL A   1      34.468  24.399  24.001  1.00  0.00     0.007 C 
ENDBRANCH   7   9
BRANCH   7  11
ATOM     11  N   UNL A   1      32.101  22.783  26.180  1.00  0.00    -0.338 N 
ATOM     12  C   UNL A   1      31.333  23.934  26.420  1.00  0.00     0.255 C 
ATOM     13  H   UNL A   1      31.677  21.952  26.497  1.00  0.00     0.164 HD
ATOM     14  O   UNL A   1      30.495  23.783  27.320  1.00  0.00    -0.269 OA
BRANCH  12  15
ATOM     15  C   UNL A   1      31.335  25.311  25.729  1.00  0.00     0.082 A 
ATOM     16  C   UNL A   1      31.988  26.332  26.444  1.00  0.00     0.018 A 
ATOM     17  C   UNL A   1      30.565  25.801  24.653  1.00  0.00     0.136 A 
ATOM     18  C   UNL A   1      31.874  27.702  26.093  1.00  0.00     0.010 A 
ATOM     19  C   UNL A   1      30.544  27.139  24.181  1.00  0.00     0.024 A 
ATOM     20  C   UNL A   1      31.154  28.121  24.957  1.00  0.00    -0.015 A 
ATOM     21  C   UNL A   1      29.824  27.509  23.017  1.00  0.00     0.012 A 
ATOM     22  C   UNL A   1      30.952  29.472  24.591  1.00  0.00     0.009 A 
ATOM     23  C   UNL A   1      29.650  28.836  22.654  1.00  0.00     0.001 A 
ATOM     24  C   UNL A   1      30.198  29.823  23.458  1.00  0.00     0.001 A 
BRANCH  17  25
ATOM     25  O   UNL A   1      29.494  25.147  24.123  1.00  0.00    -0.506 OA
ATOM     26  H   UNL A   1      29.619  24.527  23.433  1.00  0.00     0.293 HD
ENDBRANCH  17  25
ENDBRANCH  12  15
ENDBRANCH   7  11
ENDBRANCH   4   7
ENDBRANCH   2   3
ENDBRANCH   1   2
BRANCH   1  27
ATOM     27  C   UNL A   1      38.535  19.671  24.992  1.00  0.00     0.023 C 
BRANCH  27  28
ATOM     28  C   UNL A   1      39.436  19.617  26.217  1.00  0.00     0.116 C 
BRANCH  28  29
ATOM     29  N   UNL A   1      40.714  19.003  25.903  1.00  0.00    -0.352 N 
ATOM     30  C   UNL A   1      41.964  19.561  25.853  1.00  0.00     0.251 C 
ATOM     31  H   UNL A   1      40.676  18.041  25.696  1.00  0.00     0.163 HD
ATOM     32  O   UNL A   1      42.885  18.907  25.345  1.00  0.00    -0.269 OA
BRANCH  30  33
ATOM     33  C   UNL A   1      42.247  20.919  26.375  1.00  0.00     0.039 A 
ATOM     34  C   UNL A   1      42.164  21.132  27.757  1.00  0.00     0.014 A 
ATOM     35  C   UNL A   1      42.510  22.004  25.532  1.00  0.00     0.014 A 
ATOM     36  C   UNL A   1      42.371  22.408  28.291  1.00  0.00     0.010 A 
ATOM     37  C   UNL A   1      42.773  23.268  26.071  1.00  0.00     0.010 A 
ATOM     38  C   UNL A   1      42.696  23.488  27.455  1.00  0.00    -0.014 A 
BRANCH  38  39
ATOM     39  C   UNL A   1      42.948  24.842  28.025  1.00  0.00     0.031 A 
ATOM     40  C   UNL A   1      44.336  25.256  28.439  1.00  0.00     0.074 A 
ATOM     41  C   UNL A   1      41.921  25.698  28.196  1.00  0.00     0.049 A 
ATOM     42  N   UNL A   1      44.741  26.385  28.969  1.00  0.00    -0.248 NA
ATOM     43  C   UNL A   1      45.408  24.268  28.248  1.00  0.00     0.031 C 
ATOM     44  C   UNL A   1      40.524  25.415  27.864  1.00  0.00     0.029 A 
ATOM     45  N   UNL A   1      41.891  26.979  28.691  1.00  0.00    -0.354 N 
ATOM     46  C   UNL A   1      46.106  26.240  29.182  1.00  0.00     0.074 A 
ATOM     47  C   UNL A   1      46.453  24.896  28.769  1.00  0.00     0.031 C 
ATOM     48  C   UNL A   1      39.778  26.498  28.141  1.00  0.00     0.029 A 
ATOM     49  C   UNL A   1      40.635  27.536  28.707  1.00  0.00     0.049 A 
ATOM     50  H   UNL A   1      42.694  27.454  29.005  1.00  0.00     0.167 HD
ATOM     51  C   UNL A   1      46.994  27.145  29.660  1.00  0.00     0.037 A 
ATOM     52  C   UNL A   1      40.214  28.742  29.138  1.00  0.00     0.037 A 
ATOM     53  C   UNL A   1      46.653  28.488  30.059  1.00  0.00     0.049 A 
ATOM     54  C   UNL A   1      41.217  29.718  29.694  1.00  0.00     0.074 A 
ATOM     55  C   UNL A   1      47.492  29.494  30.504  1.00  0.00     0.029 A 
ATOM     56  N   UNL A   1      45.367  29.008  30.068  1.00  0.00    -0.354 N 
ATOM     57  N   UNL A   1      42.515  29.588  29.825  1.00  0.00    -0.248 NA
ATOM     58  C   UNL A   1      40.694  31.011  30.158  1.00  0.00     0.031 C 
ATOM     59  C   UNL A   1      46.709  30.604  30.838  1.00  0.00     0.029 A 
ATOM     60  C   UNL A   1      45.388  30.312  30.542  1.00  0.00     0.049 A 
ATOM     61  H   UNL A   1      44.560  28.524  29.781  1.00  0.00     0.167 HD
ATOM     62  C   UNL A   1      42.966  30.792  30.354  1.00  0.00     0.074 A 
ATOM     63  C   UNL A   1      41.806  31.643  30.505  1.00  0.00     0.031 C 
ATOM     64  C   UNL A   1      44.229  31.156  30.682  1.00  0.00     0.037 A 
BRANCH  51  65
ATOM     65  C   UNL A   1      48.429  26.716  29.789  1.00  0.00     0.057 A 
ATOM     66  C   UNL A   1      49.356  26.906  28.756  1.00  0.00     0.134 A 
ATOM     67  C   UNL A   1      48.902  26.151  30.981  1.00  0.00     0.134 A 
ATOM     68  F   UNL A   1      48.971  27.436  27.585  1.00  0.00    -0.206 F 
ATOM     69  C   UNL A   1      50.693  26.526  28.893  1.00  0.00     0.040 A 
ATOM     70  C   UNL A   1      50.243  25.795  31.142  1.00  0.00     0.040 A 
ATOM     71  F   UNL A   1      48.073  25.950  32.017  1.00  0.00    -0.206 F 
ATOM     72  C   UNL A   1      51.141  25.977  30.092  1.00  0.00     0.006 A 
ENDBRANCH  51  65
BRANCH  52  73
ATOM     73  C   UNL A   1      38.776  29.107  29.053  1.00  0.00     0.057 A 
ATOM     74  C   UNL A   1      38.216  29.574  27.858  1.00  0.00     0.134 A 
ATOM     75  C   UNL A   1      37.933  29.021  30.168  1.00  0.00     0.134 A 
ATOM     76  F   UNL A   1      38.977  29.699  26.761  1.00  0.00    -0.206 F 
ATOM     77  C   UNL A   1      36.879  29.967  27.780  1.00  0.00     0.040 A 
ATOM     78  C   UNL A   1      36.586  29.381  30.096  1.00  0.00     0.040 A 
ATOM     79  F   UNL A   1      38.404  28.577  31.343  1.00  0.00    -0.206 F 
ATOM     80  C   UNL A   1      36.058  29.865  28.901  1.00  0.00     0.006 A 
ENDBRANCH  52  73
BRANCH  64  81
ATOM     81  C   UNL A   1      44.434  32.552  31.199  1.00  0.00     0.057 A 
ATOM     82  C   UNL A   1      44.423  32.848  32.568  1.00  0.00     0.134 A 
ATOM     83  C   UNL A   1      44.681  33.610  30.312  1.00  0.00     0.134 A 
ATOM     84  F   UNL A   1      44.179  31.885  33.470  1.00  0.00    -0.206 F 
ATOM     85  C   UNL A   1      44.624  34.149  33.035  1.00  0.00     0.040 A 
ATOM     86  C   UNL A   1      44.915  34.908  30.769  1.00  0.00     0.040 A 
ATOM     87  F   UNL A   1      44.715  33.396  28.988  1.00  0.00    -0.206 F 
ATOM     88  C   UNL A   1      44.879  35.181  32.134  1.00  0.00     0.006 A 
ENDBRANCH  64  81
ENDBRANCH  38  39
ENDBRANCH  30  33
ENDBRANCH  28  29
ENDBRANCH  27  28
ENDBRANCH   1  27
TORSDOF 15
ENDMDL
MODEL 2
REMARK VINA RESULT:     -11.8      1.319      2.447
REMARK SMILES CC[C@](C)(NC(=O)c1ccc2ccccc2c1O)C(=O)NCCCCNC(=O)c1ccc(-c2c3nc(c(-c4c(F)cccc4F)c4ccc([nH]4)c(-c4c(F)cccc4F)c4nc(c(-c5c(F)cccc5F)c5ccc2[nH]5)C=C4)C=C3)cc1
REMARK SMILES IDX 23 1 22 2 21 3 19 4 20 5 3 7 4 8 2 9 1 10 5 11 6 12 7 14
REMARK SMILES IDX 8 15 9 16 17 17 10 18 16 19 11 20 15 21 12 22 14 23 13 24
REMARK SMILES IDX 18 25 24 27 25 28 26 29 27 30 28 32 29 33 30 34 82 35 31 36
REMARK SMILES IDX 81 37 32 38 33 39 34 40 75 41 35 42 80 43 74 44 76 45 36 46
REMARK SMILES IDX 79 47 73 48 72 49 37 51 63 52 46 53 62 54 47 55 50 56 61 57
REMARK SMILES IDX 77 58 48 59 49 60 60 62 78 63 51 64 38 65 39 66 44 67 40 68
REMARK SMILES IDX 41 69 43 70 45 71 42 72 64 73 65 74 70 75 66 76 67 77 69 78
REMARK SMILES IDX 71 79 68 80 52 81 53 82 58 83 54 84 55 85 57 86 59 87 56 88
REMARK H PARENT 21 6 5 13 18 26 26 31 76 50 50 61
REMARK Flexibility Score: inf
ROOT
ATOM      1  C   UNL A   1      38.808  22.122  26.076  1.00  0.00     0.023 C 
ENDROOT
BRANCH   1   2
ATOM      2  C   UNL A   1      37.705  23.165  25.733  1.00  0.00     0.116 C 
BRANCH   2   3
ATOM      3  N   UNL A   1      37.085  23.239  24.386  1.00  0.00    -0.354 N 
ATOM      4  C   UNL A   1      35.849  22.903  23.819  1.00  0.00     0.245 C 
ATOM      5  O   UNL A   1      35.646  23.163  22.632  1.00  0.00    -0.272 OA
ATOM      6  H   UNL A   1      37.700  23.624  23.722  1.00  0.00     0.163 HD
BRANCH   4   7
ATOM      7  C   UNL A   1      34.762  22.320  24.702  1.00  0.00     0.116 C 
ATOM      8  C   UNL A   1      34.517  22.890  26.110  1.00  0.00     0.045 C 
BRANCH   7   9
ATOM      9  C   UNL A   1      35.305  20.849  24.926  1.00  0.00     0.035 C 
ATOM     10  C   UNL A   1      34.192  19.775  24.806  1.00  0.00     0.007 C 
ENDBRANCH   7   9
BRANCH   7  11
ATOM     11  N   UNL A   1      33.519  22.502  23.912  1.00  0.00    -0.338 N 
ATOM     12  C   UNL A   1      32.515  23.484  23.930  1.00  0.00     0.255 C 
ATOM     13  H   UNL A   1      33.369  21.795  23.244  1.00  0.00     0.164 HD
ATOM     14  O   UNL A   1      31.448  23.100  23.430  1.00  0.00    -0.269 OA
BRANCH  12  15
ATOM     15  C   UNL A   1      32.540  24.945  24.419  1.00  0.00     0.082 A 
ATOM     16  C   UNL A   1      33.536  25.749  23.834  1.00  0.00     0.018 A 
ATOM     17  C   UNL A   1      31.938  25.549  25.543  1.00  0.00     0.136 A 
ATOM     18  C   UNL A   1      33.873  27.031  24.336  1.00  0.00     0.010 A 
ATOM     19  C   UNL A   1      32.141  26.882  25.985  1.00  0.00     0.024 A 
ATOM     20  C   UNL A   1      33.179  27.614  25.415  1.00  0.00    -0.015 A 
ATOM     21  C   UNL A   1      31.399  27.433  27.060  1.00  0.00     0.012 A 
ATOM     22  C   UNL A   1      33.507  28.859  26.000  1.00  0.00     0.009 A 
ATOM     23  C   UNL A   1      31.715  28.665  27.613  1.00  0.00     0.001 A 
ATOM     24  C   UNL A   1      32.790  29.370  27.094  1.00  0.00     0.001 A 
BRANCH  17  25
ATOM     25  O   UNL A   1      31.336  24.855  26.549  1.00  0.00    -0.506 OA
ATOM     26  H   UNL A   1      30.515  25.146  26.892  1.00  0.00     0.293 HD
ENDBRANCH  17  25
ENDBRANCH  12  15
ENDBRANCH   7  11
ENDBRANCH   4   7
ENDBRANCH   2   3
ENDBRANCH   1   2
BRANCH   1  27
ATOM     27  C   UNL A   1      38.995  20.778  25.352  1.00  0.00     0.023 C 
BRANCH  27  28
ATOM     28  C   UNL A   1      39.371  19.561  26.186  1.00  0.00     0.116 C 
BRANCH  28  29
ATOM     29  N   UNL A   1      40.673  19.045  25.806  1.00  0.00    -0.352 N 
ATOM     30  C   UNL A   1      41.891  19.674  25.783  1.00  0.00     0.251 C 
ATOM     31  H   UNL A   1      40.683  18.102  25.524  1.00  0.00     0.163 HD
ATOM     32  O   UNL A   1      42.836  19.113  25.212  1.00  0.00    -0.269 OA
BRANCH  30  33
ATOM     33  C   UNL A   1      42.110  21.000  26.407  1.00  0.00     0.039 A 
ATOM     34  C   UNL A   1      42.466  22.074  25.582  1.00  0.00     0.014 A 
ATOM     35  C   UNL A   1      42.057  21.191  27.792  1.00  0.00     0.014 A 
ATOM     36  C   UNL A   1      42.735  23.332  26.132  1.00  0.00     0.010 A 
ATOM     37  C   UNL A   1      42.271  22.462  28.337  1.00  0.00     0.010 A 
ATOM     38  C   UNL A   1      42.623  23.545  27.515  1.00  0.00    -0.014 A 
BRANCH  38  39
ATOM     39  C   UNL A   1      42.877  24.892  28.100  1.00  0.00     0.031 A 
ATOM     40  C   UNL A   1      44.260  25.288  28.548  1.00  0.00     0.074 A 
ATOM     41  C   UNL A   1      41.856  25.758  28.253  1.00  0.00     0.049 A 
ATOM     42  N   UNL A   1      44.665  26.410  29.094  1.00  0.00    -0.248 NA
ATOM     43  C   UNL A   1      45.326  24.290  28.373  1.00  0.00     0.031 C 
ATOM     44  C   UNL A   1      40.463  25.493  27.889  1.00  0.00     0.029 A 
ATOM     45  N   UNL A   1      41.829  27.037  28.756  1.00  0.00    -0.354 N 
ATOM     46  C   UNL A   1      46.024  26.247  29.336  1.00  0.00     0.074 A 
ATOM     47  C   UNL A   1      46.365  24.903  28.922  1.00  0.00     0.031 C 
ATOM     48  C   UNL A   1      39.724  26.582  28.156  1.00  0.00     0.029 A 
ATOM     49  C   UNL A   1      40.579  27.607  28.748  1.00  0.00     0.049 A 
ATOM     50  H   UNL A   1      42.630  27.501  29.091  1.00  0.00     0.167 HD
ATOM     51  C   UNL A   1      46.910  27.140  29.840  1.00  0.00     0.037 A 
ATOM     52  C   UNL A   1      40.162  28.815  29.178  1.00  0.00     0.037 A 
ATOM     53  C   UNL A   1      46.575  28.484  30.239  1.00  0.00     0.049 A 
ATOM     54  C   UNL A   1      41.162  29.776  29.763  1.00  0.00     0.074 A 
ATOM     55  C   UNL A   1      47.415  29.478  30.710  1.00  0.00     0.029 A 
ATOM     56  N   UNL A   1      45.295  29.018  30.224  1.00  0.00    -0.354 N 
ATOM     57  N   UNL A   1      42.455  29.631  29.921  1.00  0.00    -0.248 NA
ATOM     58  C   UNL A   1      40.643  31.072  30.223  1.00  0.00     0.031 C 
ATOM     59  C   UNL A   1      46.637  30.594  31.034  1.00  0.00     0.029 A 
ATOM     60  C   UNL A   1      45.320  30.318  30.706  1.00  0.00     0.049 A 
ATOM     61  H   UNL A   1      44.489  28.545  29.916  1.00  0.00     0.167 HD
ATOM     62  C   UNL A   1      42.908  30.826  30.468  1.00  0.00     0.074 A 
ATOM     63  C   UNL A   1      41.754  31.689  30.599  1.00  0.00     0.031 C 
ATOM     64  C   UNL A   1      44.167  31.174  30.827  1.00  0.00     0.037 A 
BRANCH  51  65
ATOM     65  C   UNL A   1      48.337  26.694  29.997  1.00  0.00     0.057 A 
ATOM     66  C   UNL A   1      48.778  25.998  31.130  1.00  0.00     0.134 A 
ATOM     67  C   UNL A   1      49.273  26.920  28.978  1.00  0.00     0.134 A 
ATOM     68  F   UNL A   1      47.937  25.753  32.147  1.00  0.00    -0.206 F 
ATOM     69  C   UNL A   1      50.100  25.567  31.257  1.00  0.00     0.040 A 
ATOM     70  C   UNL A   1      50.590  26.467  29.080  1.00  0.00     0.040 A 
ATOM     71  F   UNL A   1      48.920  27.571  27.859  1.00  0.00    -0.206 F 
ATOM     72  C   UNL A   1      51.008  25.793  30.226  1.00  0.00     0.006 A 
ENDBRANCH  51  65
BRANCH  52  73
ATOM     73  C   UNL A   1      38.730  29.196  29.064  1.00  0.00     0.057 A 
ATOM     74  C   UNL A   1      37.869  29.119  30.166  1.00  0.00     0.134 A 
ATOM     75  C   UNL A   1      38.181  29.621  27.848  1.00  0.00     0.134 A 
ATOM     76  F   UNL A   1      38.329  28.698  31.353  1.00  0.00    -0.206 F 
ATOM     77  C   UNL A   1      36.512  29.427  30.058  1.00  0.00     0.040 A 
ATOM     78  C   UNL A   1      36.833  29.962  27.733  1.00  0.00     0.040 A 
ATOM     79  F   UNL A   1      38.951  29.721  26.754  1.00  0.00    -0.206 F 
ATOM     80  C   UNL A   1      35.991  29.855  28.839  1.00  0.00     0.006 A 
ENDBRANCH  52  73
BRANCH  64  81
ATOM     81  C   UNL A   1      44.375  32.565  31.357  1.00  0.00     0.057 A 
ATOM     82  C   UNL A   1      44.659  33.648  30.515  1.00  0.00     0.134 A 
ATOM     83  C   UNL A   1      44.254  32.829  32.729  1.00  0.00     0.134 A 
ATOM     84  F   UNL A   1      44.802  33.463  29.194  1.00  0.00    -0.206 F 
ATOM     85  C   UNL A   1      44.841  34.938  31.020  1.00  0.00     0.040 A 
ATOM     86  C   UNL A   1      44.402  34.118  33.242  1.00  0.00     0.040 A 
ATOM     87  F   UNL A   1      43.974  31.840  33.592  1.00  0.00    -0.206 F 
ATOM     88  C   UNL A   1      44.704  35.176  32.387  1.00  0.00     0.006 A 
ENDBRANCH  64  81
ENDBRANCH  38  39
ENDBRANCH  30  33
ENDBRANCH  28  29
ENDBRANCH  27  28
ENDBRANCH   1  27
TORSDOF 15
ENDMDL
MODEL 3
REMARK VINA RESULT:     -11.8      4.081      8.656
REMARK SMILES CC[C@](C)(NC(=O)c1ccc2ccccc2c1O)C(=O)NCCCCNC(=O)c1ccc(-c2c3nc(c(-c4c(F)cccc4F)c4ccc([nH]4)c(-c4c(F)cccc4F)c4nc(c(-c5c(F)cccc5F)c5ccc2[nH]5)C=C4)C=C3)cc1
REMARK SMILES IDX 23 1 22 2 21 3 19 4 20 5 3 7 4 8 2 9 1 10 5 11 6 12 7 14
REMARK SMILES IDX 8 15 9 16 17 17 10 18 16 19 11 20 15 21 12 22 14 23 13 24
REMARK SMILES IDX 18 25 24 27 25 28 26 29 27 30 28 32 29 33 30 34 82 35 31 36
REMARK SMILES IDX 81 37 32 38 33 39 34 40 75 41 35 42 80 43 74 44 76 45 36 46
REMARK SMILES IDX 79 47 73 48 72 49 37 51 63 52 46 53 62 54 47 55 50 56 61 57
REMARK SMILES IDX 77 58 48 59 49 60 60 62 78 63 51 64 38 65 39 66 44 67 40 68
REMARK SMILES IDX 41 69 43 70 45 71 42 72 64 73 65 74 70 75 66 76 67 77 69 78
REMARK SMILES IDX 71 79 68 80 52 81 53 82 58 83 54 84 55 85 57 86 59 87 56 88
REMARK H PARENT 21 6 5 13 18 26 26 31 76 50 50 61
REMARK Flexibility Score: inf
ROOT
ATOM      1  C   UNL A   1      33.211  29.658  24.958  1.00  0.00     0.023 C 
ENDROOT
BRANCH   1   2
ATOM      2  C   UNL A   1      33.750  28.201  24.852  1.00  0.00     0.116 C 
BRANCH   2   3
ATOM      3  N   UNL A   1      33.894  27.508  23.548  1.00  0.00    -0.354 N 
ATOM      4  C   UNL A   1      33.797  26.190  23.084  1.00  0.00     0.245 C 
ATOM      5  O   UNL A   1      33.928  25.969  21.879  1.00  0.00    -0.272 OA
ATOM      6  H   UNL A   1      34.114  28.136  22.823  1.00  0.00     0.163 HD
BRANCH   4   7
ATOM      7  C   UNL A   1      33.437  25.084  24.059  1.00  0.00     0.116 C 
ATOM      8  C   UNL A   1      33.033  25.426  25.504  1.00  0.00     0.045 C 
BRANCH   7   9
ATOM      9  C   UNL A   1      34.818  24.317  24.174  1.00  0.00     0.035 C 
ATOM     10  C   UNL A   1      35.163  23.922  25.635  1.00  0.00     0.007 C 
ENDBRANCH   7   9
BRANCH   7  11
ATOM     11  N   UNL A   1      32.294  24.393  23.415  1.00  0.00    -0.338 N 
ATOM     12  C   UNL A   1      30.934  24.719  23.285  1.00  0.00     0.255 C 
ATOM     13  H   UNL A   1      32.537  23.536  22.996  1.00  0.00     0.164 HD
ATOM     14  O   UNL A   1      30.216  23.736  23.053  1.00  0.00    -0.269 OA
BRANCH  12  15
ATOM     15  C   UNL A   1      30.213  26.079  23.338  1.00  0.00     0.082 A 
ATOM     16  C   UNL A   1      28.950  26.057  23.957  1.00  0.00     0.018 A 
ATOM     17  C   UNL A   1      30.458  27.279  22.635  1.00  0.00     0.136 A 
ATOM     18  C   UNL A   1      28.041  27.143  23.874  1.00  0.00     0.010 A 
ATOM     19  C   UNL A   1      29.643  28.439  22.652  1.00  0.00     0.024 A 
ATOM     20  C   UNL A   1      28.377  28.347  23.224  1.00  0.00    -0.015 A 
ATOM     21  C   UNL A   1      30.036  29.637  22.003  1.00  0.00     0.012 A 
ATOM     22  C   UNL A   1      27.494  29.439  23.055  1.00  0.00     0.009 A 
ATOM     23  C   UNL A   1      29.170  30.712  21.861  1.00  0.00     0.001 A 
ATOM     24  C   UNL A   1      27.885  30.601  22.370  1.00  0.00     0.001 A 
BRANCH  17  25
ATOM     25  O   UNL A   1      31.327  27.385  21.591  1.00  0.00    -0.506 OA
ATOM     26  H   UNL A   1      31.517  26.636  21.062  1.00  0.00     0.293 HD
ENDBRANCH  17  25
ENDBRANCH  12  15
ENDBRANCH   7  11
ENDBRANCH   4   7
ENDBRANCH   2   3
ENDBRANCH   1   2
BRANCH   1  27
ATOM     27  C   UNL A   1      31.815  30.037  25.482  1.00  0.00     0.023 C 
BRANCH  27  28
ATOM     28  C   UNL A   1      31.714  30.645  26.873  1.00  0.00     0.116 C 
BRANCH  28  29
ATOM     29  N   UNL A   1      31.779  32.094  26.821  1.00  0.00    -0.352 N 
ATOM     30  C   UNL A   1      32.667  32.952  27.414  1.00  0.00     0.251 C 
ATOM     31  H   UNL A   1      31.080  32.524  26.277  1.00  0.00     0.163 HD
ATOM     32  O   UNL A   1      32.406  34.163  27.421  1.00  0.00    -0.269 OA
BRANCH  30  33
ATOM     33  C   UNL A   1      33.919  32.481  28.053  1.00  0.00     0.039 A 
ATOM     34  C   UNL A   1      34.040  31.119  28.357  1.00  0.00     0.014 A 
ATOM     35  C   UNL A   1      34.939  33.359  28.434  1.00  0.00     0.014 A 
ATOM     36  C   UNL A   1      35.180  30.637  29.008  1.00  0.00     0.010 A 
ATOM     37  C   UNL A   1      36.104  32.868  29.034  1.00  0.00     0.010 A 
ATOM     38  C   UNL A   1      36.234  31.504  29.338  1.00  0.00    -0.014 A 
BRANCH  38  39
ATOM     39  C   UNL A   1      37.465  30.986  30.002  1.00  0.00     0.031 A 
ATOM     40  C   UNL A   1      37.769  31.332  31.435  1.00  0.00     0.074 A 
ATOM     41  C   UNL A   1      38.328  30.220  29.306  1.00  0.00     0.049 A 
ATOM     42  N   UNL A   1      38.798  30.988  32.171  1.00  0.00    -0.248 NA
ATOM     43  C   UNL A   1      36.798  32.190  32.132  1.00  0.00     0.031 C 
ATOM     44  C   UNL A   1      38.170  29.832  27.903  1.00  0.00     0.029 A 
ATOM     45  N   UNL A   1      39.510  29.630  29.682  1.00  0.00    -0.354 N 
ATOM     46  C   UNL A   1      38.604  31.592  33.407  1.00  0.00     0.074 A 
ATOM     47  C   UNL A   1      37.383  32.364  33.309  1.00  0.00     0.031 C 
ATOM     48  C   UNL A   1      39.202  29.050  27.545  1.00  0.00     0.029 A 
ATOM     49  C   UNL A   1      40.114  28.914  28.676  1.00  0.00     0.049 A 
ATOM     50  H   UNL A   1      39.890  29.712  30.586  1.00  0.00     0.167 HD
ATOM     51  C   UNL A   1      39.361  31.500  34.528  1.00  0.00     0.037 A 
ATOM     52  C   UNL A   1      41.276  28.231  28.660  1.00  0.00     0.037 A 
ATOM     53  C   UNL A   1      40.569  30.721  34.632  1.00  0.00     0.049 A 
ATOM     54  C   UNL A   1      42.114  28.171  29.909  1.00  0.00     0.074 A 
ATOM     55  C   UNL A   1      41.374  30.524  35.741  1.00  0.00     0.029 A 
ATOM     56  N   UNL A   1      41.150  30.019  33.587  1.00  0.00    -0.354 N 
ATOM     57  N   UNL A   1      41.881  28.692  31.089  1.00  0.00    -0.248 NA
ATOM     58  C   UNL A   1      43.376  27.421  29.824  1.00  0.00     0.031 C 
ATOM     59  C   UNL A   1      42.473  29.750  35.354  1.00  0.00     0.029 A 
ATOM     60  C   UNL A   1      42.321  29.412  34.019  1.00  0.00     0.049 A 
ATOM     61  H   UNL A   1      40.787  29.959  32.675  1.00  0.00     0.167 HD
ATOM     62  C   UNL A   1      42.947  28.307  31.893  1.00  0.00     0.074 A 
ATOM     63  C   UNL A   1      43.819  27.496  31.071  1.00  0.00     0.031 C 
ATOM     64  C   UNL A   1      43.180  28.599  33.196  1.00  0.00     0.037 A 
BRANCH  51  65
ATOM     65  C   UNL A   1      38.912  32.269  35.739  1.00  0.00     0.057 A 
ATOM     66  C   UNL A   1      38.166  31.672  36.763  1.00  0.00     0.134 A 
ATOM     67  C   UNL A   1      39.275  33.612  35.909  1.00  0.00     0.134 A 
ATOM     68  F   UNL A   1      37.779  30.390  36.664  1.00  0.00    -0.206 F 
ATOM     69  C   UNL A   1      37.773  32.387  37.897  1.00  0.00     0.040 A 
ATOM     70  C   UNL A   1      38.915  34.329  37.052  1.00  0.00     0.040 A 
ATOM     71  F   UNL A   1      39.999  34.246  34.974  1.00  0.00    -0.206 F 
ATOM     72  C   UNL A   1      38.156  33.718  38.047  1.00  0.00     0.006 A 
ENDBRANCH  51  65
BRANCH  52  73
ATOM     73  C   UNL A   1      41.719  27.536  27.423  1.00  0.00     0.057 A 
ATOM     74  C   UNL A   1      42.409  28.220  26.415  1.00  0.00     0.134 A 
ATOM     75  C   UNL A   1      41.441  26.181  27.207  1.00  0.00     0.134 A 
ATOM     76  F   UNL A   1      42.686  29.525  26.553  1.00  0.00    -0.206 F 
ATOM     77  C   UNL A   1      42.785  27.589  25.228  1.00  0.00     0.040 A 
ATOM     78  C   UNL A   1      41.839  25.530  26.038  1.00  0.00     0.040 A 
ATOM     79  F   UNL A   1      40.787  25.466  28.134  1.00  0.00    -0.206 F 
ATOM     80  C   UNL A   1      42.505  26.238  25.039  1.00  0.00     0.006 A 
ENDBRANCH  52  73
BRANCH  64  81
ATOM     81  C   UNL A   1      44.405  28.004  33.830  1.00  0.00     0.057 A 
ATOM     82  C   UNL A   1      45.621  28.697  33.894  1.00  0.00     0.134 A 
ATOM     83  C   UNL A   1      44.356  26.731  34.417  1.00  0.00     0.134 A 
ATOM     84  F   UNL A   1      45.741  29.914  33.342  1.00  0.00    -0.206 F 
ATOM     85  C   UNL A   1      46.750  28.136  34.496  1.00  0.00     0.040 A 
ATOM     86  C   UNL A   1      45.469  26.173  35.047  1.00  0.00     0.040 A 
ATOM     87  F   UNL A   1      43.221  26.016  34.399  1.00  0.00    -0.206 F 
ATOM     88  C   UNL A   1      46.673  26.873  35.081  1.00  0.00     0.006 A 
ENDBRANCH  64  81
ENDBRANCH  38  39
ENDBRANCH  30  33
ENDBRANCH  28  29
ENDBRANCH  27  28
ENDBRANCH   1  27
TORSDOF 15
ENDMDL
