MODEL 1
REMARK VINA RESULT:     -11.3      0.000      0.000
REMARK SMILES O=C(NCCCCNC(=O)[C@H]1CS[C@H](c2cc(F)ccc2F)[NH2+]1)c1ccc(-c2c3nc(c(-c4c(F)cccc4F)c4ccc([nH]4)c(-c4c(F)cccc4F)c4nc(c(-c5c(F)cccc5F)c5ccc2[nH]5)C=C4)C=C3)cc1
REMARK SMILES IDX 5 1 4 2 3 3 1 4 2 5 24 7 25 8 77 9 26 10 76 11 27 12 28 13
REMARK SMILES IDX 29 14 70 15 30 16 75 17 69 18 71 19 31 20 74 21 68 22 67 23
REMARK SMILES IDX 32 25 58 26 41 27 57 28 42 29 45 30 56 31 72 32 43 33 44 34
REMARK SMILES IDX 55 36 73 37 46 38 33 39 34 40 39 41 35 42 36 43 38 44 40 45
REMARK SMILES IDX 37 46 59 47 60 48 65 49 61 50 62 51 64 52 66 53 63 54 47 55
REMARK SMILES IDX 48 56 53 57 49 58 50 59 52 60 54 61 51 62 6 63 7 64 8 65
REMARK SMILES IDX 9 66 10 68 11 69 12 70 23 71 13 72 14 73 15 76 16 77 21 78
REMARK SMILES IDX 17 79 20 80 22 81 18 82 19 83
REMARK H PARENT 3 6 71 24 45 35 8 67 23 74 23 75
REMARK Flexibility Score: inf
ROOT
ATOM      1  C   UNL A   1      30.925  31.524  25.974  1.00  0.00     0.023 C 
ENDROOT
BRANCH   1   2
ATOM      2  C   UNL A   1      32.232  32.096  26.508  1.00  0.00     0.116 C 
BRANCH   2   3
ATOM      3  N   UNL A   1      32.097  33.455  27.014  1.00  0.00    -0.352 N 
ATOM      4  O   UNL A   1      32.531  35.209  28.373  1.00  0.00    -0.269 OA
ATOM      5  C   UNL A   1      32.858  34.101  27.959  1.00  0.00     0.251 C 
ATOM      6  H   UNL A   1      31.362  33.983  26.627  1.00  0.00     0.163 HD
BRANCH   5   7
ATOM      7  C   UNL A   1      34.058  33.431  28.493  1.00  0.00     0.039 A 
ATOM      8  C   UNL A   1      33.969  32.127  28.985  1.00  0.00     0.014 A 
ATOM      9  C   UNL A   1      35.267  34.128  28.542  1.00  0.00     0.014 A 
ATOM     10  C   UNL A   1      35.044  31.580  29.669  1.00  0.00     0.010 A 
ATOM     11  C   UNL A   1      36.377  33.537  29.149  1.00  0.00     0.010 A 
ATOM     12  C   UNL A   1      36.264  32.273  29.748  1.00  0.00    -0.014 A 
BRANCH  12  13
ATOM     13  C   UNL A   1      37.421  31.622  30.408  1.00  0.00     0.031 A 
ATOM     14  C   UNL A   1      37.752  31.890  31.848  1.00  0.00     0.074 A 
ATOM     15  C   UNL A   1      38.156  30.750  29.691  1.00  0.00     0.049 A 
ATOM     16  N   UNL A   1      38.722  31.392  32.574  1.00  0.00    -0.248 NA
ATOM     17  C   UNL A   1      36.893  32.841  32.568  1.00  0.00     0.031 C 
ATOM     18  C   UNL A   1      37.929  30.420  28.281  1.00  0.00     0.029 A 
ATOM     19  N   UNL A   1      39.225  29.970  30.048  1.00  0.00    -0.354 N 
ATOM     20  C   UNL A   1      38.604  31.983  33.826  1.00  0.00     0.074 A 
ATOM     21  C   UNL A   1      37.481  32.893  33.756  1.00  0.00     0.031 C 
ATOM     22  C   UNL A   1      38.800  29.471  27.908  1.00  0.00     0.029 A 
ATOM     23  C   UNL A   1      39.684  29.175  29.027  1.00  0.00     0.049 A 
ATOM     24  H   UNL A   1      39.623  29.980  30.948  1.00  0.00     0.167 HD
ATOM     25  C   UNL A   1      39.362  31.778  34.929  1.00  0.00     0.037 A 
ATOM     26  C   UNL A   1      40.716  28.314  28.988  1.00  0.00     0.037 A 
ATOM     27  C   UNL A   1      40.468  30.855  34.994  1.00  0.00     0.049 A 
ATOM     28  C   UNL A   1      41.548  28.122  30.221  1.00  0.00     0.074 A 
ATOM     29  C   UNL A   1      41.276  30.552  36.076  1.00  0.00     0.029 A 
ATOM     30  N   UNL A   1      40.922  30.088  33.931  1.00  0.00    -0.354 N 
ATOM     31  N   UNL A   1      41.409  28.671  31.403  1.00  0.00    -0.248 NA
ATOM     32  C   UNL A   1      42.683  27.197  30.112  1.00  0.00     0.031 C 
ATOM     33  C   UNL A   1      42.243  29.632  35.658  1.00  0.00     0.029 A 
ATOM     34  C   UNL A   1      42.011  29.329  34.326  1.00  0.00     0.049 A 
ATOM     35  H   UNL A   1      40.528  30.085  33.029  1.00  0.00     0.167 HD
ATOM     36  C   UNL A   1      42.430  28.149  32.184  1.00  0.00     0.074 A 
ATOM     37  C   UNL A   1      43.167  27.224  31.345  1.00  0.00     0.031 C 
ATOM     38  C   UNL A   1      42.733  28.415  33.477  1.00  0.00     0.037 A 
BRANCH  25  39
ATOM     39  C   UNL A   1      39.036  32.577  36.158  1.00  0.00     0.057 A 
ATOM     40  C   UNL A   1      38.221  32.069  37.178  1.00  0.00     0.134 A 
ATOM     41  C   UNL A   1      39.592  33.849  36.348  1.00  0.00     0.134 A 
ATOM     42  F   UNL A   1      37.650  30.862  37.053  1.00  0.00    -0.206 F 
ATOM     43  C   UNL A   1      37.957  32.805  38.335  1.00  0.00     0.040 A 
ATOM     44  C   UNL A   1      39.352  34.585  37.510  1.00  0.00     0.040 A 
ATOM     45  F   UNL A   1      40.387  34.392  35.414  1.00  0.00    -0.206 F 
ATOM     46  C   UNL A   1      38.529  34.064  38.506  1.00  0.00     0.006 A 
ENDBRANCH  25  39
BRANCH  26  47
ATOM     47  C   UNL A   1      41.014  27.583  27.735  1.00  0.00     0.057 A 
ATOM     48  C   UNL A   1      41.843  28.137  26.753  1.00  0.00     0.134 A 
ATOM     49  C   UNL A   1      40.499  26.302  27.500  1.00  0.00     0.134 A 
ATOM     50  F   UNL A   1      42.354  29.366  26.917  1.00  0.00    -0.206 F 
ATOM     51  C   UNL A   1      42.141  27.448  25.577  1.00  0.00     0.040 A 
ATOM     52  C   UNL A   1      40.810  25.591  26.341  1.00  0.00     0.040 A 
ATOM     53  F   UNL A   1      39.707  25.713  28.408  1.00  0.00    -0.206 F 
ATOM     54  C   UNL A   1      41.629  26.167  25.373  1.00  0.00     0.006 A 
ENDBRANCH  26  47
BRANCH  38  55
ATOM     55  C   UNL A   1      43.897  27.677  34.065  1.00  0.00     0.057 A 
ATOM     56  C   UNL A   1      45.192  28.210  34.044  1.00  0.00     0.134 A 
ATOM     57  C   UNL A   1      43.717  26.430  34.675  1.00  0.00     0.134 A 
ATOM     58  F   UNL A   1      45.431  29.394  33.459  1.00  0.00    -0.206 F 
ATOM     59  C   UNL A   1      46.272  27.516  34.591  1.00  0.00     0.040 A 
ATOM     60  C   UNL A   1      44.785  25.738  35.246  1.00  0.00     0.040 A 
ATOM     61  F   UNL A   1      42.499  25.869  34.731  1.00  0.00    -0.206 F 
ATOM     62  C   UNL A   1      46.068  26.279  35.199  1.00  0.00     0.006 A 
ENDBRANCH  38  55
ENDBRANCH  12  13
ENDBRANCH   5   7
ENDBRANCH   2   3
ENDBRANCH   1   2
BRANCH   1  63
ATOM     63  C   UNL A   1      30.344  32.268  24.777  1.00  0.00     0.023 C 
BRANCH  63  64
ATOM     64  C   UNL A   1      29.034  31.693  24.256  1.00  0.00     0.116 C 
BRANCH  64  65
ATOM     65  N   UNL A   1      29.089  31.386  22.837  1.00  0.00    -0.351 N 
ATOM     66  C   UNL A   1      29.617  30.274  22.233  1.00  0.00     0.279 C 
ATOM     67  H   UNL A   1      28.699  32.060  22.234  1.00  0.00     0.163 HD
ATOM     68  O   UNL A   1      29.496  30.138  21.016  1.00  0.00    -0.268 OA
BRANCH  66  69
ATOM     69  C   UNL A   1      30.270  29.221  23.127  1.00  0.00     0.283 C 
ATOM     70  C   UNL A   1      29.258  28.120  23.436  1.00  0.00     0.151 C 
ATOM     71  N   UNL A   1      31.482  28.632  22.508  1.00  0.00    -0.320 N 
ATOM     72  S   UNL A   1      30.223  26.587  23.429  1.00  0.00    -0.087 SA
ATOM     73  C   UNL A   1      31.827  27.473  23.339  1.00  0.00     0.277 C 
ATOM     74  H   UNL A   1      32.245  29.308  22.504  1.00  0.00     0.348 HD
ATOM     75  H   UNL A   1      31.316  28.363  21.537  1.00  0.00     0.348 HD
BRANCH  73  76
ATOM     76  C   UNL A   1      32.379  27.828  24.723  1.00  0.00     0.059 A 
ATOM     77  C   UNL A   1      31.622  27.605  25.891  1.00  0.00     0.053 A 
ATOM     78  C   UNL A   1      33.660  28.383  24.899  1.00  0.00     0.133 A 
ATOM     79  C   UNL A   1      32.086  28.022  27.138  1.00  0.00     0.123 A 
ATOM     80  C   UNL A   1      34.120  28.804  26.150  1.00  0.00     0.043 A 
ATOM     81  F   UNL A   1      34.481  28.571  23.857  1.00  0.00    -0.206 F 
ATOM     82  F   UNL A   1      31.318  27.839  28.219  1.00  0.00    -0.207 F 
ATOM     83  C   UNL A   1      33.321  28.638  27.275  1.00  0.00     0.042 A 
ENDBRANCH  73  76
ENDBRANCH  66  69
ENDBRANCH  64  65
ENDBRANCH  63  64
ENDBRANCH   1  63
TORSDOF 12
ENDMDL
MODEL 2
REMARK VINA RESULT:     -11.1      1.963      3.046
REMARK SMILES O=C(NCCCCNC(=O)[C@H]1CS[C@H](c2cc(F)ccc2F)[NH2+]1)c1ccc(-c2c3nc(c(-c4c(F)cccc4F)c4ccc([nH]4)c(-c4c(F)cccc4F)c4nc(c(-c5c(F)cccc5F)c5ccc2[nH]5)C=C4)C=C3)cc1
REMARK SMILES IDX 5 1 4 2 3 3 1 4 2 5 24 7 25 8 77 9 26 10 76 11 27 12 28 13
REMARK SMILES IDX 29 14 70 15 30 16 75 17 69 18 71 19 31 20 74 21 68 22 67 23
REMARK SMILES IDX 32 25 58 26 41 27 57 28 42 29 45 30 56 31 72 32 43 33 44 34
REMARK SMILES IDX 55 36 73 37 46 38 33 39 34 40 39 41 35 42 36 43 38 44 40 45
REMARK SMILES IDX 37 46 59 47 60 48 65 49 61 50 62 51 64 52 66 53 63 54 47 55
REMARK SMILES IDX 48 56 53 57 49 58 50 59 52 60 54 61 51 62 6 63 7 64 8 65
REMARK SMILES IDX 9 66 10 68 11 69 12 70 23 71 13 72 14 73 15 76 16 77 21 78
REMARK SMILES IDX 17 79 20 80 22 81 18 82 19 83
REMARK H PARENT 3 6 71 24 45 35 8 67 23 74 23 75
REMARK Flexibility Score: inf
ROOT
ATOM      1  C   UNL A   1      31.474  32.019  26.806  1.00  0.00     0.023 C 
ENDROOT
BRANCH   1   2
ATOM      2  C   UNL A   1      32.714  32.853  27.103  1.00  0.00     0.116 C 
BRANCH   2   3
ATOM      3  N   UNL A   1      32.402  34.192  27.582  1.00  0.00    -0.352 N 
ATOM      4  O   UNL A   1      32.533  35.979  28.961  1.00  0.00    -0.269 OA
ATOM      5  C   UNL A   1      33.004  34.908  28.590  1.00  0.00     0.251 C 
ATOM      6  H   UNL A   1      31.659  34.647  27.122  1.00  0.00     0.163 HD
BRANCH   5   7
ATOM      7  C   UNL A   1      34.206  34.356  29.241  1.00  0.00     0.039 A 
ATOM      8  C   UNL A   1      35.470  34.612  28.706  1.00  0.00     0.014 A 
ATOM      9  C   UNL A   1      34.062  33.540  30.366  1.00  0.00     0.014 A 
ATOM     10  C   UNL A   1      36.572  33.926  29.197  1.00  0.00     0.010 A 
ATOM     11  C   UNL A   1      35.187  32.925  30.917  1.00  0.00     0.010 A 
ATOM     12  C   UNL A   1      36.444  33.085  30.316  1.00  0.00    -0.014 A 
BRANCH  12  13
ATOM     13  C   UNL A   1      37.657  32.438  30.872  1.00  0.00     0.031 A 
ATOM     14  C   UNL A   1      38.292  32.926  32.142  1.00  0.00     0.074 A 
ATOM     15  C   UNL A   1      38.163  31.370  30.225  1.00  0.00     0.049 A 
ATOM     16  N   UNL A   1      39.347  32.462  32.764  1.00  0.00    -0.248 NA
ATOM     17  C   UNL A   1      37.673  34.087  32.798  1.00  0.00     0.031 C 
ATOM     18  C   UNL A   1      37.631  30.814  28.977  1.00  0.00     0.029 A 
ATOM     19  N   UNL A   1      39.218  30.552  30.530  1.00  0.00    -0.354 N 
ATOM     20  C   UNL A   1      39.531  33.283  33.869  1.00  0.00     0.074 A 
ATOM     21  C   UNL A   1      38.490  34.288  33.823  1.00  0.00     0.031 C 
ATOM     22  C   UNL A   1      38.331  29.720  28.651  1.00  0.00     0.029 A 
ATOM     23  C   UNL A   1      39.399  29.535  29.626  1.00  0.00     0.049 A 
ATOM     24  H   UNL A   1      39.790  30.680  31.321  1.00  0.00     0.167 HD
ATOM     25  C   UNL A   1      40.479  33.199  34.833  1.00  0.00     0.037 A 
ATOM     26  C   UNL A   1      40.331  28.568  29.574  1.00  0.00     0.037 A 
ATOM     27  C   UNL A   1      41.500  32.183  34.880  1.00  0.00     0.049 A 
ATOM     28  C   UNL A   1      41.378  28.511  30.646  1.00  0.00     0.074 A 
ATOM     29  C   UNL A   1      42.484  31.993  35.835  1.00  0.00     0.029 A 
ATOM     30  N   UNL A   1      41.669  31.186  33.930  1.00  0.00    -0.354 N 
ATOM     31  N   UNL A   1      41.524  29.281  31.697  1.00  0.00    -0.248 NA
ATOM     32  C   UNL A   1      42.393  27.457  30.521  1.00  0.00     0.031 C 
ATOM     33  C   UNL A   1      43.273  30.907  35.442  1.00  0.00     0.029 A 
ATOM     34  C   UNL A   1      42.754  30.392  34.265  1.00  0.00     0.049 A 
ATOM     35  H   UNL A   1      41.102  31.062  33.136  1.00  0.00     0.167 HD
ATOM     36  C   UNL A   1      42.639  28.798  32.367  1.00  0.00     0.074 A 
ATOM     37  C   UNL A   1      43.118  27.656  31.613  1.00  0.00     0.031 C 
ATOM     38  C   UNL A   1      43.216  29.261  33.501  1.00  0.00     0.037 A 
BRANCH  25  39
ATOM     39  C   UNL A   1      40.471  34.242  35.912  1.00  0.00     0.057 A 
ATOM     40  C   UNL A   1      41.173  35.447  35.784  1.00  0.00     0.134 A 
ATOM     41  C   UNL A   1      39.703  34.063  37.071  1.00  0.00     0.134 A 
ATOM     42  F   UNL A   1      41.936  35.677  34.704  1.00  0.00    -0.206 F 
ATOM     43  C   UNL A   1      41.127  36.428  36.776  1.00  0.00     0.040 A 
ATOM     44  C   UNL A   1      39.632  35.045  38.060  1.00  0.00     0.040 A 
ATOM     45  F   UNL A   1      39.000  32.935  37.255  1.00  0.00    -0.206 F 
ATOM     46  C   UNL A   1      40.349  36.231  37.916  1.00  0.00     0.006 A 
ENDBRANCH  25  39
BRANCH  26  47
ATOM     47  C   UNL A   1      40.313  27.589  28.462  1.00  0.00     0.057 A 
ATOM     48  C   UNL A   1      40.969  27.852  27.255  1.00  0.00     0.134 A 
ATOM     49  C   UNL A   1      39.661  26.356  28.589  1.00  0.00     0.134 A 
ATOM     50  F   UNL A   1      41.598  29.023  27.070  1.00  0.00    -0.206 F 
ATOM     51  C   UNL A   1      40.969  26.930  26.208  1.00  0.00     0.040 A 
ATOM     52  C   UNL A   1      39.676  25.413  27.562  1.00  0.00     0.040 A 
ATOM     53  F   UNL A   1      39.025  26.041  29.727  1.00  0.00    -0.206 F 
ATOM     54  C   UNL A   1      40.327  25.702  26.365  1.00  0.00     0.006 A 
ENDBRANCH  26  47
BRANCH  38  55
ATOM     55  C   UNL A   1      44.415  28.514  34.003  1.00  0.00     0.057 A 
ATOM     56  C   UNL A   1      45.716  28.883  33.640  1.00  0.00     0.134 A 
ATOM     57  C   UNL A   1      44.266  27.428  34.874  1.00  0.00     0.134 A 
ATOM     58  F   UNL A   1      45.922  29.905  32.796  1.00  0.00    -0.206 F 
ATOM     59  C   UNL A   1      46.828  28.182  34.109  1.00  0.00     0.040 A 
ATOM     60  C   UNL A   1      45.371  26.734  35.368  1.00  0.00     0.040 A 
ATOM     61  F   UNL A   1      43.045  27.029  35.263  1.00  0.00    -0.206 F 
ATOM     62  C   UNL A   1      46.656  27.108  34.980  1.00  0.00     0.006 A 
ENDBRANCH  38  55
ENDBRANCH  12  13
ENDBRANCH   5   7
ENDBRANCH   2   3
ENDBRANCH   1   2
BRANCH   1  63
ATOM     63  C   UNL A   1      31.702  30.511  26.808  1.00  0.00     0.023 C 
BRANCH  63  64
ATOM     64  C   UNL A   1      32.877  30.054  25.955  1.00  0.00     0.116 C 
BRANCH  64  65
ATOM     65  N   UNL A   1      33.379  28.751  26.356  1.00  0.00    -0.351 N 
ATOM     66  C   UNL A   1      33.123  27.533  25.780  1.00  0.00     0.279 C 
ATOM     67  H   UNL A   1      33.976  28.741  27.138  1.00  0.00     0.163 HD
ATOM     68  O   UNL A   1      33.709  26.536  26.200  1.00  0.00    -0.268 OA
BRANCH  66  69
ATOM     69  C   UNL A   1      32.169  27.496  24.588  1.00  0.00     0.283 C 
ATOM     70  C   UNL A   1      32.974  27.367  23.296  1.00  0.00     0.151 C 
ATOM     71  N   UNL A   1      31.191  26.385  24.685  1.00  0.00    -0.320 N 
ATOM     72  S   UNL A   1      31.988  26.272  22.242  1.00  0.00    -0.087 SA
ATOM     73  C   UNL A   1      30.542  26.313  23.371  1.00  0.00     0.277 C 
ATOM     74  H   UNL A   1      30.503  26.577  25.412  1.00  0.00     0.348 HD
ATOM     75  H   UNL A   1      31.645  25.504  24.929  1.00  0.00     0.348 HD
BRANCH  73  76
ATOM     76  C   UNL A   1      29.594  27.476  23.067  1.00  0.00     0.059 A 
ATOM     77  C   UNL A   1      30.014  28.578  22.293  1.00  0.00     0.053 A 
ATOM     78  C   UNL A   1      28.268  27.504  23.536  1.00  0.00     0.133 A 
ATOM     79  C   UNL A   1      29.181  29.680  22.103  1.00  0.00     0.123 A 
ATOM     80  C   UNL A   1      27.439  28.614  23.348  1.00  0.00     0.043 A 
ATOM     81  F   UNL A   1      27.756  26.475  24.223  1.00  0.00    -0.206 F 
ATOM     82  F   UNL A   1      29.631  30.729  21.404  1.00  0.00    -0.207 F 
ATOM     83  C   UNL A   1      27.904  29.717  22.642  1.00  0.00     0.042 A 
ENDBRANCH  73  76
ENDBRANCH  66  69
ENDBRANCH  64  65
ENDBRANCH  63  64
ENDBRANCH   1  63
TORSDOF 12
ENDMDL
MODEL 3
REMARK VINA RESULT:     -11.1      4.547      7.194
REMARK SMILES O=C(NCCCCNC(=O)[C@H]1CS[C@H](c2cc(F)ccc2F)[NH2+]1)c1ccc(-c2c3nc(c(-c4c(F)cccc4F)c4ccc([nH]4)c(-c4c(F)cccc4F)c4nc(c(-c5c(F)cccc5F)c5ccc2[nH]5)C=C4)C=C3)cc1
REMARK SMILES IDX 5 1 4 2 3 3 1 4 2 5 24 7 25 8 77 9 26 10 76 11 27 12 28 13
REMARK SMILES IDX 29 14 70 15 30 16 75 17 69 18 71 19 31 20 74 21 68 22 67 23
REMARK SMILES IDX 32 25 58 26 41 27 57 28 42 29 45 30 56 31 72 32 43 33 44 34
REMARK SMILES IDX 55 36 73 37 46 38 33 39 34 40 39 41 35 42 36 43 38 44 40 45
REMARK SMILES IDX 37 46 59 47 60 48 65 49 61 50 62 51 64 52 66 53 63 54 47 55
REMARK SMILES IDX 48 56 53 57 49 58 50 59 52 60 54 61 51 62 6 63 7 64 8 65
REMARK SMILES IDX 9 66 10 68 11 69 12 70 23 71 13 72 14 73 15 76 16 77 21 78
REMARK SMILES IDX 17 79 20 80 22 81 18 82 19 83
REMARK H PARENT 3 6 71 24 45 35 8 67 23 74 23 75
REMARK Flexibility Score: inf
ROOT
ATOM      1  C   UNL A   1      34.379  33.557  29.030  1.00  0.00     0.023 C 
ENDROOT
BRANCH   1   2
ATOM      2  C   UNL A   1      34.928  32.578  28.000  1.00  0.00     0.116 C 
BRANCH   2   3
ATOM      3  N   UNL A   1      34.179  31.330  27.941  1.00  0.00    -0.352 N 
ATOM      4  O   UNL A   1      33.896  29.092  27.788  1.00  0.00    -0.269 OA
ATOM      5  C   UNL A   1      34.651  30.040  27.984  1.00  0.00     0.251 C 
ATOM      6  H   UNL A   1      33.203  31.424  27.858  1.00  0.00     0.163 HD
BRANCH   5   7
ATOM      7  C   UNL A   1      36.085  29.810  28.239  1.00  0.00     0.039 A 
ATOM      8  C   UNL A   1      37.025  30.085  27.243  1.00  0.00     0.014 A 
ATOM      9  C   UNL A   1      36.486  29.275  29.466  1.00  0.00     0.014 A 
ATOM     10  C   UNL A   1      38.340  29.676  27.413  1.00  0.00     0.010 A 
ATOM     11  C   UNL A   1      37.828  28.951  29.669  1.00  0.00     0.010 A 
ATOM     12  C   UNL A   1      38.759  29.117  28.632  1.00  0.00    -0.014 A 
BRANCH  12  13
ATOM     13  C   UNL A   1      40.190  28.775  28.813  1.00  0.00     0.031 A 
ATOM     14  C   UNL A   1      41.149  29.736  29.455  1.00  0.00     0.074 A 
ATOM     15  C   UNL A   1      40.609  27.558  28.417  1.00  0.00     0.049 A 
ATOM     16  N   UNL A   1      42.427  29.583  29.696  1.00  0.00    -0.248 NA
ATOM     17  C   UNL A   1      40.612  31.039  29.876  1.00  0.00     0.031 C 
ATOM     18  C   UNL A   1      39.765  26.547  27.774  1.00  0.00     0.029 A 
ATOM     19  N   UNL A   1      41.836  26.956  28.510  1.00  0.00    -0.354 N 
ATOM     20  C   UNL A   1      42.852  30.772  30.275  1.00  0.00     0.074 A 
ATOM     21  C   UNL A   1      41.700  31.646  30.331  1.00  0.00     0.031 C 
ATOM     22  C   UNL A   1      40.486  25.435  27.576  1.00  0.00     0.029 A 
ATOM     23  C   UNL A   1      41.854  25.675  28.015  1.00  0.00     0.049 A 
ATOM     24  H   UNL A   1      42.626  27.398  28.895  1.00  0.00     0.167 HD
ATOM     25  C   UNL A   1      44.089  31.097  30.721  1.00  0.00     0.037 A 
ATOM     26  C   UNL A   1      42.865  24.796  27.908  1.00  0.00     0.037 A 
ATOM     27  C   UNL A   1      45.226  30.213  30.677  1.00  0.00     0.049 A 
ATOM     28  C   UNL A   1      44.227  25.191  28.395  1.00  0.00     0.074 A 
ATOM     29  C   UNL A   1      46.512  30.439  31.135  1.00  0.00     0.029 A 
ATOM     30  N   UNL A   1      45.213  28.933  30.141  1.00  0.00    -0.354 N 
ATOM     31  N   UNL A   1      44.607  26.311  28.961  1.00  0.00    -0.248 NA
ATOM     32  C   UNL A   1      45.301  24.205  28.221  1.00  0.00     0.031 C 
ATOM     33  C   UNL A   1      47.287  29.311  30.841  1.00  0.00     0.029 A 
ATOM     34  C   UNL A   1      46.473  28.366  30.239  1.00  0.00     0.049 A 
ATOM     35  H   UNL A   1      44.424  28.493  29.750  1.00  0.00     0.167 HD
ATOM     36  C   UNL A   1      45.961  26.161  29.224  1.00  0.00     0.074 A 
ATOM     37  C   UNL A   1      46.330  24.833  28.774  1.00  0.00     0.031 C 
ATOM     38  C   UNL A   1      46.822  27.044  29.783  1.00  0.00     0.037 A 
BRANCH  25  39
ATOM     39  C   UNL A   1      44.288  32.475  31.282  1.00  0.00     0.057 A 
ATOM     40  C   UNL A   1      44.625  33.565  30.470  1.00  0.00     0.134 A 
ATOM     41  C   UNL A   1      44.083  32.725  32.646  1.00  0.00     0.134 A 
ATOM     42  F   UNL A   1      44.846  33.392  29.158  1.00  0.00    -0.206 F 
ATOM     43  C   UNL A   1      44.769  34.851  30.996  1.00  0.00     0.040 A 
ATOM     44  C   UNL A   1      44.202  34.010  33.179  1.00  0.00     0.040 A 
ATOM     45  F   UNL A   1      43.750  31.728  33.479  1.00  0.00    -0.206 F 
ATOM     46  C   UNL A   1      44.550  35.077  32.354  1.00  0.00     0.006 A 
ENDBRANCH  25  39
BRANCH  26  47
ATOM     47  C   UNL A   1      42.618  23.464  27.308  1.00  0.00     0.057 A 
ATOM     48  C   UNL A   1      42.833  23.232  25.946  1.00  0.00     0.134 A 
ATOM     49  C   UNL A   1      42.185  22.384  28.088  1.00  0.00     0.134 A 
ATOM     50  F   UNL A   1      43.234  24.232  25.147  1.00  0.00    -0.206 F 
ATOM     51  C   UNL A   1      42.618  21.977  25.376  1.00  0.00     0.040 A 
ATOM     52  C   UNL A   1      41.990  21.117  27.538  1.00  0.00     0.040 A 
ATOM     53  F   UNL A   1      41.971  22.540  29.403  1.00  0.00    -0.206 F 
ATOM     54  C   UNL A   1      42.202  20.913  26.176  1.00  0.00     0.006 A 
ENDBRANCH  26  47
BRANCH  38  55
ATOM     55  C   UNL A   1      48.238  26.589  29.959  1.00  0.00     0.057 A 
ATOM     56  C   UNL A   1      48.651  25.894  31.103  1.00  0.00     0.134 A 
ATOM     57  C   UNL A   1      49.194  26.831  28.965  1.00  0.00     0.134 A 
ATOM     58  F   UNL A   1      47.785  25.646  32.097  1.00  0.00    -0.206 F 
ATOM     59  C   UNL A   1      49.973  25.475  31.261  1.00  0.00     0.040 A 
ATOM     60  C   UNL A   1      50.513  26.397  29.102  1.00  0.00     0.040 A 
ATOM     61  F   UNL A   1      48.859  27.487  27.844  1.00  0.00    -0.206 F 
ATOM     62  C   UNL A   1      50.906  25.722  30.256  1.00  0.00     0.006 A 
ENDBRANCH  38  55
ENDBRANCH  12  13
ENDBRANCH   5   7
ENDBRANCH   2   3
ENDBRANCH   1   2
BRANCH   1  63
ATOM     63  C   UNL A   1      33.487  34.653  28.457  1.00  0.00     0.023 C 
BRANCH  63  64
ATOM     64  C   UNL A   1      33.637  36.005  29.141  1.00  0.00     0.116 C 
BRANCH  64  65
ATOM     65  N   UNL A   1      32.552  36.281  30.067  1.00  0.00    -0.351 N 
ATOM     66  C   UNL A   1      32.525  36.075  31.423  1.00  0.00     0.279 C 
ATOM     67  H   UNL A   1      31.734  36.661  29.672  1.00  0.00     0.163 HD
ATOM     68  O   UNL A   1      31.547  36.453  32.067  1.00  0.00    -0.268 OA
BRANCH  66  69
ATOM     69  C   UNL A   1      33.757  35.448  32.072  1.00  0.00     0.283 C 
ATOM     70  C   UNL A   1      34.229  36.330  33.225  1.00  0.00     0.151 C 
ATOM     71  N   UNL A   1      33.494  34.073  32.564  1.00  0.00    -0.320 N 
ATOM     72  S   UNL A   1      34.781  35.170  34.502  1.00  0.00    -0.087 SA
ATOM     73  C   UNL A   1      34.657  33.718  33.386  1.00  0.00     0.277 C 
ATOM     74  H   UNL A   1      33.400  33.426  31.781  1.00  0.00     0.348 HD
ATOM     75  H   UNL A   1      32.626  34.024  33.097  1.00  0.00     0.348 HD
BRANCH  73  76
ATOM     76  C   UNL A   1      35.944  33.477  32.593  1.00  0.00     0.059 A 
ATOM     77  C   UNL A   1      37.081  34.290  32.779  1.00  0.00     0.053 A 
ATOM     78  C   UNL A   1      36.060  32.438  31.651  1.00  0.00     0.133 A 
ATOM     79  C   UNL A   1      38.216  34.130  31.985  1.00  0.00     0.123 A 
ATOM     80  C   UNL A   1      37.198  32.285  30.852  1.00  0.00     0.043 A 
ATOM     81  F   UNL A   1      35.058  31.572  31.451  1.00  0.00    -0.206 F 
ATOM     82  F   UNL A   1      39.257  34.953  32.156  1.00  0.00    -0.207 F 
ATOM     83  C   UNL A   1      38.276  33.147  31.008  1.00  0.00     0.042 A 
ENDBRANCH  73  76
ENDBRANCH  66  69
ENDBRANCH  64  65
ENDBRANCH  63  64
ENDBRANCH   1  63
TORSDOF 12
ENDMDL
