MODEL 1
REMARK VINA RESULT:     -11.3      0.000      0.000
REMARK SMILES Cn1cccc1C(=O)N[C@](C)(C(=O)NCCCCNC(=O)c1ccc(-c2c3nc(c(-c4c(F)cccc4F)c4ccc([nH]4)c(-c4c(F)cccc4F)c4nc(c(-c5c(F)cccc5F)c5ccc2[nH]5)C=C4)C=C3)cc1)C(F)(F)F
REMARK SMILES IDX 16 1 15 2 14 3 12 4 13 5 10 7 11 8 9 9 7 10 8 11 6 13 1 14
REMARK SMILES IDX 2 15 3 16 4 17 5 18 76 19 77 20 78 21 79 22 17 23 18 24
REMARK SMILES IDX 19 25 20 26 21 28 22 29 23 30 75 31 24 32 74 33 25 34 26 35
REMARK SMILES IDX 27 36 68 37 28 38 73 39 67 40 69 41 29 42 72 43 66 44 65 45
REMARK SMILES IDX 30 47 56 48 39 49 55 50 40 51 43 52 54 53 70 54 41 55 42 56
REMARK SMILES IDX 53 58 71 59 44 60 31 61 32 62 37 63 33 64 34 65 36 66 38 67
REMARK SMILES IDX 35 68 57 69 58 70 63 71 59 72 60 73 62 74 64 75 61 76 45 77
REMARK SMILES IDX 46 78 51 79 47 80 48 81 50 82 52 83 49 84
REMARK H PARENT 14 6 9 12 19 27 69 46 43 57
REMARK Flexibility Score: inf
ROOT
ATOM      1  C   UNL A   1      37.148  21.627  24.428  1.00  0.00     0.023 C 
ENDROOT
BRANCH   1   2
ATOM      2  C   UNL A   1      36.500  22.567  25.448  1.00  0.00     0.116 C 
BRANCH   2   3
ATOM      3  N   UNL A   1      35.635  21.807  26.337  1.00  0.00    -0.354 N 
ATOM      4  C   UNL A   1      34.286  21.628  26.384  1.00  0.00     0.254 C 
ATOM      5  O   UNL A   1      33.861  21.250  27.484  1.00  0.00    -0.272 OA
ATOM      6  H   UNL A   1      36.121  21.327  27.045  1.00  0.00     0.163 HD
BRANCH   4   7
ATOM      7  C   UNL A   1      33.320  21.726  25.173  1.00  0.00     0.212 C 
ATOM      8  C   UNL A   1      31.876  22.088  25.583  1.00  0.00     0.056 C 
BRANCH   7   9
ATOM      9  N   UNL A   1      33.701  22.526  23.979  1.00  0.00    -0.329 N 
ATOM     10  C   UNL A   1      33.677  23.777  23.455  1.00  0.00     0.268 C 
ATOM     11  O   UNL A   1      34.002  23.739  22.259  1.00  0.00    -0.268 OA
ATOM     12  H   UNL A   1      34.130  21.926  23.327  1.00  0.00     0.165 HD
BRANCH  10  13
ATOM     13  C   UNL A   1      33.436  25.066  24.091  1.00  0.00     0.106 A 
ATOM     14  C   UNL A   1      31.784  26.528  22.762  1.00  0.00     0.150 C 
ATOM     15  N   UNL A   1      32.674  26.199  23.848  1.00  0.00    -0.347 N 
ATOM     16  C   UNL A   1      32.825  27.109  24.878  1.00  0.00     0.086 A 
ATOM     17  C   UNL A   1      33.701  26.603  25.796  1.00  0.00     0.020 A 
ATOM     18  C   UNL A   1      34.092  25.350  25.302  1.00  0.00     0.033 A 
ENDBRANCH  10  13
ENDBRANCH   7   9
BRANCH   7  19
ATOM     19  C   UNL A   1      33.265  20.219  24.753  1.00  0.00     0.420 C 
ATOM     20  F   UNL A   1      32.550  19.440  25.589  1.00  0.00    -0.168 F 
ATOM     21  F   UNL A   1      32.682  20.108  23.526  1.00  0.00    -0.168 F 
ATOM     22  F   UNL A   1      34.502  19.683  24.624  1.00  0.00    -0.168 F 
ENDBRANCH   7  19
ENDBRANCH   4   7
ENDBRANCH   2   3
ENDBRANCH   1   2
BRANCH   1  23
ATOM     23  C   UNL A   1      37.774  20.367  25.012  1.00  0.00     0.023 C 
BRANCH  23  24
ATOM     24  C   UNL A   1      39.028  20.628  25.829  1.00  0.00     0.116 C 
BRANCH  24  25
ATOM     25  N   UNL A   1      40.005  19.546  25.772  1.00  0.00    -0.352 N 
ATOM     26  C   UNL A   1      41.347  19.574  26.079  1.00  0.00     0.251 C 
ATOM     27  H   UNL A   1      39.657  18.675  25.473  1.00  0.00     0.163 HD
ATOM     28  O   UNL A   1      42.050  18.583  25.911  1.00  0.00    -0.269 OA
BRANCH  26  29
ATOM     29  C   UNL A   1      41.950  20.836  26.558  1.00  0.00     0.039 A 
ATOM     30  C   UNL A   1      42.393  21.773  25.622  1.00  0.00     0.014 A 
ATOM     31  C   UNL A   1      41.989  21.130  27.921  1.00  0.00     0.014 A 
ATOM     32  C   UNL A   1      42.773  23.047  26.050  1.00  0.00     0.010 A 
ATOM     33  C   UNL A   1      42.261  22.426  28.334  1.00  0.00     0.010 A 
ATOM     34  C   UNL A   1      42.650  23.402  27.403  1.00  0.00    -0.014 A 
BRANCH  34  35
ATOM     35  C   UNL A   1      42.918  24.782  27.878  1.00  0.00     0.031 A 
ATOM     36  C   UNL A   1      44.318  25.183  28.256  1.00  0.00     0.074 A 
ATOM     37  C   UNL A   1      41.896  25.639  28.072  1.00  0.00     0.049 A 
ATOM     38  N   UNL A   1      44.740  26.285  28.822  1.00  0.00    -0.248 NA
ATOM     39  C   UNL A   1      45.378  24.192  28.010  1.00  0.00     0.031 C 
ATOM     40  C   UNL A   1      40.482  25.351  27.813  1.00  0.00     0.029 A 
ATOM     41  N   UNL A   1      41.888  26.927  28.545  1.00  0.00    -0.354 N 
ATOM     42  C   UNL A   1      46.100  26.101  29.035  1.00  0.00     0.074 A 
ATOM     43  C   UNL A   1      46.422  24.764  28.588  1.00  0.00     0.031 C 
ATOM     44  C   UNL A   1      39.751  26.439  28.102  1.00  0.00     0.029 A 
ATOM     45  C   UNL A   1      40.635  27.488  28.599  1.00  0.00     0.049 A 
ATOM     46  H   UNL A   1      42.703  27.404  28.820  1.00  0.00     0.167 HD
ATOM     47  C   UNL A   1      47.007  26.976  29.529  1.00  0.00     0.037 A 
ATOM     48  C   UNL A   1      40.243  28.710  29.007  1.00  0.00     0.037 A 
ATOM     49  C   UNL A   1      46.696  28.327  29.911  1.00  0.00     0.049 A 
ATOM     50  C   UNL A   1      41.276  29.686  29.496  1.00  0.00     0.074 A 
ATOM     51  C   UNL A   1      47.556  29.321  30.342  1.00  0.00     0.029 A 
ATOM     52  N   UNL A   1      45.423  28.877  29.893  1.00  0.00    -0.354 N 
ATOM     53  N   UNL A   1      42.569  29.520  29.631  1.00  0.00    -0.248 NA
ATOM     54  C   UNL A   1      40.796  31.019  29.885  1.00  0.00     0.031 C 
ATOM     55  C   UNL A   1      46.800  30.467  30.607  1.00  0.00     0.029 A 
ATOM     56  C   UNL A   1      45.474  30.195  30.311  1.00  0.00     0.049 A 
ATOM     57  H   UNL A   1      44.605  28.400  29.621  1.00  0.00     0.167 HD
ATOM     58  C   UNL A   1      43.062  30.733  30.095  1.00  0.00     0.074 A 
ATOM     59  C   UNL A   1      41.929  31.629  30.208  1.00  0.00     0.031 C 
ATOM     60  C   UNL A   1      44.336  31.074  30.403  1.00  0.00     0.037 A 
BRANCH  47  61
ATOM     61  C   UNL A   1      48.420  26.496  29.666  1.00  0.00     0.057 A 
ATOM     62  C   UNL A   1      49.357  26.658  28.637  1.00  0.00     0.134 A 
ATOM     63  C   UNL A   1      48.854  25.872  30.841  1.00  0.00     0.134 A 
ATOM     64  F   UNL A   1      49.002  27.234  27.478  1.00  0.00    -0.206 F 
ATOM     65  C   UNL A   1      50.665  26.185  28.758  1.00  0.00     0.040 A 
ATOM     66  C   UNL A   1      50.167  25.420  30.986  1.00  0.00     0.040 A 
ATOM     67  F   UNL A   1      48.010  25.689  31.868  1.00  0.00    -0.206 F 
ATOM     68  C   UNL A   1      51.074  25.569  29.938  1.00  0.00     0.006 A 
ENDBRANCH  47  61
BRANCH  48  69
ATOM     69  C   UNL A   1      38.812  29.097  28.929  1.00  0.00     0.057 A 
ATOM     70  C   UNL A   1      37.990  29.028  30.060  1.00  0.00     0.134 A 
ATOM     71  C   UNL A   1      38.235  29.542  27.736  1.00  0.00     0.134 A 
ATOM     72  F   UNL A   1      38.484  28.593  31.229  1.00  0.00    -0.206 F 
ATOM     73  C   UNL A   1      36.638  29.372  30.003  1.00  0.00     0.040 A 
ATOM     74  C   UNL A   1      36.889  29.908  27.669  1.00  0.00     0.040 A 
ATOM     75  F   UNL A   1      38.972  29.638  26.620  1.00  0.00    -0.206 F 
ATOM     76  C   UNL A   1      36.086  29.817  28.804  1.00  0.00     0.006 A 
ENDBRANCH  48  69
BRANCH  60  77
ATOM     77  C   UNL A   1      44.578  32.480  30.857  1.00  0.00     0.057 A 
ATOM     78  C   UNL A   1      44.568  32.829  32.213  1.00  0.00     0.134 A 
ATOM     79  C   UNL A   1      44.868  33.488  29.928  1.00  0.00     0.134 A 
ATOM     80  F   UNL A   1      44.284  31.910  33.148  1.00  0.00    -0.206 F 
ATOM     81  C   UNL A   1      44.826  34.136  32.629  1.00  0.00     0.040 A 
ATOM     82  C   UNL A   1      45.149  34.793  30.334  1.00  0.00     0.040 A 
ATOM     83  F   UNL A   1      44.899  33.216  28.615  1.00  0.00    -0.206 F 
ATOM     84  C   UNL A   1      45.124  35.120  31.689  1.00  0.00     0.006 A 
ENDBRANCH  60  77
ENDBRANCH  34  35
ENDBRANCH  26  29
ENDBRANCH  24  25
ENDBRANCH  23  24
ENDBRANCH   1  23
TORSDOF 14
ENDMDL
MODEL 2
REMARK VINA RESULT:     -11.2      1.234      1.967
REMARK SMILES Cn1cccc1C(=O)N[C@](C)(C(=O)NCCCCNC(=O)c1ccc(-c2c3nc(c(-c4c(F)cccc4F)c4ccc([nH]4)c(-c4c(F)cccc4F)c4nc(c(-c5c(F)cccc5F)c5ccc2[nH]5)C=C4)C=C3)cc1)C(F)(F)F
REMARK SMILES IDX 16 1 15 2 14 3 12 4 13 5 10 7 11 8 9 9 7 10 8 11 6 13 1 14
REMARK SMILES IDX 2 15 3 16 4 17 5 18 76 19 77 20 78 21 79 22 17 23 18 24
REMARK SMILES IDX 19 25 20 26 21 28 22 29 23 30 75 31 24 32 74 33 25 34 26 35
REMARK SMILES IDX 27 36 68 37 28 38 73 39 67 40 69 41 29 42 72 43 66 44 65 45
REMARK SMILES IDX 30 47 56 48 39 49 55 50 40 51 43 52 54 53 70 54 41 55 42 56
REMARK SMILES IDX 53 58 71 59 44 60 31 61 32 62 37 63 33 64 34 65 36 66 38 67
REMARK SMILES IDX 35 68 57 69 58 70 63 71 59 72 60 73 62 74 64 75 61 76 45 77
REMARK SMILES IDX 46 78 51 79 47 80 48 81 50 82 52 83 49 84
REMARK H PARENT 14 6 9 12 19 27 69 46 43 57
REMARK Flexibility Score: inf
ROOT
ATOM      1  C   UNL A   1      37.042  21.273  24.525  1.00  0.00     0.023 C 
ENDROOT
BRANCH   1   2
ATOM      2  C   UNL A   1      36.538  22.206  25.630  1.00  0.00     0.116 C 
BRANCH   2   3
ATOM      3  N   UNL A   1      35.558  21.514  26.452  1.00  0.00    -0.354 N 
ATOM      4  C   UNL A   1      34.202  21.417  26.389  1.00  0.00     0.254 C 
ATOM      5  O   UNL A   1      33.665  21.081  27.453  1.00  0.00    -0.272 OA
ATOM      6  H   UNL A   1      35.954  21.015  27.203  1.00  0.00     0.163 HD
BRANCH   4   7
ATOM      7  C   UNL A   1      33.346  21.555  25.101  1.00  0.00     0.212 C 
ATOM      8  C   UNL A   1      31.915  22.062  25.380  1.00  0.00     0.056 C 
BRANCH   7   9
ATOM      9  N   UNL A   1      33.892  22.270  23.916  1.00  0.00    -0.329 N 
ATOM     10  C   UNL A   1      34.052  23.498  23.366  1.00  0.00     0.268 C 
ATOM     11  O   UNL A   1      34.441  23.388  22.194  1.00  0.00    -0.268 OA
ATOM     12  H   UNL A   1      34.284  21.604  23.306  1.00  0.00     0.165 HD
BRANCH  10  13
ATOM     13  C   UNL A   1      33.931  24.825  23.959  1.00  0.00     0.106 A 
ATOM     14  C   UNL A   1      33.162  26.599  22.258  1.00  0.00     0.150 C 
ATOM     15  N   UNL A   1      33.568  26.098  23.548  1.00  0.00    -0.347 N 
ATOM     16  C   UNL A   1      33.599  26.974  24.618  1.00  0.00     0.086 A 
ATOM     17  C   UNL A   1      34.002  26.301  25.735  1.00  0.00     0.020 A 
ATOM     18  C   UNL A   1      34.226  24.978  25.325  1.00  0.00     0.033 A 
ENDBRANCH  10  13
ENDBRANCH   7   9
BRANCH   7  19
ATOM     19  C   UNL A   1      33.183  20.043  24.726  1.00  0.00     0.420 C 
ATOM     20  F   UNL A   1      32.760  19.832  23.464  1.00  0.00    -0.168 F 
ATOM     21  F   UNL A   1      34.385  19.411  24.843  1.00  0.00    -0.168 F 
ATOM     22  F   UNL A   1      32.343  19.399  25.570  1.00  0.00    -0.168 F 
ENDBRANCH   7  19
ENDBRANCH   4   7
ENDBRANCH   2   3
ENDBRANCH   1   2
BRANCH   1  23
ATOM     23  C   UNL A   1      37.782  20.034  25.011  1.00  0.00     0.023 C 
BRANCH  23  24
ATOM     24  C   UNL A   1      39.073  20.343  25.751  1.00  0.00     0.116 C 
BRANCH  24  25
ATOM     25  N   UNL A   1      39.993  19.213  25.829  1.00  0.00    -0.352 N 
ATOM     26  C   UNL A   1      41.338  19.211  26.124  1.00  0.00     0.251 C 
ATOM     27  H   UNL A   1      39.598  18.330  25.646  1.00  0.00     0.163 HD
ATOM     28  O   UNL A   1      41.988  18.171  26.082  1.00  0.00    -0.269 OA
BRANCH  26  29
ATOM     29  C   UNL A   1      42.010  20.490  26.434  1.00  0.00     0.039 A 
ATOM     30  C   UNL A   1      42.438  21.302  25.381  1.00  0.00     0.014 A 
ATOM     31  C   UNL A   1      42.128  20.927  27.754  1.00  0.00     0.014 A 
ATOM     32  C   UNL A   1      42.885  22.598  25.649  1.00  0.00     0.010 A 
ATOM     33  C   UNL A   1      42.467  22.247  28.009  1.00  0.00     0.010 A 
ATOM     34  C   UNL A   1      42.844  23.101  26.960  1.00  0.00    -0.014 A 
BRANCH  34  35
ATOM     35  C   UNL A   1      43.186  24.512  27.269  1.00  0.00     0.031 A 
ATOM     36  C   UNL A   1      44.616  24.970  27.184  1.00  0.00     0.074 A 
ATOM     37  C   UNL A   1      42.235  25.351  27.726  1.00  0.00     0.049 A 
ATOM     38  N   UNL A   1      45.143  26.112  27.544  1.00  0.00    -0.248 NA
ATOM     39  C   UNL A   1      45.592  23.994  26.671  1.00  0.00     0.031 C 
ATOM     40  C   UNL A   1      40.824  25.012  27.924  1.00  0.00     0.029 A 
ATOM     41  N   UNL A   1      42.318  26.662  28.122  1.00  0.00    -0.354 N 
ATOM     42  C   UNL A   1      46.511  25.976  27.340  1.00  0.00     0.074 A 
ATOM     43  C   UNL A   1      46.738  24.624  26.877  1.00  0.00     0.031 C 
ATOM     44  C   UNL A   1      40.169  26.095  28.373  1.00  0.00     0.029 A 
ATOM     45  C   UNL A   1      41.118  27.192  28.530  1.00  0.00     0.049 A 
ATOM     46  H   UNL A   1      43.157  27.176  28.114  1.00  0.00     0.167 HD
ATOM     47  C   UNL A   1      47.487  26.900  27.495  1.00  0.00     0.037 A 
ATOM     48  C   UNL A   1      40.817  28.424  28.983  1.00  0.00     0.037 A 
ATOM     49  C   UNL A   1      47.250  28.261  27.893  1.00  0.00     0.049 A 
ATOM     50  C   UNL A   1      41.908  29.453  29.090  1.00  0.00     0.074 A 
ATOM     51  C   UNL A   1      48.159  29.300  27.996  1.00  0.00     0.029 A 
ATOM     52  N   UNL A   1      46.010  28.776  28.239  1.00  0.00    -0.354 N 
ATOM     53  N   UNL A   1      43.187  29.329  28.832  1.00  0.00    -0.248 NA
ATOM     54  C   UNL A   1      41.513  30.793  29.546  1.00  0.00     0.031 C 
ATOM     55  C   UNL A   1      47.471  30.439  28.428  1.00  0.00     0.029 A 
ATOM     56  C   UNL A   1      46.130  30.116  28.562  1.00  0.00     0.049 A 
ATOM     57  H   UNL A   1      45.169  28.263  28.251  1.00  0.00     0.167 HD
ATOM     58  C   UNL A   1      43.746  30.578  29.069  1.00  0.00     0.074 A 
ATOM     59  C   UNL A   1      42.664  31.449  29.481  1.00  0.00     0.031 C 
ATOM     60  C   UNL A   1      45.038  30.968  28.958  1.00  0.00     0.037 A 
BRANCH  47  61
ATOM     61  C   UNL A   1      48.895  26.466  27.216  1.00  0.00     0.057 A 
ATOM     62  C   UNL A   1      49.443  26.525  25.928  1.00  0.00     0.134 A 
ATOM     63  C   UNL A   1      49.715  25.990  28.245  1.00  0.00     0.134 A 
ATOM     64  F   UNL A   1      48.705  26.955  24.894  1.00  0.00    -0.206 F 
ATOM     65  C   UNL A   1      50.745  26.094  25.667  1.00  0.00     0.040 A 
ATOM     66  C   UNL A   1      51.028  25.582  28.003  1.00  0.00     0.040 A 
ATOM     67  F   UNL A   1      49.255  25.912  29.503  1.00  0.00    -0.206 F 
ATOM     68  C   UNL A   1      51.543  25.626  26.709  1.00  0.00     0.006 A 
ENDBRANCH  47  61
BRANCH  48  69
ATOM     69  C   UNL A   1      39.415  28.769  29.328  1.00  0.00     0.057 A 
ATOM     70  C   UNL A   1      38.542  29.275  28.357  1.00  0.00     0.134 A 
ATOM     71  C   UNL A   1      38.915  28.604  30.624  1.00  0.00     0.134 A 
ATOM     72  F   UNL A   1      38.971  29.471  27.101  1.00  0.00    -0.206 F 
ATOM     73  C   UNL A   1      37.226  29.621  28.667  1.00  0.00     0.040 A 
ATOM     74  C   UNL A   1      37.595  28.927  30.943  1.00  0.00     0.040 A 
ATOM     75  F   UNL A   1      39.700  28.115  31.596  1.00  0.00    -0.206 F 
ATOM     76  C   UNL A   1      36.749  29.444  29.963  1.00  0.00     0.006 A 
ENDBRANCH  48  69
BRANCH  60  77
ATOM     77  C   UNL A   1      45.347  32.404  29.253  1.00  0.00     0.057 A 
ATOM     78  C   UNL A   1      45.258  33.394  28.267  1.00  0.00     0.134 A 
ATOM     79  C   UNL A   1      45.694  32.805  30.549  1.00  0.00     0.134 A 
ATOM     80  F   UNL A   1      44.943  33.069  27.004  1.00  0.00    -0.206 F 
ATOM     81  C   UNL A   1      45.518  34.734  28.558  1.00  0.00     0.040 A 
ATOM     82  C   UNL A   1      45.934  34.145  30.857  1.00  0.00     0.040 A 
ATOM     83  F   UNL A   1      45.788  31.904  31.539  1.00  0.00    -0.206 F 
ATOM     84  C   UNL A   1      45.850  35.113  29.858  1.00  0.00     0.006 A 
ENDBRANCH  60  77
ENDBRANCH  34  35
ENDBRANCH  26  29
ENDBRANCH  24  25
ENDBRANCH  23  24
ENDBRANCH   1  23
TORSDOF 14
ENDMDL
MODEL 3
REMARK VINA RESULT:     -11.1      1.567      6.383
REMARK SMILES Cn1cccc1C(=O)N[C@](C)(C(=O)NCCCCNC(=O)c1ccc(-c2c3nc(c(-c4c(F)cccc4F)c4ccc([nH]4)c(-c4c(F)cccc4F)c4nc(c(-c5c(F)cccc5F)c5ccc2[nH]5)C=C4)C=C3)cc1)C(F)(F)F
REMARK SMILES IDX 16 1 15 2 14 3 12 4 13 5 10 7 11 8 9 9 7 10 8 11 6 13 1 14
REMARK SMILES IDX 2 15 3 16 4 17 5 18 76 19 77 20 78 21 79 22 17 23 18 24
REMARK SMILES IDX 19 25 20 26 21 28 22 29 23 30 75 31 24 32 74 33 25 34 26 35
REMARK SMILES IDX 27 36 68 37 28 38 73 39 67 40 69 41 29 42 72 43 66 44 65 45
REMARK SMILES IDX 30 47 56 48 39 49 55 50 40 51 43 52 54 53 70 54 41 55 42 56
REMARK SMILES IDX 53 58 71 59 44 60 31 61 32 62 37 63 33 64 34 65 36 66 38 67
REMARK SMILES IDX 35 68 57 69 58 70 63 71 59 72 60 73 62 74 64 75 61 76 45 77
REMARK SMILES IDX 46 78 51 79 47 80 48 81 50 82 52 83 49 84
REMARK H PARENT 14 6 9 12 19 27 69 46 43 57
REMARK Flexibility Score: inf
ROOT
ATOM      1  C   UNL A   1      37.323  21.719  24.424  1.00  0.00     0.023 C 
ENDROOT
BRANCH   1   2
ATOM      2  C   UNL A   1      36.613  22.696  25.366  1.00  0.00     0.116 C 
BRANCH   2   3
ATOM      3  N   UNL A   1      35.783  21.959  26.305  1.00  0.00    -0.354 N 
ATOM      4  C   UNL A   1      34.447  21.699  26.351  1.00  0.00     0.254 C 
ATOM      5  O   UNL A   1      34.028  21.387  27.473  1.00  0.00    -0.272 OA
ATOM      6  H   UNL A   1      36.286  21.571  27.057  1.00  0.00     0.163 HD
BRANCH   4   7
ATOM      7  C   UNL A   1      33.498  21.635  25.125  1.00  0.00     0.212 C 
ATOM      8  C   UNL A   1      32.038  21.994  25.475  1.00  0.00     0.056 C 
BRANCH   7   9
ATOM      9  N   UNL A   1      33.873  22.312  23.855  1.00  0.00    -0.329 N 
ATOM     10  C   UNL A   1      33.799  23.489  23.187  1.00  0.00     0.268 C 
ATOM     11  O   UNL A   1      34.164  23.332  22.012  1.00  0.00    -0.268 OA
ATOM     12  H   UNL A   1      34.355  21.665  23.290  1.00  0.00     0.165 HD
BRANCH  10  13
ATOM     13  C   UNL A   1      33.468  24.828  23.661  1.00  0.00     0.106 A 
ATOM     14  C   UNL A   1      31.850  26.060  22.081  1.00  0.00     0.150 C 
ATOM     15  N   UNL A   1      32.680  25.892  23.248  1.00  0.00    -0.347 N 
ATOM     16  C   UNL A   1      32.731  26.914  24.178  1.00  0.00     0.086 A 
ATOM     17  C   UNL A   1      33.564  26.551  25.197  1.00  0.00     0.020 A 
ATOM     18  C   UNL A   1      34.034  25.271  24.869  1.00  0.00     0.033 A 
ENDBRANCH  10  13
ENDBRANCH   7   9
BRANCH   7  19
ATOM     19  C   UNL A   1      33.494  20.089  24.872  1.00  0.00     0.420 C 
ATOM     20  F   UNL A   1      32.827  19.381  25.804  1.00  0.00    -0.168 F 
ATOM     21  F   UNL A   1      32.891  19.824  23.678  1.00  0.00    -0.168 F 
ATOM     22  F   UNL A   1      34.748  19.589  24.771  1.00  0.00    -0.168 F 
ENDBRANCH   7  19
ENDBRANCH   4   7
ENDBRANCH   2   3
ENDBRANCH   1   2
BRANCH   1  23
ATOM     23  C   UNL A   1      37.852  20.452  25.083  1.00  0.00     0.023 C 
BRANCH  23  24
ATOM     24  C   UNL A   1      39.198  20.631  25.764  1.00  0.00     0.116 C 
BRANCH  24  25
ATOM     25  N   UNL A   1      40.005  19.416  25.806  1.00  0.00    -0.352 N 
ATOM     26  C   UNL A   1      41.346  19.276  26.085  1.00  0.00     0.251 C 
ATOM     27  H   UNL A   1      39.524  18.580  25.607  1.00  0.00     0.163 HD
ATOM     28  O   UNL A   1      41.891  18.180  26.012  1.00  0.00    -0.269 OA
BRANCH  26  29
ATOM     29  C   UNL A   1      42.142  20.477  26.416  1.00  0.00     0.039 A 
ATOM     30  C   UNL A   1      42.694  21.231  25.378  1.00  0.00     0.014 A 
ATOM     31  C   UNL A   1      42.259  20.906  27.738  1.00  0.00     0.014 A 
ATOM     32  C   UNL A   1      43.270  22.472  25.659  1.00  0.00     0.010 A 
ATOM     33  C   UNL A   1      42.731  22.183  28.003  1.00  0.00     0.010 A 
ATOM     34  C   UNL A   1      43.236  22.984  26.966  1.00  0.00    -0.014 A 
BRANCH  34  35
ATOM     35  C   UNL A   1      43.719  24.352  27.284  1.00  0.00     0.031 A 
ATOM     36  C   UNL A   1      42.739  25.407  27.720  1.00  0.00     0.074 A 
ATOM     37  C   UNL A   1      45.012  24.674  27.081  1.00  0.00     0.049 A 
ATOM     38  N   UNL A   1      42.930  26.687  27.908  1.00  0.00    -0.248 NA
ATOM     39  C   UNL A   1      41.347  24.972  27.923  1.00  0.00     0.031 C 
ATOM     40  C   UNL A   1      46.050  23.763  26.593  1.00  0.00     0.029 A 
ATOM     41  N   UNL A   1      45.671  25.866  27.250  1.00  0.00    -0.354 N 
ATOM     42  C   UNL A   1      41.680  27.214  28.209  1.00  0.00     0.074 A 
ATOM     43  C   UNL A   1      40.731  26.125  28.126  1.00  0.00     0.031 C 
ATOM     44  C   UNL A   1      47.219  24.421  26.530  1.00  0.00     0.029 A 
ATOM     45  C   UNL A   1      47.008  25.806  26.939  1.00  0.00     0.049 A 
ATOM     46  H   UNL A   1      45.229  26.687  27.564  1.00  0.00     0.167 HD
ATOM     47  C   UNL A   1      41.355  28.481  28.554  1.00  0.00     0.037 A 
ATOM     48  C   UNL A   1      47.956  26.761  26.976  1.00  0.00     0.037 A 
ATOM     49  C   UNL A   1      42.310  29.545  28.700  1.00  0.00     0.049 A 
ATOM     50  C   UNL A   1      47.583  28.148  27.419  1.00  0.00     0.074 A 
ATOM     51  C   UNL A   1      42.096  30.844  29.129  1.00  0.00     0.029 A 
ATOM     52  N   UNL A   1      43.666  29.428  28.435  1.00  0.00    -0.354 N 
ATOM     53  N   UNL A   1      46.408  28.616  27.764  1.00  0.00    -0.248 NA
ATOM     54  C   UNL A   1      48.667  29.138  27.484  1.00  0.00     0.031 C 
ATOM     55  C   UNL A   1      43.320  31.519  29.100  1.00  0.00     0.029 A 
ATOM     56  C   UNL A   1      44.300  30.633  28.685  1.00  0.00     0.049 A 
ATOM     57  H   UNL A   1      44.111  28.609  28.117  1.00  0.00     0.167 HD
ATOM     58  C   UNL A   1      46.614  29.944  28.110  1.00  0.00     0.074 A 
ATOM     59  C   UNL A   1      48.030  30.205  27.945  1.00  0.00     0.031 C 
ATOM     60  C   UNL A   1      45.713  30.867  28.526  1.00  0.00     0.037 A 
BRANCH  47  61
ATOM     61  C   UNL A   1      39.907  28.773  28.811  1.00  0.00     0.057 A 
ATOM     62  C   UNL A   1      39.055  29.230  27.797  1.00  0.00     0.134 A 
ATOM     63  C   UNL A   1      39.354  28.588  30.083  1.00  0.00     0.134 A 
ATOM     64  F   UNL A   1      39.526  29.444  26.558  1.00  0.00    -0.206 F 
ATOM     65  C   UNL A   1      37.714  29.526  28.047  1.00  0.00     0.040 A 
ATOM     66  C   UNL A   1      38.007  28.854  30.340  1.00  0.00     0.040 A 
ATOM     67  F   UNL A   1      40.112  28.148  31.099  1.00  0.00    -0.206 F 
ATOM     68  C   UNL A   1      37.186  29.333  29.321  1.00  0.00     0.006 A 
ENDBRANCH  47  61
BRANCH  48  69
ATOM     69  C   UNL A   1      49.359  26.431  26.624  1.00  0.00     0.057 A 
ATOM     70  C   UNL A   1      50.228  25.887  27.578  1.00  0.00     0.134 A 
ATOM     71  C   UNL A   1      49.866  26.649  25.338  1.00  0.00     0.134 A 
ATOM     72  F   UNL A   1      49.803  25.672  28.832  1.00  0.00    -0.206 F 
ATOM     73  C   UNL A   1      51.556  25.586  27.271  1.00  0.00     0.040 A 
ATOM     74  C   UNL A   1      51.186  26.334  25.012  1.00  0.00     0.040 A 
ATOM     75  F   UNL A   1      49.082  27.160  24.378  1.00  0.00    -0.206 F 
ATOM     76  C   UNL A   1      52.037  25.807  25.982  1.00  0.00     0.006 A 
ENDBRANCH  48  69
BRANCH  60  77
ATOM     77  C   UNL A   1      46.234  32.230  28.862  1.00  0.00     0.057 A 
ATOM     78  C   UNL A   1      46.351  33.234  27.893  1.00  0.00     0.134 A 
ATOM     79  C   UNL A   1      46.580  32.555  30.180  1.00  0.00     0.134 A 
ATOM     80  F   UNL A   1      46.048  32.979  26.611  1.00  0.00    -0.206 F 
ATOM     81  C   UNL A   1      46.808  34.511  28.220  1.00  0.00     0.040 A 
ATOM     82  C   UNL A   1      47.017  33.835  30.524  1.00  0.00     0.040 A 
ATOM     83  F   UNL A   1      46.483  31.639  31.155  1.00  0.00    -0.206 F 
ATOM     84  C   UNL A   1      47.136  34.816  29.541  1.00  0.00     0.006 A 
ENDBRANCH  60  77
ENDBRANCH  34  35
ENDBRANCH  26  29
ENDBRANCH  24  25
ENDBRANCH  23  24
ENDBRANCH   1  23
TORSDOF 14
ENDMDL
