MODEL 1
REMARK VINA RESULT:     -10.8      0.000      0.000
REMARK SMILES [NH3+]CCOCC(=O)Nc1ccc(C(=O)NCCCCNC(=O)c2ccc(-c3c4nc(c(-c5c(F)cccc5F)c5ccc([nH]5)c(-c5c(F)cccc5F)c5nc(c(-c6c(F)cccc6F)c6ccc3[nH]6)C=C5)C=C4)cc2)c(Cl)c1
REMARK SMILES IDX 13 1 14 2 15 3 12 5 9 6 10 7 79 8 11 9 77 10 78 11 8 12 6 13
REMARK SMILES IDX 7 14 5 16 4 17 3 18 2 19 1 20 16 24 17 25 18 26 19 27 20 28
REMARK SMILES IDX 21 29 22 31 23 32 24 33 76 34 25 35 75 36 26 37 27 38 28 39
REMARK SMILES IDX 69 40 29 41 74 42 68 43 70 44 30 45 73 46 67 47 66 48 31 50
REMARK SMILES IDX 57 51 40 52 56 53 41 54 44 55 55 56 71 57 42 58 43 59 54 61
REMARK SMILES IDX 72 62 45 63 32 64 33 65 38 66 34 67 35 68 37 69 39 70 36 71
REMARK SMILES IDX 58 72 59 73 64 74 60 75 61 76 63 77 65 78 62 79 46 80 47 81
REMARK SMILES IDX 52 82 48 83 49 84 51 85 53 86 50 87
REMARK H PARENT 15 4 8 15 1 21 1 22 1 23 20 30 70 49 44 60
REMARK Flexibility Score: inf
ROOT
ATOM      1  C   UNL A   1      34.265  21.758  26.688  1.00  0.00     0.252 C 
ATOM      2  O   UNL A   1      33.857  21.458  27.816  1.00  0.00    -0.269 OA
ATOM      3  N   UNL A   1      34.768  20.717  25.961  1.00  0.00    -0.352 N 
ATOM      4  H   UNL A   1      34.598  19.837  26.371  1.00  0.00     0.163 HD
ENDROOT
BRANCH   1   5
ATOM      5  C   UNL A   1      34.069  23.168  26.229  1.00  0.00     0.058 A 
ATOM      6  C   UNL A   1      33.287  25.854  25.775  1.00  0.00     0.042 A 
ATOM      7  C   UNL A   1      32.344  24.922  26.177  1.00  0.00     0.027 A 
ATOM      8  C   UNL A   1      34.580  25.445  25.502  1.00  0.00     0.047 A 
ATOM      9  C   UNL A   1      32.727  23.593  26.368  1.00  0.00     0.017 A 
ATOM     10  C   UNL A   1      34.995  24.137  25.811  1.00  0.00     0.055 A 
ATOM     11  Cl  UNL A   1      36.708  24.016  25.836  1.00  0.00    -0.083 Cl
BRANCH   6  12
ATOM     12  N   UNL A   1      33.021  27.223  25.723  1.00  0.00    -0.324 N 
ATOM     13  C   UNL A   1      32.503  27.907  24.653  1.00  0.00     0.250 C 
ATOM     14  O   UNL A   1      32.305  29.121  24.755  1.00  0.00    -0.272 OA
ATOM     15  H   UNL A   1      33.226  27.748  26.530  1.00  0.00     0.170 HD
BRANCH  13  16
ATOM     16  C   UNL A   1      32.111  27.145  23.369  1.00  0.00     0.260 C 
BRANCH  16  17
ATOM     17  O   UNL A   1      31.381  27.817  22.361  1.00  0.00    -0.366 OA
BRANCH  17  18
ATOM     18  C   UNL A   1      30.001  28.037  22.647  1.00  0.00     0.222 C 
BRANCH  18  19
ATOM     19  C   UNL A   1      29.470  29.404  22.193  1.00  0.00     0.287 C 
BRANCH  19  20
ATOM     20  N   UNL A   1      30.438  30.266  21.515  1.00  0.00    -0.356 N 
ATOM     21  H   UNL A   1      30.472  31.172  21.982  1.00  0.00     0.344 HD
ATOM     22  H   UNL A   1      30.157  30.395  20.542  1.00  0.00     0.344 HD
ATOM     23  H   UNL A   1      31.361  29.832  21.547  1.00  0.00     0.344 HD
ENDBRANCH  19  20
ENDBRANCH  18  19
ENDBRANCH  17  18
ENDBRANCH  16  17
ENDBRANCH  13  16
ENDBRANCH   6  12
ENDBRANCH   1   5
BRANCH   3  24
ATOM     24  C   UNL A   1      35.498  20.638  24.720  1.00  0.00     0.116 C 
BRANCH  24  25
ATOM     25  C   UNL A   1      36.959  21.021  24.976  1.00  0.00     0.023 C 
BRANCH  25  26
ATOM     26  C   UNL A   1      37.941  19.859  25.046  1.00  0.00     0.023 C 
BRANCH  26  27
ATOM     27  C   UNL A   1      39.221  20.180  25.798  1.00  0.00     0.116 C 
BRANCH  27  28
ATOM     28  N   UNL A   1      40.192  19.092  25.804  1.00  0.00    -0.352 N 
ATOM     29  C   UNL A   1      41.531  19.166  26.092  1.00  0.00     0.251 C 
ATOM     30  H   UNL A   1      39.845  18.199  25.576  1.00  0.00     0.163 HD
ATOM     31  O   UNL A   1      42.258  18.184  26.001  1.00  0.00    -0.269 OA
BRANCH  29  32
ATOM     32  C   UNL A   1      42.085  20.479  26.461  1.00  0.00     0.039 A 
ATOM     33  C   UNL A   1      42.447  21.364  25.444  1.00  0.00     0.014 A 
ATOM     34  C   UNL A   1      42.138  20.863  27.803  1.00  0.00     0.014 A 
ATOM     35  C   UNL A   1      42.804  22.668  25.775  1.00  0.00     0.010 A 
ATOM     36  C   UNL A   1      42.411  22.183  28.122  1.00  0.00     0.010 A 
ATOM     37  C   UNL A   1      42.755  23.095  27.112  1.00  0.00    -0.014 A 
BRANCH  37  38
ATOM     38  C   UNL A   1      43.093  24.486  27.488  1.00  0.00     0.031 A 
ATOM     39  C   UNL A   1      44.531  24.918  27.490  1.00  0.00     0.074 A 
ATOM     40  C   UNL A   1      42.122  25.328  27.886  1.00  0.00     0.049 A 
ATOM     41  N   UNL A   1      45.051  26.057  27.866  1.00  0.00    -0.248 NA
ATOM     42  C   UNL A   1      45.520  23.924  27.042  1.00  0.00     0.031 C 
ATOM     43  C   UNL A   1      40.697  25.003  27.974  1.00  0.00     0.029 A 
ATOM     44  N   UNL A   1      42.191  26.633  28.302  1.00  0.00    -0.354 N 
ATOM     45  C   UNL A   1      46.424  25.908  27.719  1.00  0.00     0.074 A 
ATOM     46  C   UNL A   1      46.661  24.552  27.277  1.00  0.00     0.031 C 
ATOM     47  C   UNL A   1      40.024  26.090  28.389  1.00  0.00     0.029 A 
ATOM     48  C   UNL A   1      40.971  27.175  28.625  1.00  0.00     0.049 A 
ATOM     49  H   UNL A   1      43.036  27.135  28.362  1.00  0.00     0.167 HD
ATOM     50  C   UNL A   1      47.397  26.828  27.906  1.00  0.00     0.037 A 
ATOM     51  C   UNL A   1      40.659  28.408  29.061  1.00  0.00     0.037 A 
ATOM     52  C   UNL A   1      47.153  28.186  28.308  1.00  0.00     0.049 A 
ATOM     53  C   UNL A   1      41.758  29.419  29.242  1.00  0.00     0.074 A 
ATOM     54  C   UNL A   1      48.064  29.213  28.482  1.00  0.00     0.029 A 
ATOM     55  N   UNL A   1      45.898  28.709  28.588  1.00  0.00    -0.354 N 
ATOM     56  N   UNL A   1      43.047  29.281  29.048  1.00  0.00    -0.248 NA
ATOM     57  C   UNL A   1      41.357  30.759  29.692  1.00  0.00     0.031 C 
ATOM     58  C   UNL A   1      47.361  30.352  28.890  1.00  0.00     0.029 A 
ATOM     59  C   UNL A   1      46.011  30.043  28.936  1.00  0.00     0.049 A 
ATOM     60  H   UNL A   1      45.054  28.205  28.544  1.00  0.00     0.167 HD
ATOM     61  C   UNL A   1      43.607  30.524  29.320  1.00  0.00     0.074 A 
ATOM     62  C   UNL A   1      42.515  31.403  29.684  1.00  0.00     0.031 C 
ATOM     63  C   UNL A   1      44.906  30.903  29.272  1.00  0.00     0.037 A 
BRANCH  50  64
ATOM     64  C   UNL A   1      48.811  26.391  27.660  1.00  0.00     0.057 A 
ATOM     65  C   UNL A   1      49.610  25.878  28.691  1.00  0.00     0.134 A 
ATOM     66  C   UNL A   1      49.376  26.474  26.383  1.00  0.00     0.134 A 
ATOM     67  F   UNL A   1      49.134  25.791  29.942  1.00  0.00    -0.206 F 
ATOM     68  C   UNL A   1      50.930  25.486  28.464  1.00  0.00     0.040 A 
ATOM     69  C   UNL A   1      50.686  26.061  26.138  1.00  0.00     0.040 A 
ATOM     70  F   UNL A   1      48.665  26.956  25.352  1.00  0.00    -0.206 F 
ATOM     71  C   UNL A   1      51.470  25.571  27.182  1.00  0.00     0.006 A 
ENDBRANCH  50  64
BRANCH  51  72
ATOM     72  C   UNL A   1      39.245  28.774  29.319  1.00  0.00     0.057 A 
ATOM     73  C   UNL A   1      38.451  29.328  28.307  1.00  0.00     0.134 A 
ATOM     74  C   UNL A   1      38.657  28.598  30.577  1.00  0.00     0.134 A 
ATOM     75  F   UNL A   1      38.964  29.537  27.086  1.00  0.00    -0.206 F 
ATOM     76  C   UNL A   1      37.130  29.716  28.542  1.00  0.00     0.040 A 
ATOM     77  C   UNL A   1      37.331  28.961  30.820  1.00  0.00     0.040 A 
ATOM     78  F   UNL A   1      39.363  28.064  31.585  1.00  0.00    -0.206 F 
ATOM     79  C   UNL A   1      36.567  29.529  29.802  1.00  0.00     0.006 A 
ENDBRANCH  51  72
BRANCH  63  80
ATOM     80  C   UNL A   1      45.211  32.339  29.572  1.00  0.00     0.057 A 
ATOM     81  C   UNL A   1      45.183  33.323  28.577  1.00  0.00     0.134 A 
ATOM     82  C   UNL A   1      45.494  32.744  30.883  1.00  0.00     0.134 A 
ATOM     83  F   UNL A   1      44.930  32.994  27.301  1.00  0.00    -0.206 F 
ATOM     84  C   UNL A   1      45.447  34.661  28.872  1.00  0.00     0.040 A 
ATOM     85  C   UNL A   1      45.736  34.083  31.193  1.00  0.00     0.040 A 
ATOM     86  F   UNL A   1      45.526  31.850  31.881  1.00  0.00    -0.206 F 
ATOM     87  C   UNL A   1      45.719  35.045  30.185  1.00  0.00     0.006 A 
ENDBRANCH  63  80
ENDBRANCH  37  38
ENDBRANCH  29  32
ENDBRANCH  27  28
ENDBRANCH  26  27
ENDBRANCH  25  26
ENDBRANCH  24  25
ENDBRANCH   3  24
TORSDOF 17
ENDMDL
MODEL 2
REMARK VINA RESULT:     -10.7      4.982     10.260
REMARK SMILES [NH3+]CCOCC(=O)Nc1ccc(C(=O)NCCCCNC(=O)c2ccc(-c3c4nc(c(-c5c(F)cccc5F)c5ccc([nH]5)c(-c5c(F)cccc5F)c5nc(c(-c6c(F)cccc6F)c6ccc3[nH]6)C=C5)C=C4)cc2)c(Cl)c1
REMARK SMILES IDX 13 1 14 2 15 3 12 5 9 6 10 7 79 8 11 9 77 10 78 11 8 12 6 13
REMARK SMILES IDX 7 14 5 16 4 17 3 18 2 19 1 20 16 24 17 25 18 26 19 27 20 28
REMARK SMILES IDX 21 29 22 31 23 32 24 33 76 34 25 35 75 36 26 37 27 38 28 39
REMARK SMILES IDX 69 40 29 41 74 42 68 43 70 44 30 45 73 46 67 47 66 48 31 50
REMARK SMILES IDX 57 51 40 52 56 53 41 54 44 55 55 56 71 57 42 58 43 59 54 61
REMARK SMILES IDX 72 62 45 63 32 64 33 65 38 66 34 67 35 68 37 69 39 70 36 71
REMARK SMILES IDX 58 72 59 73 64 74 60 75 61 76 63 77 65 78 62 79 46 80 47 81
REMARK SMILES IDX 52 82 48 83 49 84 51 85 53 86 50 87
REMARK H PARENT 15 4 8 15 1 21 1 22 1 23 20 30 70 49 44 60
REMARK Flexibility Score: inf
ROOT
ATOM      1  C   UNL A   1      30.792  29.055  23.597  1.00  0.00     0.252 C 
ATOM      2  O   UNL A   1      29.895  29.470  22.853  1.00  0.00    -0.269 OA
ATOM      3  N   UNL A   1      31.182  29.928  24.571  1.00  0.00    -0.352 N 
ATOM      4  H   UNL A   1      30.591  30.712  24.652  1.00  0.00     0.163 HD
ENDROOT
BRANCH   1   5
ATOM      5  C   UNL A   1      31.257  27.646  23.407  1.00  0.00     0.058 A 
ATOM      6  C   UNL A   1      31.595  24.887  22.851  1.00  0.00     0.042 A 
ATOM      7  C   UNL A   1      30.366  25.356  23.284  1.00  0.00     0.027 A 
ATOM      8  C   UNL A   1      32.674  25.752  22.790  1.00  0.00     0.047 A 
ATOM      9  C   UNL A   1      30.213  26.710  23.588  1.00  0.00     0.017 A 
ATOM     10  C   UNL A   1      32.492  27.134  22.976  1.00  0.00     0.055 A 
ATOM     11  Cl  UNL A   1      33.838  28.026  22.390  1.00  0.00    -0.083 Cl
BRANCH   6  12
ATOM     12  N   UNL A   1      31.784  23.590  22.374  1.00  0.00    -0.324 N 
ATOM     13  C   UNL A   1      32.079  22.484  23.130  1.00  0.00     0.250 C 
ATOM     14  O   UNL A   1      32.203  21.390  22.571  1.00  0.00    -0.272 OA
ATOM     15  H   UNL A   1      31.699  23.456  21.403  1.00  0.00     0.170 HD
BRANCH  13  16
ATOM     16  C   UNL A   1      32.180  22.606  24.665  1.00  0.00     0.260 C 
BRANCH  16  17
ATOM     17  O   UNL A   1      31.396  21.757  25.480  1.00  0.00    -0.366 OA
BRANCH  17  18
ATOM     18  C   UNL A   1      30.500  22.419  26.371  1.00  0.00     0.222 C 
BRANCH  18  19
ATOM     19  C   UNL A   1      30.720  23.935  26.480  1.00  0.00     0.287 C 
BRANCH  19  20
ATOM     20  N   UNL A   1      29.510  24.741  26.636  1.00  0.00    -0.356 N 
ATOM     21  H   UNL A   1      29.346  24.918  27.628  1.00  0.00     0.344 HD
ATOM     22  H   UNL A   1      28.712  24.238  26.245  1.00  0.00     0.344 HD
ATOM     23  H   UNL A   1      29.625  25.628  26.147  1.00  0.00     0.344 HD
ENDBRANCH  19  20
ENDBRANCH  18  19
ENDBRANCH  17  18
ENDBRANCH  16  17
ENDBRANCH  13  16
ENDBRANCH   6  12
ENDBRANCH   1   5
BRANCH   3  24
ATOM     24  C   UNL A   1      32.279  29.941  25.507  1.00  0.00     0.116 C 
BRANCH  24  25
ATOM     25  C   UNL A   1      31.797  30.544  26.831  1.00  0.00     0.023 C 
BRANCH  25  26
ATOM     26  C   UNL A   1      31.568  32.049  26.822  1.00  0.00     0.023 C 
BRANCH  26  27
ATOM     27  C   UNL A   1      32.774  32.858  27.267  1.00  0.00     0.116 C 
BRANCH  27  28
ATOM     28  N   UNL A   1      32.458  34.226  27.659  1.00  0.00    -0.352 N 
ATOM     29  C   UNL A   1      33.093  34.995  28.601  1.00  0.00     0.251 C 
ATOM     30  H   UNL A   1      31.702  34.648  27.191  1.00  0.00     0.163 HD
ATOM     31  O   UNL A   1      32.690  36.117  28.885  1.00  0.00    -0.269 OA
BRANCH  29  32
ATOM     32  C   UNL A   1      34.244  34.410  29.307  1.00  0.00     0.039 A 
ATOM     33  C   UNL A   1      34.013  33.665  30.465  1.00  0.00     0.014 A 
ATOM     34  C   UNL A   1      35.525  34.511  28.759  1.00  0.00     0.014 A 
ATOM     35  C   UNL A   1      35.068  32.961  31.041  1.00  0.00     0.010 A 
ATOM     36  C   UNL A   1      36.552  33.744  29.284  1.00  0.00     0.010 A 
ATOM     37  C   UNL A   1      36.334  32.969  30.434  1.00  0.00    -0.014 A 
BRANCH  37  38
ATOM     38  C   UNL A   1      37.463  32.201  31.004  1.00  0.00     0.031 A 
ATOM     39  C   UNL A   1      37.927  32.499  32.400  1.00  0.00     0.074 A 
ATOM     40  C   UNL A   1      38.106  31.292  30.247  1.00  0.00     0.049 A 
ATOM     41  N   UNL A   1      38.945  32.008  33.057  1.00  0.00    -0.248 NA
ATOM     42  C   UNL A   1      37.162  33.513  33.147  1.00  0.00     0.031 C 
ATOM     43  C   UNL A   1      37.778  30.954  28.860  1.00  0.00     0.029 A 
ATOM     44  N   UNL A   1      39.179  30.489  30.539  1.00  0.00    -0.354 N 
ATOM     45  C   UNL A   1      38.953  32.665  34.280  1.00  0.00     0.074 A 
ATOM     46  C   UNL A   1      37.878  33.631  34.253  1.00  0.00     0.031 C 
ATOM     47  C   UNL A   1      38.616  29.994  28.433  1.00  0.00     0.029 A 
ATOM     48  C   UNL A   1      39.555  29.671  29.502  1.00  0.00     0.049 A 
ATOM     49  H   UNL A   1      39.636  30.498  31.411  1.00  0.00     0.167 HD
ATOM     50  C   UNL A   1      39.765  32.460  35.342  1.00  0.00     0.037 A 
ATOM     51  C   UNL A   1      40.546  28.765  29.429  1.00  0.00     0.037 A 
ATOM     52  C   UNL A   1      40.809  31.472  35.378  1.00  0.00     0.049 A 
ATOM     53  C   UNL A   1      41.423  28.542  30.630  1.00  0.00     0.074 A 
ATOM     54  C   UNL A   1      41.659  31.151  36.420  1.00  0.00     0.029 A 
ATOM     55  N   UNL A   1      41.133  30.635  34.320  1.00  0.00    -0.354 N 
ATOM     56  N   UNL A   1      41.387  29.133  31.800  1.00  0.00    -0.248 NA
ATOM     57  C   UNL A   1      42.471  27.520  30.504  1.00  0.00     0.031 C 
ATOM     58  C   UNL A   1      42.515  30.134  35.984  1.00  0.00     0.029 A 
ATOM     59  C   UNL A   1      42.174  29.799  34.684  1.00  0.00     0.049 A 
ATOM     60  H   UNL A   1      40.688  30.636  33.442  1.00  0.00     0.167 HD
ATOM     61  C   UNL A   1      42.383  28.532  32.559  1.00  0.00     0.074 A 
ATOM     62  C   UNL A   1      42.999  27.526  31.719  1.00  0.00     0.031 C 
ATOM     63  C   UNL A   1      42.754  28.789  33.836  1.00  0.00     0.037 A 
BRANCH  50  64
ATOM     64  C   UNL A   1      39.541  33.316  36.553  1.00  0.00     0.057 A 
ATOM     65  C   UNL A   1      40.248  34.510  36.750  1.00  0.00     0.134 A 
ATOM     66  C   UNL A   1      38.603  32.952  37.526  1.00  0.00     0.134 A 
ATOM     67  F   UNL A   1      41.175  34.906  35.864  1.00  0.00    -0.206 F 
ATOM     68  C   UNL A   1      40.049  35.298  37.885  1.00  0.00     0.040 A 
ATOM     69  C   UNL A   1      38.376  33.744  38.651  1.00  0.00     0.040 A 
ATOM     70  F   UNL A   1      37.892  31.821  37.398  1.00  0.00    -0.206 F 
ATOM     71  C   UNL A   1      39.105  34.918  38.837  1.00  0.00     0.006 A 
ENDBRANCH  50  64
BRANCH  51  72
ATOM     72  C   UNL A   1      40.742  27.969  28.192  1.00  0.00     0.057 A 
ATOM     73  C   UNL A   1      41.538  28.451  27.147  1.00  0.00     0.134 A 
ATOM     74  C   UNL A   1      40.130  26.722  28.015  1.00  0.00     0.134 A 
ATOM     75  F   UNL A   1      42.137  29.646  27.251  1.00  0.00    -0.206 F 
ATOM     76  C   UNL A   1      41.701  27.734  25.960  1.00  0.00     0.040 A 
ATOM     77  C   UNL A   1      40.301  25.985  26.843  1.00  0.00     0.040 A 
ATOM     78  F   UNL A   1      39.361  26.203  28.984  1.00  0.00    -0.206 F 
ATOM     79  C   UNL A   1      41.083  26.495  25.808  1.00  0.00     0.006 A 
ENDBRANCH  51  72
BRANCH  63  80
ATOM     80  C   UNL A   1      43.841  27.937  34.417  1.00  0.00     0.057 A 
ATOM     81  C   UNL A   1      43.568  26.711  35.035  1.00  0.00     0.134 A 
ATOM     82  C   UNL A   1      45.181  28.333  34.318  1.00  0.00     0.134 A 
ATOM     83  F   UNL A   1      42.303  26.285  35.172  1.00  0.00    -0.206 F 
ATOM     84  C   UNL A   1      44.590  25.915  35.553  1.00  0.00     0.040 A 
ATOM     85  C   UNL A   1      46.213  27.534  34.811  1.00  0.00     0.040 A 
ATOM     86  F   UNL A   1      45.507  29.492  33.729  1.00  0.00    -0.206 F 
ATOM     87  C   UNL A   1      45.919  26.324  35.436  1.00  0.00     0.006 A 
ENDBRANCH  63  80
ENDBRANCH  37  38
ENDBRANCH  29  32
ENDBRANCH  27  28
ENDBRANCH  26  27
ENDBRANCH  25  26
ENDBRANCH  24  25
ENDBRANCH   3  24
TORSDOF 17
ENDMDL
MODEL 3
REMARK VINA RESULT:     -10.6      5.124      9.729
REMARK SMILES [NH3+]CCOCC(=O)Nc1ccc(C(=O)NCCCCNC(=O)c2ccc(-c3c4nc(c(-c5c(F)cccc5F)c5ccc([nH]5)c(-c5c(F)cccc5F)c5nc(c(-c6c(F)cccc6F)c6ccc3[nH]6)C=C5)C=C4)cc2)c(Cl)c1
REMARK SMILES IDX 13 1 14 2 15 3 12 5 9 6 10 7 79 8 11 9 77 10 78 11 8 12 6 13
REMARK SMILES IDX 7 14 5 16 4 17 3 18 2 19 1 20 16 24 17 25 18 26 19 27 20 28
REMARK SMILES IDX 21 29 22 31 23 32 24 33 76 34 25 35 75 36 26 37 27 38 28 39
REMARK SMILES IDX 69 40 29 41 74 42 68 43 70 44 30 45 73 46 67 47 66 48 31 50
REMARK SMILES IDX 57 51 40 52 56 53 41 54 44 55 55 56 71 57 42 58 43 59 54 61
REMARK SMILES IDX 72 62 45 63 32 64 33 65 38 66 34 67 35 68 37 69 39 70 36 71
REMARK SMILES IDX 58 72 59 73 64 74 60 75 61 76 63 77 65 78 62 79 46 80 47 81
REMARK SMILES IDX 52 82 48 83 49 84 51 85 53 86 50 87
REMARK H PARENT 15 4 8 15 1 21 1 22 1 23 20 30 70 49 44 60
REMARK Flexibility Score: inf
ROOT
ATOM      1  C   UNL A   1      30.885  28.883  23.724  1.00  0.00     0.252 C 
ATOM      2  O   UNL A   1      29.934  29.301  23.054  1.00  0.00    -0.269 OA
ATOM      3  N   UNL A   1      31.379  29.769  24.638  1.00  0.00    -0.352 N 
ATOM      4  H   UNL A   1      30.814  30.568  24.752  1.00  0.00     0.163 HD
ENDROOT
BRANCH   1   5
ATOM      5  C   UNL A   1      31.302  27.460  23.530  1.00  0.00     0.058 A 
ATOM      6  C   UNL A   1      31.543  24.692  22.968  1.00  0.00     0.042 A 
ATOM      7  C   UNL A   1      30.333  25.201  23.412  1.00  0.00     0.027 A 
ATOM      8  C   UNL A   1      32.649  25.521  22.898  1.00  0.00     0.047 A 
ATOM      9  C   UNL A   1      30.228  26.559  23.719  1.00  0.00     0.017 A 
ATOM     10  C   UNL A   1      32.515  26.908  23.087  1.00  0.00     0.055 A 
ATOM     11  Cl  UNL A   1      33.884  27.754  22.490  1.00  0.00    -0.083 Cl
BRANCH   6  12
ATOM     12  N   UNL A   1      31.684  23.389  22.487  1.00  0.00    -0.324 N 
ATOM     13  C   UNL A   1      31.995  22.281  23.233  1.00  0.00     0.250 C 
ATOM     14  O   UNL A   1      32.072  21.183  22.674  1.00  0.00    -0.272 OA
ATOM     15  H   UNL A   1      31.549  23.254  21.522  1.00  0.00     0.170 HD
BRANCH  13  16
ATOM     16  C   UNL A   1      32.174  22.406  24.761  1.00  0.00     0.260 C 
BRANCH  16  17
ATOM     17  O   UNL A   1      31.067  22.169  25.609  1.00  0.00    -0.366 OA
BRANCH  17  18
ATOM     18  C   UNL A   1      30.777  23.206  26.543  1.00  0.00     0.222 C 
BRANCH  18  19
ATOM     19  C   UNL A   1      31.868  24.282  26.654  1.00  0.00     0.287 C 
BRANCH  19  20
ATOM     20  N   UNL A   1      31.391  25.643  26.896  1.00  0.00    -0.356 N 
ATOM     21  H   UNL A   1      32.015  26.308  26.438  1.00  0.00     0.344 HD
ATOM     22  H   UNL A   1      31.377  25.826  27.900  1.00  0.00     0.344 HD
ATOM     23  H   UNL A   1      30.449  25.747  26.519  1.00  0.00     0.344 HD
ENDBRANCH  19  20
ENDBRANCH  18  19
ENDBRANCH  17  18
ENDBRANCH  16  17
ENDBRANCH  13  16
ENDBRANCH   6  12
ENDBRANCH   1   5
BRANCH   3  24
ATOM     24  C   UNL A   1      32.555  29.777  25.472  1.00  0.00     0.116 C 
BRANCH  24  25
ATOM     25  C   UNL A   1      32.181  30.322  26.855  1.00  0.00     0.023 C 
BRANCH  25  26
ATOM     26  C   UNL A   1      31.782  31.790  26.897  1.00  0.00     0.023 C 
BRANCH  26  27
ATOM     27  C   UNL A   1      32.882  32.714  27.391  1.00  0.00     0.116 C 
BRANCH  27  28
ATOM     28  N   UNL A   1      32.438  34.078  27.651  1.00  0.00    -0.352 N 
ATOM     29  C   UNL A   1      32.974  34.979  28.536  1.00  0.00     0.251 C 
ATOM     30  H   UNL A   1      31.663  34.389  27.130  1.00  0.00     0.163 HD
ATOM     31  O   UNL A   1      32.468  36.081  28.709  1.00  0.00    -0.269 OA
BRANCH  29  32
ATOM     32  C   UNL A   1      34.150  34.561  29.318  1.00  0.00     0.039 A 
ATOM     33  C   UNL A   1      33.949  33.984  30.573  1.00  0.00     0.014 A 
ATOM     34  C   UNL A   1      35.427  34.642  28.757  1.00  0.00     0.014 A 
ATOM     35  C   UNL A   1      35.034  33.426  31.244  1.00  0.00     0.010 A 
ATOM     36  C   UNL A   1      36.487  34.012  29.387  1.00  0.00     0.010 A 
ATOM     37  C   UNL A   1      36.302  33.406  30.639  1.00  0.00    -0.014 A 
BRANCH  37  38
ATOM     38  C   UNL A   1      37.464  32.786  31.313  1.00  0.00     0.031 A 
ATOM     39  C   UNL A   1      38.136  31.601  30.681  1.00  0.00     0.074 A 
ATOM     40  C   UNL A   1      37.866  33.243  32.514  1.00  0.00     0.049 A 
ATOM     41  N   UNL A   1      39.109  30.859  31.141  1.00  0.00    -0.248 NA
ATOM     42  C   UNL A   1      37.622  31.172  29.369  1.00  0.00     0.031 C 
ATOM     43  C   UNL A   1      37.258  34.354  33.248  1.00  0.00     0.029 A 
ATOM     44  N   UNL A   1      38.882  32.821  33.332  1.00  0.00    -0.354 N 
ATOM     45  C   UNL A   1      39.307  29.869  30.188  1.00  0.00     0.074 A 
ATOM     46  C   UNL A   1      38.317  30.068  29.154  1.00  0.00     0.031 C 
ATOM     47  C   UNL A   1      37.931  34.543  34.396  1.00  0.00     0.029 A 
ATOM     48  C   UNL A   1      38.996  33.549  34.491  1.00  0.00     0.049 A 
ATOM     49  H   UNL A   1      39.475  32.067  33.110  1.00  0.00     0.167 HD
ATOM     50  C   UNL A   1      40.250  28.899  30.163  1.00  0.00     0.037 A 
ATOM     51  C   UNL A   1      39.864  33.425  35.511  1.00  0.00     0.037 A 
ATOM     52  C   UNL A   1      41.256  28.729  31.175  1.00  0.00     0.049 A 
ATOM     53  C   UNL A   1      40.915  32.351  35.449  1.00  0.00     0.074 A 
ATOM     54  C   UNL A   1      42.287  27.808  31.223  1.00  0.00     0.029 A 
ATOM     55  N   UNL A   1      41.363  29.513  32.315  1.00  0.00    -0.354 N 
ATOM     56  N   UNL A   1      41.125  31.453  34.516  1.00  0.00    -0.248 NA
ATOM     57  C   UNL A   1      41.855  32.279  36.576  1.00  0.00     0.031 C 
ATOM     58  C   UNL A   1      43.004  28.019  32.405  1.00  0.00     0.029 A 
ATOM     59  C   UNL A   1      42.441  29.093  33.075  1.00  0.00     0.049 A 
ATOM     60  H   UNL A   1      40.761  30.256  32.548  1.00  0.00     0.167 HD
ATOM     61  C   UNL A   1      42.240  30.733  34.927  1.00  0.00     0.074 A 
ATOM     62  C   UNL A   1      42.664  31.304  36.188  1.00  0.00     0.031 C 
ATOM     63  C   UNL A   1      42.856  29.694  34.316  1.00  0.00     0.037 A 
BRANCH  50  64
ATOM     64  C   UNL A   1      40.238  27.961  28.993  1.00  0.00     0.057 A 
ATOM     65  C   UNL A   1      39.518  26.758  29.024  1.00  0.00     0.134 A 
ATOM     66  C   UNL A   1      40.941  28.265  27.822  1.00  0.00     0.134 A 
ATOM     67  F   UNL A   1      38.839  26.399  30.124  1.00  0.00    -0.206 F 
ATOM     68  C   UNL A   1      39.521  25.879  27.940  1.00  0.00     0.040 A 
ATOM     69  C   UNL A   1      40.929  27.406  26.722  1.00  0.00     0.040 A 
ATOM     70  F   UNL A   1      41.649  29.400  27.727  1.00  0.00    -0.206 F 
ATOM     71  C   UNL A   1      40.223  26.206  26.781  1.00  0.00     0.006 A 
ENDBRANCH  50  64
BRANCH  51  72
ATOM     72  C   UNL A   1      39.808  34.362  36.659  1.00  0.00     0.057 A 
ATOM     73  C   UNL A   1      39.102  34.032  37.822  1.00  0.00     0.134 A 
ATOM     74  C   UNL A   1      40.440  35.611  36.620  1.00  0.00     0.134 A 
ATOM     75  F   UNL A   1      38.463  32.857  37.912  1.00  0.00    -0.206 F 
ATOM     76  C   UNL A   1      39.005  34.918  38.897  1.00  0.00     0.040 A 
ATOM     77  C   UNL A   1      40.369  36.498  37.696  1.00  0.00     0.040 A 
ATOM     78  F   UNL A   1      41.139  35.982  35.537  1.00  0.00    -0.206 F 
ATOM     79  C   UNL A   1      39.643  36.155  38.835  1.00  0.00     0.006 A 
ENDBRANCH  51  72
BRANCH  63  80
ATOM     80  C   UNL A   1      44.083  29.142  34.977  1.00  0.00     0.057 A 
ATOM     81  C   UNL A   1      44.010  28.139  35.951  1.00  0.00     0.134 A 
ATOM     82  C   UNL A   1      45.354  29.594  34.601  1.00  0.00     0.134 A 
ATOM     83  F   UNL A   1      42.819  27.675  36.361  1.00  0.00    -0.206 F 
ATOM     84  C   UNL A   1      45.159  27.617  36.544  1.00  0.00     0.040 A 
ATOM     85  C   UNL A   1      46.512  29.063  35.170  1.00  0.00     0.040 A 
ATOM     86  F   UNL A   1      45.490  30.546  33.668  1.00  0.00    -0.206 F 
ATOM     87  C   UNL A   1      46.417  28.075  36.149  1.00  0.00     0.006 A 
ENDBRANCH  63  80
ENDBRANCH  37  38
ENDBRANCH  29  32
ENDBRANCH  27  28
ENDBRANCH  26  27
ENDBRANCH  25  26
ENDBRANCH  24  25
ENDBRANCH   3  24
TORSDOF 17
ENDMDL
