MODEL 1
REMARK VINA RESULT:     -13.3      0.000      0.000
REMARK SMILES Cc1ccc(-c2cc(Cl)cc3c2O[C@@H](C(F)(F)F)C(C(=O)NCCCCNC(=O)c2ccc(-c4c5nc(c(-c6c(F)cccc6F)c6ccc([nH]6)c(-c6c(F)cccc6F)c6nc(c(-c7c(F)cccc7F)c7ccc4[nH]7)C=C6)C=C5)cc2)=C3)cc1
REMARK SMILES IDX 25 1 24 2 23 3 22 4 20 5 21 6 19 8 6 9 7 10 12 11 8 12 11 13
REMARK SMILES IDX 13 14 9 15 10 16 84 17 14 18 5 19 1 20 2 21 3 22 86 23 4 24
REMARK SMILES IDX 85 25 15 26 16 27 17 28 18 29 26 30 27 31 28 32 29 34 30 35
REMARK SMILES IDX 31 36 83 37 32 38 82 39 33 40 34 41 35 42 76 43 36 44 81 45
REMARK SMILES IDX 75 46 77 47 37 48 80 49 74 50 73 51 38 53 64 54 47 55 63 56
REMARK SMILES IDX 48 57 51 58 62 59 78 60 49 61 50 62 61 64 79 65 52 66 39 67
REMARK SMILES IDX 40 68 45 69 41 70 42 71 44 72 46 73 43 74 65 75 66 76 71 77
REMARK SMILES IDX 67 78 68 79 70 80 72 81 69 82 53 83 54 84 59 85 55 86 56 87
REMARK SMILES IDX 58 88 60 89 57 90
REMARK H PARENT 22 7 27 33 77 52 51 63
REMARK Flexibility Score: inf
ROOT
ATOM      1  C   UNL A   1      33.275  29.845  27.510  1.00  0.00     0.023 C 
ENDROOT
BRANCH   1   2
ATOM      2  C   UNL A   1      33.871  28.547  26.953  1.00  0.00     0.023 C 
BRANCH   2   3
ATOM      3  C   UNL A   1      33.329  28.005  25.619  1.00  0.00     0.116 C 
BRANCH   3   4
ATOM      4  N   UNL A   1      33.980  26.813  25.095  1.00  0.00    -0.352 N 
ATOM      5  C   UNL A   1      33.647  25.941  24.091  1.00  0.00     0.251 C 
ATOM      6  O   UNL A   1      34.591  25.458  23.457  1.00  0.00    -0.270 OA
ATOM      7  H   UNL A   1      34.824  26.590  25.550  1.00  0.00     0.163 HD
BRANCH   5   8
ATOM      8  C   UNL A   1      32.222  25.445  23.810  1.00  0.00     0.067 C 
ATOM      9  C   UNL A   1      33.669  22.033  25.284  1.00  0.00     0.026 A 
ATOM     10  C   UNL A   1      33.300  20.783  24.748  1.00  0.00     0.033 A 
ATOM     11  C   UNL A   1      32.894  23.104  24.844  1.00  0.00     0.135 A 
ATOM     12  C   UNL A   1      32.528  20.718  23.582  1.00  0.00     0.042 A 
ATOM     13  C   UNL A   1      32.434  23.113  23.505  1.00  0.00     0.019 A 
ATOM     14  O   UNL A   1      32.428  24.091  25.745  1.00  0.00    -0.475 OA
ATOM     15  Cl  UNL A   1      32.153  19.184  22.903  1.00  0.00    -0.084 Cl
ATOM     16  C   UNL A   1      32.184  21.888  22.897  1.00  0.00     0.032 A 
ATOM     17  C   UNL A   1      32.184  24.459  22.870  1.00  0.00     0.025 C 
ATOM     18  C   UNL A   1      31.471  24.936  25.026  1.00  0.00     0.314 C 
BRANCH   9  19
ATOM     19  C   UNL A   1      35.153  22.218  25.371  1.00  0.00    -0.015 A 
ATOM     20  C   UNL A   1      39.435  22.198  26.103  1.00  0.00     0.044 C 
ATOM     21  C   UNL A   1      37.966  22.228  25.797  1.00  0.00    -0.051 A 
ATOM     22  C   UNL A   1      37.174  23.343  26.120  1.00  0.00     0.004 A 
ATOM     23  C   UNL A   1      37.357  21.132  25.196  1.00  0.00     0.004 A 
ATOM     24  C   UNL A   1      35.780  23.339  25.914  1.00  0.00     0.009 A 
ATOM     25  C   UNL A   1      35.980  21.135  24.981  1.00  0.00     0.009 A 
ENDBRANCH   9  19
BRANCH  18  26
ATOM     26  C   UNL A   1      30.545  25.953  25.706  1.00  0.00     0.429 C 
ATOM     27  F   UNL A   1      31.096  26.378  26.877  1.00  0.00    -0.167 F 
ATOM     28  F   UNL A   1      30.300  27.049  24.969  1.00  0.00    -0.167 F 
ATOM     29  F   UNL A   1      29.356  25.406  26.065  1.00  0.00    -0.167 F 
ENDBRANCH  18  26
ENDBRANCH   5   8
ENDBRANCH   3   4
ENDBRANCH   2   3
ENDBRANCH   1   2
BRANCH   1  30
ATOM     30  C   UNL A   1      34.053  31.129  27.255  1.00  0.00     0.116 C 
BRANCH  30  31
ATOM     31  N   UNL A   1      34.581  31.847  28.406  1.00  0.00    -0.352 N 
ATOM     32  C   UNL A   1      35.549  31.439  29.327  1.00  0.00     0.251 C 
ATOM     33  H   UNL A   1      34.203  32.744  28.556  1.00  0.00     0.163 HD
ATOM     34  O   UNL A   1      35.791  32.127  30.298  1.00  0.00    -0.269 OA
BRANCH  32  35
ATOM     35  C   UNL A   1      36.392  30.237  29.039  1.00  0.00     0.039 A 
ATOM     36  C   UNL A   1      36.616  29.329  30.083  1.00  0.00     0.014 A 
ATOM     37  C   UNL A   1      37.144  30.135  27.878  1.00  0.00     0.014 A 
ATOM     38  C   UNL A   1      37.781  28.560  30.084  1.00  0.00     0.010 A 
ATOM     39  C   UNL A   1      38.364  29.497  27.935  1.00  0.00     0.010 A 
ATOM     40  C   UNL A   1      38.713  28.765  29.070  1.00  0.00    -0.014 A 
BRANCH  40  41
ATOM     41  C   UNL A   1      40.109  28.357  29.156  1.00  0.00     0.031 A 
ATOM     42  C   UNL A   1      40.549  27.071  28.586  1.00  0.00     0.074 A 
ATOM     43  C   UNL A   1      41.021  29.222  29.654  1.00  0.00     0.049 A 
ATOM     44  N   UNL A   1      41.570  26.404  29.009  1.00  0.00    -0.248 NA
ATOM     45  C   UNL A   1      39.850  26.418  27.486  1.00  0.00     0.031 C 
ATOM     46  C   UNL A   1      42.475  29.112  29.585  1.00  0.00     0.029 A 
ATOM     47  N   UNL A   1      40.795  30.313  30.507  1.00  0.00    -0.354 N 
ATOM     48  C   UNL A   1      41.833  25.418  28.085  1.00  0.00     0.074 A 
ATOM     49  C   UNL A   1      40.697  25.428  27.192  1.00  0.00     0.031 C 
ATOM     50  C   UNL A   1      43.012  29.864  30.559  1.00  0.00     0.029 A 
ATOM     51  C   UNL A   1      41.917  30.376  31.363  1.00  0.00     0.049 A 
ATOM     52  H   UNL A   1      40.014  30.911  30.508  1.00  0.00     0.167 HD
ATOM     53  C   UNL A   1      43.049  24.798  28.090  1.00  0.00     0.037 A 
ATOM     54  C   UNL A   1      41.786  30.196  32.709  1.00  0.00     0.037 A 
ATOM     55  C   UNL A   1      43.903  25.326  29.151  1.00  0.00     0.049 A 
ATOM     56  C   UNL A   1      42.539  29.002  33.242  1.00  0.00     0.074 A 
ATOM     57  C   UNL A   1      44.907  26.281  29.146  1.00  0.00     0.029 A 
ATOM     58  N   UNL A   1      43.565  25.118  30.484  1.00  0.00    -0.354 N 
ATOM     59  N   UNL A   1      42.992  28.034  32.494  1.00  0.00    -0.248 NA
ATOM     60  C   UNL A   1      42.827  28.789  34.658  1.00  0.00     0.031 C 
ATOM     61  C   UNL A   1      45.138  26.686  30.482  1.00  0.00     0.029 A 
ATOM     62  C   UNL A   1      44.290  25.964  31.303  1.00  0.00     0.049 A 
ATOM     63  H   UNL A   1      42.904  24.462  30.800  1.00  0.00     0.167 HD
ATOM     64  C   UNL A   1      43.593  27.083  33.280  1.00  0.00     0.074 A 
ATOM     65  C   UNL A   1      43.484  27.616  34.625  1.00  0.00     0.031 C 
ATOM     66  C   UNL A   1      44.118  25.939  32.748  1.00  0.00     0.037 A 
BRANCH  53  67
ATOM     67  C   UNL A   1      43.559  23.962  26.936  1.00  0.00     0.057 A 
ATOM     68  C   UNL A   1      44.278  24.543  25.874  1.00  0.00     0.134 A 
ATOM     69  C   UNL A   1      43.335  22.581  26.792  1.00  0.00     0.134 A 
ATOM     70  F   UNL A   1      44.690  25.816  25.912  1.00  0.00    -0.206 F 
ATOM     71  C   UNL A   1      44.618  23.844  24.708  1.00  0.00     0.040 A 
ATOM     72  C   UNL A   1      43.619  21.881  25.610  1.00  0.00     0.040 A 
ATOM     73  F   UNL A   1      42.878  21.838  27.809  1.00  0.00    -0.206 F 
ATOM     74  C   UNL A   1      44.249  22.518  24.553  1.00  0.00     0.006 A 
ENDBRANCH  53  67
BRANCH  54  75
ATOM     75  C   UNL A   1      40.507  30.731  33.242  1.00  0.00     0.057 A 
ATOM     76  C   UNL A   1      40.387  32.123  33.403  1.00  0.00     0.134 A 
ATOM     77  C   UNL A   1      39.322  29.993  33.187  1.00  0.00     0.134 A 
ATOM     78  F   UNL A   1      41.489  32.888  33.470  1.00  0.00    -0.206 F 
ATOM     79  C   UNL A   1      39.148  32.767  33.380  1.00  0.00     0.040 A 
ATOM     80  C   UNL A   1      38.073  30.628  33.172  1.00  0.00     0.040 A 
ATOM     81  F   UNL A   1      39.353  28.664  33.015  1.00  0.00    -0.206 F 
ATOM     82  C   UNL A   1      37.985  32.019  33.223  1.00  0.00     0.006 A 
ENDBRANCH  54  75
BRANCH  66  83
ATOM     83  C   UNL A   1      44.611  24.729  33.512  1.00  0.00     0.057 A 
ATOM     84  C   UNL A   1      45.953  24.334  33.597  1.00  0.00     0.134 A 
ATOM     85  C   UNL A   1      43.721  23.990  34.330  1.00  0.00     0.134 A 
ATOM     86  F   UNL A   1      46.926  25.009  32.971  1.00  0.00    -0.206 F 
ATOM     87  C   UNL A   1      46.372  23.253  34.384  1.00  0.00     0.040 A 
ATOM     88  C   UNL A   1      44.137  22.947  35.163  1.00  0.00     0.040 A 
ATOM     89  F   UNL A   1      42.409  24.261  34.376  1.00  0.00    -0.206 F 
ATOM     90  C   UNL A   1      45.467  22.563  35.182  1.00  0.00     0.006 A 
ENDBRANCH  66  83
ENDBRANCH  40  41
ENDBRANCH  32  35
ENDBRANCH  30  31
ENDBRANCH   1  30
TORSDOF 13
ENDMDL
MODEL 2
REMARK VINA RESULT:     -13.2      3.303      8.567
REMARK SMILES Cc1ccc(-c2cc(Cl)cc3c2O[C@@H](C(F)(F)F)C(C(=O)NCCCCNC(=O)c2ccc(-c4c5nc(c(-c6c(F)cccc6F)c6ccc([nH]6)c(-c6c(F)cccc6F)c6nc(c(-c7c(F)cccc7F)c7ccc4[nH]7)C=C6)C=C5)cc2)=C3)cc1
REMARK SMILES IDX 25 1 24 2 23 3 22 4 20 5 21 6 19 8 6 9 7 10 12 11 8 12 11 13
REMARK SMILES IDX 13 14 9 15 10 16 84 17 14 18 5 19 1 20 2 21 3 22 86 23 4 24
REMARK SMILES IDX 85 25 15 26 16 27 17 28 18 29 26 30 27 31 28 32 29 34 30 35
REMARK SMILES IDX 31 36 83 37 32 38 82 39 33 40 34 41 35 42 76 43 36 44 81 45
REMARK SMILES IDX 75 46 77 47 37 48 80 49 74 50 73 51 38 53 64 54 47 55 63 56
REMARK SMILES IDX 48 57 51 58 62 59 78 60 49 61 50 62 61 64 79 65 52 66 39 67
REMARK SMILES IDX 40 68 45 69 41 70 42 71 44 72 46 73 43 74 65 75 66 76 71 77
REMARK SMILES IDX 67 78 68 79 70 80 72 81 69 82 53 83 54 84 59 85 55 86 56 87
REMARK SMILES IDX 58 88 60 89 57 90
REMARK H PARENT 22 7 27 33 77 52 51 63
REMARK Flexibility Score: inf
ROOT
ATOM      1  C   UNL A   1      37.786  22.524  24.961  1.00  0.00     0.023 C 
ENDROOT
BRANCH   1   2
ATOM      2  C   UNL A   1      36.781  23.638  25.274  1.00  0.00     0.023 C 
BRANCH   2   3
ATOM      3  C   UNL A   1      35.358  23.240  25.706  1.00  0.00     0.116 C 
BRANCH   3   4
ATOM      4  N   UNL A   1      34.457  24.334  26.043  1.00  0.00    -0.352 N 
ATOM      5  C   UNL A   1      33.092  24.457  25.999  1.00  0.00     0.251 C 
ATOM      6  O   UNL A   1      32.583  25.158  26.879  1.00  0.00    -0.270 OA
ATOM      7  H   UNL A   1      34.918  25.141  26.365  1.00  0.00     0.163 HD
BRANCH   5   8
ATOM      8  C   UNL A   1      32.207  23.900  24.876  1.00  0.00     0.067 C 
ATOM      9  C   UNL A   1      31.835  27.763  23.954  1.00  0.00     0.026 A 
ATOM     10  C   UNL A   1      30.614  28.298  23.498  1.00  0.00     0.033 A 
ATOM     11  C   UNL A   1      31.882  26.371  23.986  1.00  0.00     0.135 A 
ATOM     12  C   UNL A   1      29.456  27.510  23.501  1.00  0.00     0.042 A 
ATOM     13  C   UNL A   1      30.716  25.653  24.347  1.00  0.00     0.019 A 
ATOM     14  O   UNL A   1      33.014  25.665  23.513  1.00  0.00    -0.475 OA
ATOM     15  Cl  UNL A   1      27.962  28.205  23.011  1.00  0.00    -0.084 Cl
ATOM     16  C   UNL A   1      29.485  26.215  24.028  1.00  0.00     0.032 A 
ATOM     17  C   UNL A   1      30.908  24.299  24.983  1.00  0.00     0.025 C 
ATOM     18  C   UNL A   1      32.667  24.241  23.472  1.00  0.00     0.314 C 
BRANCH   9  19
ATOM     19  C   UNL A   1      32.411  28.520  25.110  1.00  0.00    -0.015 A 
ATOM     20  C   UNL A   1      34.108  31.284  28.001  1.00  0.00     0.044 C 
ATOM     21  C   UNL A   1      33.498  30.299  27.046  1.00  0.00    -0.051 A 
ATOM     22  C   UNL A   1      34.190  29.144  26.646  1.00  0.00     0.004 A 
ATOM     23  C   UNL A   1      32.228  30.527  26.528  1.00  0.00     0.004 A 
ATOM     24  C   UNL A   1      33.656  28.264  25.684  1.00  0.00     0.009 A 
ATOM     25  C   UNL A   1      31.695  29.648  25.587  1.00  0.00     0.009 A 
ENDBRANCH   9  19
BRANCH  18  26
ATOM     26  C   UNL A   1      33.518  23.171  22.774  1.00  0.00     0.429 C 
ATOM     27  F   UNL A   1      33.057  22.957  21.510  1.00  0.00    -0.167 F 
ATOM     28  F   UNL A   1      34.819  23.490  22.667  1.00  0.00    -0.167 F 
ATOM     29  F   UNL A   1      33.424  21.962  23.383  1.00  0.00    -0.167 F 
ENDBRANCH  18  26
ENDBRANCH   5   8
ENDBRANCH   3   4
ENDBRANCH   2   3
ENDBRANCH   1   2
BRANCH   1  30
ATOM     30  C   UNL A   1      38.472  21.858  26.146  1.00  0.00     0.116 C 
BRANCH  30  31
ATOM     31  N   UNL A   1      39.920  21.977  26.252  1.00  0.00    -0.352 N 
ATOM     32  C   UNL A   1      40.696  23.127  26.416  1.00  0.00     0.251 C 
ATOM     33  H   UNL A   1      40.420  21.131  26.200  1.00  0.00     0.163 HD
ATOM     34  O   UNL A   1      41.907  23.052  26.374  1.00  0.00    -0.269 OA
BRANCH  32  35
ATOM     35  C   UNL A   1      40.044  24.420  26.795  1.00  0.00     0.039 A 
ATOM     36  C   UNL A   1      40.454  25.581  26.127  1.00  0.00     0.014 A 
ATOM     37  C   UNL A   1      39.256  24.533  27.932  1.00  0.00     0.014 A 
ATOM     38  C   UNL A   1      40.351  26.815  26.771  1.00  0.00     0.010 A 
ATOM     39  C   UNL A   1      39.283  25.716  28.638  1.00  0.00     0.010 A 
ATOM     40  C   UNL A   1      39.892  26.842  28.085  1.00  0.00    -0.014 A 
BRANCH  40  41
ATOM     41  C   UNL A   1      40.112  27.956  28.998  1.00  0.00     0.031 A 
ATOM     42  C   UNL A   1      39.119  29.040  29.109  1.00  0.00     0.074 A 
ATOM     43  C   UNL A   1      41.174  27.926  29.835  1.00  0.00     0.049 A 
ATOM     44  N   UNL A   1      39.403  30.247  29.466  1.00  0.00    -0.248 NA
ATOM     45  C   UNL A   1      37.708  28.846  28.802  1.00  0.00     0.031 C 
ATOM     46  C   UNL A   1      41.422  28.794  30.982  1.00  0.00     0.029 A 
ATOM     47  N   UNL A   1      42.363  27.195  29.689  1.00  0.00    -0.354 N 
ATOM     48  C   UNL A   1      38.215  30.896  29.715  1.00  0.00     0.074 A 
ATOM     49  C   UNL A   1      37.190  30.003  29.225  1.00  0.00     0.031 C 
ATOM     50  C   UNL A   1      42.736  28.784  31.256  1.00  0.00     0.029 A 
ATOM     51  C   UNL A   1      43.389  28.012  30.213  1.00  0.00     0.049 A 
ATOM     52  H   UNL A   1      42.461  26.296  29.300  1.00  0.00     0.167 HD
ATOM     53  C   UNL A   1      38.219  32.052  30.439  1.00  0.00     0.037 A 
ATOM     54  C   UNL A   1      44.399  28.470  29.419  1.00  0.00     0.037 A 
ATOM     55  C   UNL A   1      39.576  32.418  30.838  1.00  0.00     0.049 A 
ATOM     56  C   UNL A   1      44.454  29.974  29.306  1.00  0.00     0.074 A 
ATOM     57  C   UNL A   1      40.282  32.223  32.013  1.00  0.00     0.029 A 
ATOM     58  N   UNL A   1      40.510  32.780  29.873  1.00  0.00    -0.354 N 
ATOM     59  N   UNL A   1      43.469  30.765  29.633  1.00  0.00    -0.248 NA
ATOM     60  C   UNL A   1      45.610  30.709  28.800  1.00  0.00     0.031 C 
ATOM     61  C   UNL A   1      41.657  32.420  31.741  1.00  0.00     0.029 A 
ATOM     62  C   UNL A   1      41.786  32.755  30.405  1.00  0.00     0.049 A 
ATOM     63  H   UNL A   1      40.295  33.020  28.944  1.00  0.00     0.167 HD
ATOM     64  C   UNL A   1      43.816  32.067  29.377  1.00  0.00     0.074 A 
ATOM     65  C   UNL A   1      45.176  31.980  28.880  1.00  0.00     0.031 C 
ATOM     66  C   UNL A   1      42.945  33.098  29.593  1.00  0.00     0.037 A 
BRANCH  53  67
ATOM     67  C   UNL A   1      36.972  32.655  31.049  1.00  0.00     0.057 A 
ATOM     68  C   UNL A   1      36.538  32.287  32.338  1.00  0.00     0.134 A 
ATOM     69  C   UNL A   1      36.128  33.571  30.397  1.00  0.00     0.134 A 
ATOM     70  F   UNL A   1      37.287  31.527  33.146  1.00  0.00    -0.206 F 
ATOM     71  C   UNL A   1      35.304  32.684  32.871  1.00  0.00     0.040 A 
ATOM     72  C   UNL A   1      34.867  33.934  30.893  1.00  0.00     0.040 A 
ATOM     73  F   UNL A   1      36.510  34.197  29.276  1.00  0.00    -0.206 F 
ATOM     74  C   UNL A   1      34.442  33.475  32.130  1.00  0.00     0.006 A 
ENDBRANCH  53  67
BRANCH  54  75
ATOM     75  C   UNL A   1      44.790  27.501  28.364  1.00  0.00     0.057 A 
ATOM     76  C   UNL A   1      45.571  26.394  28.739  1.00  0.00     0.134 A 
ATOM     77  C   UNL A   1      44.092  27.407  27.157  1.00  0.00     0.134 A 
ATOM     78  F   UNL A   1      46.272  26.423  29.885  1.00  0.00    -0.206 F 
ATOM     79  C   UNL A   1      45.558  25.199  28.015  1.00  0.00     0.040 A 
ATOM     80  C   UNL A   1      44.079  26.217  26.418  1.00  0.00     0.040 A 
ATOM     81  F   UNL A   1      43.310  28.413  26.741  1.00  0.00    -0.206 F 
ATOM     82  C   UNL A   1      44.777  25.096  26.869  1.00  0.00     0.006 A 
ENDBRANCH  54  75
BRANCH  66  83
ATOM     83  C   UNL A   1      43.122  34.537  29.160  1.00  0.00     0.057 A 
ATOM     84  C   UNL A   1      43.176  35.630  30.036  1.00  0.00     0.134 A 
ATOM     85  C   UNL A   1      43.396  34.848  27.806  1.00  0.00     0.134 A 
ATOM     86  F   UNL A   1      43.051  35.477  31.361  1.00  0.00    -0.206 F 
ATOM     87  C   UNL A   1      43.423  36.938  29.595  1.00  0.00     0.040 A 
ATOM     88  C   UNL A   1      43.701  36.138  27.364  1.00  0.00     0.040 A 
ATOM     89  F   UNL A   1      43.403  33.907  26.851  1.00  0.00    -0.206 F 
ATOM     90  C   UNL A   1      43.701  37.195  28.258  1.00  0.00     0.006 A 
ENDBRANCH  66  83
ENDBRANCH  40  41
ENDBRANCH  32  35
ENDBRANCH  30  31
ENDBRANCH   1  30
TORSDOF 13
ENDMDL
MODEL 3
REMARK VINA RESULT:     -12.6      1.630      2.647
REMARK SMILES Cc1ccc(-c2cc(Cl)cc3c2O[C@@H](C(F)(F)F)C(C(=O)NCCCCNC(=O)c2ccc(-c4c5nc(c(-c6c(F)cccc6F)c6ccc([nH]6)c(-c6c(F)cccc6F)c6nc(c(-c7c(F)cccc7F)c7ccc4[nH]7)C=C6)C=C5)cc2)=C3)cc1
REMARK SMILES IDX 25 1 24 2 23 3 22 4 20 5 21 6 19 8 6 9 7 10 12 11 8 12 11 13
REMARK SMILES IDX 13 14 9 15 10 16 84 17 14 18 5 19 1 20 2 21 3 22 86 23 4 24
REMARK SMILES IDX 85 25 15 26 16 27 17 28 18 29 26 30 27 31 28 32 29 34 30 35
REMARK SMILES IDX 31 36 83 37 32 38 82 39 33 40 34 41 35 42 76 43 36 44 81 45
REMARK SMILES IDX 75 46 77 47 37 48 80 49 74 50 73 51 38 53 64 54 47 55 63 56
REMARK SMILES IDX 48 57 51 58 62 59 78 60 49 61 50 62 61 64 79 65 52 66 39 67
REMARK SMILES IDX 40 68 45 69 41 70 42 71 44 72 46 73 43 74 65 75 66 76 71 77
REMARK SMILES IDX 67 78 68 79 70 80 72 81 69 82 53 83 54 84 59 85 55 86 56 87
REMARK SMILES IDX 58 88 60 89 57 90
REMARK H PARENT 22 7 27 33 77 52 51 63
REMARK Flexibility Score: inf
ROOT
ATOM      1  C   UNL A   1      34.489  28.743  26.854  1.00  0.00     0.023 C 
ENDROOT
BRANCH   1   2
ATOM      2  C   UNL A   1      33.140  28.918  26.146  1.00  0.00     0.023 C 
BRANCH   2   3
ATOM      3  C   UNL A   1      32.924  28.210  24.796  1.00  0.00     0.116 C 
BRANCH   3   4
ATOM      4  N   UNL A   1      33.637  26.955  24.606  1.00  0.00    -0.352 N 
ATOM      5  C   UNL A   1      33.380  25.851  23.834  1.00  0.00     0.251 C 
ATOM      6  O   UNL A   1      34.367  25.269  23.375  1.00  0.00    -0.270 OA
ATOM      7  H   UNL A   1      34.465  26.886  25.134  1.00  0.00     0.163 HD
BRANCH   5   8
ATOM      8  C   UNL A   1      31.986  25.242  23.629  1.00  0.00     0.067 C 
ATOM      9  C   UNL A   1      33.658  22.100  25.430  1.00  0.00     0.026 A 
ATOM     10  C   UNL A   1      33.364  20.780  25.033  1.00  0.00     0.033 A 
ATOM     11  C   UNL A   1      32.814  23.068  24.892  1.00  0.00     0.135 A 
ATOM     12  C   UNL A   1      32.586  20.545  23.893  1.00  0.00     0.042 A 
ATOM     13  C   UNL A   1      32.342  22.908  23.566  1.00  0.00     0.019 A 
ATOM     14  O   UNL A   1      32.295  24.114  25.692  1.00  0.00    -0.475 OA
ATOM     15  Cl  UNL A   1      32.302  18.927  23.384  1.00  0.00    -0.084 Cl
ATOM     16  C   UNL A   1      32.163  21.612  23.095  1.00  0.00     0.032 A 
ATOM     17  C   UNL A   1      32.002  24.161  22.799  1.00  0.00     0.025 C 
ATOM     18  C   UNL A   1      31.280  24.819  24.903  1.00  0.00     0.314 C 
BRANCH   9  19
ATOM     19  C   UNL A   1      35.128  22.383  25.474  1.00  0.00    -0.015 A 
ATOM     20  C   UNL A   1      39.412  22.692  26.125  1.00  0.00     0.044 C 
ATOM     21  C   UNL A   1      37.940  22.605  25.845  1.00  0.00    -0.051 A 
ATOM     22  C   UNL A   1      37.083  23.691  26.090  1.00  0.00     0.004 A 
ATOM     23  C   UNL A   1      37.395  21.426  25.348  1.00  0.00     0.004 A 
ATOM     24  C   UNL A   1      35.690  23.583  25.911  1.00  0.00     0.009 A 
ATOM     25  C   UNL A   1      36.017  21.326  25.158  1.00  0.00     0.009 A 
ENDBRANCH   9  19
BRANCH  18  26
ATOM     26  C   UNL A   1      30.298  25.842  25.488  1.00  0.00     0.429 C 
ATOM     27  F   UNL A   1      29.943  26.749  24.535  1.00  0.00    -0.167 F 
ATOM     28  F   UNL A   1      29.160  25.303  25.957  1.00  0.00    -0.167 F 
ATOM     29  F   UNL A   1      30.856  26.585  26.477  1.00  0.00    -0.167 F 
ENDBRANCH  18  26
ENDBRANCH   5   8
ENDBRANCH   3   4
ENDBRANCH   2   3
ENDBRANCH   1   2
BRANCH   1  30
ATOM     30  C   UNL A   1      35.129  29.993  27.442  1.00  0.00     0.116 C 
BRANCH  30  31
ATOM     31  N   UNL A   1      34.305  31.186  27.570  1.00  0.00    -0.352 N 
ATOM     32  C   UNL A   1      34.424  32.242  28.478  1.00  0.00     0.251 C 
ATOM     33  H   UNL A   1      33.561  31.259  26.928  1.00  0.00     0.163 HD
ATOM     34  O   UNL A   1      33.576  33.110  28.513  1.00  0.00    -0.269 OA
BRANCH  32  35
ATOM     35  C   UNL A   1      35.668  32.385  29.296  1.00  0.00     0.039 A 
ATOM     36  C   UNL A   1      36.713  33.156  28.771  1.00  0.00     0.014 A 
ATOM     37  C   UNL A   1      35.905  31.589  30.409  1.00  0.00     0.014 A 
ATOM     38  C   UNL A   1      38.027  32.879  29.150  1.00  0.00     0.010 A 
ATOM     39  C   UNL A   1      37.199  31.205  30.682  1.00  0.00     0.010 A 
ATOM     40  C   UNL A   1      38.260  31.802  30.001  1.00  0.00    -0.014 A 
BRANCH  40  41
ATOM     41  C   UNL A   1      39.555  31.153  30.152  1.00  0.00     0.031 A 
ATOM     42  C   UNL A   1      39.844  29.886  29.455  1.00  0.00     0.074 A 
ATOM     43  C   UNL A   1      40.536  31.784  30.838  1.00  0.00     0.049 A 
ATOM     44  N   UNL A   1      40.693  29.009  29.872  1.00  0.00    -0.248 NA
ATOM     45  C   UNL A   1      39.171  29.498  28.222  1.00  0.00     0.031 C 
ATOM     46  C   UNL A   1      41.952  31.434  30.880  1.00  0.00     0.029 A 
ATOM     47  N   UNL A   1      40.397  32.789  31.806  1.00  0.00    -0.354 N 
ATOM     48  C   UNL A   1      40.893  28.108  28.851  1.00  0.00     0.074 A 
ATOM     49  C   UNL A   1      39.875  28.418  27.872  1.00  0.00     0.031 C 
ATOM     50  C   UNL A   1      42.494  31.963  31.988  1.00  0.00     0.029 A 
ATOM     51  C   UNL A   1      41.416  32.558  32.757  1.00  0.00     0.049 A 
ATOM     52  H   UNL A   1      39.726  33.509  31.820  1.00  0.00     0.167 HD
ATOM     53  C   UNL A   1      41.986  27.292  28.877  1.00  0.00     0.037 A 
ATOM     54  C   UNL A   1      41.114  32.247  34.050  1.00  0.00     0.037 A 
ATOM     55  C   UNL A   1      42.795  27.536  30.069  1.00  0.00     0.049 A 
ATOM     56  C   UNL A   1      41.605  30.886  34.482  1.00  0.00     0.074 A 
ATOM     57  C   UNL A   1      43.933  28.298  30.278  1.00  0.00     0.029 A 
ATOM     58  N   UNL A   1      42.287  27.234  31.328  1.00  0.00    -0.354 N 
ATOM     59  N   UNL A   1      41.976  29.949  33.653  1.00  0.00    -0.248 NA
ATOM     60  C   UNL A   1      41.701  30.462  35.876  1.00  0.00     0.031 C 
ATOM     61  C   UNL A   1      44.081  28.498  31.672  1.00  0.00     0.029 A 
ATOM     62  C   UNL A   1      43.046  27.841  32.312  1.00  0.00     0.049 A 
ATOM     63  H   UNL A   1      41.499  26.670  31.496  1.00  0.00     0.167 HD
ATOM     64  C   UNL A   1      42.328  28.824  34.354  1.00  0.00     0.074 A 
ATOM     65  C   UNL A   1      42.163  29.205  35.743  1.00  0.00     0.031 C 
ATOM     66  C   UNL A   1      42.718  27.676  33.721  1.00  0.00     0.037 A 
BRANCH  53  67
ATOM     67  C   UNL A   1      42.477  26.521  27.671  1.00  0.00     0.057 A 
ATOM     68  C   UNL A   1      43.062  27.179  26.571  1.00  0.00     0.134 A 
ATOM     69  C   UNL A   1      42.360  25.129  27.512  1.00  0.00     0.134 A 
ATOM     70  F   UNL A   1      43.366  28.482  26.607  1.00  0.00    -0.206 F 
ATOM     71  C   UNL A   1      43.371  26.531  25.368  1.00  0.00     0.040 A 
ATOM     72  C   UNL A   1      42.613  24.475  26.297  1.00  0.00     0.040 A 
ATOM     73  F   UNL A   1      42.046  24.333  28.543  1.00  0.00    -0.206 F 
ATOM     74  C   UNL A   1      43.105  25.180  25.211  1.00  0.00     0.006 A 
ENDBRANCH  53  67
BRANCH  54  75
ATOM     75  C   UNL A   1      39.888  32.927  34.538  1.00  0.00     0.057 A 
ATOM     76  C   UNL A   1      38.685  32.198  34.544  1.00  0.00     0.134 A 
ATOM     77  C   UNL A   1      39.950  34.057  35.358  1.00  0.00     0.134 A 
ATOM     78  F   UNL A   1      38.558  31.105  33.774  1.00  0.00    -0.206 F 
ATOM     79  C   UNL A   1      37.639  32.502  35.420  1.00  0.00     0.040 A 
ATOM     80  C   UNL A   1      38.904  34.377  36.233  1.00  0.00     0.040 A 
ATOM     81  F   UNL A   1      41.070  34.792  35.421  1.00  0.00    -0.206 F 
ATOM     82  C   UNL A   1      37.765  33.574  36.298  1.00  0.00     0.006 A 
ENDBRANCH  54  75
BRANCH  66  83
ATOM     83  C   UNL A   1      42.926  26.319  34.356  1.00  0.00     0.057 A 
ATOM     84  C   UNL A   1      41.925  25.578  34.998  1.00  0.00     0.134 A 
ATOM     85  C   UNL A   1      44.159  25.640  34.200  1.00  0.00     0.134 A 
ATOM     86  F   UNL A   1      40.674  26.042  35.119  1.00  0.00    -0.206 F 
ATOM     87  C   UNL A   1      42.146  24.288  35.499  1.00  0.00     0.040 A 
ATOM     88  C   UNL A   1      44.373  24.332  34.644  1.00  0.00     0.040 A 
ATOM     89  F   UNL A   1      45.208  26.206  33.587  1.00  0.00    -0.206 F 
ATOM     90  C   UNL A   1      43.367  23.653  35.312  1.00  0.00     0.006 A 
ENDBRANCH  66  83
ENDBRANCH  40  41
ENDBRANCH  32  35
ENDBRANCH  30  31
ENDBRANCH   1  30
TORSDOF 13
ENDMDL
