MODEL 1
REMARK VINA RESULT:     -13.4      0.000      0.000
REMARK SMILES CN1C(=O)C[C@@H](C(=O)NCCCCNC(=O)c2ccc(-c3c4nc(c(-c5c(F)cccc5F)c5ccc([nH]5)c(-c5c(F)cccc5F)c5nc(c(-c6c(F)cccc6F)c6ccc3[nH]6)C=C5)C=C4)cc2)C12CCN(C(=O)c1cccc3ccccc13)CC2
REMARK SMILES IDX 12 1 11 2 10 3 9 4 7 5 8 6 6 8 1 9 2 10 3 11 71 12 4 13 5 14
REMARK SMILES IDX 72 15 88 16 73 17 87 18 74 19 75 20 76 21 77 22 78 23 86 24
REMARK SMILES IDX 79 25 81 26 85 27 80 28 82 29 84 30 83 31 13 32 14 33 15 34
REMARK SMILES IDX 16 36 17 37 18 38 70 39 19 40 69 41 20 42 21 43 22 44 63 45
REMARK SMILES IDX 23 46 68 47 62 48 64 49 24 50 67 51 61 52 60 53 25 55 51 56
REMARK SMILES IDX 34 57 50 58 35 59 38 60 49 61 65 62 36 63 37 64 48 66 66 67
REMARK SMILES IDX 39 68 26 69 27 70 32 71 28 72 29 73 31 74 33 75 30 76 52 77
REMARK SMILES IDX 53 78 58 79 54 80 55 81 57 82 59 83 56 84 40 85 41 86 46 87
REMARK SMILES IDX 42 88 43 89 45 90 47 91 44 92
REMARK H PARENT 9 7 14 35 64 54 38 65
REMARK Flexibility Score: inf
ROOT
ATOM      1  C   UNL A   1      39.104  21.484  25.751  1.00  0.00     0.023 C 
ENDROOT
BRANCH   1   2
ATOM      2  C   UNL A   1      39.072  22.893  26.327  1.00  0.00     0.023 C 
BRANCH   2   3
ATOM      3  C   UNL A   1      37.747  23.631  26.104  1.00  0.00     0.116 C 
BRANCH   3   4
ATOM      4  N   UNL A   1      37.129  23.398  24.808  1.00  0.00    -0.356 N 
ATOM      5  C   UNL A   1      36.002  22.747  24.418  1.00  0.00     0.226 C 
ATOM      6  O   UNL A   1      35.720  22.822  23.215  1.00  0.00    -0.275 OA
ATOM      7  H   UNL A   1      37.630  23.795  24.059  1.00  0.00     0.163 HD
BRANCH   5   8
ATOM      8  C   UNL A   1      35.105  21.900  25.330  1.00  0.00     0.113 C 
ATOM      9  C   UNL A   1      32.255  20.148  23.628  1.00  0.00     0.147 C 
ATOM     10  N   UNL A   1      33.452  20.606  24.309  1.00  0.00    -0.339 N 
ATOM     11  C   UNL A   1      34.479  19.710  24.603  1.00  0.00     0.223 C 
ATOM     12  C   UNL A   1      33.590  21.892  25.015  1.00  0.00     0.058 C 
ATOM     13  O   UNL A   1      34.542  18.543  24.267  1.00  0.00    -0.275 OA
ATOM     14  C   UNL A   1      35.543  20.439  25.376  1.00  0.00     0.116 C 
ATOM     15  C   UNL A   1      33.157  23.128  24.199  1.00  0.00     0.051 C 
ATOM     16  C   UNL A   1      32.706  21.839  26.298  1.00  0.00     0.051 C 
ATOM     17  C   UNL A   1      33.199  24.421  25.008  1.00  0.00     0.122 C 
ATOM     18  C   UNL A   1      32.555  23.189  27.010  1.00  0.00     0.122 C 
ATOM     19  N   UNL A   1      32.241  24.270  26.073  1.00  0.00    -0.338 N 
ATOM     20  C   UNL A   1      31.016  24.925  26.133  1.00  0.00     0.254 C 
ATOM     21  O   UNL A   1      30.110  24.546  26.876  1.00  0.00    -0.269 OA
BRANCH  20  22
ATOM     22  C   UNL A   1      30.788  26.217  25.423  1.00  0.00     0.047 A 
ATOM     23  C   UNL A   1      30.099  26.064  24.207  1.00  0.00     0.014 A 
ATOM     24  C   UNL A   1      31.401  27.464  25.753  1.00  0.00    -0.006 A 
ATOM     25  C   UNL A   1      30.077  27.091  23.273  1.00  0.00     0.001 A 
ATOM     26  C   UNL A   1      31.412  28.478  24.759  1.00  0.00    -0.018 A 
ATOM     27  C   UNL A   1      31.995  27.796  26.994  1.00  0.00     0.009 A 
ATOM     28  C   UNL A   1      30.770  28.270  23.530  1.00  0.00     0.009 A 
ATOM     29  C   UNL A   1      32.063  29.702  24.992  1.00  0.00     0.009 A 
ATOM     30  C   UNL A   1      32.531  29.063  27.255  1.00  0.00     0.001 A 
ATOM     31  C   UNL A   1      32.598  30.003  26.240  1.00  0.00     0.001 A 
ENDBRANCH  20  22
ENDBRANCH   5   8
ENDBRANCH   3   4
ENDBRANCH   2   3
ENDBRANCH   1   2
BRANCH   1  32
ATOM     32  C   UNL A   1      39.650  20.457  26.727  1.00  0.00     0.116 C 
BRANCH  32  33
ATOM     33  N   UNL A   1      40.680  19.616  26.124  1.00  0.00    -0.352 N 
ATOM     34  C   UNL A   1      41.973  19.941  25.804  1.00  0.00     0.251 C 
ATOM     35  H   UNL A   1      40.410  18.691  25.920  1.00  0.00     0.163 HD
ATOM     36  O   UNL A   1      42.664  19.201  25.114  1.00  0.00    -0.269 OA
BRANCH  34  37
ATOM     37  C   UNL A   1      42.499  21.226  26.292  1.00  0.00     0.039 A 
ATOM     38  C   UNL A   1      42.808  22.229  25.375  1.00  0.00     0.014 A 
ATOM     39  C   UNL A   1      42.564  21.456  27.668  1.00  0.00     0.014 A 
ATOM     40  C   UNL A   1      43.103  23.506  25.847  1.00  0.00     0.010 A 
ATOM     41  C   UNL A   1      42.754  22.749  28.128  1.00  0.00     0.010 A 
ATOM     42  C   UNL A   1      43.024  23.785  27.223  1.00  0.00    -0.014 A 
BRANCH  42  43
ATOM     43  C   UNL A   1      43.209  25.158  27.747  1.00  0.00     0.031 A 
ATOM     44  C   UNL A   1      44.575  25.608  28.178  1.00  0.00     0.074 A 
ATOM     45  C   UNL A   1      42.137  25.955  27.919  1.00  0.00     0.049 A 
ATOM     46  N   UNL A   1      44.929  26.723  28.763  1.00  0.00    -0.248 NA
ATOM     47  C   UNL A   1      45.686  24.667  27.957  1.00  0.00     0.031 C 
ATOM     48  C   UNL A   1      40.753  25.603  27.590  1.00  0.00     0.029 A 
ATOM     49  N   UNL A   1      42.041  27.223  28.433  1.00  0.00    -0.354 N 
ATOM     50  C   UNL A   1      46.292  26.607  28.996  1.00  0.00     0.074 A 
ATOM     51  C   UNL A   1      46.693  25.295  28.543  1.00  0.00     0.031 C 
ATOM     52  C   UNL A   1      39.952  26.635  27.893  1.00  0.00     0.029 A 
ATOM     53  C   UNL A   1      40.755  27.703  28.481  1.00  0.00     0.049 A 
ATOM     54  H   UNL A   1      42.821  27.741  28.738  1.00  0.00     0.167 HD
ATOM     55  C   UNL A   1      47.138  27.524  29.520  1.00  0.00     0.037 A 
ATOM     56  C   UNL A   1      40.275  28.865  28.963  1.00  0.00     0.037 A 
ATOM     57  C   UNL A   1      46.736  28.838  29.942  1.00  0.00     0.049 A 
ATOM     58  C   UNL A   1      41.238  29.864  29.546  1.00  0.00     0.074 A 
ATOM     59  C   UNL A   1      47.527  29.870  30.413  1.00  0.00     0.029 A 
ATOM     60  N   UNL A   1      45.427  29.299  29.952  1.00  0.00    -0.354 N 
ATOM     61  N   UNL A   1      42.539  29.777  29.681  1.00  0.00    -0.248 NA
ATOM     62  C   UNL A   1      40.666  31.123  30.042  1.00  0.00     0.031 C 
ATOM     63  C   UNL A   1      46.692  30.934  30.764  1.00  0.00     0.029 A 
ATOM     64  C   UNL A   1      45.385  30.589  30.454  1.00  0.00     0.049 A 
ATOM     65  H   UNL A   1      44.644  28.785  29.647  1.00  0.00     0.167 HD
ATOM     66  C   UNL A   1      42.944  30.977  30.251  1.00  0.00     0.074 A 
ATOM     67  C   UNL A   1      41.753  31.783  30.417  1.00  0.00     0.031 C 
ATOM     68  C   UNL A   1      44.190  31.376  30.608  1.00  0.00     0.037 A 
BRANCH  55  69
ATOM     69  C   UNL A   1      48.581  27.138  29.669  1.00  0.00     0.057 A 
ATOM     70  C   UNL A   1      49.055  26.460  30.799  1.00  0.00     0.134 A 
ATOM     71  C   UNL A   1      49.498  27.408  28.645  1.00  0.00     0.134 A 
ATOM     72  F   UNL A   1      48.232  26.184  31.823  1.00  0.00    -0.206 F 
ATOM     73  C   UNL A   1      50.394  26.082  30.916  1.00  0.00     0.040 A 
ATOM     74  C   UNL A   1      50.832  27.008  28.737  1.00  0.00     0.040 A 
ATOM     75  F   UNL A   1      49.110  28.052  27.535  1.00  0.00    -0.206 F 
ATOM     76  C   UNL A   1      51.284  26.349  29.878  1.00  0.00     0.006 A 
ENDBRANCH  55  69
BRANCH  56  77
ATOM     77  C   UNL A   1      38.818  29.150  28.922  1.00  0.00     0.057 A 
ATOM     78  C   UNL A   1      38.192  29.562  27.738  1.00  0.00     0.134 A 
ATOM     79  C   UNL A   1      38.018  29.040  30.066  1.00  0.00     0.134 A 
ATOM     80  F   UNL A   1      38.905  29.703  26.612  1.00  0.00    -0.206 F 
ATOM     81  C   UNL A   1      36.833  29.882  27.702  1.00  0.00     0.040 A 
ATOM     82  C   UNL A   1      36.653  29.328  30.037  1.00  0.00     0.040 A 
ATOM     83  F   UNL A   1      38.552  28.640  31.229  1.00  0.00    -0.206 F 
ATOM     84  C   UNL A   1      36.059  29.762  28.854  1.00  0.00     0.006 A 
ENDBRANCH  56  77
BRANCH  68  85
ATOM     85  C   UNL A   1      44.331  32.755  31.185  1.00  0.00     0.057 A 
ATOM     86  C   UNL A   1      44.516  33.881  30.373  1.00  0.00     0.134 A 
ATOM     87  C   UNL A   1      44.237  32.962  32.567  1.00  0.00     0.134 A 
ATOM     88  F   UNL A   1      44.627  33.751  29.043  1.00  0.00    -0.206 F 
ATOM     89  C   UNL A   1      44.626  35.162  30.918  1.00  0.00     0.040 A 
ATOM     90  C   UNL A   1      44.314  34.239  33.120  1.00  0.00     0.040 A 
ATOM     91  F   UNL A   1      44.050  31.927  33.400  1.00  0.00    -0.206 F 
ATOM     92  C   UNL A   1      44.517  35.344  32.296  1.00  0.00     0.006 A 
ENDBRANCH  68  85
ENDBRANCH  42  43
ENDBRANCH  34  37
ENDBRANCH  32  33
ENDBRANCH   1  32
TORSDOF 12
ENDMDL
MODEL 2
REMARK VINA RESULT:     -13.2      1.610      6.091
REMARK SMILES CN1C(=O)C[C@@H](C(=O)NCCCCNC(=O)c2ccc(-c3c4nc(c(-c5c(F)cccc5F)c5ccc([nH]5)c(-c5c(F)cccc5F)c5nc(c(-c6c(F)cccc6F)c6ccc3[nH]6)C=C5)C=C4)cc2)C12CCN(C(=O)c1cccc3ccccc13)CC2
REMARK SMILES IDX 12 1 11 2 10 3 9 4 7 5 8 6 6 8 1 9 2 10 3 11 71 12 4 13 5 14
REMARK SMILES IDX 72 15 88 16 73 17 87 18 74 19 75 20 76 21 77 22 78 23 86 24
REMARK SMILES IDX 79 25 81 26 85 27 80 28 82 29 84 30 83 31 13 32 14 33 15 34
REMARK SMILES IDX 16 36 17 37 18 38 70 39 19 40 69 41 20 42 21 43 22 44 63 45
REMARK SMILES IDX 23 46 68 47 62 48 64 49 24 50 67 51 61 52 60 53 25 55 51 56
REMARK SMILES IDX 34 57 50 58 35 59 38 60 49 61 65 62 36 63 37 64 48 66 66 67
REMARK SMILES IDX 39 68 26 69 27 70 32 71 28 72 29 73 31 74 33 75 30 76 52 77
REMARK SMILES IDX 53 78 58 79 54 80 55 81 57 82 59 83 56 84 40 85 41 86 46 87
REMARK SMILES IDX 42 88 43 89 45 90 47 91 44 92
REMARK H PARENT 9 7 14 35 64 54 38 65
REMARK Flexibility Score: inf
ROOT
ATOM      1  C   UNL A   1      38.956  21.816  26.586  1.00  0.00     0.023 C 
ENDROOT
BRANCH   1   2
ATOM      2  C   UNL A   1      38.968  23.307  26.279  1.00  0.00     0.023 C 
BRANCH   2   3
ATOM      3  C   UNL A   1      37.578  23.908  26.039  1.00  0.00     0.116 C 
BRANCH   3   4
ATOM      4  N   UNL A   1      36.990  23.590  24.747  1.00  0.00    -0.356 N 
ATOM      5  C   UNL A   1      35.906  22.859  24.373  1.00  0.00     0.226 C 
ATOM      6  O   UNL A   1      35.634  22.870  23.165  1.00  0.00    -0.275 OA
ATOM      7  H   UNL A   1      37.476  23.985  23.987  1.00  0.00     0.163 HD
BRANCH   5   8
ATOM      8  C   UNL A   1      35.050  21.999  25.310  1.00  0.00     0.113 C 
ATOM      9  C   UNL A   1      32.240  20.124  23.672  1.00  0.00     0.147 C 
ATOM     10  N   UNL A   1      33.429  20.633  24.330  1.00  0.00    -0.339 N 
ATOM     11  C   UNL A   1      34.489  19.777  24.626  1.00  0.00     0.223 C 
ATOM     12  C   UNL A   1      33.532  21.935  25.014  1.00  0.00     0.058 C 
ATOM     13  O   UNL A   1      34.587  18.608  24.308  1.00  0.00    -0.275 OA
ATOM     14  C   UNL A   1      35.537  20.553  25.374  1.00  0.00     0.116 C 
ATOM     15  C   UNL A   1      33.048  23.142  24.184  1.00  0.00     0.051 C 
ATOM     16  C   UNL A   1      32.666  21.873  26.309  1.00  0.00     0.051 C 
ATOM     17  C   UNL A   1      33.056  24.449  24.972  1.00  0.00     0.122 C 
ATOM     18  C   UNL A   1      32.479  23.229  27.001  1.00  0.00     0.122 C 
ATOM     19  N   UNL A   1      32.117  24.283  26.051  1.00  0.00    -0.338 N 
ATOM     20  C   UNL A   1      30.872  24.898  26.116  1.00  0.00     0.254 C 
ATOM     21  O   UNL A   1      29.988  24.501  26.877  1.00  0.00    -0.269 OA
BRANCH  20  22
ATOM     22  C   UNL A   1      30.592  26.170  25.388  1.00  0.00     0.047 A 
ATOM     23  C   UNL A   1      29.953  25.969  24.152  1.00  0.00     0.014 A 
ATOM     24  C   UNL A   1      31.121  27.453  25.727  1.00  0.00    -0.006 A 
ATOM     25  C   UNL A   1      29.901  26.987  23.210  1.00  0.00     0.001 A 
ATOM     26  C   UNL A   1      31.104  28.459  24.725  1.00  0.00    -0.018 A 
ATOM     27  C   UNL A   1      31.654  27.827  26.984  1.00  0.00     0.009 A 
ATOM     28  C   UNL A   1      30.516  28.206  23.478  1.00  0.00     0.009 A 
ATOM     29  C   UNL A   1      31.675  29.721  24.969  1.00  0.00     0.009 A 
ATOM     30  C   UNL A   1      32.106  29.124  27.251  1.00  0.00     0.001 A 
ATOM     31  C   UNL A   1      32.151  30.061  26.231  1.00  0.00     0.001 A 
ENDBRANCH  20  22
ENDBRANCH   5   8
ENDBRANCH   3   4
ENDBRANCH   2   3
ENDBRANCH   1   2
BRANCH   1  32
ATOM     32  C   UNL A   1      39.286  20.959  25.376  1.00  0.00     0.116 C 
BRANCH  32  33
ATOM     33  N   UNL A   1      39.986  19.732  25.744  1.00  0.00    -0.352 N 
ATOM     34  C   UNL A   1      41.291  19.572  26.134  1.00  0.00     0.251 C 
ATOM     35  H   UNL A   1      39.449  18.907  25.708  1.00  0.00     0.163 HD
ATOM     36  O   UNL A   1      41.801  18.462  26.213  1.00  0.00    -0.269 OA
BRANCH  34  37
ATOM     37  C   UNL A   1      42.073  20.784  26.426  1.00  0.00     0.039 A 
ATOM     38  C   UNL A   1      42.491  21.597  25.374  1.00  0.00     0.014 A 
ATOM     39  C   UNL A   1      42.277  21.159  27.756  1.00  0.00     0.014 A 
ATOM     40  C   UNL A   1      43.044  22.843  25.662  1.00  0.00     0.010 A 
ATOM     41  C   UNL A   1      42.728  22.438  28.036  1.00  0.00     0.010 A 
ATOM     42  C   UNL A   1      43.115  23.292  26.993  1.00  0.00    -0.014 A 
BRANCH  42  43
ATOM     43  C   UNL A   1      43.581  24.657  27.326  1.00  0.00     0.031 A 
ATOM     44  C   UNL A   1      42.596  25.675  27.827  1.00  0.00     0.074 A 
ATOM     45  C   UNL A   1      44.862  25.001  27.087  1.00  0.00     0.049 A 
ATOM     46  N   UNL A   1      42.776  26.947  28.068  1.00  0.00    -0.248 NA
ATOM     47  C   UNL A   1      41.217  25.210  28.052  1.00  0.00     0.031 C 
ATOM     48  C   UNL A   1      45.894  24.112  26.546  1.00  0.00     0.029 A 
ATOM     49  N   UNL A   1      45.510  26.198  27.252  1.00  0.00    -0.354 N 
ATOM     50  C   UNL A   1      41.535  27.434  28.452  1.00  0.00     0.074 A 
ATOM     51  C   UNL A   1      40.598  26.339  28.358  1.00  0.00     0.031 C 
ATOM     52  C   UNL A   1      47.047  24.790  26.442  1.00  0.00     0.029 A 
ATOM     53  C   UNL A   1      46.827  26.170  26.861  1.00  0.00     0.049 A 
ATOM     54  H   UNL A   1      45.073  27.002  27.616  1.00  0.00     0.167 HD
ATOM     55  C   UNL A   1      41.212  28.681  28.868  1.00  0.00     0.037 A 
ATOM     56  C   UNL A   1      47.747  27.152  26.827  1.00  0.00     0.037 A 
ATOM     57  C   UNL A   1      42.157  29.758  28.986  1.00  0.00     0.049 A 
ATOM     58  C   UNL A   1      47.358  28.530  27.290  1.00  0.00     0.074 A 
ATOM     59  C   UNL A   1      41.948  31.035  29.472  1.00  0.00     0.029 A 
ATOM     60  N   UNL A   1      43.489  29.685  28.606  1.00  0.00    -0.354 N 
ATOM     61  N   UNL A   1      46.201  28.958  27.734  1.00  0.00    -0.248 NA
ATOM     62  C   UNL A   1      48.403  29.562  27.250  1.00  0.00     0.031 C 
ATOM     63  C   UNL A   1      43.138  31.755  29.331  1.00  0.00     0.029 A 
ATOM     64  C   UNL A   1      44.106  30.908  28.814  1.00  0.00     0.049 A 
ATOM     65  H   UNL A   1      43.930  28.884  28.242  1.00  0.00     0.167 HD
ATOM     66  C   UNL A   1      46.385  30.297  28.050  1.00  0.00     0.074 A 
ATOM     67  C   UNL A   1      47.771  30.606  27.766  1.00  0.00     0.031 C 
ATOM     68  C   UNL A   1      45.487  31.194  28.529  1.00  0.00     0.037 A 
BRANCH  55  69
ATOM     69  C   UNL A   1      39.778  28.947  29.224  1.00  0.00     0.057 A 
ATOM     70  C   UNL A   1      38.835  29.337  28.265  1.00  0.00     0.134 A 
ATOM     71  C   UNL A   1      39.327  28.767  30.538  1.00  0.00     0.134 A 
ATOM     72  F   UNL A   1      39.205  29.542  26.991  1.00  0.00    -0.206 F 
ATOM     73  C   UNL A   1      37.499  29.557  28.601  1.00  0.00     0.040 A 
ATOM     74  C   UNL A   1      37.987  28.955  30.881  1.00  0.00     0.040 A 
ATOM     75  F   UNL A   1      40.177  28.394  31.505  1.00  0.00    -0.206 F 
ATOM     76  C   UNL A   1      37.070  29.357  29.912  1.00  0.00     0.006 A 
ENDBRANCH  55  69
BRANCH  56  77
ATOM     77  C   UNL A   1      49.121  26.876  26.335  1.00  0.00     0.057 A 
ATOM     78  C   UNL A   1      49.451  27.020  24.981  1.00  0.00     0.134 A 
ATOM     79  C   UNL A   1      50.133  26.441  27.200  1.00  0.00     0.134 A 
ATOM     80  F   UNL A   1      48.521  27.416  24.100  1.00  0.00    -0.206 F 
ATOM     81  C   UNL A   1      50.726  26.713  24.501  1.00  0.00     0.040 A 
ATOM     82  C   UNL A   1      51.420  26.160  26.739  1.00  0.00     0.040 A 
ATOM     83  F   UNL A   1      49.888  26.294  28.510  1.00  0.00    -0.206 F 
ATOM     84  C   UNL A   1      51.715  26.284  25.383  1.00  0.00     0.006 A 
ENDBRANCH  56  77
BRANCH  68  85
ATOM     85  C   UNL A   1      45.984  32.583  28.806  1.00  0.00     0.057 A 
ATOM     86  C   UNL A   1      46.558  32.934  30.034  1.00  0.00     0.134 A 
ATOM     87  C   UNL A   1      45.927  33.571  27.814  1.00  0.00     0.134 A 
ATOM     88  F   UNL A   1      46.631  32.039  31.031  1.00  0.00    -0.206 F 
ATOM     89  C   UNL A   1      47.035  34.224  30.275  1.00  0.00     0.040 A 
ATOM     90  C   UNL A   1      46.429  34.853  28.030  1.00  0.00     0.040 A 
ATOM     91  F   UNL A   1      45.399  33.299  26.610  1.00  0.00    -0.206 F 
ATOM     92  C   UNL A   1      46.978  35.185  29.267  1.00  0.00     0.006 A 
ENDBRANCH  68  85
ENDBRANCH  42  43
ENDBRANCH  34  37
ENDBRANCH  32  33
ENDBRANCH   1  32
TORSDOF 12
ENDMDL
MODEL 3
REMARK VINA RESULT:     -13.2      0.491      5.864
REMARK SMILES CN1C(=O)C[C@@H](C(=O)NCCCCNC(=O)c2ccc(-c3c4nc(c(-c5c(F)cccc5F)c5ccc([nH]5)c(-c5c(F)cccc5F)c5nc(c(-c6c(F)cccc6F)c6ccc3[nH]6)C=C5)C=C4)cc2)C12CCN(C(=O)c1cccc3ccccc13)CC2
REMARK SMILES IDX 12 1 11 2 10 3 9 4 7 5 8 6 6 8 1 9 2 10 3 11 71 12 4 13 5 14
REMARK SMILES IDX 72 15 88 16 73 17 87 18 74 19 75 20 76 21 77 22 78 23 86 24
REMARK SMILES IDX 79 25 81 26 85 27 80 28 82 29 84 30 83 31 13 32 14 33 15 34
REMARK SMILES IDX 16 36 17 37 18 38 70 39 19 40 69 41 20 42 21 43 22 44 63 45
REMARK SMILES IDX 23 46 68 47 62 48 64 49 24 50 67 51 61 52 60 53 25 55 51 56
REMARK SMILES IDX 34 57 50 58 35 59 38 60 49 61 65 62 36 63 37 64 48 66 66 67
REMARK SMILES IDX 39 68 26 69 27 70 32 71 28 72 29 73 31 74 33 75 30 76 52 77
REMARK SMILES IDX 53 78 58 79 54 80 55 81 57 82 59 83 56 84 40 85 41 86 46 87
REMARK SMILES IDX 42 88 43 89 45 90 47 91 44 92
REMARK H PARENT 9 7 14 35 64 54 38 65
REMARK Flexibility Score: inf
ROOT
ATOM      1  C   UNL A   1      39.013  21.826  25.814  1.00  0.00     0.023 C 
ENDROOT
BRANCH   1   2
ATOM      2  C   UNL A   1      38.907  23.242  26.363  1.00  0.00     0.023 C 
BRANCH   2   3
ATOM      3  C   UNL A   1      37.564  23.925  26.082  1.00  0.00     0.116 C 
BRANCH   3   4
ATOM      4  N   UNL A   1      36.977  23.609  24.789  1.00  0.00    -0.356 N 
ATOM      5  C   UNL A   1      35.900  22.872  24.411  1.00  0.00     0.226 C 
ATOM      6  O   UNL A   1      35.627  22.887  23.204  1.00  0.00    -0.275 OA
ATOM      7  H   UNL A   1      37.460  24.012  24.031  1.00  0.00     0.163 HD
BRANCH   5   8
ATOM      8  C   UNL A   1      35.050  22.000  25.344  1.00  0.00     0.113 C 
ATOM      9  C   UNL A   1      32.240  20.129  23.701  1.00  0.00     0.147 C 
ATOM     10  N   UNL A   1      33.430  20.637  24.359  1.00  0.00    -0.339 N 
ATOM     11  C   UNL A   1      34.494  19.782  24.643  1.00  0.00     0.223 C 
ATOM     12  C   UNL A   1      33.531  21.933  25.054  1.00  0.00     0.058 C 
ATOM     13  O   UNL A   1      34.595  18.616  24.315  1.00  0.00    -0.275 OA
ATOM     14  C   UNL A   1      35.542  20.556  25.393  1.00  0.00     0.116 C 
ATOM     15  C   UNL A   1      33.039  23.145  24.236  1.00  0.00     0.051 C 
ATOM     16  C   UNL A   1      32.671  21.857  26.351  1.00  0.00     0.051 C 
ATOM     17  C   UNL A   1      33.046  24.446  25.034  1.00  0.00     0.122 C 
ATOM     18  C   UNL A   1      32.481  23.206  27.055  1.00  0.00     0.122 C 
ATOM     19  N   UNL A   1      32.112  24.267  26.116  1.00  0.00    -0.338 N 
ATOM     20  C   UNL A   1      30.864  24.877  26.191  1.00  0.00     0.254 C 
ATOM     21  O   UNL A   1      29.986  24.471  26.952  1.00  0.00    -0.269 OA
BRANCH  20  22
ATOM     22  C   UNL A   1      30.577  26.154  25.475  1.00  0.00     0.047 A 
ATOM     23  C   UNL A   1      29.912  25.963  24.252  1.00  0.00     0.014 A 
ATOM     24  C   UNL A   1      31.121  27.432  25.810  1.00  0.00    -0.006 A 
ATOM     25  C   UNL A   1      29.847  26.986  23.316  1.00  0.00     0.001 A 
ATOM     26  C   UNL A   1      31.089  28.443  24.813  1.00  0.00    -0.018 A 
ATOM     27  C   UNL A   1      31.682  27.797  27.057  1.00  0.00     0.009 A 
ATOM     28  C   UNL A   1      30.474  28.200  23.577  1.00  0.00     0.009 A 
ATOM     29  C   UNL A   1      31.673  29.701  25.051  1.00  0.00     0.009 A 
ATOM     30  C   UNL A   1      32.147  29.090  27.321  1.00  0.00     0.001 A 
ATOM     31  C   UNL A   1      32.177  30.032  26.305  1.00  0.00     0.001 A 
ENDBRANCH  20  22
ENDBRANCH   5   8
ENDBRANCH   3   4
ENDBRANCH   2   3
ENDBRANCH   1   2
BRANCH   1  32
ATOM     32  C   UNL A   1      39.647  20.856  26.796  1.00  0.00     0.116 C 
BRANCH  32  33
ATOM     33  N   UNL A   1      40.643  20.000  26.158  1.00  0.00    -0.352 N 
ATOM     34  C   UNL A   1      41.946  20.288  25.842  1.00  0.00     0.251 C 
ATOM     35  H   UNL A   1      40.338  19.093  25.924  1.00  0.00     0.163 HD
ATOM     36  O   UNL A   1      42.606  19.547  25.123  1.00  0.00    -0.269 OA
BRANCH  34  37
ATOM     37  C   UNL A   1      42.520  21.535  26.371  1.00  0.00     0.039 A 
ATOM     38  C   UNL A   1      42.761  22.598  25.502  1.00  0.00     0.014 A 
ATOM     39  C   UNL A   1      42.701  21.671  27.749  1.00  0.00     0.014 A 
ATOM     40  C   UNL A   1      43.104  23.839  26.033  1.00  0.00     0.010 A 
ATOM     41  C   UNL A   1      42.939  22.928  28.279  1.00  0.00     0.010 A 
ATOM     42  C   UNL A   1      43.141  24.024  27.426  1.00  0.00    -0.014 A 
BRANCH  42  43
ATOM     43  C   UNL A   1      43.380  25.357  28.025  1.00  0.00     0.031 A 
ATOM     44  C   UNL A   1      42.218  26.269  28.290  1.00  0.00     0.074 A 
ATOM     45  C   UNL A   1      44.644  25.774  28.239  1.00  0.00     0.049 A 
ATOM     46  N   UNL A   1      42.221  27.510  28.703  1.00  0.00    -0.248 NA
ATOM     47  C   UNL A   1      40.874  25.729  28.021  1.00  0.00     0.031 C 
ATOM     48  C   UNL A   1      45.854  24.996  27.964  1.00  0.00     0.029 A 
ATOM     49  N   UNL A   1      45.120  26.967  28.719  1.00  0.00    -0.354 N 
ATOM     50  C   UNL A   1      40.890  27.901  28.723  1.00  0.00     0.074 A 
ATOM     51  C   UNL A   1      40.110  26.790  28.229  1.00  0.00     0.031 C 
ATOM     52  C   UNL A   1      46.931  25.724  28.297  1.00  0.00     0.029 A 
ATOM     53  C   UNL A   1      46.492  27.036  28.763  1.00  0.00     0.049 A 
ATOM     54  H   UNL A   1      44.535  27.705  29.006  1.00  0.00     0.167 HD
ATOM     55  C   UNL A   1      40.363  29.077  29.140  1.00  0.00     0.037 A 
ATOM     56  C   UNL A   1      47.303  28.049  29.119  1.00  0.00     0.037 A 
ATOM     57  C   UNL A   1      41.145  30.167  29.657  1.00  0.00     0.049 A 
ATOM     58  C   UNL A   1      46.690  29.347  29.573  1.00  0.00     0.074 A 
ATOM     59  C   UNL A   1      40.703  31.369  30.179  1.00  0.00     0.029 A 
ATOM     60  N   UNL A   1      42.531  30.190  29.711  1.00  0.00    -0.354 N 
ATOM     61  N   UNL A   1      45.425  29.675  29.669  1.00  0.00    -0.248 NA
ATOM     62  C   UNL A   1      47.619  30.415  29.968  1.00  0.00     0.031 C 
ATOM     63  C   UNL A   1      41.822  32.145  30.493  1.00  0.00     0.029 A 
ATOM     64  C   UNL A   1      42.962  31.402  30.225  1.00  0.00     0.049 A 
ATOM     65  H   UNL A   1      43.120  29.455  29.426  1.00  0.00     0.167 HD
ATOM     66  C   UNL A   1      45.404  30.973  30.161  1.00  0.00     0.074 A 
ATOM     67  C   UNL A   1      46.783  31.366  30.361  1.00  0.00     0.031 C 
ATOM     68  C   UNL A   1      44.339  31.772  30.421  1.00  0.00     0.037 A 
BRANCH  55  69
ATOM     69  C   UNL A   1      38.875  29.244  29.050  1.00  0.00     0.057 A 
ATOM     70  C   UNL A   1      38.046  29.126  30.173  1.00  0.00     0.134 A 
ATOM     71  C   UNL A   1      38.268  29.574  27.832  1.00  0.00     0.134 A 
ATOM     72  F   UNL A   1      38.561  28.797  31.368  1.00  0.00    -0.206 F 
ATOM     73  C   UNL A   1      36.665  29.309  30.085  1.00  0.00     0.040 A 
ATOM     74  C   UNL A   1      36.893  29.790  27.736  1.00  0.00     0.040 A 
ATOM     75  F   UNL A   1      39.004  29.705  26.718  1.00  0.00    -0.206 F 
ATOM     76  C   UNL A   1      36.086  29.652  28.864  1.00  0.00     0.006 A 
ENDBRANCH  55  69
BRANCH  56  77
ATOM     77  C   UNL A   1      48.778  27.886  29.061  1.00  0.00     0.057 A 
ATOM     78  C   UNL A   1      49.495  28.171  27.892  1.00  0.00     0.134 A 
ATOM     79  C   UNL A   1      49.506  27.419  30.162  1.00  0.00     0.134 A 
ATOM     80  F   UNL A   1      48.854  28.605  26.797  1.00  0.00    -0.206 F 
ATOM     81  C   UNL A   1      50.875  27.971  27.811  1.00  0.00     0.040 A 
ATOM     82  C   UNL A   1      50.890  27.242  30.105  1.00  0.00     0.040 A 
ATOM     83  F   UNL A   1      48.883  27.137  31.315  1.00  0.00    -0.206 F 
ATOM     84  C   UNL A   1      51.576  27.508  28.922  1.00  0.00     0.006 A 
ENDBRANCH  56  77
BRANCH  68  85
ATOM     85  C   UNL A   1      44.623  33.136  30.978  1.00  0.00     0.057 A 
ATOM     86  C   UNL A   1      44.752  34.261  30.154  1.00  0.00     0.134 A 
ATOM     87  C   UNL A   1      44.725  33.334  32.361  1.00  0.00     0.134 A 
ATOM     88  F   UNL A   1      44.677  34.139  28.819  1.00  0.00    -0.206 F 
ATOM     89  C   UNL A   1      44.996  35.530  30.683  1.00  0.00     0.040 A 
ATOM     90  C   UNL A   1      44.937  34.600  32.904  1.00  0.00     0.040 A 
ATOM     91  F   UNL A   1      44.601  32.300  33.208  1.00  0.00    -0.206 F 
ATOM     92  C   UNL A   1      45.081  35.702  32.064  1.00  0.00     0.006 A 
ENDBRANCH  68  85
ENDBRANCH  42  43
ENDBRANCH  34  37
ENDBRANCH  32  33
ENDBRANCH   1  32
TORSDOF 12
ENDMDL
