MODEL 1
REMARK VINA RESULT:     -12.3      0.000      0.000
REMARK SMILES NS(=O)(=O)c1ccc(-n2nc(C(=O)NCCCCNC(=O)c3ccc(-c4c5nc(c(-c6c(F)cccc6F)c6ccc([nH]6)c(-c6c(F)cccc6F)c6nc(c(-c7c(F)cccc7F)c7ccc4[nH]7)C=C6)C=C5)cc3)cc2-c2ccc(Cl)s2)cc1
REMARK SMILES IDX 16 1 15 2 14 3 12 4 13 5 11 7 9 8 10 9 77 10 76 11 8 12 5 13
REMARK SMILES IDX 6 14 85 15 7 16 84 17 2 18 3 19 4 20 1 21 78 24 79 25 83 26
REMARK SMILES IDX 80 27 81 28 82 29 17 30 18 31 19 32 20 33 21 35 22 36 23 37
REMARK SMILES IDX 75 38 24 39 74 40 25 41 26 42 27 43 68 44 28 45 73 46 67 47
REMARK SMILES IDX 69 48 29 49 72 50 66 51 65 52 30 54 56 55 39 56 55 57 40 58
REMARK SMILES IDX 43 59 54 60 70 61 41 62 42 63 53 65 71 66 44 67 31 68 32 69
REMARK SMILES IDX 37 70 33 71 34 72 36 73 38 74 35 75 57 76 58 77 63 78 59 79
REMARK SMILES IDX 60 80 62 81 64 82 61 83 45 84 46 85 51 86 47 87 48 88 50 89
REMARK SMILES IDX 52 90 49 91
REMARK H PARENT 14 6 1 22 1 23 19 34 69 53 43 64
REMARK Flexibility Score: inf
ROOT
ATOM      1  C   UNL A   1      33.270  27.559  26.359  1.00  0.00     0.023 C 
ENDROOT
BRANCH   1   2
ATOM      2  C   UNL A   1      31.862  27.046  26.669  1.00  0.00     0.116 C 
BRANCH   2   3
ATOM      3  N   UNL A   1      31.091  26.798  25.468  1.00  0.00    -0.351 N 
ATOM      4  C   UNL A   1      31.158  25.843  24.476  1.00  0.00     0.271 C 
ATOM      5  O   UNL A   1      30.286  25.930  23.606  1.00  0.00    -0.267 OA
ATOM      6  H   UNL A   1      30.367  27.451  25.330  1.00  0.00     0.163 HD
BRANCH   4   7
ATOM      7  C   UNL A   1      32.173  24.763  24.469  1.00  0.00     0.151 A 
ATOM      8  N   UNL A   1      32.909  22.733  24.549  1.00  0.00    -0.231 N 
ATOM      9  N   UNL A   1      31.791  23.471  24.350  1.00  0.00    -0.162 NA
ATOM     10  C   UNL A   1      34.033  23.528  24.645  1.00  0.00     0.085 A 
ATOM     11  C   UNL A   1      33.584  24.824  24.544  1.00  0.00     0.066 A 
BRANCH   8  12
ATOM     12  C   UNL A   1      32.837  21.320  24.631  1.00  0.00     0.065 A 
ATOM     13  C   UNL A   1      32.929  18.540  24.719  1.00  0.00     0.082 A 
ATOM     14  C   UNL A   1      33.201  19.275  25.876  1.00  0.00     0.024 A 
ATOM     15  C   UNL A   1      32.570  19.187  23.530  1.00  0.00     0.024 A 
ATOM     16  C   UNL A   1      33.170  20.668  25.827  1.00  0.00     0.030 A 
ATOM     17  C   UNL A   1      32.491  20.581  23.492  1.00  0.00     0.030 A 
BRANCH  13  18
ATOM     18  S   UNL A   1      33.089  16.779  24.701  1.00  0.00     0.238 S 
ATOM     19  O   UNL A   1      33.363  16.359  23.353  1.00  0.00    -0.207 OA
ATOM     20  O   UNL A   1      32.021  16.216  25.502  1.00  0.00    -0.207 OA
BRANCH  18  21
ATOM     21  N   UNL A   1      34.504  16.469  25.559  1.00  0.00    -0.225 NA
ATOM     22  H   UNL A   1      34.572  17.112  26.347  1.00  0.00     0.137 HD
ATOM     23  H   UNL A   1      35.309  16.598  24.945  1.00  0.00     0.137 HD
ENDBRANCH  18  21
ENDBRANCH  13  18
ENDBRANCH   8  12
BRANCH  10  24
ATOM     24  C   UNL A   1      35.397  23.102  24.716  1.00  0.00     0.054 A 
ATOM     25  C   UNL A   1      36.036  22.242  23.843  1.00  0.00     0.024 A 
ATOM     26  S   UNL A   1      36.410  23.546  26.025  1.00  0.00    -0.122 S 
ATOM     27  C   UNL A   1      37.367  21.944  24.261  1.00  0.00     0.033 A 
ATOM     28  C   UNL A   1      37.671  22.586  25.434  1.00  0.00     0.094 A 
ATOM     29  Cl  UNL A   1      39.145  22.482  26.306  1.00  0.00    -0.072 Cl
ENDBRANCH  10  24
ENDBRANCH   4   7
ENDBRANCH   2   3
ENDBRANCH   1   2
BRANCH   1  30
ATOM     30  C   UNL A   1      33.653  28.874  27.063  1.00  0.00     0.023 C 
BRANCH  30  31
ATOM     31  C   UNL A   1      35.122  28.998  27.460  1.00  0.00     0.116 C 
BRANCH  31  32
ATOM     32  N   UNL A   1      35.337  29.871  28.612  1.00  0.00    -0.352 N 
ATOM     33  C   UNL A   1      36.375  29.838  29.526  1.00  0.00     0.251 C 
ATOM     34  H   UNL A   1      34.659  30.570  28.755  1.00  0.00     0.163 HD
ATOM     35  O   UNL A   1      36.228  30.298  30.652  1.00  0.00    -0.269 OA
BRANCH  33  36
ATOM     36  C   UNL A   1      37.673  29.261  29.126  1.00  0.00     0.039 A 
ATOM     37  C   UNL A   1      38.351  29.708  27.990  1.00  0.00     0.014 A 
ATOM     38  C   UNL A   1      38.211  28.243  29.912  1.00  0.00     0.014 A 
ATOM     39  C   UNL A   1      39.607  29.175  27.706  1.00  0.00     0.010 A 
ATOM     40  C   UNL A   1      39.504  27.823  29.718  1.00  0.00     0.010 A 
ATOM     41  C   UNL A   1      40.192  28.249  28.592  1.00  0.00    -0.014 A 
BRANCH  41  42
ATOM     42  C   UNL A   1      41.600  27.878  28.457  1.00  0.00     0.031 A 
ATOM     43  C   UNL A   1      41.777  26.625  27.679  1.00  0.00     0.074 A 
ATOM     44  C   UNL A   1      42.643  28.665  28.808  1.00  0.00     0.049 A 
ATOM     45  N   UNL A   1      42.094  25.467  28.152  1.00  0.00    -0.248 NA
ATOM     46  C   UNL A   1      41.354  26.593  26.268  1.00  0.00     0.031 C 
ATOM     47  C   UNL A   1      42.602  30.039  29.320  1.00  0.00     0.029 A 
ATOM     48  N   UNL A   1      43.986  28.435  28.707  1.00  0.00    -0.354 N 
ATOM     49  C   UNL A   1      42.190  24.629  27.048  1.00  0.00     0.074 A 
ATOM     50  C   UNL A   1      41.495  25.296  25.981  1.00  0.00     0.031 C 
ATOM     51  C   UNL A   1      43.837  30.587  29.265  1.00  0.00     0.029 A 
ATOM     52  C   UNL A   1      44.789  29.567  28.866  1.00  0.00     0.049 A 
ATOM     53  H   UNL A   1      44.359  27.539  28.534  1.00  0.00     0.167 HD
ATOM     54  C   UNL A   1      43.128  23.641  27.035  1.00  0.00     0.037 A 
ATOM     55  C   UNL A   1      46.134  29.661  28.680  1.00  0.00     0.037 A 
ATOM     56  C   UNL A   1      43.605  23.380  28.378  1.00  0.00     0.049 A 
ATOM     57  C   UNL A   1      46.683  28.288  28.753  1.00  0.00     0.074 A 
ATOM     58  C   UNL A   1      43.018  23.046  29.585  1.00  0.00     0.029 A 
ATOM     59  N   UNL A   1      44.853  23.854  28.693  1.00  0.00    -0.354 N 
ATOM     60  N   UNL A   1      46.739  27.590  29.850  1.00  0.00    -0.248 NA
ATOM     61  C   UNL A   1      46.750  27.524  27.518  1.00  0.00     0.031 C 
ATOM     62  C   UNL A   1      43.755  23.768  30.571  1.00  0.00     0.029 A 
ATOM     63  C   UNL A   1      44.806  24.427  29.933  1.00  0.00     0.049 A 
ATOM     64  H   UNL A   1      45.652  23.792  28.120  1.00  0.00     0.167 HD
ATOM     65  C   UNL A   1      46.347  26.319  29.462  1.00  0.00     0.074 A 
ATOM     66  C   UNL A   1      46.474  26.311  28.004  1.00  0.00     0.031 C 
ATOM     67  C   UNL A   1      45.669  25.512  30.331  1.00  0.00     0.037 A 
BRANCH  54  68
ATOM     68  C   UNL A   1      43.969  23.295  25.818  1.00  0.00     0.057 A 
ATOM     69  C   UNL A   1      44.177  21.935  25.519  1.00  0.00     0.134 A 
ATOM     70  C   UNL A   1      44.838  24.186  25.153  1.00  0.00     0.134 A 
ATOM     71  F   UNL A   1      43.415  20.983  26.081  1.00  0.00    -0.206 F 
ATOM     72  C   UNL A   1      45.246  21.492  24.731  1.00  0.00     0.040 A 
ATOM     73  C   UNL A   1      45.877  23.755  24.324  1.00  0.00     0.040 A 
ATOM     74  F   UNL A   1      44.811  25.509  25.336  1.00  0.00    -0.206 F 
ATOM     75  C   UNL A   1      46.110  22.403  24.143  1.00  0.00     0.006 A 
ENDBRANCH  54  68
BRANCH  55  76
ATOM     76  C   UNL A   1      46.979  30.790  28.214  1.00  0.00     0.057 A 
ATOM     77  C   UNL A   1      46.799  31.355  26.938  1.00  0.00     0.134 A 
ATOM     78  C   UNL A   1      47.757  31.543  29.108  1.00  0.00     0.134 A 
ATOM     79  F   UNL A   1      46.046  30.736  26.016  1.00  0.00    -0.206 F 
ATOM     80  C   UNL A   1      47.318  32.610  26.589  1.00  0.00     0.040 A 
ATOM     81  C   UNL A   1      48.286  32.796  28.771  1.00  0.00     0.040 A 
ATOM     82  F   UNL A   1      47.949  31.134  30.370  1.00  0.00    -0.206 F 
ATOM     83  C   UNL A   1      48.051  33.343  27.516  1.00  0.00     0.006 A 
ENDBRANCH  55  76
BRANCH  67  84
ATOM     84  C   UNL A   1      45.668  25.895  31.787  1.00  0.00     0.057 A 
ATOM     85  C   UNL A   1      46.716  25.651  32.688  1.00  0.00     0.134 A 
ATOM     86  C   UNL A   1      44.582  26.635  32.269  1.00  0.00     0.134 A 
ATOM     87  F   UNL A   1      47.842  25.038  32.301  1.00  0.00    -0.206 F 
ATOM     88  C   UNL A   1      46.656  26.077  34.020  1.00  0.00     0.040 A 
ATOM     89  C   UNL A   1      44.528  27.098  33.585  1.00  0.00     0.040 A 
ATOM     90  F   UNL A   1      43.564  26.952  31.453  1.00  0.00    -0.206 F 
ATOM     91  C   UNL A   1      45.560  26.806  34.470  1.00  0.00     0.006 A 
ENDBRANCH  67  84
ENDBRANCH  41  42
ENDBRANCH  33  36
ENDBRANCH  31  32
ENDBRANCH  30  31
ENDBRANCH   1  30
TORSDOF 15
ENDMDL
MODEL 2
REMARK VINA RESULT:     -12.3      3.766      8.028
REMARK SMILES NS(=O)(=O)c1ccc(-n2nc(C(=O)NCCCCNC(=O)c3ccc(-c4c5nc(c(-c6c(F)cccc6F)c6ccc([nH]6)c(-c6c(F)cccc6F)c6nc(c(-c7c(F)cccc7F)c7ccc4[nH]7)C=C6)C=C5)cc3)cc2-c2ccc(Cl)s2)cc1
REMARK SMILES IDX 16 1 15 2 14 3 12 4 13 5 11 7 9 8 10 9 77 10 76 11 8 12 5 13
REMARK SMILES IDX 6 14 85 15 7 16 84 17 2 18 3 19 4 20 1 21 78 24 79 25 83 26
REMARK SMILES IDX 80 27 81 28 82 29 17 30 18 31 19 32 20 33 21 35 22 36 23 37
REMARK SMILES IDX 75 38 24 39 74 40 25 41 26 42 27 43 68 44 28 45 73 46 67 47
REMARK SMILES IDX 69 48 29 49 72 50 66 51 65 52 30 54 56 55 39 56 55 57 40 58
REMARK SMILES IDX 43 59 54 60 70 61 41 62 42 63 53 65 71 66 44 67 31 68 32 69
REMARK SMILES IDX 37 70 33 71 34 72 36 73 38 74 35 75 57 76 58 77 63 78 59 79
REMARK SMILES IDX 60 80 62 81 64 82 61 83 45 84 46 85 51 86 47 87 48 88 50 89
REMARK SMILES IDX 52 90 49 91
REMARK H PARENT 14 6 1 22 1 23 19 34 69 53 43 64
REMARK Flexibility Score: inf
ROOT
ATOM      1  C   UNL A   1      36.122  22.252  24.066  1.00  0.00     0.023 C 
ENDROOT
BRANCH   1   2
ATOM      2  C   UNL A   1      34.795  22.730  23.472  1.00  0.00     0.116 C 
BRANCH   2   3
ATOM      3  N   UNL A   1      33.656  22.060  24.063  1.00  0.00    -0.351 N 
ATOM      4  C   UNL A   1      32.525  22.505  24.716  1.00  0.00     0.271 C 
ATOM      5  O   UNL A   1      31.735  21.619  25.055  1.00  0.00    -0.267 OA
ATOM      6  H   UNL A   1      33.698  21.079  23.984  1.00  0.00     0.163 HD
BRANCH   4   7
ATOM      7  C   UNL A   1      32.252  23.941  24.958  1.00  0.00     0.151 A 
ATOM      8  N   UNL A   1      31.436  25.900  24.552  1.00  0.00    -0.231 N 
ATOM      9  N   UNL A   1      31.330  24.593  24.214  1.00  0.00    -0.162 NA
ATOM     10  C   UNL A   1      32.304  26.083  25.609  1.00  0.00     0.085 A 
ATOM     11  C   UNL A   1      32.793  24.834  25.913  1.00  0.00     0.066 A 
BRANCH   8  12
ATOM     12  C   UNL A   1      30.702  26.890  23.852  1.00  0.00     0.065 A 
ATOM     13  C   UNL A   1      29.258  28.962  22.685  1.00  0.00     0.082 A 
ATOM     14  C   UNL A   1      30.652  28.959  22.595  1.00  0.00     0.024 A 
ATOM     15  C   UNL A   1      28.580  27.913  23.319  1.00  0.00     0.024 A 
ATOM     16  C   UNL A   1      31.376  27.929  23.194  1.00  0.00     0.030 A 
ATOM     17  C   UNL A   1      29.302  26.854  23.876  1.00  0.00     0.030 A 
BRANCH  13  18
ATOM     18  S   UNL A   1      28.307  30.316  22.059  1.00  0.00     0.238 S 
ATOM     19  O   UNL A   1      27.285  30.639  23.017  1.00  0.00    -0.207 OA
ATOM     20  O   UNL A   1      28.028  30.068  20.659  1.00  0.00    -0.207 OA
BRANCH  18  21
ATOM     21  N   UNL A   1      29.365  31.627  22.080  1.00  0.00    -0.225 NA
ATOM     22  H   UNL A   1      30.153  31.438  21.460  1.00  0.00     0.137 HD
ATOM     23  H   UNL A   1      29.708  31.771  23.030  1.00  0.00     0.137 HD
ENDBRANCH  18  21
ENDBRANCH  13  18
ENDBRANCH   8  12
BRANCH  10  24
ATOM     24  C   UNL A   1      32.561  27.295  26.326  1.00  0.00     0.054 A 
ATOM     25  C   UNL A   1      31.675  27.967  27.148  1.00  0.00     0.024 A 
ATOM     26  S   UNL A   1      34.033  28.152  26.145  1.00  0.00    -0.122 S 
ATOM     27  C   UNL A   1      32.215  29.198  27.625  1.00  0.00     0.033 A 
ATOM     28  C   UNL A   1      33.479  29.404  27.137  1.00  0.00     0.094 A 
ATOM     29  Cl  UNL A   1      34.479  30.768  27.427  1.00  0.00    -0.072 Cl
ENDBRANCH  10  24
ENDBRANCH   4   7
ENDBRANCH   2   3
ENDBRANCH   1   2
BRANCH   1  30
ATOM     30  C   UNL A   1      37.028  23.367  24.618  1.00  0.00     0.023 C 
BRANCH  30  31
ATOM     31  C   UNL A   1      37.389  23.243  26.097  1.00  0.00     0.116 C 
BRANCH  31  32
ATOM     32  N   UNL A   1      38.485  22.311  26.348  1.00  0.00    -0.352 N 
ATOM     33  C   UNL A   1      39.830  22.595  26.498  1.00  0.00     0.251 C 
ATOM     34  H   UNL A   1      38.235  21.361  26.420  1.00  0.00     0.163 HD
ATOM     35  O   UNL A   1      40.677  21.741  26.265  1.00  0.00    -0.269 OA
BRANCH  33  36
ATOM     36  C   UNL A   1      40.239  23.935  26.961  1.00  0.00     0.039 A 
ATOM     37  C   UNL A   1      39.747  25.096  26.361  1.00  0.00     0.014 A 
ATOM     38  C   UNL A   1      41.141  24.019  28.021  1.00  0.00     0.014 A 
ATOM     39  C   UNL A   1      40.113  26.332  26.891  1.00  0.00     0.010 A 
ATOM     40  C   UNL A   1      41.386  25.223  28.633  1.00  0.00     0.010 A 
ATOM     41  C   UNL A   1      40.915  26.389  28.048  1.00  0.00    -0.014 A 
BRANCH  41  42
ATOM     42  C   UNL A   1      41.093  27.649  28.768  1.00  0.00     0.031 A 
ATOM     43  C   UNL A   1      42.309  28.380  28.324  1.00  0.00     0.074 A 
ATOM     44  C   UNL A   1      40.176  28.204  29.593  1.00  0.00     0.049 A 
ATOM     45  N   UNL A   1      43.416  28.494  28.976  1.00  0.00    -0.248 NA
ATOM     46  C   UNL A   1      42.390  28.852  26.930  1.00  0.00     0.031 C 
ATOM     47  C   UNL A   1      38.823  27.722  29.887  1.00  0.00     0.029 A 
ATOM     48  N   UNL A   1      40.225  29.376  30.293  1.00  0.00    -0.354 N 
ATOM     49  C   UNL A   1      44.229  29.301  28.189  1.00  0.00     0.074 A 
ATOM     50  C   UNL A   1      43.655  29.276  26.871  1.00  0.00     0.031 C 
ATOM     51  C   UNL A   1      38.114  28.694  30.507  1.00  0.00     0.029 A 
ATOM     52  C   UNL A   1      38.996  29.809  30.799  1.00  0.00     0.049 A 
ATOM     53  H   UNL A   1      41.062  29.878  30.430  1.00  0.00     0.167 HD
ATOM     54  C   UNL A   1      45.082  30.179  28.786  1.00  0.00     0.037 A 
ATOM     55  C   UNL A   1      38.723  30.995  31.407  1.00  0.00     0.037 A 
ATOM     56  C   UNL A   1      45.283  29.822  30.175  1.00  0.00     0.049 A 
ATOM     57  C   UNL A   1      40.011  31.552  31.880  1.00  0.00     0.074 A 
ATOM     58  C   UNL A   1      45.698  28.689  30.852  1.00  0.00     0.029 A 
ATOM     59  N   UNL A   1      44.649  30.600  31.110  1.00  0.00    -0.354 N 
ATOM     60  N   UNL A   1      40.700  31.044  32.860  1.00  0.00    -0.248 NA
ATOM     61  C   UNL A   1      40.753  32.401  30.964  1.00  0.00     0.031 C 
ATOM     62  C   UNL A   1      44.889  28.639  32.027  1.00  0.00     0.029 A 
ATOM     63  C   UNL A   1      44.093  29.784  32.056  1.00  0.00     0.049 A 
ATOM     64  H   UNL A   1      44.601  31.583  31.102  1.00  0.00     0.167 HD
ATOM     65  C   UNL A   1      42.010  31.091  32.412  1.00  0.00     0.074 A 
ATOM     66  C   UNL A   1      41.994  32.033  31.292  1.00  0.00     0.031 C 
ATOM     67  C   UNL A   1      42.904  30.133  32.795  1.00  0.00     0.037 A 
BRANCH  54  68
ATOM     68  C   UNL A   1      45.307  31.599  28.294  1.00  0.00     0.057 A 
ATOM     69  C   UNL A   1      46.632  32.065  28.196  1.00  0.00     0.134 A 
ATOM     70  C   UNL A   1      44.321  32.607  28.249  1.00  0.00     0.134 A 
ATOM     71  F   UNL A   1      47.666  31.210  28.221  1.00  0.00    -0.206 F 
ATOM     72  C   UNL A   1      46.952  33.428  28.187  1.00  0.00     0.040 A 
ATOM     73  C   UNL A   1      44.630  33.968  28.190  1.00  0.00     0.040 A 
ATOM     74  F   UNL A   1      43.013  32.357  28.360  1.00  0.00    -0.206 F 
ATOM     75  C   UNL A   1      45.949  34.386  28.201  1.00  0.00     0.006 A 
ENDBRANCH  54  68
BRANCH  55  76
ATOM     76  C   UNL A   1      37.489  31.822  31.425  1.00  0.00     0.057 A 
ATOM     77  C   UNL A   1      36.946  32.345  30.237  1.00  0.00     0.134 A 
ATOM     78  C   UNL A   1      36.643  31.854  32.546  1.00  0.00     0.134 A 
ATOM     79  F   UNL A   1      37.656  32.333  29.099  1.00  0.00    -0.206 F 
ATOM     80  C   UNL A   1      35.632  32.826  30.157  1.00  0.00     0.040 A 
ATOM     81  C   UNL A   1      35.329  32.336  32.481  1.00  0.00     0.040 A 
ATOM     82  F   UNL A   1      37.030  31.331  33.717  1.00  0.00    -0.206 F 
ATOM     83  C   UNL A   1      34.812  32.806  31.280  1.00  0.00     0.006 A 
ENDBRANCH  55  76
BRANCH  67  84
ATOM     84  C   UNL A   1      42.531  29.251  33.958  1.00  0.00     0.057 A 
ATOM     85  C   UNL A   1      41.800  28.057  33.863  1.00  0.00     0.134 A 
ATOM     86  C   UNL A   1      43.026  29.589  35.222  1.00  0.00     0.134 A 
ATOM     87  F   UNL A   1      41.365  27.594  32.684  1.00  0.00    -0.206 F 
ATOM     88  C   UNL A   1      41.529  27.270  34.988  1.00  0.00     0.040 A 
ATOM     89  C   UNL A   1      42.796  28.792  36.344  1.00  0.00     0.040 A 
ATOM     90  F   UNL A   1      43.778  30.690  35.382  1.00  0.00    -0.206 F 
ATOM     91  C   UNL A   1      42.031  27.636  36.233  1.00  0.00     0.006 A 
ENDBRANCH  67  84
ENDBRANCH  41  42
ENDBRANCH  33  36
ENDBRANCH  31  32
ENDBRANCH  30  31
ENDBRANCH   1  30
TORSDOF 15
ENDMDL
MODEL 3
REMARK VINA RESULT:     -12.2      2.889      7.001
REMARK SMILES NS(=O)(=O)c1ccc(-n2nc(C(=O)NCCCCNC(=O)c3ccc(-c4c5nc(c(-c6c(F)cccc6F)c6ccc([nH]6)c(-c6c(F)cccc6F)c6nc(c(-c7c(F)cccc7F)c7ccc4[nH]7)C=C6)C=C5)cc3)cc2-c2ccc(Cl)s2)cc1
REMARK SMILES IDX 16 1 15 2 14 3 12 4 13 5 11 7 9 8 10 9 77 10 76 11 8 12 5 13
REMARK SMILES IDX 6 14 85 15 7 16 84 17 2 18 3 19 4 20 1 21 78 24 79 25 83 26
REMARK SMILES IDX 80 27 81 28 82 29 17 30 18 31 19 32 20 33 21 35 22 36 23 37
REMARK SMILES IDX 75 38 24 39 74 40 25 41 26 42 27 43 68 44 28 45 73 46 67 47
REMARK SMILES IDX 69 48 29 49 72 50 66 51 65 52 30 54 56 55 39 56 55 57 40 58
REMARK SMILES IDX 43 59 54 60 70 61 41 62 42 63 53 65 71 66 44 67 31 68 32 69
REMARK SMILES IDX 37 70 33 71 34 72 36 73 38 74 35 75 57 76 58 77 63 78 59 79
REMARK SMILES IDX 60 80 62 81 64 82 61 83 45 84 46 85 51 86 47 87 48 88 50 89
REMARK SMILES IDX 52 90 49 91
REMARK H PARENT 14 6 1 22 1 23 19 34 69 53 43 64
REMARK Flexibility Score: inf
ROOT
ATOM      1  C   UNL A   1      41.198  20.877  26.647  1.00  0.00     0.023 C 
ENDROOT
BRANCH   1   2
ATOM      2  C   UNL A   1      39.930  21.456  26.016  1.00  0.00     0.116 C 
BRANCH   2   3
ATOM      3  N   UNL A   1      39.809  22.883  26.236  1.00  0.00    -0.351 N 
ATOM      4  C   UNL A   1      38.742  23.756  26.246  1.00  0.00     0.271 C 
ATOM      5  O   UNL A   1      39.027  24.927  26.515  1.00  0.00    -0.267 OA
ATOM      6  H   UNL A   1      40.672  23.323  26.414  1.00  0.00     0.163 HD
BRANCH   4   7
ATOM      7  C   UNL A   1      37.347  23.321  25.994  1.00  0.00     0.151 A 
ATOM      8  N   UNL A   1      35.761  21.942  25.494  1.00  0.00    -0.231 N 
ATOM      9  N   UNL A   1      37.055  22.004  25.889  1.00  0.00    -0.162 NA
ATOM     10  C   UNL A   1      35.170  23.189  25.488  1.00  0.00     0.085 A 
ATOM     11  C   UNL A   1      36.158  24.073  25.856  1.00  0.00     0.066 A 
BRANCH   8  12
ATOM     12  C   UNL A   1      35.169  20.700  25.152  1.00  0.00     0.065 A 
ATOM     13  C   UNL A   1      34.029  18.330  24.244  1.00  0.00     0.082 A 
ATOM     14  C   UNL A   1      35.403  18.382  24.493  1.00  0.00     0.024 A 
ATOM     15  C   UNL A   1      33.216  19.444  24.487  1.00  0.00     0.024 A 
ATOM     16  C   UNL A   1      35.975  19.575  24.933  1.00  0.00     0.030 A 
ATOM     17  C   UNL A   1      33.782  20.625  24.974  1.00  0.00     0.030 A 
BRANCH  13  18
ATOM     18  S   UNL A   1      33.282  16.881  23.558  1.00  0.00     0.238 S 
ATOM     19  O   UNL A   1      32.558  16.203  24.600  1.00  0.00    -0.207 OA
ATOM     20  O   UNL A   1      34.258  16.220  22.716  1.00  0.00    -0.207 OA
BRANCH  18  21
ATOM     21  N   UNL A   1      32.102  17.465  22.507  1.00  0.00    -0.225 NA
ATOM     22  H   UNL A   1      31.181  17.338  22.926  1.00  0.00     0.137 HD
ATOM     23  H   UNL A   1      32.149  16.953  21.626  1.00  0.00     0.137 HD
ENDBRANCH  18  21
ENDBRANCH  13  18
ENDBRANCH   8  12
BRANCH  10  24
ATOM     24  C   UNL A   1      33.791  23.498  25.264  1.00  0.00     0.054 A 
ATOM     25  C   UNL A   1      32.787  23.509  26.215  1.00  0.00     0.024 A 
ATOM     26  S   UNL A   1      33.180  23.794  23.691  1.00  0.00    -0.122 S 
ATOM     27  C   UNL A   1      31.506  23.757  25.638  1.00  0.00     0.033 A 
ATOM     28  C   UNL A   1      31.599  23.916  24.279  1.00  0.00     0.094 A 
ATOM     29  Cl  UNL A   1      30.303  24.195  23.189  1.00  0.00    -0.072 Cl
ENDBRANCH  10  24
ENDBRANCH   4   7
ENDBRANCH   2   3
ENDBRANCH   1   2
BRANCH   1  30
ATOM     30  C   UNL A   1      41.640  19.514  26.085  1.00  0.00     0.023 C 
BRANCH  30  31
ATOM     31  C   UNL A   1      43.065  19.092  26.439  1.00  0.00     0.116 C 
BRANCH  31  32
ATOM     32  N   UNL A   1      43.935  18.964  25.272  1.00  0.00    -0.352 N 
ATOM     33  C   UNL A   1      44.396  19.966  24.438  1.00  0.00     0.251 C 
ATOM     34  H   UNL A   1      44.231  18.051  25.054  1.00  0.00     0.163 HD
ATOM     35  O   UNL A   1      44.731  19.712  23.287  1.00  0.00    -0.269 OA
BRANCH  33  36
ATOM     36  C   UNL A   1      44.499  21.345  24.951  1.00  0.00     0.039 A 
ATOM     37  C   UNL A   1      43.620  22.346  24.535  1.00  0.00     0.014 A 
ATOM     38  C   UNL A   1      45.510  21.633  25.868  1.00  0.00     0.014 A 
ATOM     39  C   UNL A   1      43.722  23.611  25.111  1.00  0.00     0.010 A 
ATOM     40  C   UNL A   1      45.520  22.830  26.540  1.00  0.00     0.010 A 
ATOM     41  C   UNL A   1      44.660  23.841  26.136  1.00  0.00    -0.014 A 
BRANCH  41  42
ATOM     42  C   UNL A   1      44.610  25.068  26.929  1.00  0.00     0.031 A 
ATOM     43  C   UNL A   1      45.746  25.977  26.627  1.00  0.00     0.074 A 
ATOM     44  C   UNL A   1      43.565  25.447  27.700  1.00  0.00     0.049 A 
ATOM     45  N   UNL A   1      46.774  26.197  27.375  1.00  0.00    -0.248 NA
ATOM     46  C   UNL A   1      45.870  26.538  25.269  1.00  0.00     0.031 C 
ATOM     47  C   UNL A   1      42.271  24.776  27.855  1.00  0.00     0.029 A 
ATOM     48  N   UNL A   1      43.400  26.572  28.458  1.00  0.00    -0.354 N 
ATOM     49  C   UNL A   1      47.528  27.148  26.700  1.00  0.00     0.074 A 
ATOM     50  C   UNL A   1      47.066  27.128  25.338  1.00  0.00     0.031 C 
ATOM     51  C   UNL A   1      41.391  25.607  28.459  1.00  0.00     0.029 A 
ATOM     52  C   UNL A   1      42.088  26.809  28.878  1.00  0.00     0.049 A 
ATOM     53  H   UNL A   1      44.148  27.170  28.690  1.00  0.00     0.167 HD
ATOM     54  C   UNL A   1      48.205  28.094  27.409  1.00  0.00     0.037 A 
ATOM     55  C   UNL A   1      41.611  27.911  29.519  1.00  0.00     0.037 A 
ATOM     56  C   UNL A   1      48.345  27.684  28.791  1.00  0.00     0.049 A 
ATOM     57  C   UNL A   1      42.771  28.602  30.125  1.00  0.00     0.074 A 
ATOM     58  C   UNL A   1      48.856  26.577  29.444  1.00  0.00     0.029 A 
ATOM     59  N   UNL A   1      47.540  28.314  29.706  1.00  0.00    -0.354 N 
ATOM     60  N   UNL A   1      43.444  28.132  31.134  1.00  0.00    -0.248 NA
ATOM     61  C   UNL A   1      43.459  29.595  29.318  1.00  0.00     0.031 C 
ATOM     62  C   UNL A   1      47.973  26.351  30.542  1.00  0.00     0.029 A 
ATOM     63  C   UNL A   1      47.029  27.378  30.560  1.00  0.00     0.049 A 
ATOM     64  H   UNL A   1      47.360  29.282  29.742  1.00  0.00     0.167 HD
ATOM     65  C   UNL A   1      44.766  28.377  30.802  1.00  0.00     0.074 A 
ATOM     66  C   UNL A   1      44.709  29.374  29.732  1.00  0.00     0.031 C 
ATOM     67  C   UNL A   1      45.750  27.523  31.212  1.00  0.00     0.037 A 
BRANCH  54  68
ATOM     68  C   UNL A   1      48.273  29.558  27.008  1.00  0.00     0.057 A 
ATOM     69  C   UNL A   1      49.505  30.226  27.141  1.00  0.00     0.134 A 
ATOM     70  C   UNL A   1      47.157  30.404  26.838  1.00  0.00     0.134 A 
ATOM     71  F   UNL A   1      50.646  29.539  27.304  1.00  0.00    -0.206 F 
ATOM     72  C   UNL A   1      49.600  31.620  27.230  1.00  0.00     0.040 A 
ATOM     73  C   UNL A   1      47.249  31.798  26.875  1.00  0.00     0.040 A 
ATOM     74  F   UNL A   1      45.905  29.952  26.728  1.00  0.00    -0.206 F 
ATOM     75  C   UNL A   1      48.467  32.411  27.114  1.00  0.00     0.006 A 
ENDBRANCH  54  68
BRANCH  55  76
ATOM     76  C   UNL A   1      40.278  28.566  29.473  1.00  0.00     0.057 A 
ATOM     77  C   UNL A   1      39.766  29.090  28.271  1.00  0.00     0.134 A 
ATOM     78  C   UNL A   1      39.349  28.414  30.514  1.00  0.00     0.134 A 
ATOM     79  F   UNL A   1      40.560  29.246  27.201  1.00  0.00    -0.206 F 
ATOM     80  C   UNL A   1      38.409  29.399  28.102  1.00  0.00     0.040 A 
ATOM     81  C   UNL A   1      37.991  28.723  30.360  1.00  0.00     0.040 A 
ATOM     82  F   UNL A   1      39.708  27.870  31.686  1.00  0.00    -0.206 F 
ATOM     83  C   UNL A   1      37.512  29.198  29.145  1.00  0.00     0.006 A 
ENDBRANCH  55  76
BRANCH  67  84
ATOM     84  C   UNL A   1      45.411  26.532  32.294  1.00  0.00     0.057 A 
ATOM     85  C   UNL A   1      45.418  26.806  33.671  1.00  0.00     0.134 A 
ATOM     86  C   UNL A   1      44.964  25.265  31.906  1.00  0.00     0.134 A 
ATOM     87  F   UNL A   1      45.737  28.019  34.141  1.00  0.00    -0.206 F 
ATOM     88  C   UNL A   1      45.050  25.841  34.615  1.00  0.00     0.040 A 
ATOM     89  C   UNL A   1      44.557  24.307  32.835  1.00  0.00     0.040 A 
ATOM     90  F   UNL A   1      44.881  24.947  30.604  1.00  0.00    -0.206 F 
ATOM     91  C   UNL A   1      44.614  24.587  34.197  1.00  0.00     0.006 A 
ENDBRANCH  67  84
ENDBRANCH  41  42
ENDBRANCH  33  36
ENDBRANCH  31  32
ENDBRANCH  30  31
ENDBRANCH   1  30
TORSDOF 15
ENDMDL
