MODEL 1
REMARK VINA RESULT:     -13.5      0.000      0.000
REMARK SMILES Cc1c(CC(=O)N[C@@H](C)C(=O)NCCCCNC(=O)c2ccc(-c3c4nc(c(-c5c(F)cccc5F)c5ccc([nH]5)c(-c5c(F)cccc5F)c5nc(c(-c6c(F)cccc6F)c6ccc3[nH]6)C=C5)C=C4)cc2)c(=O)oc2cc3oc4c(c3cc12)CCCC4
REMARK SMILES IDX 14 1 13 2 12 3 10 4 11 5 8 7 9 8 7 9 5 10 6 11 4 13 3 14
REMARK SMILES IDX 1 15 2 16 85 17 74 18 77 19 84 20 75 21 76 22 78 23 83 24
REMARK SMILES IDX 79 25 82 26 80 27 81 28 86 29 89 30 87 31 88 32 15 33 16 34
REMARK SMILES IDX 17 35 18 36 19 38 20 39 21 40 73 41 22 42 72 43 23 44 24 45
REMARK SMILES IDX 25 46 66 47 26 48 71 49 65 50 67 51 27 52 70 53 64 54 63 55
REMARK SMILES IDX 28 57 54 58 37 59 53 60 38 61 41 62 52 63 68 64 39 65 40 66
REMARK SMILES IDX 51 68 69 69 42 70 29 71 30 72 35 73 31 74 32 75 34 76 36 77
REMARK SMILES IDX 33 78 55 79 56 80 61 81 57 82 58 83 60 84 62 85 59 86 43 87
REMARK SMILES IDX 44 88 49 89 45 90 46 91 48 92 50 93 47 94
REMARK H PARENT 12 6 7 12 17 37 67 56 41 67
REMARK Flexibility Score: inf
ROOT
ATOM      1  C   UNL A   1      45.626  20.342  35.245  1.00  0.00     0.023 C 
ENDROOT
BRANCH   1   2
ATOM      2  C   UNL A   1      46.177  19.462  36.362  1.00  0.00     0.116 C 
BRANCH   2   3
ATOM      3  N   UNL A   1      47.613  19.645  36.538  1.00  0.00    -0.354 N 
ATOM      4  C   UNL A   1      48.383  19.722  37.658  1.00  0.00     0.242 C 
ATOM      5  O   UNL A   1      49.607  19.681  37.515  1.00  0.00    -0.273 OA
ATOM      6  H   UNL A   1      48.115  19.728  35.695  1.00  0.00     0.163 HD
BRANCH   4   7
ATOM      7  C   UNL A   1      47.742  19.765  39.043  1.00  0.00     0.168 C 
ATOM      8  C   UNL A   1      48.355  20.901  39.861  1.00  0.00     0.041 C 
BRANCH   7   9
ATOM      9  N   UNL A   1      47.866  18.443  39.661  1.00  0.00    -0.344 N 
ATOM     10  C   UNL A   1      46.903  17.629  40.168  1.00  0.00     0.225 C 
ATOM     11  O   UNL A   1      47.224  16.478  40.474  1.00  0.00    -0.275 OA
ATOM     12  H   UNL A   1      48.785  18.091  39.717  1.00  0.00     0.164 HD
BRANCH  10  13
ATOM     13  C   UNL A   1      45.484  18.138  40.374  1.00  0.00     0.143 C 
BRANCH  13  14
ATOM     14  C   UNL A   1      44.520  16.988  40.524  1.00  0.00     0.051 A 
ATOM     15  C   UNL A   1      45.007  16.646  42.978  1.00  0.00     0.046 C 
ATOM     16  C   UNL A   1      44.230  16.400  41.705  1.00  0.00    -0.029 A 
ATOM     17  C   UNL A   1      43.141  15.415  41.754  1.00  0.00     0.022 A 
ATOM     18  C   UNL A   1      43.842  16.579  39.263  1.00  0.00     0.340 A 
ATOM     19  C   UNL A   1      42.589  14.947  40.560  1.00  0.00     0.142 A 
ATOM     20  C   UNL A   1      42.735  14.841  42.964  1.00  0.00     0.024 A 
ATOM     21  O   UNL A   1      44.091  17.121  38.192  1.00  0.00    -0.246 OA
ATOM     22  O   UNL A   1      42.913  15.558  39.337  1.00  0.00    -0.422 OA
ATOM     23  C   UNL A   1      41.779  13.812  40.475  1.00  0.00     0.095 A 
ATOM     24  C   UNL A   1      42.097  13.597  42.898  1.00  0.00     0.025 A 
ATOM     25  C   UNL A   1      41.697  13.100  41.662  1.00  0.00     0.138 A 
ATOM     26  C   UNL A   1      42.024  12.519  43.810  1.00  0.00     0.001 A 
ATOM     27  O   UNL A   1      41.426  11.765  41.756  1.00  0.00    -0.461 OA
ATOM     28  C   UNL A   1      41.819  11.416  43.006  1.00  0.00     0.108 A 
ATOM     29  C   UNL A   1      42.694  12.355  45.125  1.00  0.00     0.040 C 
ATOM     30  C   UNL A   1      42.568  10.148  43.214  1.00  0.00     0.076 C 
ATOM     31  C   UNL A   1      43.990  11.537  44.925  1.00  0.00     0.005 C 
ATOM     32  C   UNL A   1      43.984  10.578  43.695  1.00  0.00     0.008 C 
ENDBRANCH  13  14
ENDBRANCH  10  13
ENDBRANCH   7   9
ENDBRANCH   4   7
ENDBRANCH   2   3
ENDBRANCH   1   2
BRANCH   1  33
ATOM     33  C   UNL A   1      46.392  21.649  35.052  1.00  0.00     0.023 C 
BRANCH  33  34
ATOM     34  C   UNL A   1      45.853  22.806  35.896  1.00  0.00     0.116 C 
BRANCH  34  35
ATOM     35  N   UNL A   1      44.405  22.807  35.989  1.00  0.00    -0.352 N 
ATOM     36  C   UNL A   1      43.506  23.498  35.199  1.00  0.00     0.251 C 
ATOM     37  H   UNL A   1      44.016  22.249  36.701  1.00  0.00     0.163 HD
ATOM     38  O   UNL A   1      42.320  23.498  35.432  1.00  0.00    -0.269 OA
BRANCH  36  39
ATOM     39  C   UNL A   1      44.069  24.290  34.085  1.00  0.00     0.039 A 
ATOM     40  C   UNL A   1      44.444  25.620  34.300  1.00  0.00     0.014 A 
ATOM     41  C   UNL A   1      44.075  23.732  32.807  1.00  0.00     0.014 A 
ATOM     42  C   UNL A   1      44.678  26.446  33.212  1.00  0.00     0.010 A 
ATOM     43  C   UNL A   1      44.364  24.551  31.720  1.00  0.00     0.010 A 
ATOM     44  C   UNL A   1      44.620  25.918  31.921  1.00  0.00    -0.014 A 
BRANCH  44  45
ATOM     45  C   UNL A   1      44.974  26.811  30.810  1.00  0.00     0.031 A 
ATOM     46  C   UNL A   1      45.137  26.087  29.529  1.00  0.00     0.074 A 
ATOM     47  C   UNL A   1      44.613  28.109  30.751  1.00  0.00     0.049 A 
ATOM     48  N   UNL A   1      44.094  25.828  28.805  1.00  0.00    -0.248 NA
ATOM     49  C   UNL A   1      46.334  25.354  29.132  1.00  0.00     0.031 C 
ATOM     50  C   UNL A   1      43.565  28.726  31.572  1.00  0.00     0.029 A 
ATOM     51  N   UNL A   1      44.950  29.084  29.840  1.00  0.00    -0.354 N 
ATOM     52  C   UNL A   1      44.444  24.825  27.929  1.00  0.00     0.074 A 
ATOM     53  C   UNL A   1      45.856  24.591  28.134  1.00  0.00     0.031 C 
ATOM     54  C   UNL A   1      43.240  29.918  31.033  1.00  0.00     0.029 A 
ATOM     55  C   UNL A   1      44.161  30.222  29.944  1.00  0.00     0.049 A 
ATOM     56  H   UNL A   1      45.677  28.986  29.183  1.00  0.00     0.167 HD
ATOM     57  C   UNL A   1      43.521  24.262  27.105  1.00  0.00     0.037 A 
ATOM     58  C   UNL A   1      43.902  31.124  28.965  1.00  0.00     0.037 A 
ATOM     59  C   UNL A   1      42.180  24.800  27.155  1.00  0.00     0.049 A 
ATOM     60  C   UNL A   1      43.114  30.336  27.962  1.00  0.00     0.074 A 
ATOM     61  C   UNL A   1      40.877  24.350  27.162  1.00  0.00     0.029 A 
ATOM     62  N   UNL A   1      42.100  26.160  27.250  1.00  0.00    -0.354 N 
ATOM     63  N   UNL A   1      41.833  30.089  28.044  1.00  0.00    -0.248 NA
ATOM     64  C   UNL A   1      43.817  29.568  26.922  1.00  0.00     0.031 C 
ATOM     65  C   UNL A   1      40.026  25.507  27.244  1.00  0.00     0.029 A 
ATOM     66  C   UNL A   1      40.825  26.641  27.258  1.00  0.00     0.049 A 
ATOM     67  H   UNL A   1      42.893  26.742  27.307  1.00  0.00     0.167 HD
ATOM     68  C   UNL A   1      41.641  28.954  27.267  1.00  0.00     0.074 A 
ATOM     69  C   UNL A   1      42.842  28.781  26.480  1.00  0.00     0.031 C 
ATOM     70  C   UNL A   1      40.645  28.053  27.499  1.00  0.00     0.037 A 
BRANCH  57  71
ATOM     71  C   UNL A   1      43.894  23.336  26.023  1.00  0.00     0.057 A 
ATOM     72  C   UNL A   1      43.648  21.971  26.219  1.00  0.00     0.134 A 
ATOM     73  C   UNL A   1      44.598  23.721  24.883  1.00  0.00     0.134 A 
ATOM     74  F   UNL A   1      42.963  21.555  27.297  1.00  0.00    -0.206 F 
ATOM     75  C   UNL A   1      44.117  21.009  25.328  1.00  0.00     0.040 A 
ATOM     76  C   UNL A   1      45.069  22.766  23.978  1.00  0.00     0.040 A 
ATOM     77  F   UNL A   1      44.863  25.013  24.647  1.00  0.00    -0.206 F 
ATOM     78  C   UNL A   1      44.840  21.407  24.207  1.00  0.00     0.006 A 
ENDBRANCH  57  71
BRANCH  58  79
ATOM     79  C   UNL A   1      45.009  32.065  28.619  1.00  0.00     0.057 A 
ATOM     80  C   UNL A   1      44.790  33.451  28.760  1.00  0.00     0.134 A 
ATOM     81  C   UNL A   1      46.257  31.704  28.098  1.00  0.00     0.134 A 
ATOM     82  F   UNL A   1      43.589  33.917  29.139  1.00  0.00    -0.206 F 
ATOM     83  C   UNL A   1      45.782  34.403  28.501  1.00  0.00     0.040 A 
ATOM     84  C   UNL A   1      47.268  32.641  27.859  1.00  0.00     0.040 A 
ATOM     85  F   UNL A   1      46.544  30.433  27.792  1.00  0.00    -0.206 F 
ATOM     86  C   UNL A   1      47.038  33.996  28.072  1.00  0.00     0.006 A 
ENDBRANCH  58  79
BRANCH  70  87
ATOM     87  C   UNL A   1      39.450  28.582  28.195  1.00  0.00     0.057 A 
ATOM     88  C   UNL A   1      39.246  28.261  29.544  1.00  0.00     0.134 A 
ATOM     89  C   UNL A   1      38.515  29.408  27.571  1.00  0.00     0.134 A 
ATOM     90  F   UNL A   1      40.129  27.493  30.204  1.00  0.00    -0.206 F 
ATOM     91  C   UNL A   1      38.143  28.739  30.247  1.00  0.00     0.040 A 
ATOM     92  C   UNL A   1      37.412  29.905  28.270  1.00  0.00     0.040 A 
ATOM     93  F   UNL A   1      38.648  29.749  26.279  1.00  0.00    -0.206 F 
ATOM     94  C   UNL A   1      37.224  29.567  29.610  1.00  0.00     0.006 A 
ENDBRANCH  70  87
ENDBRANCH  44  45
ENDBRANCH  36  39
ENDBRANCH  34  35
ENDBRANCH  33  34
ENDBRANCH   1  33
TORSDOF 14
ENDMDL
MODEL 2
REMARK VINA RESULT:     -13.1      9.975     22.253
REMARK SMILES Cc1c(CC(=O)N[C@@H](C)C(=O)NCCCCNC(=O)c2ccc(-c3c4nc(c(-c5c(F)cccc5F)c5ccc([nH]5)c(-c5c(F)cccc5F)c5nc(c(-c6c(F)cccc6F)c6ccc3[nH]6)C=C5)C=C4)cc2)c(=O)oc2cc3oc4c(c3cc12)CCCC4
REMARK SMILES IDX 14 1 13 2 12 3 10 4 11 5 8 7 9 8 7 9 5 10 6 11 4 13 3 14
REMARK SMILES IDX 1 15 2 16 85 17 74 18 77 19 84 20 75 21 76 22 78 23 83 24
REMARK SMILES IDX 79 25 82 26 80 27 81 28 86 29 89 30 87 31 88 32 15 33 16 34
REMARK SMILES IDX 17 35 18 36 19 38 20 39 21 40 73 41 22 42 72 43 23 44 24 45
REMARK SMILES IDX 25 46 66 47 26 48 71 49 65 50 67 51 27 52 70 53 64 54 63 55
REMARK SMILES IDX 28 57 54 58 37 59 53 60 38 61 41 62 52 63 68 64 39 65 40 66
REMARK SMILES IDX 51 68 69 69 42 70 29 71 30 72 35 73 31 74 32 75 34 76 36 77
REMARK SMILES IDX 33 78 55 79 56 80 61 81 57 82 58 83 60 84 62 85 59 86 43 87
REMARK SMILES IDX 44 88 49 89 45 90 46 91 48 92 50 93 47 94
REMARK H PARENT 12 6 7 12 17 37 67 56 41 67
REMARK Flexibility Score: inf
ROOT
ATOM      1  C   UNL A   1      41.852  40.488  26.300  1.00  0.00     0.023 C 
ENDROOT
BRANCH   1   2
ATOM      2  C   UNL A   1      43.125  41.254  25.955  1.00  0.00     0.116 C 
BRANCH   2   3
ATOM      3  N   UNL A   1      43.781  41.777  27.147  1.00  0.00    -0.354 N 
ATOM      4  C   UNL A   1      44.837  42.625  27.298  1.00  0.00     0.242 C 
ATOM      5  O   UNL A   1      45.063  43.061  28.428  1.00  0.00    -0.273 OA
ATOM      6  H   UNL A   1      43.392  41.461  27.994  1.00  0.00     0.163 HD
BRANCH   4   7
ATOM      7  C   UNL A   1      45.648  43.083  26.088  1.00  0.00     0.168 C 
ATOM      8  C   UNL A   1      47.059  43.471  26.528  1.00  0.00     0.041 C 
BRANCH   7   9
ATOM      9  N   UNL A   1      44.914  44.153  25.407  1.00  0.00    -0.344 N 
ATOM     10  C   UNL A   1      44.361  44.171  24.166  1.00  0.00     0.225 C 
ATOM     11  O   UNL A   1      43.631  45.121  23.874  1.00  0.00    -0.275 OA
ATOM     12  H   UNL A   1      44.805  44.982  25.927  1.00  0.00     0.164 HD
BRANCH  10  13
ATOM     13  C   UNL A   1      44.659  43.064  23.165  1.00  0.00     0.143 C 
BRANCH  13  14
ATOM     14  C   UNL A   1      43.996  43.347  21.841  1.00  0.00     0.051 A 
ATOM     15  C   UNL A   1      45.671  45.108  21.158  1.00  0.00     0.046 C 
ATOM     16  C   UNL A   1      44.508  44.175  20.906  1.00  0.00    -0.029 A 
ATOM     17  C   UNL A   1      43.869  44.230  19.584  1.00  0.00     0.022 A 
ATOM     18  C   UNL A   1      42.741  42.582  21.600  1.00  0.00     0.340 A 
ATOM     19  C   UNL A   1      42.634  43.607  19.398  1.00  0.00     0.142 A 
ATOM     20  C   UNL A   1      44.408  44.999  18.547  1.00  0.00     0.024 A 
ATOM     21  O   UNL A   1      42.282  41.816  22.440  1.00  0.00    -0.246 OA
ATOM     22  O   UNL A   1      42.104  42.762  20.387  1.00  0.00    -0.422 OA
ATOM     23  C   UNL A   1      41.805  43.845  18.297  1.00  0.00     0.095 A 
ATOM     24  C   UNL A   1      43.533  45.413  17.538  1.00  0.00     0.025 A 
ATOM     25  C   UNL A   1      42.252  44.874  17.481  1.00  0.00     0.138 A 
ATOM     26  C   UNL A   1      43.533  46.543  16.686  1.00  0.00     0.001 A 
ATOM     27  O   UNL A   1      41.454  45.636  16.677  1.00  0.00    -0.461 OA
ATOM     28  C   UNL A   1      42.201  46.727  16.377  1.00  0.00     0.108 A 
ATOM     29  C   UNL A   1      44.460  47.703  16.666  1.00  0.00     0.040 C 
ATOM     30  C   UNL A   1      41.573  48.076  16.400  1.00  0.00     0.076 C 
ATOM     31  C   UNL A   1      43.832  48.855  17.483  1.00  0.00     0.005 C 
ATOM     32  C   UNL A   1      42.274  48.839  17.562  1.00  0.00     0.008 C 
ENDBRANCH  13  14
ENDBRANCH  10  13
ENDBRANCH   7   9
ENDBRANCH   4   7
ENDBRANCH   2   3
ENDBRANCH   1   2
BRANCH   1  33
ATOM     33  C   UNL A   1      41.683  40.206  27.792  1.00  0.00     0.023 C 
BRANCH  33  34
ATOM     34  C   UNL A   1      41.890  38.736  28.164  1.00  0.00     0.116 C 
BRANCH  34  35
ATOM     35  N   UNL A   1      42.784  38.045  27.253  1.00  0.00    -0.352 N 
ATOM     36  C   UNL A   1      43.292  36.766  27.374  1.00  0.00     0.251 C 
ATOM     37  H   UNL A   1      43.061  38.548  26.453  1.00  0.00     0.163 HD
ATOM     38  O   UNL A   1      44.108  36.327  26.598  1.00  0.00    -0.269 OA
BRANCH  36  39
ATOM     39  C   UNL A   1      42.836  35.973  28.535  1.00  0.00     0.039 A 
ATOM     40  C   UNL A   1      43.699  35.769  29.616  1.00  0.00     0.014 A 
ATOM     41  C   UNL A   1      41.604  35.326  28.457  1.00  0.00     0.014 A 
ATOM     42  C   UNL A   1      43.398  34.791  30.552  1.00  0.00     0.010 A 
ATOM     43  C   UNL A   1      41.279  34.383  29.428  1.00  0.00     0.010 A 
ATOM     44  C   UNL A   1      42.198  34.084  30.448  1.00  0.00    -0.014 A 
BRANCH  44  45
ATOM     45  C   UNL A   1      41.883  33.130  31.520  1.00  0.00     0.031 A 
ATOM     46  C   UNL A   1      40.478  33.233  31.975  1.00  0.00     0.074 A 
ATOM     47  C   UNL A   1      42.500  31.941  31.668  1.00  0.00     0.049 A 
ATOM     48  N   UNL A   1      39.549  32.601  31.330  1.00  0.00    -0.248 NA
ATOM     49  C   UNL A   1      39.976  34.233  32.912  1.00  0.00     0.031 C 
ATOM     50  C   UNL A   1      43.305  31.280  30.634  1.00  0.00     0.029 A 
ATOM     51  N   UNL A   1      42.388  31.000  32.666  1.00  0.00    -0.354 N 
ATOM     52  C   UNL A   1      38.346  33.176  31.675  1.00  0.00     0.074 A 
ATOM     53  C   UNL A   1      38.652  34.155  32.694  1.00  0.00     0.031 C 
ATOM     54  C   UNL A   1      43.486  29.991  30.985  1.00  0.00     0.029 A 
ATOM     55  C   UNL A   1      42.963  29.781  32.331  1.00  0.00     0.049 A 
ATOM     56  H   UNL A   1      41.946  31.173  33.528  1.00  0.00     0.167 HD
ATOM     57  C   UNL A   1      37.190  32.793  31.074  1.00  0.00     0.037 A 
ATOM     58  C   UNL A   1      42.640  28.564  32.834  1.00  0.00     0.037 A 
ATOM     59  C   UNL A   1      37.275  31.726  30.102  1.00  0.00     0.049 A 
ATOM     60  C   UNL A   1      41.237  28.346  32.349  1.00  0.00     0.074 A 
ATOM     61  C   UNL A   1      36.774  31.407  28.858  1.00  0.00     0.029 A 
ATOM     62  N   UNL A   1      38.106  30.696  30.440  1.00  0.00    -0.354 N 
ATOM     63  N   UNL A   1      40.915  27.916  31.157  1.00  0.00    -0.248 NA
ATOM     64  C   UNL A   1      40.105  28.856  33.139  1.00  0.00     0.031 C 
ATOM     65  C   UNL A   1      37.331  30.134  28.487  1.00  0.00     0.029 A 
ATOM     66  C   UNL A   1      38.139  29.688  29.523  1.00  0.00     0.049 A 
ATOM     67  H   UNL A   1      38.634  30.683  31.271  1.00  0.00     0.167 HD
ATOM     68  C   UNL A   1      39.613  28.356  30.962  1.00  0.00     0.074 A 
ATOM     69  C   UNL A   1      39.117  28.773  32.255  1.00  0.00     0.031 C 
ATOM     70  C   UNL A   1      39.096  28.627  29.730  1.00  0.00     0.037 A 
BRANCH  57  71
ATOM     71  C   UNL A   1      35.870  33.238  31.553  1.00  0.00     0.057 A 
ATOM     72  C   UNL A   1      35.189  34.197  30.792  1.00  0.00     0.134 A 
ATOM     73  C   UNL A   1      35.327  32.865  32.781  1.00  0.00     0.134 A 
ATOM     74  F   UNL A   1      35.669  34.578  29.597  1.00  0.00    -0.206 F 
ATOM     75  C   UNL A   1      34.020  34.796  31.251  1.00  0.00     0.040 A 
ATOM     76  C   UNL A   1      34.150  33.455  33.251  1.00  0.00     0.040 A 
ATOM     77  F   UNL A   1      35.938  31.954  33.551  1.00  0.00    -0.206 F 
ATOM     78  C   UNL A   1      33.502  34.432  32.491  1.00  0.00     0.006 A 
ENDBRANCH  57  71
BRANCH  58  79
ATOM     79  C   UNL A   1      43.108  28.272  34.221  1.00  0.00     0.057 A 
ATOM     80  C   UNL A   1      43.857  27.099  34.451  1.00  0.00     0.134 A 
ATOM     81  C   UNL A   1      42.824  29.035  35.358  1.00  0.00     0.134 A 
ATOM     82  F   UNL A   1      44.090  26.231  33.453  1.00  0.00    -0.206 F 
ATOM     83  C   UNL A   1      44.374  26.766  35.708  1.00  0.00     0.040 A 
ATOM     84  C   UNL A   1      43.355  28.731  36.617  1.00  0.00     0.040 A 
ATOM     85  F   UNL A   1      42.014  30.100  35.300  1.00  0.00    -0.206 F 
ATOM     86  C   UNL A   1      44.145  27.601  36.794  1.00  0.00     0.006 A 
ENDBRANCH  58  79
BRANCH  70  87
ATOM     87  C   UNL A   1      39.723  27.907  28.599  1.00  0.00     0.057 A 
ATOM     88  C   UNL A   1      40.565  28.606  27.724  1.00  0.00     0.134 A 
ATOM     89  C   UNL A   1      39.526  26.545  28.368  1.00  0.00     0.134 A 
ATOM     90  F   UNL A   1      40.814  29.913  27.916  1.00  0.00    -0.206 F 
ATOM     91  C   UNL A   1      41.186  27.975  26.650  1.00  0.00     0.040 A 
ATOM     92  C   UNL A   1      40.153  25.898  27.301  1.00  0.00     0.040 A 
ATOM     93  F   UNL A   1      38.726  25.818  29.163  1.00  0.00    -0.206 F 
ATOM     94  C   UNL A   1      40.982  26.614  26.438  1.00  0.00     0.006 A 
ENDBRANCH  70  87
ENDBRANCH  44  45
ENDBRANCH  36  39
ENDBRANCH  34  35
ENDBRANCH  33  34
ENDBRANCH   1  33
TORSDOF 14
ENDMDL
MODEL 3
REMARK VINA RESULT:     -12.9      6.825     11.937
REMARK SMILES Cc1c(CC(=O)N[C@@H](C)C(=O)NCCCCNC(=O)c2ccc(-c3c4nc(c(-c5c(F)cccc5F)c5ccc([nH]5)c(-c5c(F)cccc5F)c5nc(c(-c6c(F)cccc6F)c6ccc3[nH]6)C=C5)C=C4)cc2)c(=O)oc2cc3oc4c(c3cc12)CCCC4
REMARK SMILES IDX 14 1 13 2 12 3 10 4 11 5 8 7 9 8 7 9 5 10 6 11 4 13 3 14
REMARK SMILES IDX 1 15 2 16 85 17 74 18 77 19 84 20 75 21 76 22 78 23 83 24
REMARK SMILES IDX 79 25 82 26 80 27 81 28 86 29 89 30 87 31 88 32 15 33 16 34
REMARK SMILES IDX 17 35 18 36 19 38 20 39 21 40 73 41 22 42 72 43 23 44 24 45
REMARK SMILES IDX 25 46 66 47 26 48 71 49 65 50 67 51 27 52 70 53 64 54 63 55
REMARK SMILES IDX 28 57 54 58 37 59 53 60 38 61 41 62 52 63 68 64 39 65 40 66
REMARK SMILES IDX 51 68 69 69 42 70 29 71 30 72 35 73 31 74 32 75 34 76 36 77
REMARK SMILES IDX 33 78 55 79 56 80 61 81 57 82 58 83 60 84 62 85 59 86 43 87
REMARK SMILES IDX 44 88 49 89 45 90 46 91 48 92 50 93 47 94
REMARK H PARENT 12 6 7 12 17 37 67 56 41 67
REMARK Flexibility Score: inf
ROOT
ATOM      1  C   UNL A   1      44.170  32.448  26.479  1.00  0.00     0.023 C 
ENDROOT
BRANCH   1   2
ATOM      2  C   UNL A   1      45.465  31.720  26.823  1.00  0.00     0.116 C 
BRANCH   2   3
ATOM      3  N   UNL A   1      45.883  30.822  25.754  1.00  0.00    -0.354 N 
ATOM      4  C   UNL A   1      46.377  29.553  25.781  1.00  0.00     0.242 C 
ATOM      5  O   UNL A   1      46.462  28.949  24.711  1.00  0.00    -0.273 OA
ATOM      6  H   UNL A   1      45.792  31.201  24.850  1.00  0.00     0.163 HD
BRANCH   4   7
ATOM      7  C   UNL A   1      46.722  28.880  27.108  1.00  0.00     0.168 C 
ATOM      8  C   UNL A   1      48.083  29.376  27.599  1.00  0.00     0.041 C 
BRANCH   7   9
ATOM      9  N   UNL A   1      46.637  27.429  26.937  1.00  0.00    -0.344 N 
ATOM     10  C   UNL A   1      45.697  26.556  27.387  1.00  0.00     0.225 C 
ATOM     11  O   UNL A   1      45.736  25.399  26.964  1.00  0.00    -0.275 OA
ATOM     12  H   UNL A   1      47.369  27.024  26.417  1.00  0.00     0.164 HD
BRANCH  10  13
ATOM     13  C   UNL A   1      44.651  26.995  28.401  1.00  0.00     0.143 C 
BRANCH  13  14
ATOM     14  C   UNL A   1      44.706  26.131  29.636  1.00  0.00     0.051 A 
ATOM     15  C   UNL A   1      46.652  27.374  30.656  1.00  0.00     0.046 C 
ATOM     16  C   UNL A   1      45.524  26.369  30.683  1.00  0.00    -0.029 A 
ATOM     17  C   UNL A   1      45.358  25.568  31.904  1.00  0.00     0.022 A 
ATOM     18  C   UNL A   1      43.728  25.008  29.650  1.00  0.00     0.340 A 
ATOM     19  C   UNL A   1      44.529  24.446  31.876  1.00  0.00     0.142 A 
ATOM     20  C   UNL A   1      46.113  25.829  33.053  1.00  0.00     0.024 A 
ATOM     21  O   UNL A   1      42.973  24.799  28.707  1.00  0.00    -0.246 OA
ATOM     22  O   UNL A   1      43.696  24.200  30.771  1.00  0.00    -0.422 OA
ATOM     23  C   UNL A   1      44.532  23.456  32.864  1.00  0.00     0.095 A 
ATOM     24  C   UNL A   1      46.290  24.774  33.954  1.00  0.00     0.025 A 
ATOM     25  C   UNL A   1      45.545  23.610  33.797  1.00  0.00     0.138 A 
ATOM     26  C   UNL A   1      47.327  24.470  34.868  1.00  0.00     0.001 A 
ATOM     27  O   UNL A   1      46.095  22.596  34.529  1.00  0.00    -0.461 OA
ATOM     28  C   UNL A   1      47.263  23.098  34.999  1.00  0.00     0.108 A 
ATOM     29  C   UNL A   1      48.617  25.171  35.090  1.00  0.00     0.040 C 
ATOM     30  C   UNL A   1      48.489  22.254  34.974  1.00  0.00     0.076 C 
ATOM     31  C   UNL A   1      49.717  24.462  34.269  1.00  0.00     0.005 C 
ATOM     32  C   UNL A   1      49.452  22.953  33.973  1.00  0.00     0.008 C 
ENDBRANCH  13  14
ENDBRANCH  10  13
ENDBRANCH   7   9
ENDBRANCH   4   7
ENDBRANCH   2   3
ENDBRANCH   1   2
BRANCH   1  33
ATOM     33  C   UNL A   1      44.375  33.734  25.680  1.00  0.00     0.023 C 
BRANCH  33  34
ATOM     34  C   UNL A   1      43.102  34.568  25.525  1.00  0.00     0.116 C 
BRANCH  34  35
ATOM     35  N   UNL A   1      43.326  35.985  25.752  1.00  0.00    -0.352 N 
ATOM     36  C   UNL A   1      43.233  36.675  26.945  1.00  0.00     0.251 C 
ATOM     37  H   UNL A   1      43.572  36.517  24.961  1.00  0.00     0.163 HD
ATOM     38  O   UNL A   1      43.348  37.878  26.997  1.00  0.00    -0.269 OA
BRANCH  36  39
ATOM     39  C   UNL A   1      42.927  35.882  28.154  1.00  0.00     0.039 A 
ATOM     40  C   UNL A   1      43.972  35.369  28.929  1.00  0.00     0.014 A 
ATOM     41  C   UNL A   1      41.600  35.542  28.409  1.00  0.00     0.014 A 
ATOM     42  C   UNL A   1      43.704  34.386  29.869  1.00  0.00     0.010 A 
ATOM     43  C   UNL A   1      41.327  34.595  29.392  1.00  0.00     0.010 A 
ATOM     44  C   UNL A   1      42.384  33.984  30.087  1.00  0.00    -0.014 A 
BRANCH  44  45
ATOM     45  C   UNL A   1      42.145  33.013  31.163  1.00  0.00     0.031 A 
ATOM     46  C   UNL A   1      40.761  33.076  31.686  1.00  0.00     0.074 A 
ATOM     47  C   UNL A   1      42.799  31.839  31.269  1.00  0.00     0.049 A 
ATOM     48  N   UNL A   1      39.819  32.426  31.080  1.00  0.00    -0.248 NA
ATOM     49  C   UNL A   1      40.280  34.053  32.657  1.00  0.00     0.031 C 
ATOM     50  C   UNL A   1      43.569  31.208  30.191  1.00  0.00     0.029 A 
ATOM     51  N   UNL A   1      42.758  30.886  32.261  1.00  0.00    -0.354 N 
ATOM     52  C   UNL A   1      38.620  32.967  31.488  1.00  0.00     0.074 A 
ATOM     53  C   UNL A   1      38.949  33.944  32.502  1.00  0.00     0.031 C 
ATOM     54  C   UNL A   1      43.799  29.921  30.520  1.00  0.00     0.029 A 
ATOM     55  C   UNL A   1      43.347  29.686  31.886  1.00  0.00     0.049 A 
ATOM     56  H   UNL A   1      42.354  31.039  33.146  1.00  0.00     0.167 HD
ATOM     57  C   UNL A   1      37.446  32.560  30.939  1.00  0.00     0.037 A 
ATOM     58  C   UNL A   1      43.079  28.456  32.392  1.00  0.00     0.037 A 
ATOM     59  C   UNL A   1      37.511  31.504  29.953  1.00  0.00     0.049 A 
ATOM     60  C   UNL A   1      41.661  28.206  31.972  1.00  0.00     0.074 A 
ATOM     61  C   UNL A   1      36.959  31.184  28.732  1.00  0.00     0.029 A 
ATOM     62  N   UNL A   1      38.383  30.493  30.240  1.00  0.00    -0.354 N 
ATOM     63  N   UNL A   1      41.292  27.779  30.793  1.00  0.00    -0.248 NA
ATOM     64  C   UNL A   1      40.555  28.680  32.822  1.00  0.00     0.031 C 
ATOM     65  C   UNL A   1      37.529  29.929  28.321  1.00  0.00     0.029 A 
ATOM     66  C   UNL A   1      38.397  29.494  29.312  1.00  0.00     0.049 A 
ATOM     67  H   UNL A   1      38.951  30.485  31.045  1.00  0.00     0.167 HD
ATOM     68  C   UNL A   1      39.971  28.188  30.665  1.00  0.00     0.074 A 
ATOM     69  C   UNL A   1      39.528  28.580  31.985  1.00  0.00     0.031 C 
ATOM     70  C   UNL A   1      39.389  28.457  29.462  1.00  0.00     0.037 A 
BRANCH  57  71
ATOM     71  C   UNL A   1      36.140  32.966  31.486  1.00  0.00     0.057 A 
ATOM     72  C   UNL A   1      35.425  33.957  30.799  1.00  0.00     0.134 A 
ATOM     73  C   UNL A   1      35.643  32.525  32.710  1.00  0.00     0.134 A 
ATOM     74  F   UNL A   1      35.860  34.403  29.610  1.00  0.00    -0.206 F 
ATOM     75  C   UNL A   1      34.267  34.520  31.328  1.00  0.00     0.040 A 
ATOM     76  C   UNL A   1      34.479  33.079  33.250  1.00  0.00     0.040 A 
ATOM     77  F   UNL A   1      36.288  31.582  33.410  1.00  0.00    -0.206 F 
ATOM     78  C   UNL A   1      33.796  34.087  32.564  1.00  0.00     0.006 A 
ENDBRANCH  57  71
BRANCH  58  79
ATOM     79  C   UNL A   1      43.621  28.163  33.751  1.00  0.00     0.057 A 
ATOM     80  C   UNL A   1      44.780  28.843  34.181  1.00  0.00     0.134 A 
ATOM     81  C   UNL A   1      43.116  27.213  34.647  1.00  0.00     0.134 A 
ATOM     82  F   UNL A   1      45.417  29.691  33.358  1.00  0.00    -0.206 F 
ATOM     83  C   UNL A   1      45.333  28.665  35.454  1.00  0.00     0.040 A 
ATOM     84  C   UNL A   1      43.641  27.042  35.933  1.00  0.00     0.040 A 
ATOM     85  F   UNL A   1      42.101  26.407  34.311  1.00  0.00    -0.206 F 
ATOM     86  C   UNL A   1      44.745  27.778  36.346  1.00  0.00     0.006 A 
ENDBRANCH  58  79
BRANCH  70  87
ATOM     87  C   UNL A   1      39.979  27.763  28.295  1.00  0.00     0.057 A 
ATOM     88  C   UNL A   1      40.856  28.461  27.455  1.00  0.00     0.134 A 
ATOM     89  C   UNL A   1      39.712  26.427  27.995  1.00  0.00     0.134 A 
ATOM     90  F   UNL A   1      41.172  29.742  27.712  1.00  0.00    -0.206 F 
ATOM     91  C   UNL A   1      41.444  27.854  26.349  1.00  0.00     0.040 A 
ATOM     92  C   UNL A   1      40.306  25.802  26.896  1.00  0.00     0.040 A 
ATOM     93  F   UNL A   1      38.875  25.702  28.755  1.00  0.00    -0.206 F 
ATOM     94  C   UNL A   1      41.171  26.518  26.068  1.00  0.00     0.006 A 
ENDBRANCH  70  87
ENDBRANCH  44  45
ENDBRANCH  36  39
ENDBRANCH  34  35
ENDBRANCH  33  34
ENDBRANCH   1  33
TORSDOF 14
ENDMDL
