MODEL 1
REMARK VINA RESULT:     -11.6      0.000      0.000
REMARK SMILES O=C(NCCCCNC(=O)[C@@H]1CS[C@@H](C2CC2)N1C(=O)Cc1ccn[nH]1)c1ccc(-c2c3nc(c(-c4c(F)cccc4F)c4ccc([nH]4)c(-c4c(F)cccc4F)c4nc(c(-c5c(F)cccc5F)c5ccc2[nH]5)C=C4)C=C3)cc1
REMARK SMILES IDX 6 1 5 2 4 3 3 4 1 5 2 6 27 8 28 9 80 10 29 11 79 12 30 13
REMARK SMILES IDX 31 14 32 15 73 16 33 17 78 18 72 19 74 20 34 21 77 22 71 23
REMARK SMILES IDX 70 24 35 26 61 27 44 28 60 29 45 30 48 31 59 32 75 33 46 34
REMARK SMILES IDX 47 35 58 37 76 38 49 39 36 40 37 41 42 42 38 43 39 44 41 45
REMARK SMILES IDX 43 46 40 47 62 48 63 49 68 50 64 51 65 52 67 53 69 54 66 55
REMARK SMILES IDX 50 56 51 57 56 58 52 59 53 60 55 61 57 62 54 63 7 64 8 65
REMARK SMILES IDX 9 66 10 68 11 69 12 70 18 71 13 72 14 73 19 74 20 75 21 76
REMARK SMILES IDX 22 77 23 78 26 79 24 80 25 81 15 83 16 84 17 85
REMARK H PARENT 3 7 74 25 48 36 8 67 26 82
REMARK Flexibility Score: inf
ROOT
ATOM      1  C   UNL A   1      37.202  21.138  24.944  1.00  0.00     0.023 C 
ENDROOT
BRANCH   1   2
ATOM      2  C   UNL A   1      38.186  19.982  24.954  1.00  0.00     0.023 C 
BRANCH   2   3
ATOM      3  C   UNL A   1      39.390  20.231  25.834  1.00  0.00     0.116 C 
BRANCH   3   4
ATOM      4  N   UNL A   1      40.337  19.121  25.874  1.00  0.00    -0.352 N 
ATOM      5  O   UNL A   1      42.364  18.136  26.074  1.00  0.00    -0.269 OA
ATOM      6  C   UNL A   1      41.686  19.151  26.148  1.00  0.00     0.251 C 
ATOM      7  H   UNL A   1      39.961  18.233  25.678  1.00  0.00     0.163 HD
BRANCH   6   8
ATOM      8  C   UNL A   1      42.307  20.449  26.485  1.00  0.00     0.039 A 
ATOM      9  C   UNL A   1      42.331  20.886  27.808  1.00  0.00     0.014 A 
ATOM     10  C   UNL A   1      42.770  21.275  25.457  1.00  0.00     0.014 A 
ATOM     11  C   UNL A   1      42.609  22.214  28.079  1.00  0.00     0.010 A 
ATOM     12  C   UNL A   1      43.187  22.575  25.755  1.00  0.00     0.010 A 
ATOM     13  C   UNL A   1      43.070  23.068  27.064  1.00  0.00    -0.014 A 
BRANCH  13  14
ATOM     14  C   UNL A   1      43.496  24.439  27.438  1.00  0.00     0.031 A 
ATOM     15  C   UNL A   1      44.920  24.893  27.292  1.00  0.00     0.074 A 
ATOM     16  C   UNL A   1      42.545  25.295  27.860  1.00  0.00     0.049 A 
ATOM     17  N   UNL A   1      45.436  26.066  27.566  1.00  0.00    -0.248 NA
ATOM     18  C   UNL A   1      45.897  23.914  26.789  1.00  0.00     0.031 C 
ATOM     19  C   UNL A   1      41.130  24.953  28.047  1.00  0.00     0.029 A 
ATOM     20  N   UNL A   1      42.604  26.626  28.170  1.00  0.00    -0.354 N 
ATOM     21  C   UNL A   1      46.796  25.956  27.307  1.00  0.00     0.074 A 
ATOM     22  C   UNL A   1      47.031  24.601  26.855  1.00  0.00     0.031 C 
ATOM     23  C   UNL A   1      40.446  26.060  28.361  1.00  0.00     0.029 A 
ATOM     24  C   UNL A   1      41.382  27.167  28.488  1.00  0.00     0.049 A 
ATOM     25  H   UNL A   1      43.441  27.146  28.166  1.00  0.00     0.167 HD
ATOM     26  C   UNL A   1      47.754  26.905  27.437  1.00  0.00     0.037 A 
ATOM     27  C   UNL A   1      41.049  28.412  28.869  1.00  0.00     0.037 A 
ATOM     28  C   UNL A   1      47.500  28.261  27.851  1.00  0.00     0.049 A 
ATOM     29  C   UNL A   1      42.132  29.437  28.995  1.00  0.00     0.074 A 
ATOM     30  C   UNL A   1      48.399  29.307  27.977  1.00  0.00     0.029 A 
ATOM     31  N   UNL A   1      46.255  28.762  28.200  1.00  0.00    -0.354 N 
ATOM     32  N   UNL A   1      43.413  29.317  28.743  1.00  0.00    -0.248 NA
ATOM     33  C   UNL A   1      41.730  30.764  29.477  1.00  0.00     0.031 C 
ATOM     34  C   UNL A   1      47.703  30.430  28.436  1.00  0.00     0.029 A 
ATOM     35  C   UNL A   1      46.365  30.095  28.560  1.00  0.00     0.049 A 
ATOM     36  H   UNL A   1      45.417  28.246  28.193  1.00  0.00     0.167 HD
ATOM     37  C   UNL A   1      43.971  30.550  29.037  1.00  0.00     0.074 A 
ATOM     38  C   UNL A   1      42.885  31.413  29.455  1.00  0.00     0.031 C 
ATOM     39  C   UNL A   1      45.270  30.931  28.980  1.00  0.00     0.037 A 
BRANCH  26  40
ATOM     40  C   UNL A   1      49.175  26.514  27.153  1.00  0.00     0.057 A 
ATOM     41  C   UNL A   1      49.993  25.929  28.125  1.00  0.00     0.134 A 
ATOM     42  C   UNL A   1      49.702  26.654  25.862  1.00  0.00     0.134 A 
ATOM     43  F   UNL A   1      49.551  25.774  29.382  1.00  0.00    -0.206 F 
ATOM     44  C   UNL A   1      51.289  25.500  27.826  1.00  0.00     0.040 A 
ATOM     45  C   UNL A   1      50.989  26.213  25.547  1.00  0.00     0.040 A 
ATOM     46  F   UNL A   1      48.968  27.201  24.882  1.00  0.00    -0.206 F 
ATOM     47  C   UNL A   1      51.786  25.634  26.530  1.00  0.00     0.006 A 
ENDBRANCH  26  40
BRANCH  27  48
ATOM     48  C   UNL A   1      39.637  28.732  29.184  1.00  0.00     0.057 A 
ATOM     49  C   UNL A   1      38.770  29.230  28.207  1.00  0.00     0.134 A 
ATOM     50  C   UNL A   1      39.115  28.523  30.467  1.00  0.00     0.134 A 
ATOM     51  F   UNL A   1      39.216  29.463  26.964  1.00  0.00    -0.206 F 
ATOM     52  C   UNL A   1      37.434  29.517  28.495  1.00  0.00     0.040 A 
ATOM     53  C   UNL A   1      37.776  28.778  30.762  1.00  0.00     0.040 A 
ATOM     54  F   UNL A   1      39.894  28.036  31.445  1.00  0.00    -0.206 F 
ATOM     55  C   UNL A   1      36.933  29.283  29.775  1.00  0.00     0.006 A 
ENDBRANCH  27  48
BRANCH  39  56
ATOM     56  C   UNL A   1      45.571  32.344  29.373  1.00  0.00     0.057 A 
ATOM     57  C   UNL A   1      45.912  32.679  30.690  1.00  0.00     0.134 A 
ATOM     58  C   UNL A   1      45.523  33.374  28.429  1.00  0.00     0.134 A 
ATOM     59  F   UNL A   1      45.957  31.735  31.642  1.00  0.00    -0.206 F 
ATOM     60  C   UNL A   1      46.175  33.998  31.057  1.00  0.00     0.040 A 
ATOM     61  C   UNL A   1      45.804  34.695  28.780  1.00  0.00     0.040 A 
ATOM     62  F   UNL A   1      45.204  33.115  27.152  1.00  0.00    -0.206 F 
ATOM     63  C   UNL A   1      46.125  35.010  30.099  1.00  0.00     0.006 A 
ENDBRANCH  39  56
ENDBRANCH  13  14
ENDBRANCH   6   8
ENDBRANCH   3   4
ENDBRANCH   2   3
ENDBRANCH   1   2
BRANCH   1  64
ATOM     64  C   UNL A   1      35.768  20.727  25.230  1.00  0.00     0.116 C 
BRANCH  64  65
ATOM     65  N   UNL A   1      35.304  21.345  26.450  1.00  0.00    -0.354 N 
ATOM     66  C   UNL A   1      34.658  22.531  26.647  1.00  0.00     0.243 C 
ATOM     67  H   UNL A   1      35.481  20.829  27.270  1.00  0.00     0.163 HD
ATOM     68  O   UNL A   1      34.293  22.757  27.808  1.00  0.00    -0.273 OA
BRANCH  66  69
ATOM     69  C   UNL A   1      34.126  23.422  25.480  1.00  0.00     0.185 C 
ATOM     70  C   UNL A   1      34.856  24.746  25.689  1.00  0.00     0.107 C 
ATOM     71  N   UNL A   1      32.656  23.613  25.223  1.00  0.00    -0.317 N 
ATOM     72  S   UNL A   1      33.742  26.030  25.173  1.00  0.00    -0.134 SA
ATOM     73  C   UNL A   1      32.205  25.006  25.422  1.00  0.00     0.147 C 
BRANCH  71  74
ATOM     74  C   UNL A   1      31.992  22.418  24.961  1.00  0.00     0.230 C 
ATOM     75  O   UNL A   1      31.056  22.075  25.706  1.00  0.00    -0.274 OA
BRANCH  74  76
ATOM     76  C   UNL A   1      32.297  21.445  23.832  1.00  0.00     0.155 C 
BRANCH  76  77
ATOM     77  C   UNL A   1      32.349  20.007  24.235  1.00  0.00     0.044 A 
ATOM     78  C   UNL A   1      32.486  18.850  23.492  1.00  0.00     0.045 A 
ATOM     79  N   UNL A   1      32.404  19.599  25.542  1.00  0.00    -0.282 N 
ATOM     80  C   UNL A   1      32.489  17.807  24.430  1.00  0.00     0.135 A 
ATOM     81  N   UNL A   1      32.433  18.262  25.682  1.00  0.00    -0.184 NA
ATOM     82  H   UNL A   1      32.422  20.223  26.303  1.00  0.00     0.190 HD
ENDBRANCH  76  77
ENDBRANCH  74  76
ENDBRANCH  71  74
BRANCH  73  83
ATOM     83  C   UNL A   1      31.248  25.815  24.578  1.00  0.00     0.022 C 
ATOM     84  C   UNL A   1      30.153  25.336  23.670  1.00  0.00     0.007 C 
ATOM     85  C   UNL A   1      29.818  26.009  24.983  1.00  0.00     0.007 C 
ENDBRANCH  73  83
ENDBRANCH  66  69
ENDBRANCH  64  65
ENDBRANCH   1  64
TORSDOF 15
ENDMDL
MODEL 2
REMARK VINA RESULT:     -11.5      5.407     10.422
REMARK SMILES O=C(NCCCCNC(=O)[C@@H]1CS[C@@H](C2CC2)N1C(=O)Cc1ccn[nH]1)c1ccc(-c2c3nc(c(-c4c(F)cccc4F)c4ccc([nH]4)c(-c4c(F)cccc4F)c4nc(c(-c5c(F)cccc5F)c5ccc2[nH]5)C=C4)C=C3)cc1
REMARK SMILES IDX 6 1 5 2 4 3 3 4 1 5 2 6 27 8 28 9 80 10 29 11 79 12 30 13
REMARK SMILES IDX 31 14 32 15 73 16 33 17 78 18 72 19 74 20 34 21 77 22 71 23
REMARK SMILES IDX 70 24 35 26 61 27 44 28 60 29 45 30 48 31 59 32 75 33 46 34
REMARK SMILES IDX 47 35 58 37 76 38 49 39 36 40 37 41 42 42 38 43 39 44 41 45
REMARK SMILES IDX 43 46 40 47 62 48 63 49 68 50 64 51 65 52 67 53 69 54 66 55
REMARK SMILES IDX 50 56 51 57 56 58 52 59 53 60 55 61 57 62 54 63 7 64 8 65
REMARK SMILES IDX 9 66 10 68 11 69 12 70 18 71 13 72 14 73 19 74 20 75 21 76
REMARK SMILES IDX 22 77 23 78 26 79 24 80 25 81 15 83 16 84 17 85
REMARK H PARENT 3 7 74 25 48 36 8 67 26 82
REMARK Flexibility Score: inf
ROOT
ATOM      1  C   UNL A   1      32.060  30.509  26.703  1.00  0.00     0.023 C 
ENDROOT
BRANCH   1   2
ATOM      2  C   UNL A   1      31.654  31.958  26.905  1.00  0.00     0.023 C 
BRANCH   2   3
ATOM      3  C   UNL A   1      32.808  32.851  27.301  1.00  0.00     0.116 C 
BRANCH   3   4
ATOM      4  N   UNL A   1      32.411  34.202  27.682  1.00  0.00    -0.352 N 
ATOM      5  O   UNL A   1      32.485  36.123  28.877  1.00  0.00    -0.269 OA
ATOM      6  C   UNL A   1      32.980  35.034  28.620  1.00  0.00     0.251 C 
ATOM      7  H   UNL A   1      31.630  34.568  27.206  1.00  0.00     0.163 HD
BRANCH   6   8
ATOM      8  C   UNL A   1      34.177  34.560  29.347  1.00  0.00     0.039 A 
ATOM      9  C   UNL A   1      35.442  34.728  28.787  1.00  0.00     0.014 A 
ATOM     10  C   UNL A   1      34.018  33.853  30.541  1.00  0.00     0.014 A 
ATOM     11  C   UNL A   1      36.510  34.010  29.296  1.00  0.00     0.010 A 
ATOM     12  C   UNL A   1      35.129  33.245  31.133  1.00  0.00     0.010 A 
ATOM     13  C   UNL A   1      36.376  33.286  30.492  1.00  0.00    -0.014 A 
BRANCH  13  14
ATOM     14  C   UNL A   1      37.589  32.659  31.073  1.00  0.00     0.031 A 
ATOM     15  C   UNL A   1      38.151  33.098  32.395  1.00  0.00     0.074 A 
ATOM     16  C   UNL A   1      38.143  31.630  30.402  1.00  0.00     0.049 A 
ATOM     17  N   UNL A   1      39.196  32.633  33.033  1.00  0.00    -0.248 NA
ATOM     18  C   UNL A   1      37.471  34.203  33.089  1.00  0.00     0.031 C 
ATOM     19  C   UNL A   1      37.681  31.129  29.102  1.00  0.00     0.029 A 
ATOM     20  N   UNL A   1      39.180  30.798  30.724  1.00  0.00    -0.354 N 
ATOM     21  C   UNL A   1      39.322  33.408  34.179  1.00  0.00     0.074 A 
ATOM     22  C   UNL A   1      38.248  34.378  34.151  1.00  0.00     0.031 C 
ATOM     23  C   UNL A   1      38.377  30.032  28.779  1.00  0.00     0.029 A 
ATOM     24  C   UNL A   1      39.392  29.807  29.797  1.00  0.00     0.049 A 
ATOM     25  H   UNL A   1      39.721  30.899  31.541  1.00  0.00     0.167 HD
ATOM     26  C   UNL A   1      40.253  33.313  35.158  1.00  0.00     0.037 A 
ATOM     27  C   UNL A   1      40.321  28.836  29.752  1.00  0.00     0.037 A 
ATOM     28  C   UNL A   1      41.294  32.318  35.192  1.00  0.00     0.049 A 
ATOM     29  C   UNL A   1      41.328  28.755  30.855  1.00  0.00     0.074 A 
ATOM     30  C   UNL A   1      42.262  32.115  36.162  1.00  0.00     0.029 A 
ATOM     31  N   UNL A   1      41.500  31.354  34.218  1.00  0.00    -0.354 N 
ATOM     32  N   UNL A   1      41.430  29.494  31.933  1.00  0.00    -0.248 NA
ATOM     33  C   UNL A   1      42.361  27.720  30.729  1.00  0.00     0.031 C 
ATOM     34  C   UNL A   1      43.074  31.052  35.756  1.00  0.00     0.029 A 
ATOM     35  C   UNL A   1      42.590  30.567  34.552  1.00  0.00     0.049 A 
ATOM     36  H   UNL A   1      40.952  31.245  33.406  1.00  0.00     0.167 HD
ATOM     37  C   UNL A   1      42.539  29.017  32.613  1.00  0.00     0.074 A 
ATOM     38  C   UNL A   1      43.056  27.904  31.843  1.00  0.00     0.031 C 
ATOM     39  C   UNL A   1      43.089  29.469  33.765  1.00  0.00     0.037 A 
BRANCH  26  40
ATOM     40  C   UNL A   1      40.211  34.320  36.270  1.00  0.00     0.057 A 
ATOM     41  C   UNL A   1      40.872  35.551  36.182  1.00  0.00     0.134 A 
ATOM     42  C   UNL A   1      39.430  34.086  37.409  1.00  0.00     0.134 A 
ATOM     43  F   UNL A   1      41.642  35.835  35.121  1.00  0.00    -0.206 F 
ATOM     44  C   UNL A   1      40.762  36.512  37.191  1.00  0.00     0.040 A 
ATOM     45  C   UNL A   1      39.298  35.044  38.415  1.00  0.00     0.040 A 
ATOM     46  F   UNL A   1      38.766  32.929  37.552  1.00  0.00    -0.206 F 
ATOM     47  C   UNL A   1      39.965  36.262  38.308  1.00  0.00     0.006 A 
ENDBRANCH  26  40
BRANCH  27  48
ATOM     48  C   UNL A   1      40.347  27.896  28.607  1.00  0.00     0.057 A 
ATOM     49  C   UNL A   1      41.054  28.194  27.438  1.00  0.00     0.134 A 
ATOM     50  C   UNL A   1      39.684  26.663  28.665  1.00  0.00     0.134 A 
ATOM     51  F   UNL A   1      41.697  29.365  27.319  1.00  0.00    -0.206 F 
ATOM     52  C   UNL A   1      41.096  27.305  26.363  1.00  0.00     0.040 A 
ATOM     53  C   UNL A   1      39.741  25.752  27.611  1.00  0.00     0.040 A 
ATOM     54  F   UNL A   1      38.998  26.313  29.763  1.00  0.00    -0.206 F 
ATOM     55  C   UNL A   1      40.443  26.076  26.452  1.00  0.00     0.006 A 
ENDBRANCH  27  48
BRANCH  39  56
ATOM     56  C   UNL A   1      44.306  28.746  34.254  1.00  0.00     0.057 A 
ATOM     57  C   UNL A   1      44.203  27.624  35.086  1.00  0.00     0.134 A 
ATOM     58  C   UNL A   1      45.586  29.172  33.887  1.00  0.00     0.134 A 
ATOM     59  F   UNL A   1      43.002  27.181  35.486  1.00  0.00    -0.206 F 
ATOM     60  C   UNL A   1      45.339  26.963  35.554  1.00  0.00     0.040 A 
ATOM     61  C   UNL A   1      46.728  28.507  34.333  1.00  0.00     0.040 A 
ATOM     62  F   UNL A   1      45.748  30.240  33.090  1.00  0.00    -0.206 F 
ATOM     63  C   UNL A   1      46.605  27.402  35.174  1.00  0.00     0.006 A 
ENDBRANCH  39  56
ENDBRANCH  13  14
ENDBRANCH   6   8
ENDBRANCH   3   4
ENDBRANCH   2   3
ENDBRANCH   1   2
BRANCH   1  64
ATOM     64  C   UNL A   1      31.583  29.915  25.390  1.00  0.00     0.116 C 
BRANCH  64  65
ATOM     65  N   UNL A   1      32.710  29.591  24.547  1.00  0.00    -0.354 N 
ATOM     66  C   UNL A   1      33.319  28.393  24.312  1.00  0.00     0.243 C 
ATOM     67  H   UNL A   1      33.102  30.357  24.066  1.00  0.00     0.163 HD
ATOM     68  O   UNL A   1      34.214  28.405  23.456  1.00  0.00    -0.273 OA
BRANCH  66  69
ATOM     69  C   UNL A   1      32.761  27.030  24.831  1.00  0.00     0.185 C 
ATOM     70  C   UNL A   1      33.860  26.536  25.770  1.00  0.00     0.107 C 
ATOM     71  N   UNL A   1      32.280  25.954  23.897  1.00  0.00    -0.317 N 
ATOM     72  S   UNL A   1      33.879  24.764  25.644  1.00  0.00    -0.134 SA
ATOM     73  C   UNL A   1      33.097  24.724  23.953  1.00  0.00     0.147 C 
BRANCH  71  74
ATOM     74  C   UNL A   1      31.231  26.372  23.084  1.00  0.00     0.230 C 
ATOM     75  O   UNL A   1      31.341  26.250  21.850  1.00  0.00    -0.274 OA
BRANCH  74  76
ATOM     76  C   UNL A   1      29.920  26.990  23.548  1.00  0.00     0.155 C 
BRANCH  76  77
ATOM     77  C   UNL A   1      29.501  28.215  22.802  1.00  0.00     0.044 A 
ATOM     78  C   UNL A   1      28.320  28.932  22.806  1.00  0.00     0.045 A 
ATOM     79  N   UNL A   1      30.361  28.949  22.029  1.00  0.00    -0.282 N 
ATOM     80  C   UNL A   1      28.533  29.997  21.917  1.00  0.00     0.135 A 
ATOM     81  N   UNL A   1      29.776  30.006  21.437  1.00  0.00    -0.184 NA
ATOM     82  H   UNL A   1      31.314  28.726  21.918  1.00  0.00     0.190 HD
ENDBRANCH  76  77
ENDBRANCH  74  76
ENDBRANCH  71  74
BRANCH  73  83
ATOM     83  C   UNL A   1      32.635  23.285  23.947  1.00  0.00     0.022 C 
ATOM     84  C   UNL A   1      32.451  22.358  22.780  1.00  0.00     0.007 C 
ATOM     85  C   UNL A   1      33.598  22.154  23.746  1.00  0.00     0.007 C 
ENDBRANCH  73  83
ENDBRANCH  66  69
ENDBRANCH  64  65
ENDBRANCH   1  64
TORSDOF 15
ENDMDL
MODEL 3
REMARK VINA RESULT:     -11.5      5.475      9.815
REMARK SMILES O=C(NCCCCNC(=O)[C@@H]1CS[C@@H](C2CC2)N1C(=O)Cc1ccn[nH]1)c1ccc(-c2c3nc(c(-c4c(F)cccc4F)c4ccc([nH]4)c(-c4c(F)cccc4F)c4nc(c(-c5c(F)cccc5F)c5ccc2[nH]5)C=C4)C=C3)cc1
REMARK SMILES IDX 6 1 5 2 4 3 3 4 1 5 2 6 27 8 28 9 80 10 29 11 79 12 30 13
REMARK SMILES IDX 31 14 32 15 73 16 33 17 78 18 72 19 74 20 34 21 77 22 71 23
REMARK SMILES IDX 70 24 35 26 61 27 44 28 60 29 45 30 48 31 59 32 75 33 46 34
REMARK SMILES IDX 47 35 58 37 76 38 49 39 36 40 37 41 42 42 38 43 39 44 41 45
REMARK SMILES IDX 43 46 40 47 62 48 63 49 68 50 64 51 65 52 67 53 69 54 66 55
REMARK SMILES IDX 50 56 51 57 56 58 52 59 53 60 55 61 57 62 54 63 7 64 8 65
REMARK SMILES IDX 9 66 10 68 11 69 12 70 18 71 13 72 14 73 19 74 20 75 21 76
REMARK SMILES IDX 22 77 23 78 26 79 24 80 25 81 15 83 16 84 17 85
REMARK H PARENT 3 7 74 25 48 36 8 67 26 82
REMARK Flexibility Score: inf
ROOT
ATOM      1  C   UNL A   1      31.952  30.526  26.716  1.00  0.00     0.023 C 
ENDROOT
BRANCH   1   2
ATOM      2  C   UNL A   1      31.620  32.002  26.847  1.00  0.00     0.023 C 
BRANCH   2   3
ATOM      3  C   UNL A   1      32.795  32.840  27.302  1.00  0.00     0.116 C 
BRANCH   3   4
ATOM      4  N   UNL A   1      32.443  34.208  27.666  1.00  0.00    -0.352 N 
ATOM      5  O   UNL A   1      32.565  36.131  28.853  1.00  0.00    -0.269 OA
ATOM      6  C   UNL A   1      33.021  35.021  28.616  1.00  0.00     0.251 C 
ATOM      7  H   UNL A   1      31.692  34.602  27.167  1.00  0.00     0.163 HD
BRANCH   6   8
ATOM      8  C   UNL A   1      34.177  34.502  29.376  1.00  0.00     0.039 A 
ATOM      9  C   UNL A   1      35.465  34.635  28.861  1.00  0.00     0.014 A 
ATOM     10  C   UNL A   1      33.956  33.789  30.557  1.00  0.00     0.014 A 
ATOM     11  C   UNL A   1      36.492  33.879  29.398  1.00  0.00     0.010 A 
ATOM     12  C   UNL A   1      35.027  33.141  31.180  1.00  0.00     0.010 A 
ATOM     13  C   UNL A   1      36.296  33.148  30.581  1.00  0.00    -0.014 A 
BRANCH  13  14
ATOM     14  C   UNL A   1      37.468  32.477  31.195  1.00  0.00     0.031 A 
ATOM     15  C   UNL A   1      38.178  31.343  30.513  1.00  0.00     0.074 A 
ATOM     16  C   UNL A   1      37.920  32.960  32.369  1.00  0.00     0.049 A 
ATOM     17  N   UNL A   1      39.224  30.670  30.923  1.00  0.00    -0.248 NA
ATOM     18  C   UNL A   1      37.650  30.893  29.215  1.00  0.00     0.031 C 
ATOM     19  C   UNL A   1      37.297  34.055  33.123  1.00  0.00     0.029 A 
ATOM     20  N   UNL A   1      39.018  32.631  33.116  1.00  0.00    -0.354 N 
ATOM     21  C   UNL A   1      39.456  29.697  29.959  1.00  0.00     0.074 A 
ATOM     22  C   UNL A   1      38.441  29.863  28.941  1.00  0.00     0.031 C 
ATOM     23  C   UNL A   1      38.064  34.357  34.178  1.00  0.00     0.029 A 
ATOM     24  C   UNL A   1      39.178  33.422  34.228  1.00  0.00     0.049 A 
ATOM     25  H   UNL A   1      39.633  31.899  32.880  1.00  0.00     0.167 HD
ATOM     26  C   UNL A   1      40.429  28.755  29.935  1.00  0.00     0.037 A 
ATOM     27  C   UNL A   1      40.105  33.385  35.201  1.00  0.00     0.037 A 
ATOM     28  C   UNL A   1      41.457  28.626  30.936  1.00  0.00     0.049 A 
ATOM     29  C   UNL A   1      41.170  32.336  35.138  1.00  0.00     0.074 A 
ATOM     30  C   UNL A   1      42.510  27.728  30.980  1.00  0.00     0.029 A 
ATOM     31  N   UNL A   1      41.565  29.421  32.066  1.00  0.00    -0.354 N 
ATOM     32  N   UNL A   1      41.376  31.427  34.217  1.00  0.00    -0.248 NA
ATOM     33  C   UNL A   1      42.119  32.294  36.256  1.00  0.00     0.031 C 
ATOM     34  C   UNL A   1      43.234  27.957  32.155  1.00  0.00     0.029 A 
ATOM     35  C   UNL A   1      42.655  29.022  32.823  1.00  0.00     0.049 A 
ATOM     36  H   UNL A   1      40.957  30.161  32.297  1.00  0.00     0.167 HD
ATOM     37  C   UNL A   1      42.476  30.702  34.644  1.00  0.00     0.074 A 
ATOM     38  C   UNL A   1      42.913  31.298  35.890  1.00  0.00     0.031 C 
ATOM     39  C   UNL A   1      43.065  29.628  34.064  1.00  0.00     0.037 A 
BRANCH  26  40
ATOM     40  C   UNL A   1      40.427  27.769  28.803  1.00  0.00     0.057 A 
ATOM     41  C   UNL A   1      39.658  26.601  28.838  1.00  0.00     0.134 A 
ATOM     42  C   UNL A   1      41.143  28.037  27.629  1.00  0.00     0.134 A 
ATOM     43  F   UNL A   1      38.955  26.282  29.936  1.00  0.00    -0.206 F 
ATOM     44  C   UNL A   1      39.605  25.730  27.747  1.00  0.00     0.040 A 
ATOM     45  C   UNL A   1      41.084  27.184  26.526  1.00  0.00     0.040 A 
ATOM     46  F   UNL A   1      41.895  29.144  27.527  1.00  0.00    -0.206 F 
ATOM     47  C   UNL A   1      40.313  26.026  26.583  1.00  0.00     0.006 A 
ENDBRANCH  26  40
BRANCH  27  48
ATOM     48  C   UNL A   1      40.033  34.353  36.322  1.00  0.00     0.057 A 
ATOM     49  C   UNL A   1      40.686  35.587  36.258  1.00  0.00     0.134 A 
ATOM     50  C   UNL A   1      39.287  34.074  37.474  1.00  0.00     0.134 A 
ATOM     51  F   UNL A   1      41.426  35.905  35.185  1.00  0.00    -0.206 F 
ATOM     52  C   UNL A   1      40.607  36.509  37.303  1.00  0.00     0.040 A 
ATOM     53  C   UNL A   1      39.176  34.996  38.514  1.00  0.00     0.040 A 
ATOM     54  F   UNL A   1      38.629  32.911  37.590  1.00  0.00    -0.206 F 
ATOM     55  C   UNL A   1      39.844  36.216  38.432  1.00  0.00     0.006 A 
ENDBRANCH  27  48
BRANCH  39  56
ATOM     56  C   UNL A   1      44.246  29.047  34.777  1.00  0.00     0.057 A 
ATOM     57  C   UNL A   1      44.098  28.022  35.721  1.00  0.00     0.134 A 
ATOM     58  C   UNL A   1      45.539  29.511  34.514  1.00  0.00     0.134 A 
ATOM     59  F   UNL A   1      42.881  27.550  36.027  1.00  0.00    -0.206 F 
ATOM     60  C   UNL A   1      45.199  27.494  36.396  1.00  0.00     0.040 A 
ATOM     61  C   UNL A   1      46.649  28.976  35.168  1.00  0.00     0.040 A 
ATOM     62  F   UNL A   1      45.744  30.489  33.619  1.00  0.00    -0.206 F 
ATOM     63  C   UNL A   1      46.479  27.969  36.117  1.00  0.00     0.006 A 
ENDBRANCH  39  56
ENDBRANCH  13  14
ENDBRANCH   6   8
ENDBRANCH   3   4
ENDBRANCH   2   3
ENDBRANCH   1   2
BRANCH   1  64
ATOM     64  C   UNL A   1      31.507  29.911  25.401  1.00  0.00     0.116 C 
BRANCH  64  65
ATOM     65  N   UNL A   1      32.647  29.681  24.544  1.00  0.00    -0.354 N 
ATOM     66  C   UNL A   1      33.323  28.528  24.268  1.00  0.00     0.243 C 
ATOM     67  H   UNL A   1      32.991  30.483  24.088  1.00  0.00     0.163 HD
ATOM     68  O   UNL A   1      34.211  28.620  23.410  1.00  0.00    -0.273 OA
BRANCH  66  69
ATOM     69  C   UNL A   1      32.847  27.119  24.743  1.00  0.00     0.185 C 
ATOM     70  C   UNL A   1      33.975  26.660  25.664  1.00  0.00     0.107 C 
ATOM     71  N   UNL A   1      32.425  26.047  23.775  1.00  0.00    -0.317 N 
ATOM     72  S   UNL A   1      34.097  24.897  25.481  1.00  0.00    -0.134 SA
ATOM     73  C   UNL A   1      33.313  24.865  23.790  1.00  0.00     0.147 C 
BRANCH  71  74
ATOM     74  C   UNL A   1      31.351  26.429  22.978  1.00  0.00     0.230 C 
ATOM     75  O   UNL A   1      31.456  26.332  21.741  1.00  0.00    -0.274 OA
BRANCH  74  76
ATOM     76  C   UNL A   1      30.018  26.981  23.462  1.00  0.00     0.155 C 
BRANCH  76  77
ATOM     77  C   UNL A   1      29.550  28.211  22.757  1.00  0.00     0.044 A 
ATOM     78  C   UNL A   1      28.350  28.895  22.803  1.00  0.00     0.045 A 
ATOM     79  N   UNL A   1      30.373  28.989  21.986  1.00  0.00    -0.282 N 
ATOM     80  C   UNL A   1      28.515  29.988  21.938  1.00  0.00     0.135 A 
ATOM     81  N   UNL A   1      29.747  30.044  21.433  1.00  0.00    -0.184 NA
ATOM     82  H   UNL A   1      31.329  28.796  21.850  1.00  0.00     0.190 HD
ENDBRANCH  76  77
ENDBRANCH  74  76
ENDBRANCH  71  74
BRANCH  73  83
ATOM     83  C   UNL A   1      32.935  23.404  23.737  1.00  0.00     0.022 C 
ATOM     84  C   UNL A   1      31.662  22.774  23.251  1.00  0.00     0.007 C 
ATOM     85  C   UNL A   1      32.936  22.640  22.446  1.00  0.00     0.007 C 
ENDBRANCH  73  83
ENDBRANCH  66  69
ENDBRANCH  64  65
ENDBRANCH   1  64
TORSDOF 15
ENDMDL
