MODEL 1
REMARK VINA RESULT:     -11.3      0.000      0.000
REMARK SMILES Cc1nc(C(=O)NCCCCNC(=O)c2ccc(-c3c4nc(c(-c5c(F)cccc5F)c5ccc([nH]5)c(-c5c(F)cccc5F)c5nc(c(-c6c(F)cccc6F)c6ccc3[nH]6)C=C5)C=C4)cc2)nn1-c1cccc(C(F)(F)F)c1
REMARK SMILES IDX 9 1 8 2 7 3 5 4 6 5 4 7 1 8 2 9 3 10 70 11 69 12 71 13 72 14
REMARK SMILES IDX 80 15 73 16 75 17 74 18 76 19 77 20 78 21 79 22 10 23 11 24
REMARK SMILES IDX 12 25 13 26 14 28 15 29 16 30 68 31 17 32 67 33 18 34 19 35
REMARK SMILES IDX 20 36 61 37 21 38 66 39 60 40 62 41 22 42 65 43 59 44 58 45
REMARK SMILES IDX 23 47 49 48 32 49 48 50 33 51 36 52 47 53 63 54 34 55 35 56
REMARK SMILES IDX 46 58 64 59 37 60 24 61 25 62 30 63 26 64 27 65 29 66 31 67
REMARK SMILES IDX 28 68 50 69 51 70 56 71 52 72 53 73 55 74 57 75 54 76 38 77
REMARK SMILES IDX 39 78 44 79 40 80 41 81 43 82 45 83 42 84
REMARK H PARENT 7 6 12 27 62 46 36 57
REMARK Flexibility Score: inf
ROOT
ATOM      1  C   UNL A   1      38.567  23.536  26.592  1.00  0.00     0.023 C 
ENDROOT
BRANCH   1   2
ATOM      2  C   UNL A   1      37.204  23.699  25.908  1.00  0.00     0.116 C 
BRANCH   2   3
ATOM      3  N   UNL A   1      37.236  23.390  24.485  1.00  0.00    -0.349 N 
ATOM      4  C   UNL A   1      36.212  23.328  23.550  1.00  0.00     0.290 C 
ATOM      5  O   UNL A   1      36.516  22.953  22.415  1.00  0.00    -0.266 OA
ATOM      6  H   UNL A   1      38.131  23.192  24.127  1.00  0.00     0.163 HD
BRANCH   4   7
ATOM      7  C   UNL A   1      34.819  23.663  23.927  1.00  0.00     0.239 A 
ATOM      8  C   UNL A   1      31.652  23.057  25.478  1.00  0.00     0.090 C 
ATOM      9  C   UNL A   1      32.931  23.551  24.910  1.00  0.00     0.130 A 
ATOM     10  N   UNL A   1      34.017  22.835  24.692  1.00  0.00    -0.207 NA
ATOM     11  N   UNL A   1      33.118  24.810  24.374  1.00  0.00    -0.217 N 
ATOM     12  N   UNL A   1      34.180  24.782  23.543  1.00  0.00    -0.140 NA
BRANCH  11  13
ATOM     13  C   UNL A   1      32.509  26.050  24.675  1.00  0.00     0.067 A 
ATOM     14  C   UNL A   1      31.428  26.483  23.895  1.00  0.00     0.028 A 
ATOM     15  C   UNL A   1      33.064  26.903  25.638  1.00  0.00     0.041 A 
ATOM     16  C   UNL A   1      30.869  27.740  24.116  1.00  0.00     0.003 A 
ATOM     17  C   UNL A   1      32.535  28.191  25.830  1.00  0.00     0.058 A 
ATOM     18  C   UNL A   1      31.418  28.588  25.076  1.00  0.00     0.013 A 
BRANCH  17  19
ATOM     19  C   UNL A   1      33.170  29.160  26.798  1.00  0.00     0.416 C 
ATOM     20  F   UNL A   1      33.809  30.183  26.165  1.00  0.00    -0.166 F 
ATOM     21  F   UNL A   1      32.261  29.738  27.628  1.00  0.00    -0.166 F 
ATOM     22  F   UNL A   1      34.103  28.583  27.606  1.00  0.00    -0.166 F 
ENDBRANCH  17  19
ENDBRANCH  11  13
ENDBRANCH   4   7
ENDBRANCH   2   3
ENDBRANCH   1   2
BRANCH   1  23
ATOM     23  C   UNL A   1      39.336  22.240  26.300  1.00  0.00     0.023 C 
BRANCH  23  24
ATOM     24  C   UNL A   1      40.637  22.075  27.075  1.00  0.00     0.116 C 
BRANCH  24  25
ATOM     25  N   UNL A   1      41.848  22.129  26.241  1.00  0.00    -0.352 N 
ATOM     26  C   UNL A   1      42.476  23.239  25.675  1.00  0.00     0.251 C 
ATOM     27  H   UNL A   1      42.275  21.261  26.055  1.00  0.00     0.163 HD
ATOM     28  O   UNL A   1      43.232  23.128  24.728  1.00  0.00    -0.269 OA
BRANCH  26  29
ATOM     29  C   UNL A   1      42.224  24.563  26.276  1.00  0.00     0.039 A 
ATOM     30  C   UNL A   1      41.351  25.523  25.749  1.00  0.00     0.014 A 
ATOM     31  C   UNL A   1      42.885  24.804  27.465  1.00  0.00     0.014 A 
ATOM     32  C   UNL A   1      41.158  26.707  26.464  1.00  0.00     0.010 A 
ATOM     33  C   UNL A   1      42.390  25.739  28.309  1.00  0.00     0.010 A 
ATOM     34  C   UNL A   1      41.706  26.799  27.746  1.00  0.00    -0.014 A 
BRANCH  34  35
ATOM     35  C   UNL A   1      41.617  27.957  28.616  1.00  0.00     0.031 A 
ATOM     36  C   UNL A   1      42.635  28.993  28.347  1.00  0.00     0.074 A 
ATOM     37  C   UNL A   1      40.475  28.206  29.299  1.00  0.00     0.049 A 
ATOM     38  N   UNL A   1      43.629  29.329  29.096  1.00  0.00    -0.248 NA
ATOM     39  C   UNL A   1      42.668  29.601  27.005  1.00  0.00     0.031 C 
ATOM     40  C   UNL A   1      39.228  27.423  29.319  1.00  0.00     0.029 A 
ATOM     41  N   UNL A   1      40.133  29.319  30.003  1.00  0.00    -0.354 N 
ATOM     42  C   UNL A   1      44.262  30.369  28.424  1.00  0.00     0.074 A 
ATOM     43  C   UNL A   1      43.811  30.287  27.062  1.00  0.00     0.031 C 
ATOM     44  C   UNL A   1      38.218  28.187  29.791  1.00  0.00     0.029 A 
ATOM     45  C   UNL A   1      38.763  29.453  30.235  1.00  0.00     0.049 A 
ATOM     46  H   UNL A   1      40.795  29.974  30.321  1.00  0.00     0.167 HD
ATOM     47  C   UNL A   1      44.846  31.392  29.108  1.00  0.00     0.037 A 
ATOM     48  C   UNL A   1      38.153  30.581  30.683  1.00  0.00     0.037 A 
ATOM     49  C   UNL A   1      44.967  31.060  30.512  1.00  0.00     0.049 A 
ATOM     50  C   UNL A   1      39.216  31.416  31.317  1.00  0.00     0.074 A 
ATOM     51  C   UNL A   1      45.531  30.010  31.214  1.00  0.00     0.029 A 
ATOM     52  N   UNL A   1      44.082  31.653  31.385  1.00  0.00    -0.354 N 
ATOM     53  N   UNL A   1      39.861  31.061  32.399  1.00  0.00    -0.248 NA
ATOM     54  C   UNL A   1      39.917  32.364  30.461  1.00  0.00     0.031 C 
ATOM     55  C   UNL A   1      44.586  29.713  32.243  1.00  0.00     0.029 A 
ATOM     56  C   UNL A   1      43.563  30.659  32.174  1.00  0.00     0.049 A 
ATOM     57  H   UNL A   1      43.864  32.612  31.434  1.00  0.00     0.167 HD
ATOM     58  C   UNL A   1      41.188  31.385  32.145  1.00  0.00     0.074 A 
ATOM     59  C   UNL A   1      41.151  32.240  30.958  1.00  0.00     0.031 C 
ATOM     60  C   UNL A   1      42.219  30.684  32.709  1.00  0.00     0.037 A 
BRANCH  47  61
ATOM     61  C   UNL A   1      44.925  32.827  28.627  1.00  0.00     0.057 A 
ATOM     62  C   UNL A   1      46.194  33.433  28.548  1.00  0.00     0.134 A 
ATOM     63  C   UNL A   1      43.838  33.719  28.517  1.00  0.00     0.134 A 
ATOM     64  F   UNL A   1      47.315  32.698  28.616  1.00  0.00    -0.206 F 
ATOM     65  C   UNL A   1      46.365  34.820  28.492  1.00  0.00     0.040 A 
ATOM     66  C   UNL A   1      44.000  35.103  28.407  1.00  0.00     0.040 A 
ATOM     67  F   UNL A   1      42.563  33.334  28.605  1.00  0.00    -0.206 F 
ATOM     68  C   UNL A   1      45.264  35.663  28.438  1.00  0.00     0.006 A 
ENDBRANCH  47  61
BRANCH  48  69
ATOM     69  C   UNL A   1      36.827  31.115  30.274  1.00  0.00     0.057 A 
ATOM     70  C   UNL A   1      35.922  31.637  31.211  1.00  0.00     0.134 A 
ATOM     71  C   UNL A   1      36.509  31.359  28.924  1.00  0.00     0.134 A 
ATOM     72  F   UNL A   1      36.153  31.503  32.526  1.00  0.00    -0.206 F 
ATOM     73  C   UNL A   1      34.782  32.362  30.830  1.00  0.00     0.040 A 
ATOM     74  C   UNL A   1      35.370  32.072  28.530  1.00  0.00     0.040 A 
ATOM     75  F   UNL A   1      37.334  30.988  27.935  1.00  0.00    -0.206 F 
ATOM     76  C   UNL A   1      34.506  32.588  29.485  1.00  0.00     0.006 A 
ENDBRANCH  48  69
BRANCH  60  77
ATOM     77  C   UNL A   1      41.918  29.676  33.787  1.00  0.00     0.057 A 
ATOM     78  C   UNL A   1      41.665  28.316  33.550  1.00  0.00     0.134 A 
ATOM     79  C   UNL A   1      42.096  30.053  35.123  1.00  0.00     0.134 A 
ATOM     80  F   UNL A   1      41.583  27.832  32.305  1.00  0.00    -0.206 F 
ATOM     81  C   UNL A   1      41.566  27.385  34.589  1.00  0.00     0.040 A 
ATOM     82  C   UNL A   1      42.032  29.128  36.168  1.00  0.00     0.040 A 
ATOM     83  F   UNL A   1      42.401  31.323  35.431  1.00  0.00    -0.206 F 
ATOM     84  C   UNL A   1      41.759  27.789  35.904  1.00  0.00     0.006 A 
ENDBRANCH  60  77
ENDBRANCH  34  35
ENDBRANCH  26  29
ENDBRANCH  24  25
ENDBRANCH  23  24
ENDBRANCH   1  23
TORSDOF 13
ENDMDL
MODEL 2
REMARK VINA RESULT:     -11.2      2.980      7.738
REMARK SMILES Cc1nc(C(=O)NCCCCNC(=O)c2ccc(-c3c4nc(c(-c5c(F)cccc5F)c5ccc([nH]5)c(-c5c(F)cccc5F)c5nc(c(-c6c(F)cccc6F)c6ccc3[nH]6)C=C5)C=C4)cc2)nn1-c1cccc(C(F)(F)F)c1
REMARK SMILES IDX 9 1 8 2 7 3 5 4 6 5 4 7 1 8 2 9 3 10 70 11 69 12 71 13 72 14
REMARK SMILES IDX 80 15 73 16 75 17 74 18 76 19 77 20 78 21 79 22 10 23 11 24
REMARK SMILES IDX 12 25 13 26 14 28 15 29 16 30 68 31 17 32 67 33 18 34 19 35
REMARK SMILES IDX 20 36 61 37 21 38 66 39 60 40 62 41 22 42 65 43 59 44 58 45
REMARK SMILES IDX 23 47 49 48 32 49 48 50 33 51 36 52 47 53 63 54 34 55 35 56
REMARK SMILES IDX 46 58 64 59 37 60 24 61 25 62 30 63 26 64 27 65 29 66 31 67
REMARK SMILES IDX 28 68 50 69 51 70 56 71 52 72 53 73 55 74 57 75 54 76 38 77
REMARK SMILES IDX 39 78 44 79 40 80 41 81 43 82 45 83 42 84
REMARK H PARENT 7 6 12 27 62 46 36 57
REMARK Flexibility Score: inf
ROOT
ATOM      1  C   UNL A   1      33.179  27.644  26.701  1.00  0.00     0.023 C 
ENDROOT
BRANCH   1   2
ATOM      2  C   UNL A   1      32.022  27.004  25.925  1.00  0.00     0.116 C 
BRANCH   2   3
ATOM      3  N   UNL A   1      31.357  25.937  26.661  1.00  0.00    -0.349 N 
ATOM      4  C   UNL A   1      31.461  24.559  26.547  1.00  0.00     0.290 C 
ATOM      5  O   UNL A   1      30.707  23.883  27.251  1.00  0.00    -0.266 OA
ATOM      6  H   UNL A   1      30.730  26.246  27.355  1.00  0.00     0.163 HD
BRANCH   4   7
ATOM      7  C   UNL A   1      32.414  23.946  25.592  1.00  0.00     0.239 A 
ATOM      8  C   UNL A   1      33.800  23.334  22.351  1.00  0.00     0.090 C 
ATOM      9  C   UNL A   1      33.469  23.583  23.776  1.00  0.00     0.130 A 
ATOM     10  N   UNL A   1      32.396  24.199  24.231  1.00  0.00    -0.207 NA
ATOM     11  N   UNL A   1      34.164  23.058  24.847  1.00  0.00    -0.217 N 
ATOM     12  N   UNL A   1      33.367  23.063  25.936  1.00  0.00    -0.140 NA
BRANCH  11  13
ATOM     13  C   UNL A   1      35.525  22.703  24.989  1.00  0.00     0.067 A 
ATOM     14  C   UNL A   1      35.922  21.396  24.675  1.00  0.00     0.028 A 
ATOM     15  C   UNL A   1      36.437  23.591  25.574  1.00  0.00     0.041 A 
ATOM     16  C   UNL A   1      37.240  20.997  24.891  1.00  0.00     0.003 A 
ATOM     17  C   UNL A   1      37.755  23.177  25.839  1.00  0.00     0.058 A 
ATOM     18  C   UNL A   1      38.150  21.881  25.469  1.00  0.00     0.013 A 
BRANCH  17  19
ATOM     19  C   UNL A   1      38.731  24.085  26.549  1.00  0.00     0.416 C 
ATOM     20  F   UNL A   1      39.764  24.466  25.747  1.00  0.00    -0.166 F 
ATOM     21  F   UNL A   1      38.149  25.234  26.987  1.00  0.00    -0.166 F 
ATOM     22  F   UNL A   1      39.302  23.512  27.644  1.00  0.00    -0.166 F 
ENDBRANCH  17  19
ENDBRANCH  11  13
ENDBRANCH   4   7
ENDBRANCH   2   3
ENDBRANCH   1   2
BRANCH   1  23
ATOM     23  C   UNL A   1      32.975  29.090  27.176  1.00  0.00     0.023 C 
BRANCH  23  24
ATOM     24  C   UNL A   1      34.105  30.048  26.822  1.00  0.00     0.116 C 
BRANCH  24  25
ATOM     25  N   UNL A   1      34.122  31.283  27.623  1.00  0.00    -0.352 N 
ATOM     26  C   UNL A   1      34.879  31.582  28.757  1.00  0.00     0.251 C 
ATOM     27  H   UNL A   1      33.517  31.997  27.318  1.00  0.00     0.163 HD
ATOM     28  O   UNL A   1      34.548  32.465  29.528  1.00  0.00    -0.269 OA
BRANCH  26  29
ATOM     29  C   UNL A   1      36.120  30.818  28.989  1.00  0.00     0.039 A 
ATOM     30  C   UNL A   1      36.215  29.422  28.933  1.00  0.00     0.014 A 
ATOM     31  C   UNL A   1      37.245  31.583  29.228  1.00  0.00     0.014 A 
ATOM     32  C   UNL A   1      37.472  28.836  29.104  1.00  0.00     0.010 A 
ATOM     33  C   UNL A   1      38.463  31.042  28.991  1.00  0.00     0.010 A 
ATOM     34  C   UNL A   1      38.589  29.675  29.148  1.00  0.00    -0.014 A 
BRANCH  34  35
ATOM     35  C   UNL A   1      39.959  29.239  29.337  1.00  0.00     0.031 A 
ATOM     36  C   UNL A   1      40.366  29.126  30.753  1.00  0.00     0.074 A 
ATOM     37  C   UNL A   1      40.621  28.622  28.329  1.00  0.00     0.049 A 
ATOM     38  N   UNL A   1      41.209  29.866  31.388  1.00  0.00    -0.248 NA
ATOM     39  C   UNL A   1      39.613  28.203  31.619  1.00  0.00     0.031 C 
ATOM     40  C   UNL A   1      40.145  28.322  26.968  1.00  0.00     0.029 A 
ATOM     41  N   UNL A   1      41.820  27.982  28.368  1.00  0.00    -0.354 N 
ATOM     42  C   UNL A   1      41.273  29.334  32.671  1.00  0.00     0.074 A 
ATOM     43  C   UNL A   1      40.093  28.530  32.821  1.00  0.00     0.031 C 
ATOM     44  C   UNL A   1      40.932  27.375  26.410  1.00  0.00     0.029 A 
ATOM     45  C   UNL A   1      42.038  27.104  27.304  1.00  0.00     0.049 A 
ATOM     46  H   UNL A   1      42.478  28.125  29.086  1.00  0.00     0.167 HD
ATOM     47  C   UNL A   1      42.440  29.343  33.376  1.00  0.00     0.037 A 
ATOM     48  C   UNL A   1      43.026  26.174  27.248  1.00  0.00     0.037 A 
ATOM     49  C   UNL A   1      43.407  30.216  32.744  1.00  0.00     0.049 A 
ATOM     50  C   UNL A   1      44.061  26.593  28.238  1.00  0.00     0.074 A 
ATOM     51  C   UNL A   1      43.406  31.542  32.354  1.00  0.00     0.029 A 
ATOM     52  N   UNL A   1      44.430  29.625  32.035  1.00  0.00    -0.354 N 
ATOM     53  N   UNL A   1      44.770  27.686  28.121  1.00  0.00    -0.248 NA
ATOM     54  C   UNL A   1      43.924  26.087  29.599  1.00  0.00     0.031 C 
ATOM     55  C   UNL A   1      44.046  31.546  31.078  1.00  0.00     0.029 A 
ATOM     56  C   UNL A   1      44.491  30.250  30.816  1.00  0.00     0.049 A 
ATOM     57  H   UNL A   1      45.008  28.891  32.346  1.00  0.00     0.167 HD
ATOM     58  C   UNL A   1      44.795  28.235  29.397  1.00  0.00     0.074 A 
ATOM     59  C   UNL A   1      44.307  27.173  30.277  1.00  0.00     0.031 C 
ATOM     60  C   UNL A   1      44.896  29.585  29.597  1.00  0.00     0.037 A 
BRANCH  47  61
ATOM     61  C   UNL A   1      42.865  28.279  34.367  1.00  0.00     0.057 A 
ATOM     62  C   UNL A   1      43.222  28.686  35.667  1.00  0.00     0.134 A 
ATOM     63  C   UNL A   1      43.217  26.951  34.048  1.00  0.00     0.134 A 
ATOM     64  F   UNL A   1      42.927  29.918  36.110  1.00  0.00    -0.206 F 
ATOM     65  C   UNL A   1      43.974  27.882  36.529  1.00  0.00     0.040 A 
ATOM     66  C   UNL A   1      43.923  26.122  34.923  1.00  0.00     0.040 A 
ATOM     67  F   UNL A   1      42.993  26.402  32.852  1.00  0.00    -0.206 F 
ATOM     68  C   UNL A   1      44.344  26.598  36.151  1.00  0.00     0.006 A 
ENDBRANCH  47  61
BRANCH  48  69
ATOM     69  C   UNL A   1      42.946  24.804  26.677  1.00  0.00     0.057 A 
ATOM     70  C   UNL A   1      43.575  24.472  25.467  1.00  0.00     0.134 A 
ATOM     71  C   UNL A   1      42.460  23.714  27.425  1.00  0.00     0.134 A 
ATOM     72  F   UNL A   1      44.117  25.428  24.698  1.00  0.00    -0.206 F 
ATOM     73  C   UNL A   1      43.720  23.144  25.036  1.00  0.00     0.040 A 
ATOM     74  C   UNL A   1      42.588  22.385  27.002  1.00  0.00     0.040 A 
ATOM     75  F   UNL A   1      41.914  23.888  28.636  1.00  0.00    -0.206 F 
ATOM     76  C   UNL A   1      43.232  22.093  25.808  1.00  0.00     0.006 A 
ENDBRANCH  48  69
BRANCH  60  77
ATOM     77  C   UNL A   1      45.195  30.480  28.423  1.00  0.00     0.057 A 
ATOM     78  C   UNL A   1      44.216  31.080  27.616  1.00  0.00     0.134 A 
ATOM     79  C   UNL A   1      46.511  30.914  28.233  1.00  0.00     0.134 A 
ATOM     80  F   UNL A   1      42.916  30.814  27.789  1.00  0.00    -0.206 F 
ATOM     81  C   UNL A   1      44.533  32.042  26.651  1.00  0.00     0.040 A 
ATOM     82  C   UNL A   1      46.839  31.897  27.295  1.00  0.00     0.040 A 
ATOM     83  F   UNL A   1      47.499  30.434  29.004  1.00  0.00    -0.206 F 
ATOM     84  C   UNL A   1      45.849  32.460  26.495  1.00  0.00     0.006 A 
ENDBRANCH  60  77
ENDBRANCH  34  35
ENDBRANCH  26  29
ENDBRANCH  24  25
ENDBRANCH  23  24
ENDBRANCH   1  23
TORSDOF 13
ENDMDL
MODEL 3
REMARK VINA RESULT:     -11.1      2.132      2.696
REMARK SMILES Cc1nc(C(=O)NCCCCNC(=O)c2ccc(-c3c4nc(c(-c5c(F)cccc5F)c5ccc([nH]5)c(-c5c(F)cccc5F)c5nc(c(-c6c(F)cccc6F)c6ccc3[nH]6)C=C5)C=C4)cc2)nn1-c1cccc(C(F)(F)F)c1
REMARK SMILES IDX 9 1 8 2 7 3 5 4 6 5 4 7 1 8 2 9 3 10 70 11 69 12 71 13 72 14
REMARK SMILES IDX 80 15 73 16 75 17 74 18 76 19 77 20 78 21 79 22 10 23 11 24
REMARK SMILES IDX 12 25 13 26 14 28 15 29 16 30 68 31 17 32 67 33 18 34 19 35
REMARK SMILES IDX 20 36 61 37 21 38 66 39 60 40 62 41 22 42 65 43 59 44 58 45
REMARK SMILES IDX 23 47 49 48 32 49 48 50 33 51 36 52 47 53 63 54 34 55 35 56
REMARK SMILES IDX 46 58 64 59 37 60 24 61 25 62 30 63 26 64 27 65 29 66 31 67
REMARK SMILES IDX 28 68 50 69 51 70 56 71 52 72 53 73 55 74 57 75 54 76 38 77
REMARK SMILES IDX 39 78 44 79 40 80 41 81 43 82 45 83 42 84
REMARK H PARENT 7 6 12 27 62 46 36 57
REMARK Flexibility Score: inf
ROOT
ATOM      1  C   UNL A   1      39.898  21.691  26.443  1.00  0.00     0.023 C 
ENDROOT
BRANCH   1   2
ATOM      2  C   UNL A   1      38.494  21.919  25.868  1.00  0.00     0.116 C 
BRANCH   2   3
ATOM      3  N   UNL A   1      37.915  20.722  25.274  1.00  0.00    -0.349 N 
ATOM      4  C   UNL A   1      36.591  20.375  25.046  1.00  0.00     0.290 C 
ATOM      5  O   UNL A   1      36.380  19.245  24.599  1.00  0.00    -0.266 OA
ATOM      6  H   UNL A   1      38.572  20.047  24.987  1.00  0.00     0.163 HD
BRANCH   4   7
ATOM      7  C   UNL A   1      35.494  21.318  25.366  1.00  0.00     0.239 A 
ATOM      8  C   UNL A   1      33.097  22.882  27.513  1.00  0.00     0.090 C 
ATOM      9  C   UNL A   1      34.117  22.467  26.519  1.00  0.00     0.130 A 
ATOM     10  N   UNL A   1      34.946  21.447  26.631  1.00  0.00    -0.207 NA
ATOM     11  N   UNL A   1      34.238  22.995  25.249  1.00  0.00    -0.217 N 
ATOM     12  N   UNL A   1      34.897  22.117  24.466  1.00  0.00    -0.140 NA
BRANCH  11  13
ATOM     13  C   UNL A   1      33.940  24.283  24.745  1.00  0.00     0.067 A 
ATOM     14  C   UNL A   1      33.895  24.476  23.357  1.00  0.00     0.028 A 
ATOM     15  C   UNL A   1      33.840  25.381  25.608  1.00  0.00     0.041 A 
ATOM     16  C   UNL A   1      33.692  25.753  22.838  1.00  0.00     0.003 A 
ATOM     17  C   UNL A   1      33.685  26.678  25.087  1.00  0.00     0.058 A 
ATOM     18  C   UNL A   1      33.587  26.846  23.696  1.00  0.00     0.013 A 
BRANCH  17  19
ATOM     19  C   UNL A   1      33.663  27.887  25.992  1.00  0.00     0.416 C 
ATOM     20  F   UNL A   1      34.778  27.974  26.769  1.00  0.00    -0.166 F 
ATOM     21  F   UNL A   1      33.593  29.055  25.299  1.00  0.00    -0.166 F 
ATOM     22  F   UNL A   1      32.608  27.896  26.854  1.00  0.00    -0.166 F 
ENDBRANCH  17  19
ENDBRANCH  11  13
ENDBRANCH   4   7
ENDBRANCH   2   3
ENDBRANCH   1   2
BRANCH   1  23
ATOM     23  C   UNL A   1      40.576  20.357  26.100  1.00  0.00     0.023 C 
BRANCH  23  24
ATOM     24  C   UNL A   1      41.832  20.049  26.904  1.00  0.00     0.116 C 
BRANCH  24  25
ATOM     25  N   UNL A   1      43.048  19.896  26.089  1.00  0.00    -0.352 N 
ATOM     26  C   UNL A   1      43.768  20.869  25.394  1.00  0.00     0.251 C 
ATOM     27  H   UNL A   1      43.403  18.980  26.023  1.00  0.00     0.163 HD
ATOM     28  O   UNL A   1      44.517  20.575  24.481  1.00  0.00    -0.269 OA
BRANCH  26  29
ATOM     29  C   UNL A   1      43.623  22.276  25.816  1.00  0.00     0.039 A 
ATOM     30  C   UNL A   1      43.055  23.286  25.032  1.00  0.00     0.014 A 
ATOM     31  C   UNL A   1      44.052  22.551  27.101  1.00  0.00     0.014 A 
ATOM     32  C   UNL A   1      42.919  24.561  25.588  1.00  0.00     0.010 A 
ATOM     33  C   UNL A   1      43.556  23.639  27.735  1.00  0.00     0.010 A 
ATOM     34  C   UNL A   1      43.195  24.717  26.950  1.00  0.00    -0.014 A 
BRANCH  34  35
ATOM     35  C   UNL A   1      43.122  25.967  27.683  1.00  0.00     0.031 A 
ATOM     36  C   UNL A   1      44.088  26.988  27.229  1.00  0.00     0.074 A 
ATOM     37  C   UNL A   1      42.016  26.267  28.404  1.00  0.00     0.049 A 
ATOM     38  N   UNL A   1      45.115  27.435  27.868  1.00  0.00    -0.248 NA
ATOM     39  C   UNL A   1      44.019  27.434  25.826  1.00  0.00     0.031 C 
ATOM     40  C   UNL A   1      40.798  25.462  28.596  1.00  0.00     0.029 A 
ATOM     41  N   UNL A   1      41.683  27.447  28.994  1.00  0.00    -0.354 N 
ATOM     42  C   UNL A   1      45.672  28.404  27.040  1.00  0.00     0.074 A 
ATOM     43  C   UNL A   1      45.141  28.149  25.729  1.00  0.00     0.031 C 
ATOM     44  C   UNL A   1      39.796  26.252  29.040  1.00  0.00     0.029 A 
ATOM     45  C   UNL A   1      40.326  27.575  29.298  1.00  0.00     0.049 A 
ATOM     46  H   UNL A   1      42.343  28.151  29.190  1.00  0.00     0.167 HD
ATOM     47  C   UNL A   1      46.264  29.514  27.561  1.00  0.00     0.037 A 
ATOM     48  C   UNL A   1      39.709  28.733  29.649  1.00  0.00     0.037 A 
ATOM     49  C   UNL A   1      46.481  29.353  28.983  1.00  0.00     0.049 A 
ATOM     50  C   UNL A   1      40.782  29.662  30.112  1.00  0.00     0.074 A 
ATOM     51  C   UNL A   1      47.120  28.409  29.765  1.00  0.00     0.029 A 
ATOM     52  N   UNL A   1      45.633  30.025  29.837  1.00  0.00    -0.354 N 
ATOM     53  N   UNL A   1      41.503  29.454  31.183  1.00  0.00    -0.248 NA
ATOM     54  C   UNL A   1      41.398  30.519  29.107  1.00  0.00     0.031 C 
ATOM     55  C   UNL A   1      46.251  28.212  30.880  1.00  0.00     0.029 A 
ATOM     56  C   UNL A   1      45.195  29.118  30.768  1.00  0.00     0.049 A 
ATOM     57  H   UNL A   1      45.388  30.977  29.787  1.00  0.00     0.167 HD
ATOM     58  C   UNL A   1      42.802  29.777  30.808  1.00  0.00     0.074 A 
ATOM     59  C   UNL A   1      42.664  30.485  29.535  1.00  0.00     0.031 C 
ATOM     60  C   UNL A   1      43.887  29.174  31.382  1.00  0.00     0.037 A 
BRANCH  47  61
ATOM     61  C   UNL A   1      46.268  30.883  26.911  1.00  0.00     0.057 A 
ATOM     62  C   UNL A   1      47.485  31.591  26.858  1.00  0.00     0.134 A 
ATOM     63  C   UNL A   1      45.126  31.652  26.606  1.00  0.00     0.134 A 
ATOM     64  F   UNL A   1      48.652  30.976  27.105  1.00  0.00    -0.206 F 
ATOM     65  C   UNL A   1      47.545  32.971  26.642  1.00  0.00     0.040 A 
ATOM     66  C   UNL A   1      45.182  33.022  26.336  1.00  0.00     0.040 A 
ATOM     67  F   UNL A   1      43.883  31.163  26.640  1.00  0.00    -0.206 F 
ATOM     68  C   UNL A   1      46.388  33.697  26.396  1.00  0.00     0.006 A 
ENDBRANCH  47  61
BRANCH  48  69
ATOM     69  C   UNL A   1      38.345  29.182  29.267  1.00  0.00     0.057 A 
ATOM     70  C   UNL A   1      37.343  29.393  30.227  1.00  0.00     0.134 A 
ATOM     71  C   UNL A   1      38.054  29.658  27.974  1.00  0.00     0.134 A 
ATOM     72  F   UNL A   1      37.534  29.022  31.502  1.00  0.00    -0.206 F 
ATOM     73  C   UNL A   1      36.137  30.044  29.923  1.00  0.00     0.040 A 
ATOM     74  C   UNL A   1      36.851  30.299  27.654  1.00  0.00     0.040 A 
ATOM     75  F   UNL A   1      38.959  29.594  26.988  1.00  0.00    -0.206 F 
ATOM     76  C   UNL A   1      35.890  30.507  28.633  1.00  0.00     0.006 A 
ENDBRANCH  48  69
BRANCH  60  77
ATOM     77  C   UNL A   1      43.684  28.293  32.588  1.00  0.00     0.057 A 
ATOM     78  C   UNL A   1      43.605  26.893  32.540  1.00  0.00     0.134 A 
ATOM     79  C   UNL A   1      43.783  28.869  33.859  1.00  0.00     0.134 A 
ATOM     80  F   UNL A   1      43.613  26.237  31.374  1.00  0.00    -0.206 F 
ATOM     81  C   UNL A   1      43.595  26.108  33.697  1.00  0.00     0.040 A 
ATOM     82  C   UNL A   1      43.807  28.095  35.023  1.00  0.00     0.040 A 
ATOM     83  F   UNL A   1      43.924  30.197  33.990  1.00  0.00    -0.206 F 
ATOM     84  C   UNL A   1      43.706  26.710  34.945  1.00  0.00     0.006 A 
ENDBRANCH  60  77
ENDBRANCH  34  35
ENDBRANCH  26  29
ENDBRANCH  24  25
ENDBRANCH  23  24
ENDBRANCH   1  23
TORSDOF 13
ENDMDL
