MODEL 1
REMARK VINA RESULT:     -10.3      0.000      0.000
REMARK SMILES O=C(Cc1c(C(=O)c2cccc(Cl)c2)[nH]c2ccccc12)NCCCCNC(=O)c1ccc(-c2c3nc(c(-c4c(F)cccc4F)c4ccc([nH]4)c(-c4c(F)cccc4F)c4nc(c(-c5c(F)cccc5F)c5ccc2[nH]5)C=C4)C=C3)cc1
REMARK SMILES IDX 24 1 23 2 22 3 1 4 2 5 3 7 4 8 5 9 21 10 15 11 16 12 20 13
REMARK SMILES IDX 17 15 19 16 18 17 6 18 7 19 8 20 9 21 14 22 10 23 12 24
REMARK SMILES IDX 11 25 13 26 25 27 26 28 27 29 28 30 29 32 30 33 31 34 83 35
REMARK SMILES IDX 32 36 82 37 33 38 34 39 35 40 76 41 36 42 81 43 75 44 77 45
REMARK SMILES IDX 37 46 80 47 74 48 73 49 38 51 64 52 47 53 63 54 48 55 51 56
REMARK SMILES IDX 62 57 78 58 49 59 50 60 61 62 79 63 52 64 39 65 40 66 45 67
REMARK SMILES IDX 41 68 42 69 44 70 46 71 43 72 65 73 66 74 71 75 67 76 68 77
REMARK SMILES IDX 70 78 72 79 69 80 53 81 54 82 59 83 55 84 56 85 58 86 60 87
REMARK SMILES IDX 57 88
REMARK H PARENT 22 6 15 14 27 31 77 50 51 61
REMARK Flexibility Score: inf
ROOT
ATOM      1  C   UNL A   1      45.979  19.344  24.238  1.00  0.00     0.023 C 
ENDROOT
BRANCH   1   2
ATOM      2  C   UNL A   1      46.461  20.555  25.031  1.00  0.00     0.116 C 
BRANCH   2   3
ATOM      3  N   UNL A   1      46.034  21.810  24.446  1.00  0.00    -0.356 N 
ATOM      4  O   UNL A   1      45.051  22.633  26.350  1.00  0.00    -0.275 OA
ATOM      5  C   UNL A   1      45.397  22.789  25.182  1.00  0.00     0.224 C 
ATOM      6  H   UNL A   1      46.205  21.969  23.490  1.00  0.00     0.163 HD
BRANCH   5   7
ATOM      7  C   UNL A   1      45.126  24.076  24.422  1.00  0.00     0.138 C 
BRANCH   7   8
ATOM      8  C   UNL A   1      45.165  25.342  25.250  1.00  0.00    -0.002 A 
ATOM      9  C   UNL A   1      46.299  25.823  25.915  1.00  0.00     0.092 A 
ATOM     10  C   UNL A   1      44.106  26.295  25.467  1.00  0.00     0.004 A 
ATOM     11  N   UNL A   1      45.930  27.001  26.527  1.00  0.00    -0.352 N 
ATOM     12  C   UNL A   1      44.607  27.287  26.307  1.00  0.00     0.046 A 
ATOM     13  C   UNL A   1      42.767  26.421  25.033  1.00  0.00     0.010 A 
ATOM     14  H   UNL A   1      46.539  27.565  27.055  1.00  0.00     0.167 HD
ATOM     15  C   UNL A   1      43.838  28.363  26.768  1.00  0.00     0.027 A 
ATOM     16  C   UNL A   1      41.979  27.484  25.490  1.00  0.00     0.001 A 
ATOM     17  C   UNL A   1      42.508  28.437  26.352  1.00  0.00     0.002 A 
BRANCH   9  18
ATOM     18  C   UNL A   1      47.644  25.261  25.927  1.00  0.00     0.209 C 
ATOM     19  O   UNL A   1      47.953  24.249  26.555  1.00  0.00    -0.287 OA
BRANCH  18  20
ATOM     20  C   UNL A   1      48.718  25.885  25.116  1.00  0.00     0.026 A 
ATOM     21  C   UNL A   1      50.014  26.046  25.623  1.00  0.00     0.012 A 
ATOM     22  C   UNL A   1      48.416  26.274  23.806  1.00  0.00     0.032 A 
ATOM     23  C   UNL A   1      51.000  26.633  24.826  1.00  0.00     0.002 A 
ATOM     24  C   UNL A   1      49.406  26.857  23.020  1.00  0.00     0.041 A 
ATOM     25  C   UNL A   1      50.694  27.043  23.526  1.00  0.00     0.020 A 
ATOM     26  Cl  UNL A   1      49.042  27.352  21.414  1.00  0.00    -0.084 Cl
ENDBRANCH  18  20
ENDBRANCH   9  18
ENDBRANCH   7   8
ENDBRANCH   5   7
ENDBRANCH   2   3
ENDBRANCH   1   2
BRANCH   1  27
ATOM     27  C   UNL A   1      44.459  19.165  24.186  1.00  0.00     0.023 C 
BRANCH  27  28
ATOM     28  C   UNL A   1      43.732  19.300  25.520  1.00  0.00     0.116 C 
BRANCH  28  29
ATOM     29  N   UNL A   1      42.310  19.011  25.427  1.00  0.00    -0.352 N 
ATOM     30  C   UNL A   1      41.237  19.712  25.923  1.00  0.00     0.251 C 
ATOM     31  H   UNL A   1      42.082  18.190  24.934  1.00  0.00     0.163 HD
ATOM     32  O   UNL A   1      40.107  19.233  25.851  1.00  0.00    -0.269 OA
BRANCH  30  33
ATOM     33  C   UNL A   1      41.432  21.026  26.577  1.00  0.00     0.039 A 
ATOM     34  C   UNL A   1      41.459  21.085  27.973  1.00  0.00     0.014 A 
ATOM     35  C   UNL A   1      41.573  22.197  25.828  1.00  0.00     0.014 A 
ATOM     36  C   UNL A   1      41.703  22.302  28.616  1.00  0.00     0.010 A 
ATOM     37  C   UNL A   1      41.881  23.398  26.467  1.00  0.00     0.010 A 
ATOM     38  C   UNL A   1      41.955  23.462  27.868  1.00  0.00    -0.014 A 
BRANCH  38  39
ATOM     39  C   UNL A   1      42.314  24.744  28.529  1.00  0.00     0.031 A 
ATOM     40  C   UNL A   1      41.293  25.837  28.677  1.00  0.00     0.074 A 
ATOM     41  C   UNL A   1      43.581  24.953  28.935  1.00  0.00     0.049 A 
ATOM     42  N   UNL A   1      41.441  27.049  29.149  1.00  0.00    -0.248 NA
ATOM     43  C   UNL A   1      39.930  25.538  28.209  1.00  0.00     0.031 C 
ATOM     44  C   UNL A   1      44.680  23.992  28.812  1.00  0.00     0.029 A 
ATOM     45  N   UNL A   1      44.164  26.048  29.524  1.00  0.00    -0.354 N 
ATOM     46  C   UNL A   1      40.201  27.662  29.020  1.00  0.00     0.074 A 
ATOM     47  C   UNL A   1      39.322  26.703  28.384  1.00  0.00     0.031 C 
ATOM     48  C   UNL A   1      45.796  24.532  29.328  1.00  0.00     0.029 A 
ATOM     49  C   UNL A   1      45.504  25.887  29.783  1.00  0.00     0.049 A 
ATOM     50  H   UNL A   1      43.668  26.872  29.739  1.00  0.00     0.167 HD
ATOM     51  C   UNL A   1      39.822  28.901  29.413  1.00  0.00     0.037 A 
ATOM     52  C   UNL A   1      46.399  26.738  30.320  1.00  0.00     0.037 A 
ATOM     53  C   UNL A   1      40.684  29.845  30.076  1.00  0.00     0.049 A 
ATOM     54  C   UNL A   1      45.954  28.110  30.745  1.00  0.00     0.074 A 
ATOM     55  C   UNL A   1      40.372  31.100  30.570  1.00  0.00     0.029 A 
ATOM     56  N   UNL A   1      42.031  29.637  30.335  1.00  0.00    -0.354 N 
ATOM     57  N   UNL A   1      44.763  28.652  30.670  1.00  0.00    -0.248 NA
ATOM     58  C   UNL A   1      46.978  28.987  31.331  1.00  0.00     0.031 C 
ATOM     59  C   UNL A   1      41.539  31.668  31.094  1.00  0.00     0.029 A 
ATOM     60  C   UNL A   1      42.567  30.750  30.963  1.00  0.00     0.049 A 
ATOM     61  H   UNL A   1      42.531  28.820  30.107  1.00  0.00     0.167 HD
ATOM     62  C   UNL A   1      44.887  29.918  31.226  1.00  0.00     0.074 A 
ATOM     63  C   UNL A   1      46.266  30.062  31.642  1.00  0.00     0.031 C 
ATOM     64  C   UNL A   1      43.940  30.877  31.379  1.00  0.00     0.037 A 
BRANCH  51  65
ATOM     65  C   UNL A   1      38.404  29.311  29.139  1.00  0.00     0.057 A 
ATOM     66  C   UNL A   1      37.435  29.341  30.151  1.00  0.00     0.134 A 
ATOM     67  C   UNL A   1      38.012  29.717  27.857  1.00  0.00     0.134 A 
ATOM     68  F   UNL A   1      37.743  28.954  31.398  1.00  0.00    -0.206 F 
ATOM     69  C   UNL A   1      36.122  29.736  29.891  1.00  0.00     0.040 A 
ATOM     70  C   UNL A   1      36.709  30.139  27.591  1.00  0.00     0.040 A 
ATOM     71  F   UNL A   1      38.892  29.719  26.844  1.00  0.00    -0.206 F 
ATOM     72  C   UNL A   1      35.757  30.144  28.610  1.00  0.00     0.006 A 
ENDBRANCH  51  65
BRANCH  52  73
ATOM     73  C   UNL A   1      47.808  26.311  30.509  1.00  0.00     0.057 A 
ATOM     74  C   UNL A   1      48.217  25.681  31.690  1.00  0.00     0.134 A 
ATOM     75  C   UNL A   1      48.778  26.531  29.525  1.00  0.00     0.134 A 
ATOM     76  F   UNL A   1      47.336  25.464  32.677  1.00  0.00    -0.206 F 
ATOM     77  C   UNL A   1      49.543  25.300  31.894  1.00  0.00     0.040 A 
ATOM     78  C   UNL A   1      50.104  26.133  29.705  1.00  0.00     0.040 A 
ATOM     79  F   UNL A   1      48.449  27.126  28.368  1.00  0.00    -0.206 F 
ATOM     80  C   UNL A   1      50.491  25.522  30.896  1.00  0.00     0.006 A 
ENDBRANCH  52  73
BRANCH  64  81
ATOM     81  C   UNL A   1      44.356  32.151  32.053  1.00  0.00     0.057 A 
ATOM     82  C   UNL A   1      44.223  32.334  33.435  1.00  0.00     0.134 A 
ATOM     83  C   UNL A   1      44.929  33.194  31.314  1.00  0.00     0.134 A 
ATOM     84  F   UNL A   1      43.668  31.378  34.197  1.00  0.00    -0.206 F 
ATOM     85  C   UNL A   1      44.627  33.517  34.056  1.00  0.00     0.040 A 
ATOM     86  C   UNL A   1      45.360  34.371  31.927  1.00  0.00     0.040 A 
ATOM     87  F   UNL A   1      45.092  33.078  29.987  1.00  0.00    -0.206 F 
ATOM     88  C   UNL A   1      45.203  34.537  33.301  1.00  0.00     0.006 A 
ENDBRANCH  64  81
ENDBRANCH  38  39
ENDBRANCH  30  33
ENDBRANCH  28  29
ENDBRANCH  27  28
ENDBRANCH   1  27
TORSDOF 14
ENDMDL
MODEL 2
REMARK VINA RESULT:     -10.1      5.808     11.493
REMARK SMILES O=C(Cc1c(C(=O)c2cccc(Cl)c2)[nH]c2ccccc12)NCCCCNC(=O)c1ccc(-c2c3nc(c(-c4c(F)cccc4F)c4ccc([nH]4)c(-c4c(F)cccc4F)c4nc(c(-c5c(F)cccc5F)c5ccc2[nH]5)C=C4)C=C3)cc1
REMARK SMILES IDX 24 1 23 2 22 3 1 4 2 5 3 7 4 8 5 9 21 10 15 11 16 12 20 13
REMARK SMILES IDX 17 15 19 16 18 17 6 18 7 19 8 20 9 21 14 22 10 23 12 24
REMARK SMILES IDX 11 25 13 26 25 27 26 28 27 29 28 30 29 32 30 33 31 34 83 35
REMARK SMILES IDX 32 36 82 37 33 38 34 39 35 40 76 41 36 42 81 43 75 44 77 45
REMARK SMILES IDX 37 46 80 47 74 48 73 49 38 51 64 52 47 53 63 54 48 55 51 56
REMARK SMILES IDX 62 57 78 58 49 59 50 60 61 62 79 63 52 64 39 65 40 66 45 67
REMARK SMILES IDX 41 68 42 69 44 70 46 71 43 72 65 73 66 74 71 75 67 76 68 77
REMARK SMILES IDX 70 78 72 79 69 80 53 81 54 82 59 83 55 84 56 85 58 86 60 87
REMARK SMILES IDX 57 88
REMARK H PARENT 22 6 15 14 27 31 77 50 51 61
REMARK Flexibility Score: inf
ROOT
ATOM      1  C   UNL A   1      31.775  29.969  26.097  1.00  0.00     0.023 C 
ENDROOT
BRANCH   1   2
ATOM      2  C   UNL A   1      32.021  29.037  27.279  1.00  0.00     0.116 C 
BRANCH   2   3
ATOM      3  N   UNL A   1      31.868  27.639  26.928  1.00  0.00    -0.356 N 
ATOM      4  O   UNL A   1      33.980  27.383  26.064  1.00  0.00    -0.275 OA
ATOM      5  C   UNL A   1      32.899  26.896  26.385  1.00  0.00     0.224 C 
ATOM      6  H   UNL A   1      30.999  27.204  27.082  1.00  0.00     0.163 HD
BRANCH   5   7
ATOM      7  C   UNL A   1      32.582  25.424  26.186  1.00  0.00     0.138 C 
BRANCH   7   8
ATOM      8  C   UNL A   1      33.225  24.777  24.980  1.00  0.00    -0.002 A 
ATOM      9  C   UNL A   1      32.623  24.666  23.721  1.00  0.00     0.092 A 
ATOM     10  C   UNL A   1      34.548  24.215  24.872  1.00  0.00     0.004 A 
ATOM     11  N   UNL A   1      33.535  24.042  22.899  1.00  0.00    -0.352 N 
ATOM     12  C   UNL A   1      34.685  23.724  23.576  1.00  0.00     0.046 A 
ATOM     13  C   UNL A   1      35.650  24.075  25.744  1.00  0.00     0.010 A 
ATOM     14  H   UNL A   1      33.381  23.849  21.946  1.00  0.00     0.167 HD
ATOM     15  C   UNL A   1      35.836  23.067  23.121  1.00  0.00     0.027 A 
ATOM     16  C   UNL A   1      36.806  23.414  25.312  1.00  0.00     0.001 A 
ATOM     17  C   UNL A   1      36.892  22.911  24.020  1.00  0.00     0.002 A 
BRANCH   9  18
ATOM     18  C   UNL A   1      31.319  25.163  23.297  1.00  0.00     0.209 C 
ATOM     19  O   UNL A   1      30.336  24.440  23.136  1.00  0.00    -0.287 OA
BRANCH  18  20
ATOM     20  C   UNL A   1      31.111  26.615  23.080  1.00  0.00     0.026 A 
ATOM     21  C   UNL A   1      32.183  27.471  22.798  1.00  0.00     0.012 A 
ATOM     22  C   UNL A   1      29.802  27.108  23.122  1.00  0.00     0.032 A 
ATOM     23  C   UNL A   1      31.945  28.833  22.594  1.00  0.00     0.002 A 
ATOM     24  C   UNL A   1      29.577  28.467  22.917  1.00  0.00     0.041 A 
ATOM     25  C   UNL A   1      30.642  29.331  22.659  1.00  0.00     0.020 A 
ATOM     26  Cl  UNL A   1      27.974  29.086  22.980  1.00  0.00    -0.084 Cl
ENDBRANCH  18  20
ENDBRANCH   9  18
ENDBRANCH   7   8
ENDBRANCH   5   7
ENDBRANCH   2   3
ENDBRANCH   1   2
BRANCH   1  27
ATOM     27  C   UNL A   1      31.519  31.433  26.466  1.00  0.00     0.023 C 
BRANCH  27  28
ATOM     28  C   UNL A   1      32.737  32.215  26.947  1.00  0.00     0.116 C 
BRANCH  28  29
ATOM     29  N   UNL A   1      32.406  33.544  27.433  1.00  0.00    -0.352 N 
ATOM     30  C   UNL A   1      33.038  34.317  28.377  1.00  0.00     0.251 C 
ATOM     31  H   UNL A   1      31.608  33.952  27.025  1.00  0.00     0.163 HD
ATOM     32  O   UNL A   1      32.526  35.371  28.748  1.00  0.00    -0.269 OA
BRANCH  30  33
ATOM     33  C   UNL A   1      34.317  33.876  28.979  1.00  0.00     0.039 A 
ATOM     34  C   UNL A   1      34.280  33.073  30.123  1.00  0.00     0.014 A 
ATOM     35  C   UNL A   1      35.547  34.257  28.436  1.00  0.00     0.014 A 
ATOM     36  C   UNL A   1      35.469  32.591  30.676  1.00  0.00     0.010 A 
ATOM     37  C   UNL A   1      36.728  33.723  28.949  1.00  0.00     0.010 A 
ATOM     38  C   UNL A   1      36.702  32.880  30.071  1.00  0.00    -0.014 A 
BRANCH  38  39
ATOM     39  C   UNL A   1      37.970  32.297  30.584  1.00  0.00     0.031 A 
ATOM     40  C   UNL A   1      38.527  31.036  29.985  1.00  0.00     0.074 A 
ATOM     41  C   UNL A   1      38.586  32.866  31.638  1.00  0.00     0.049 A 
ATOM     42  N   UNL A   1      39.572  30.337  30.352  1.00  0.00    -0.248 NA
ATOM     43  C   UNL A   1      37.800  30.471  28.837  1.00  0.00     0.031 C 
ATOM     44  C   UNL A   1      38.128  34.068  32.340  1.00  0.00     0.029 A 
ATOM     45  N   UNL A   1      39.725  32.502  32.313  1.00  0.00    -0.354 N 
ATOM     46  C   UNL A   1      39.618  29.245  29.496  1.00  0.00     0.074 A 
ATOM     47  C   UNL A   1      38.470  29.349  28.619  1.00  0.00     0.031 C 
ATOM     48  C   UNL A   1      38.988  34.352  33.332  1.00  0.00     0.029 A 
ATOM     49  C   UNL A   1      40.035  33.336  33.361  1.00  0.00     0.049 A 
ATOM     50  H   UNL A   1      40.268  31.717  32.070  1.00  0.00     0.167 HD
ATOM     51  C   UNL A   1      40.541  28.256  29.431  1.00  0.00     0.037 A 
ATOM     52  C   UNL A   1      41.045  33.283  34.252  1.00  0.00     0.037 A 
ATOM     53  C   UNL A   1      41.700  28.167  30.280  1.00  0.00     0.049 A 
ATOM     54  C   UNL A   1      42.054  32.173  34.161  1.00  0.00     0.074 A 
ATOM     55  C   UNL A   1      42.726  27.238  30.246  1.00  0.00     0.029 A 
ATOM     56  N   UNL A   1      41.987  29.040  31.319  1.00  0.00    -0.354 N 
ATOM     57  N   UNL A   1      42.117  31.181  33.306  1.00  0.00    -0.248 NA
ATOM     58  C   UNL A   1      43.136  32.178  35.156  1.00  0.00     0.031 C 
ATOM     59  C   UNL A   1      43.614  27.526  31.289  1.00  0.00     0.029 A 
ATOM     60  C   UNL A   1      43.162  28.659  31.945  1.00  0.00     0.049 A 
ATOM     61  H   UNL A   1      41.438  29.817  31.573  1.00  0.00     0.167 HD
ATOM     62  C   UNL A   1      43.257  30.462  33.642  1.00  0.00     0.074 A 
ATOM     63  C   UNL A   1      43.861  31.137  34.771  1.00  0.00     0.031 C 
ATOM     64  C   UNL A   1      43.758  29.343  33.064  1.00  0.00     0.037 A 
BRANCH  51  65
ATOM     65  C   UNL A   1      40.336  27.184  28.400  1.00  0.00     0.057 A 
ATOM     66  C   UNL A   1      40.964  27.234  27.149  1.00  0.00     0.134 A 
ATOM     67  C   UNL A   1      39.533  26.070  28.676  1.00  0.00     0.134 A 
ATOM     68  F   UNL A   1      41.738  28.279  26.818  1.00  0.00    -0.206 F 
ATOM     69  C   UNL A   1      40.780  26.227  26.200  1.00  0.00     0.040 A 
ATOM     70  C   UNL A   1      39.362  25.044  27.745  1.00  0.00     0.040 A 
ATOM     71  F   UNL A   1      38.908  25.956  29.858  1.00  0.00    -0.206 F 
ATOM     72  C   UNL A   1      39.983  25.124  26.500  1.00  0.00     0.006 A 
ENDBRANCH  51  65
BRANCH  52  73
ATOM     73  C   UNL A   1      41.167  34.329  35.298  1.00  0.00     0.057 A 
ATOM     74  C   UNL A   1      40.524  34.189  36.533  1.00  0.00     0.134 A 
ATOM     75  C   UNL A   1      41.916  35.492  35.087  1.00  0.00     0.134 A 
ATOM     76  F   UNL A   1      39.775  33.106  36.784  1.00  0.00    -0.206 F 
ATOM     77  C   UNL A   1      40.606  35.177  37.515  1.00  0.00     0.040 A 
ATOM     78  C   UNL A   1      42.026  36.477  36.070  1.00  0.00     0.040 A 
ATOM     79  F   UNL A   1      42.561  35.683  33.926  1.00  0.00    -0.206 F 
ATOM     80  C   UNL A   1      41.363  36.323  37.286  1.00  0.00     0.006 A 
ENDBRANCH  52  73
BRANCH  64  81
ATOM     81  C   UNL A   1      45.040  28.799  33.620  1.00  0.00     0.057 A 
ATOM     82  C   UNL A   1      45.055  27.845  34.645  1.00  0.00     0.134 A 
ATOM     83  C   UNL A   1      46.274  29.209  33.099  1.00  0.00     0.134 A 
ATOM     84  F   UNL A   1      43.907  27.421  35.197  1.00  0.00    -0.206 F 
ATOM     85  C   UNL A   1      46.253  27.332  35.146  1.00  0.00     0.040 A 
ATOM     86  C   UNL A   1      47.477  28.685  33.575  1.00  0.00     0.040 A 
ATOM     87  F   UNL A   1      46.329  30.115  32.111  1.00  0.00    -0.206 F 
ATOM     88  C   UNL A   1      47.468  27.748  34.605  1.00  0.00     0.006 A 
ENDBRANCH  64  81
ENDBRANCH  38  39
ENDBRANCH  30  33
ENDBRANCH  28  29
ENDBRANCH  27  28
ENDBRANCH   1  27
TORSDOF 14
ENDMDL
MODEL 3
REMARK VINA RESULT:     -10.0      6.117     11.529
REMARK SMILES O=C(Cc1c(C(=O)c2cccc(Cl)c2)[nH]c2ccccc12)NCCCCNC(=O)c1ccc(-c2c3nc(c(-c4c(F)cccc4F)c4ccc([nH]4)c(-c4c(F)cccc4F)c4nc(c(-c5c(F)cccc5F)c5ccc2[nH]5)C=C4)C=C3)cc1
REMARK SMILES IDX 24 1 23 2 22 3 1 4 2 5 3 7 4 8 5 9 21 10 15 11 16 12 20 13
REMARK SMILES IDX 17 15 19 16 18 17 6 18 7 19 8 20 9 21 14 22 10 23 12 24
REMARK SMILES IDX 11 25 13 26 25 27 26 28 27 29 28 30 29 32 30 33 31 34 83 35
REMARK SMILES IDX 32 36 82 37 33 38 34 39 35 40 76 41 36 42 81 43 75 44 77 45
REMARK SMILES IDX 37 46 80 47 74 48 73 49 38 51 64 52 47 53 63 54 48 55 51 56
REMARK SMILES IDX 62 57 78 58 49 59 50 60 61 62 79 63 52 64 39 65 40 66 45 67
REMARK SMILES IDX 41 68 42 69 44 70 46 71 43 72 65 73 66 74 71 75 67 76 68 77
REMARK SMILES IDX 70 78 72 79 69 80 53 81 54 82 59 83 55 84 56 85 58 86 60 87
REMARK SMILES IDX 57 88
REMARK H PARENT 22 6 15 14 27 31 77 50 51 61
REMARK Flexibility Score: inf
ROOT
ATOM      1  C   UNL A   1      33.083  28.941  25.045  1.00  0.00     0.023 C 
ENDROOT
BRANCH   1   2
ATOM      2  C   UNL A   1      33.200  27.634  25.823  1.00  0.00     0.116 C 
BRANCH   2   3
ATOM      3  N   UNL A   1      33.895  26.603  25.080  1.00  0.00    -0.356 N 
ATOM      4  O   UNL A   1      33.249  24.864  26.432  1.00  0.00    -0.275 OA
ATOM      5  C   UNL A   1      33.819  25.267  25.421  1.00  0.00     0.224 C 
ATOM      6  H   UNL A   1      34.441  26.865  24.303  1.00  0.00     0.163 HD
BRANCH   5   7
ATOM      7  C   UNL A   1      34.525  24.327  24.460  1.00  0.00     0.138 C 
BRANCH   7   8
ATOM      8  C   UNL A   1      33.634  23.334  23.747  1.00  0.00    -0.002 A 
ATOM      9  C   UNL A   1      32.756  23.657  22.706  1.00  0.00     0.092 A 
ATOM     10  C   UNL A   1      33.551  21.909  23.948  1.00  0.00     0.004 A 
ATOM     11  N   UNL A   1      32.153  22.482  22.316  1.00  0.00    -0.352 N 
ATOM     12  C   UNL A   1      32.583  21.423  23.073  1.00  0.00     0.046 A 
ATOM     13  C   UNL A   1      34.204  20.977  24.785  1.00  0.00     0.010 A 
ATOM     14  H   UNL A   1      31.496  22.412  21.586  1.00  0.00     0.167 HD
ATOM     15  C   UNL A   1      32.203  20.075  23.021  1.00  0.00     0.027 A 
ATOM     16  C   UNL A   1      33.832  19.627  24.755  1.00  0.00     0.001 A 
ATOM     17  C   UNL A   1      32.839  19.186  23.888  1.00  0.00     0.002 A 
BRANCH   9  18
ATOM     18  C   UNL A   1      32.542  24.955  22.076  1.00  0.00     0.209 C 
ATOM     19  O   UNL A   1      33.178  25.349  21.099  1.00  0.00    -0.287 OA
BRANCH  18  20
ATOM     20  C   UNL A   1      31.481  25.860  22.580  1.00  0.00     0.026 A 
ATOM     21  C   UNL A   1      30.585  25.450  23.575  1.00  0.00     0.012 A 
ATOM     22  C   UNL A   1      31.421  27.160  22.064  1.00  0.00     0.032 A 
ATOM     23  C   UNL A   1      29.602  26.335  24.028  1.00  0.00     0.002 A 
ATOM     24  C   UNL A   1      30.439  28.033  22.523  1.00  0.00     0.041 A 
ATOM     25  C   UNL A   1      29.527  27.624  23.497  1.00  0.00     0.020 A 
ATOM     26  Cl  UNL A   1      30.347  29.628  21.885  1.00  0.00    -0.084 Cl
ENDBRANCH  18  20
ENDBRANCH   9  18
ENDBRANCH   7   8
ENDBRANCH   5   7
ENDBRANCH   2   3
ENDBRANCH   1   2
BRANCH   1  27
ATOM     27  C   UNL A   1      31.873  29.807  25.407  1.00  0.00     0.023 C 
BRANCH  27  28
ATOM     28  C   UNL A   1      31.859  30.361  26.829  1.00  0.00     0.116 C 
BRANCH  28  29
ATOM     29  N   UNL A   1      31.776  31.811  26.876  1.00  0.00    -0.352 N 
ATOM     30  C   UNL A   1      32.642  32.723  27.429  1.00  0.00     0.251 C 
ATOM     31  H   UNL A   1      30.979  32.198  26.446  1.00  0.00     0.163 HD
ATOM     32  O   UNL A   1      32.330  33.911  27.480  1.00  0.00    -0.269 OA
BRANCH  30  33
ATOM     33  C   UNL A   1      33.938  32.285  27.996  1.00  0.00     0.039 A 
ATOM     34  C   UNL A   1      34.848  33.257  28.421  1.00  0.00     0.014 A 
ATOM     35  C   UNL A   1      34.266  30.931  28.099  1.00  0.00     0.014 A 
ATOM     36  C   UNL A   1      36.053  32.872  29.018  1.00  0.00     0.010 A 
ATOM     37  C   UNL A   1      35.437  30.548  28.753  1.00  0.00     0.010 A 
ATOM     38  C   UNL A   1      36.340  31.514  29.224  1.00  0.00    -0.014 A 
BRANCH  38  39
ATOM     39  C   UNL A   1      37.568  31.085  29.945  1.00  0.00     0.031 A 
ATOM     40  C   UNL A   1      38.579  30.202  29.269  1.00  0.00     0.074 A 
ATOM     41  C   UNL A   1      37.741  31.436  31.234  1.00  0.00     0.049 A 
ATOM     42  N   UNL A   1      39.665  29.661  29.761  1.00  0.00    -0.248 NA
ATOM     43  C   UNL A   1      38.323  29.859  27.861  1.00  0.00     0.031 C 
ATOM     44  C   UNL A   1      36.816  32.254  32.021  1.00  0.00     0.029 A 
ATOM     45  N   UNL A   1      38.750  31.137  32.115  1.00  0.00    -0.354 N 
ATOM     46  C   UNL A   1      40.211  28.903  28.733  1.00  0.00     0.074 A 
ATOM     47  C   UNL A   1      39.313  29.017  27.603  1.00  0.00     0.031 C 
ATOM     48  C   UNL A   1      37.311  32.409  33.260  1.00  0.00     0.029 A 
ATOM     49  C   UNL A   1      38.565  31.672  33.368  1.00  0.00     0.049 A 
ATOM     50  H   UNL A   1      39.533  30.590  31.873  1.00  0.00     0.167 HD
ATOM     51  C   UNL A   1      41.365  28.193  28.723  1.00  0.00     0.037 A 
ATOM     52  C   UNL A   1      39.318  31.573  34.481  1.00  0.00     0.037 A 
ATOM     53  C   UNL A   1      42.276  28.104  29.835  1.00  0.00     0.049 A 
ATOM     54  C   UNL A   1      40.591  30.776  34.445  1.00  0.00     0.074 A 
ATOM     55  C   UNL A   1      43.501  27.462  29.897  1.00  0.00     0.029 A 
ATOM     56  N   UNL A   1      42.060  28.674  31.080  1.00  0.00    -0.354 N 
ATOM     57  N   UNL A   1      41.124  30.114  33.447  1.00  0.00    -0.248 NA
ATOM     58  C   UNL A   1      41.370  30.715  35.690  1.00  0.00     0.031 C 
ATOM     59  C   UNL A   1      44.008  27.611  31.192  1.00  0.00     0.029 A 
ATOM     60  C   UNL A   1      43.119  28.380  31.923  1.00  0.00     0.049 A 
ATOM     61  H   UNL A   1      41.271  29.209  31.329  1.00  0.00     0.167 HD
ATOM     62  C   UNL A   1      42.312  29.584  33.933  1.00  0.00     0.074 A 
ATOM     63  C   UNL A   1      42.427  30.008  35.312  1.00  0.00     0.031 C 
ATOM     64  C   UNL A   1      43.226  28.815  33.293  1.00  0.00     0.037 A 
BRANCH  51  65
ATOM     65  C   UNL A   1      41.711  27.453  27.464  1.00  0.00     0.057 A 
ATOM     66  C   UNL A   1      42.416  28.064  26.419  1.00  0.00     0.134 A 
ATOM     67  C   UNL A   1      41.369  26.103  27.311  1.00  0.00     0.134 A 
ATOM     68  F   UNL A   1      42.764  29.357  26.499  1.00  0.00    -0.206 F 
ATOM     69  C   UNL A   1      42.747  27.366  25.256  1.00  0.00     0.040 A 
ATOM     70  C   UNL A   1      41.718  25.388  26.164  1.00  0.00     0.040 A 
ATOM     71  F   UNL A   1      40.700  25.455  28.276  1.00  0.00    -0.206 F 
ATOM     72  C   UNL A   1      42.404  26.022  25.129  1.00  0.00     0.006 A 
ENDBRANCH  51  65
BRANCH  52  73
ATOM     73  C   UNL A   1      38.898  32.267  35.724  1.00  0.00     0.057 A 
ATOM     74  C   UNL A   1      38.172  31.594  36.714  1.00  0.00     0.134 A 
ATOM     75  C   UNL A   1      39.200  33.614  35.949  1.00  0.00     0.134 A 
ATOM     76  F   UNL A   1      37.835  30.307  36.544  1.00  0.00    -0.206 F 
ATOM     77  C   UNL A   1      37.746  32.240  37.875  1.00  0.00     0.040 A 
ATOM     78  C   UNL A   1      38.801  34.267  37.116  1.00  0.00     0.040 A 
ATOM     79  F   UNL A   1      39.898  34.313  35.040  1.00  0.00    -0.206 F 
ATOM     80  C   UNL A   1      38.065  33.581  38.080  1.00  0.00     0.006 A 
ENDBRANCH  52  73
BRANCH  64  81
ATOM     81  C   UNL A   1      44.447  28.412  34.066  1.00  0.00     0.057 A 
ATOM     82  C   UNL A   1      45.592  29.216  34.112  1.00  0.00     0.134 A 
ATOM     83  C   UNL A   1      44.463  27.220  34.801  1.00  0.00     0.134 A 
ATOM     84  F   UNL A   1      45.645  30.364  33.417  1.00  0.00    -0.206 F 
ATOM     85  C   UNL A   1      46.718  28.841  34.846  1.00  0.00     0.040 A 
ATOM     86  C   UNL A   1      45.573  26.846  35.560  1.00  0.00     0.040 A 
ATOM     87  F   UNL A   1      43.394  26.408  34.806  1.00  0.00    -0.206 F 
ATOM     88  C   UNL A   1      46.706  27.655  35.579  1.00  0.00     0.006 A 
ENDBRANCH  64  81
ENDBRANCH  38  39
ENDBRANCH  30  33
ENDBRANCH  28  29
ENDBRANCH  27  28
ENDBRANCH   1  27
TORSDOF 14
ENDMDL
