MODEL 1
REMARK VINA RESULT:     -10.5      0.000      0.000
REMARK SMILES CC(C)[C@@H]([NH2+][C@@H]1CSCC(C)(C)C1)C(=O)NCCCCNC(=O)c1ccc(-c2c3nc(c(-c4c(F)cccc4F)c4ccc([nH]4)c(-c4c(F)cccc4F)c4nc(c(-c5c(F)cccc5F)c5ccc2[nH]5)C=C4)C=C3)cc1
REMARK SMILES IDX 18 1 17 2 16 3 14 4 15 5 4 7 2 8 1 9 3 10 5 11 6 14 7 15
REMARK SMILES IDX 13 16 8 17 10 18 9 19 11 20 12 21 19 22 20 23 21 24 22 25
REMARK SMILES IDX 23 27 24 28 25 29 77 30 26 31 76 32 27 33 28 34 29 35 70 36
REMARK SMILES IDX 30 37 75 38 69 39 71 40 31 41 74 42 68 43 67 44 32 46 58 47
REMARK SMILES IDX 41 48 57 49 42 50 45 51 56 52 72 53 43 54 44 55 55 57 73 58
REMARK SMILES IDX 46 59 33 60 34 61 39 62 35 63 36 64 38 65 40 66 37 67 59 68
REMARK SMILES IDX 60 69 65 70 61 71 62 72 64 73 66 74 63 75 47 76 48 77 53 78
REMARK SMILES IDX 49 79 50 80 52 81 54 82 51 83
REMARK H PARENT 16 6 5 12 5 13 21 26 71 45 45 56
REMARK Flexibility Score: inf
ROOT
ATOM      1  C   UNL A   1      36.584  21.924  24.418  1.00  0.00     0.023 C 
ENDROOT
BRANCH   1   2
ATOM      2  C   UNL A   1      36.587  23.118  25.360  1.00  0.00     0.116 C 
BRANCH   2   3
ATOM      3  N   UNL A   1      35.872  22.861  26.592  1.00  0.00    -0.351 N 
ATOM      4  C   UNL A   1      34.521  22.774  26.787  1.00  0.00     0.278 C 
ATOM      5  O   UNL A   1      34.115  22.408  27.896  1.00  0.00    -0.268 OA
ATOM      6  H   UNL A   1      36.430  22.733  27.392  1.00  0.00     0.163 HD
BRANCH   4   7
ATOM      7  C   UNL A   1      33.517  23.208  25.689  1.00  0.00     0.275 C 
BRANCH   7   8
ATOM      8  C   UNL A   1      32.485  22.052  25.460  1.00  0.00     0.051 C 
ATOM      9  C   UNL A   1      31.038  22.488  25.709  1.00  0.00     0.014 C 
ATOM     10  C   UNL A   1      32.583  21.465  24.041  1.00  0.00     0.014 C 
ENDBRANCH   7   8
BRANCH   7  11
ATOM     11  N   UNL A   1      32.877  24.514  26.025  1.00  0.00    -0.333 N 
ATOM     12  H   UNL A   1      32.649  24.497  27.020  1.00  0.00     0.347 HD
ATOM     13  H   UNL A   1      32.072  24.583  25.402  1.00  0.00     0.347 HD
BRANCH  11  14
ATOM     14  C   UNL A   1      33.673  25.737  25.767  1.00  0.00     0.193 C 
ATOM     15  C   UNL A   1      33.162  27.083  26.311  1.00  0.00     0.134 C 
ATOM     16  C   UNL A   1      33.946  25.899  24.244  1.00  0.00     0.073 C 
ATOM     17  S   UNL A   1      31.551  27.573  25.629  1.00  0.00    -0.155 SA
ATOM     18  C   UNL A   1      32.743  26.271  23.331  1.00  0.00    -0.021 C 
ATOM     19  C   UNL A   1      31.906  27.461  23.860  1.00  0.00     0.076 C 
ATOM     20  C   UNL A   1      31.870  25.034  23.046  1.00  0.00     0.012 C 
ATOM     21  C   UNL A   1      33.285  26.713  21.949  1.00  0.00     0.012 C 
ENDBRANCH  11  14
ENDBRANCH   7  11
ENDBRANCH   4   7
ENDBRANCH   2   3
ENDBRANCH   1   2
BRANCH   1  22
ATOM     22  C   UNL A   1      37.320  20.705  24.968  1.00  0.00     0.023 C 
BRANCH  22  23
ATOM     23  C   UNL A   1      38.674  21.002  25.611  1.00  0.00     0.116 C 
BRANCH  23  24
ATOM     24  N   UNL A   1      39.578  19.860  25.612  1.00  0.00    -0.352 N 
ATOM     25  C   UNL A   1      40.899  19.810  25.996  1.00  0.00     0.251 C 
ATOM     26  H   UNL A   1      39.193  19.009  25.298  1.00  0.00     0.163 HD
ATOM     27  O   UNL A   1      41.564  18.797  25.837  1.00  0.00    -0.269 OA
BRANCH  25  28
ATOM     28  C   UNL A   1      41.515  21.023  26.573  1.00  0.00     0.039 A 
ATOM     29  C   UNL A   1      42.003  22.010  25.714  1.00  0.00     0.014 A 
ATOM     30  C   UNL A   1      41.550  21.204  27.958  1.00  0.00     0.014 A 
ATOM     31  C   UNL A   1      42.453  23.221  26.245  1.00  0.00     0.010 A 
ATOM     32  C   UNL A   1      41.930  22.436  28.479  1.00  0.00     0.010 A 
ATOM     33  C   UNL A   1      42.380  23.458  27.627  1.00  0.00    -0.014 A 
BRANCH  33  34
ATOM     34  C   UNL A   1      42.770  24.765  28.212  1.00  0.00     0.031 A 
ATOM     35  C   UNL A   1      41.730  25.829  28.424  1.00  0.00     0.074 A 
ATOM     36  C   UNL A   1      44.065  25.023  28.480  1.00  0.00     0.049 A 
ATOM     37  N   UNL A   1      41.881  27.069  28.816  1.00  0.00    -0.248 NA
ATOM     38  C   UNL A   1      40.337  25.458  28.127  1.00  0.00     0.031 C 
ATOM     39  C   UNL A   1      45.176  24.090  28.281  1.00  0.00     0.029 A 
ATOM     40  N   UNL A   1      44.669  26.156  28.965  1.00  0.00    -0.354 N 
ATOM     41  C   UNL A   1      40.610  27.627  28.797  1.00  0.00     0.074 A 
ATOM     42  C   UNL A   1      39.707  26.610  28.305  1.00  0.00     0.031 C 
ATOM     43  C   UNL A   1      46.322  24.682  28.658  1.00  0.00     0.029 A 
ATOM     44  C   UNL A   1      46.033  26.046  29.089  1.00  0.00     0.049 A 
ATOM     45  H   UNL A   1      44.171  26.971  29.203  1.00  0.00     0.167 HD
ATOM     46  C   UNL A   1      40.226  28.868  29.176  1.00  0.00     0.037 A 
ATOM     47  C   UNL A   1      46.948  26.948  29.493  1.00  0.00     0.037 A 
ATOM     48  C   UNL A   1      41.120  29.871  29.692  1.00  0.00     0.049 A 
ATOM     49  C   UNL A   1      46.494  28.322  29.903  1.00  0.00     0.074 A 
ATOM     50  C   UNL A   1      40.820  31.144  30.144  1.00  0.00     0.029 A 
ATOM     51  N   UNL A   1      42.490  29.710  29.828  1.00  0.00    -0.354 N 
ATOM     52  N   UNL A   1      45.282  28.821  29.929  1.00  0.00    -0.248 NA
ATOM     53  C   UNL A   1      47.537  29.260  30.345  1.00  0.00     0.031 C 
ATOM     54  C   UNL A   1      42.013  31.765  30.526  1.00  0.00     0.029 A 
ATOM     55  C   UNL A   1      43.050  30.864  30.350  1.00  0.00     0.049 A 
ATOM     56  H   UNL A   1      42.990  28.896  29.589  1.00  0.00     0.167 HD
ATOM     57  C   UNL A   1      45.411  30.112  30.421  1.00  0.00     0.074 A 
ATOM     58  C   UNL A   1      46.818  30.320  30.690  1.00  0.00     0.031 C 
ATOM     59  C   UNL A   1      44.450  31.044  30.633  1.00  0.00     0.037 A 
BRANCH  46  60
ATOM     60  C   UNL A   1      38.769  29.205  29.059  1.00  0.00     0.057 A 
ATOM     61  C   UNL A   1      38.196  29.572  27.834  1.00  0.00     0.134 A 
ATOM     62  C   UNL A   1      37.923  29.128  30.172  1.00  0.00     0.134 A 
ATOM     63  F   UNL A   1      38.956  29.677  26.734  1.00  0.00    -0.206 F 
ATOM     64  C   UNL A   1      36.838  29.874  27.725  1.00  0.00     0.040 A 
ATOM     65  C   UNL A   1      36.558  29.403  30.070  1.00  0.00     0.040 A 
ATOM     66  F   UNL A   1      38.406  28.778  31.373  1.00  0.00    -0.206 F 
ATOM     67  C   UNL A   1      36.013  29.782  28.844  1.00  0.00     0.006 A 
ENDBRANCH  46  60
BRANCH  47  68
ATOM     68  C   UNL A   1      48.385  26.581  29.556  1.00  0.00     0.057 A 
ATOM     69  C   UNL A   1      48.917  25.947  30.685  1.00  0.00     0.134 A 
ATOM     70  C   UNL A   1      49.264  26.878  28.509  1.00  0.00     0.134 A 
ATOM     71  F   UNL A   1      48.127  25.656  31.730  1.00  0.00    -0.206 F 
ATOM     72  C   UNL A   1      50.275  25.644  30.782  1.00  0.00     0.040 A 
ATOM     73  C   UNL A   1      50.621  26.558  28.582  1.00  0.00     0.040 A 
ATOM     74  F   UNL A   1      48.817  27.480  27.398  1.00  0.00    -0.206 F 
ATOM     75  C   UNL A   1      51.132  25.947  29.726  1.00  0.00     0.006 A 
ENDBRANCH  47  68
BRANCH  59  76
ATOM     76  C   UNL A   1      44.878  32.350  31.232  1.00  0.00     0.057 A 
ATOM     77  C   UNL A   1      45.241  33.445  30.439  1.00  0.00     0.134 A 
ATOM     78  C   UNL A   1      44.882  32.526  32.621  1.00  0.00     0.134 A 
ATOM     79  F   UNL A   1      45.270  33.337  29.101  1.00  0.00    -0.206 F 
ATOM     80  C   UNL A   1      45.611  34.665  31.008  1.00  0.00     0.040 A 
ATOM     81  C   UNL A   1      45.227  33.747  33.201  1.00  0.00     0.040 A 
ATOM     82  F   UNL A   1      44.537  31.518  33.436  1.00  0.00    -0.206 F 
ATOM     83  C   UNL A   1      45.598  34.819  32.393  1.00  0.00     0.006 A 
ENDBRANCH  59  76
ENDBRANCH  33  34
ENDBRANCH  25  28
ENDBRANCH  23  24
ENDBRANCH  22  23
ENDBRANCH   1  22
TORSDOF 14
ENDMDL
MODEL 2
REMARK VINA RESULT:     -10.5      0.789      6.384
REMARK SMILES CC(C)[C@@H]([NH2+][C@@H]1CSCC(C)(C)C1)C(=O)NCCCCNC(=O)c1ccc(-c2c3nc(c(-c4c(F)cccc4F)c4ccc([nH]4)c(-c4c(F)cccc4F)c4nc(c(-c5c(F)cccc5F)c5ccc2[nH]5)C=C4)C=C3)cc1
REMARK SMILES IDX 18 1 17 2 16 3 14 4 15 5 4 7 2 8 1 9 3 10 5 11 6 14 7 15
REMARK SMILES IDX 13 16 8 17 10 18 9 19 11 20 12 21 19 22 20 23 21 24 22 25
REMARK SMILES IDX 23 27 24 28 25 29 77 30 26 31 76 32 27 33 28 34 29 35 70 36
REMARK SMILES IDX 30 37 75 38 69 39 71 40 31 41 74 42 68 43 67 44 32 46 58 47
REMARK SMILES IDX 41 48 57 49 42 50 45 51 56 52 72 53 43 54 44 55 55 57 73 58
REMARK SMILES IDX 46 59 33 60 34 61 39 62 35 63 36 64 38 65 40 66 37 67 59 68
REMARK SMILES IDX 60 69 65 70 61 71 62 72 64 73 66 74 63 75 47 76 48 77 53 78
REMARK SMILES IDX 49 79 50 80 52 81 54 82 51 83
REMARK H PARENT 16 6 5 12 5 13 21 26 71 45 45 56
REMARK Flexibility Score: inf
ROOT
ATOM      1  C   UNL A   1      37.078  21.306  24.477  1.00  0.00     0.023 C 
ENDROOT
BRANCH   1   2
ATOM      2  C   UNL A   1      36.906  22.395  25.524  1.00  0.00     0.116 C 
BRANCH   2   3
ATOM      3  N   UNL A   1      35.914  22.060  26.523  1.00  0.00    -0.351 N 
ATOM      4  C   UNL A   1      34.616  21.673  26.335  1.00  0.00     0.278 C 
ATOM      5  O   UNL A   1      33.971  21.297  27.320  1.00  0.00    -0.268 OA
ATOM      6  H   UNL A   1      36.213  22.119  27.460  1.00  0.00     0.163 HD
BRANCH   4   7
ATOM      7  C   UNL A   1      33.933  21.788  24.948  1.00  0.00     0.275 C 
BRANCH   7   8
ATOM      8  C   UNL A   1      33.109  20.483  24.679  1.00  0.00     0.051 C 
ATOM      9  C   UNL A   1      32.280  20.556  23.394  1.00  0.00     0.014 C 
ATOM     10  C   UNL A   1      34.011  19.237  24.611  1.00  0.00     0.014 C 
ENDBRANCH   7   8
BRANCH   7  11
ATOM     11  N   UNL A   1      33.116  23.033  24.848  1.00  0.00    -0.333 N 
ATOM     12  H   UNL A   1      32.681  23.189  25.757  1.00  0.00     0.347 HD
ATOM     13  H   UNL A   1      32.464  22.862  24.083  1.00  0.00     0.347 HD
BRANCH  11  14
ATOM     14  C   UNL A   1      33.832  24.276  24.474  1.00  0.00     0.193 C 
ATOM     15  C   UNL A   1      33.956  25.403  25.515  1.00  0.00     0.134 C 
ATOM     16  C   UNL A   1      33.232  24.880  23.171  1.00  0.00     0.073 C 
ATOM     17  S   UNL A   1      32.354  26.076  26.045  1.00  0.00    -0.155 SA
ATOM     18  C   UNL A   1      31.812  25.509  23.256  1.00  0.00    -0.021 C 
ATOM     19  C   UNL A   1      31.635  26.491  24.439  1.00  0.00     0.076 C 
ATOM     20  C   UNL A   1      30.728  24.414  23.250  1.00  0.00     0.012 C 
ATOM     21  C   UNL A   1      31.559  26.339  21.972  1.00  0.00     0.012 C 
ENDBRANCH  11  14
ENDBRANCH   7  11
ENDBRANCH   4   7
ENDBRANCH   2   3
ENDBRANCH   1   2
BRANCH   1  22
ATOM     22  C   UNL A   1      37.874  20.100  24.969  1.00  0.00     0.023 C 
BRANCH  22  23
ATOM     23  C   UNL A   1      39.084  20.434  25.839  1.00  0.00     0.116 C 
BRANCH  23  24
ATOM     24  N   UNL A   1      40.119  19.408  25.811  1.00  0.00    -0.352 N 
ATOM     25  C   UNL A   1      41.458  19.532  26.105  1.00  0.00     0.251 C 
ATOM     26  H   UNL A   1      39.821  18.508  25.548  1.00  0.00     0.163 HD
ATOM     27  O   UNL A   1      42.230  18.600  25.931  1.00  0.00    -0.269 OA
BRANCH  25  28
ATOM     28  C   UNL A   1      41.958  20.829  26.605  1.00  0.00     0.039 A 
ATOM     29  C   UNL A   1      42.414  21.778  25.688  1.00  0.00     0.014 A 
ATOM     30  C   UNL A   1      41.913  21.122  27.970  1.00  0.00     0.014 A 
ATOM     31  C   UNL A   1      42.751  23.058  26.135  1.00  0.00     0.010 A 
ATOM     32  C   UNL A   1      42.179  22.417  28.402  1.00  0.00     0.010 A 
ATOM     33  C   UNL A   1      42.594  23.398  27.488  1.00  0.00    -0.014 A 
BRANCH  33  34
ATOM     34  C   UNL A   1      42.862  24.774  27.979  1.00  0.00     0.031 A 
ATOM     35  C   UNL A   1      44.257  25.165  28.382  1.00  0.00     0.074 A 
ATOM     36  C   UNL A   1      41.846  25.644  28.134  1.00  0.00     0.049 A 
ATOM     37  N   UNL A   1      44.679  26.273  28.936  1.00  0.00    -0.248 NA
ATOM     38  C   UNL A   1      45.312  24.163  28.160  1.00  0.00     0.031 C 
ATOM     39  C   UNL A   1      40.441  25.374  27.818  1.00  0.00     0.029 A 
ATOM     40  N   UNL A   1      41.835  26.930  28.612  1.00  0.00    -0.354 N 
ATOM     41  C   UNL A   1      46.041  26.095  29.142  1.00  0.00     0.074 A 
ATOM     42  C   UNL A   1      46.366  24.756  28.703  1.00  0.00     0.031 C 
ATOM     43  C   UNL A   1      39.710  26.467  28.093  1.00  0.00     0.029 A 
ATOM     44  C   UNL A   1      40.585  27.500  28.639  1.00  0.00     0.049 A 
ATOM     45  H   UNL A   1      42.648  27.401  28.907  1.00  0.00     0.167 HD
ATOM     46  C   UNL A   1      46.944  26.977  29.631  1.00  0.00     0.037 A 
ATOM     47  C   UNL A   1      40.189  28.714  29.067  1.00  0.00     0.037 A 
ATOM     48  C   UNL A   1      46.626  28.319  30.041  1.00  0.00     0.049 A 
ATOM     49  C   UNL A   1      41.213  29.672  29.612  1.00  0.00     0.074 A 
ATOM     50  C   UNL A   1      47.480  29.303  30.509  1.00  0.00     0.029 A 
ATOM     51  N   UNL A   1      45.353  28.867  30.025  1.00  0.00    -0.354 N 
ATOM     52  N   UNL A   1      42.506  29.509  29.754  1.00  0.00    -0.248 NA
ATOM     53  C   UNL A   1      40.721  30.985  30.053  1.00  0.00     0.031 C 
ATOM     54  C   UNL A   1      46.718  30.437  30.806  1.00  0.00     0.029 A 
ATOM     55  C   UNL A   1      45.397  30.172  30.484  1.00  0.00     0.049 A 
ATOM     56  H   UNL A   1      44.539  28.397  29.732  1.00  0.00     0.167 HD
ATOM     57  C   UNL A   1      42.986  30.707  30.264  1.00  0.00     0.074 A 
ATOM     58  C   UNL A   1      41.848  31.592  30.401  1.00  0.00     0.031 C 
ATOM     59  C   UNL A   1      44.257  31.046  30.592  1.00  0.00     0.037 A 
BRANCH  46  60
ATOM     60  C   UNL A   1      48.368  26.518  29.736  1.00  0.00     0.057 A 
ATOM     61  C   UNL A   1      49.295  26.758  28.713  1.00  0.00     0.134 A 
ATOM     62  C   UNL A   1      48.827  25.860  30.884  1.00  0.00     0.134 A 
ATOM     63  F   UNL A   1      48.915  27.371  27.582  1.00  0.00    -0.206 F 
ATOM     64  C   UNL A   1      50.622  26.340  28.818  1.00  0.00     0.040 A 
ATOM     65  C   UNL A   1      50.158  25.460  31.012  1.00  0.00     0.040 A 
ATOM     66  F   UNL A   1      47.993  25.603  31.903  1.00  0.00    -0.206 F 
ATOM     67  C   UNL A   1      51.059  25.695  29.974  1.00  0.00     0.006 A 
ENDBRANCH  46  60
BRANCH  47  68
ATOM     68  C   UNL A   1      38.761  29.110  28.979  1.00  0.00     0.057 A 
ATOM     69  C   UNL A   1      37.920  29.018  30.095  1.00  0.00     0.134 A 
ATOM     70  C   UNL A   1      38.195  29.560  27.781  1.00  0.00     0.134 A 
ATOM     71  F   UNL A   1      38.399  28.572  31.266  1.00  0.00    -0.206 F 
ATOM     72  C   UNL A   1      36.563  29.335  30.017  1.00  0.00     0.040 A 
ATOM     73  C   UNL A   1      36.845  29.905  27.695  1.00  0.00     0.040 A 
ATOM     74  F   UNL A   1      38.948  29.676  26.678  1.00  0.00    -0.206 F 
ATOM     75  C   UNL A   1      36.022  29.784  28.814  1.00  0.00     0.006 A 
ENDBRANCH  47  68
BRANCH  59  76
ATOM     76  C   UNL A   1      44.494  32.445  31.076  1.00  0.00     0.057 A 
ATOM     77  C   UNL A   1      44.478  32.770  32.437  1.00  0.00     0.134 A 
ATOM     78  C   UNL A   1      44.786  33.470  30.167  1.00  0.00     0.134 A 
ATOM     79  F   UNL A   1      44.192  31.836  33.357  1.00  0.00    -0.206 F 
ATOM     80  C   UNL A   1      44.727  34.071  32.877  1.00  0.00     0.040 A 
ATOM     81  C   UNL A   1      45.061  34.768  30.596  1.00  0.00     0.040 A 
ATOM     82  F   UNL A   1      44.825  33.222  28.849  1.00  0.00    -0.206 F 
ATOM     83  C   UNL A   1      45.026  35.072  31.956  1.00  0.00     0.006 A 
ENDBRANCH  59  76
ENDBRANCH  33  34
ENDBRANCH  25  28
ENDBRANCH  23  24
ENDBRANCH  22  23
ENDBRANCH   1  22
TORSDOF 14
ENDMDL
MODEL 3
REMARK VINA RESULT:     -10.5      4.461      8.953
REMARK SMILES CC(C)[C@@H]([NH2+][C@@H]1CSCC(C)(C)C1)C(=O)NCCCCNC(=O)c1ccc(-c2c3nc(c(-c4c(F)cccc4F)c4ccc([nH]4)c(-c4c(F)cccc4F)c4nc(c(-c5c(F)cccc5F)c5ccc2[nH]5)C=C4)C=C3)cc1
REMARK SMILES IDX 18 1 17 2 16 3 14 4 15 5 4 7 2 8 1 9 3 10 5 11 6 14 7 15
REMARK SMILES IDX 13 16 8 17 10 18 9 19 11 20 12 21 19 22 20 23 21 24 22 25
REMARK SMILES IDX 23 27 24 28 25 29 77 30 26 31 76 32 27 33 28 34 29 35 70 36
REMARK SMILES IDX 30 37 75 38 69 39 71 40 31 41 74 42 68 43 67 44 32 46 58 47
REMARK SMILES IDX 41 48 57 49 42 50 45 51 56 52 72 53 43 54 44 55 55 57 73 58
REMARK SMILES IDX 46 59 33 60 34 61 39 62 35 63 36 64 38 65 40 66 37 67 59 68
REMARK SMILES IDX 60 69 65 70 61 71 62 72 64 73 66 74 63 75 47 76 48 77 53 78
REMARK SMILES IDX 49 79 50 80 52 81 54 82 51 83
REMARK H PARENT 16 6 5 12 5 13 21 26 71 45 45 56
REMARK Flexibility Score: inf
ROOT
ATOM      1  C   UNL A   1      31.808  30.439  26.669  1.00  0.00     0.023 C 
ENDROOT
BRANCH   1   2
ATOM      2  C   UNL A   1      31.658  29.964  25.232  1.00  0.00     0.116 C 
BRANCH   2   3
ATOM      3  N   UNL A   1      32.930  29.703  24.593  1.00  0.00    -0.351 N 
ATOM      4  C   UNL A   1      33.311  28.600  23.879  1.00  0.00     0.278 C 
ATOM      5  O   UNL A   1      34.400  28.632  23.294  1.00  0.00    -0.268 OA
ATOM      6  H   UNL A   1      33.608  30.411  24.683  1.00  0.00     0.163 HD
BRANCH   4   7
ATOM      7  C   UNL A   1      32.456  27.307  23.874  1.00  0.00     0.275 C 
BRANCH   7   8
ATOM      8  C   UNL A   1      31.503  27.335  22.630  1.00  0.00     0.051 C 
ATOM      9  C   UNL A   1      31.725  26.151  21.684  1.00  0.00     0.014 C 
ATOM     10  C   UNL A   1      30.020  27.362  23.042  1.00  0.00     0.014 C 
ENDBRANCH   7   8
BRANCH   7  11
ATOM     11  N   UNL A   1      33.315  26.088  23.932  1.00  0.00    -0.333 N 
ATOM     12  H   UNL A   1      34.139  26.265  23.357  1.00  0.00     0.347 HD
ATOM     13  H   UNL A   1      32.720  25.328  23.606  1.00  0.00     0.347 HD
BRANCH  11  14
ATOM     14  C   UNL A   1      33.786  25.663  25.271  1.00  0.00     0.193 C 
ATOM     15  C   UNL A   1      34.938  24.648  25.366  1.00  0.00     0.134 C 
ATOM     16  C   UNL A   1      32.597  25.131  26.124  1.00  0.00     0.073 C 
ATOM     17  S   UNL A   1      34.549  23.041  24.614  1.00  0.00    -0.155 SA
ATOM     18  C   UNL A   1      31.969  23.769  25.713  1.00  0.00    -0.021 C 
ATOM     19  C   UNL A   1      33.011  22.648  25.479  1.00  0.00     0.076 C 
ATOM     20  C   UNL A   1      31.029  23.942  24.505  1.00  0.00     0.012 C 
ATOM     21  C   UNL A   1      31.062  23.272  26.866  1.00  0.00     0.012 C 
ENDBRANCH  11  14
ENDBRANCH   7  11
ENDBRANCH   4   7
ENDBRANCH   2   3
ENDBRANCH   1   2
BRANCH   1  22
ATOM     22  C   UNL A   1      31.554  31.933  26.852  1.00  0.00     0.023 C 
BRANCH  22  23
ATOM     23  C   UNL A   1      32.780  32.755  27.246  1.00  0.00     0.116 C 
BRANCH  23  24
ATOM     24  N   UNL A   1      32.462  34.124  27.626  1.00  0.00    -0.352 N 
ATOM     25  C   UNL A   1      33.052  34.907  28.592  1.00  0.00     0.251 C 
ATOM     26  H   UNL A   1      31.727  34.547  27.124  1.00  0.00     0.163 HD
ATOM     27  O   UNL A   1      32.603  36.008  28.873  1.00  0.00    -0.269 OA
BRANCH  25  28
ATOM     28  C   UNL A   1      34.226  34.375  29.315  1.00  0.00     0.039 A 
ATOM     29  C   UNL A   1      34.025  33.642  30.487  1.00  0.00     0.014 A 
ATOM     30  C   UNL A   1      35.512  34.551  28.797  1.00  0.00     0.014 A 
ATOM     31  C   UNL A   1      35.113  33.013  31.097  1.00  0.00     0.010 A 
ATOM     32  C   UNL A   1      36.579  33.865  29.364  1.00  0.00     0.010 A 
ATOM     33  C   UNL A   1      36.389  33.085  30.516  1.00  0.00    -0.014 A 
BRANCH  33  34
ATOM     34  C   UNL A   1      37.547  32.357  31.094  1.00  0.00     0.031 A 
ATOM     35  C   UNL A   1      38.192  32.860  32.356  1.00  0.00     0.074 A 
ATOM     36  C   UNL A   1      38.064  31.294  30.449  1.00  0.00     0.049 A 
ATOM     37  N   UNL A   1      39.273  32.437  32.958  1.00  0.00    -0.248 NA
ATOM     38  C   UNL A   1      37.550  34.013  33.008  1.00  0.00     0.031 C 
ATOM     39  C   UNL A   1      37.556  30.731  29.196  1.00  0.00     0.029 A 
ATOM     40  N   UNL A   1      39.145  30.504  30.751  1.00  0.00    -0.354 N 
ATOM     41  C   UNL A   1      39.450  33.279  34.048  1.00  0.00     0.074 A 
ATOM     42  C   UNL A   1      38.397  34.269  33.996  1.00  0.00     0.031 C 
ATOM     43  C   UNL A   1      38.313  29.676  28.848  1.00  0.00     0.029 A 
ATOM     44  C   UNL A   1      39.380  29.512  29.830  1.00  0.00     0.049 A 
ATOM     45  H   UNL A   1      39.700  30.636  31.554  1.00  0.00     0.167 HD
ATOM     46  C   UNL A   1      40.392  33.219  35.019  1.00  0.00     0.037 A 
ATOM     47  C   UNL A   1      40.353  28.582  29.778  1.00  0.00     0.037 A 
ATOM     48  C   UNL A   1      41.423  32.218  35.087  1.00  0.00     0.049 A 
ATOM     49  C   UNL A   1      41.391  28.543  30.867  1.00  0.00     0.074 A 
ATOM     50  C   UNL A   1      42.396  32.047  36.056  1.00  0.00     0.029 A 
ATOM     51  N   UNL A   1      41.608  31.213  34.150  1.00  0.00    -0.354 N 
ATOM     52  N   UNL A   1      41.516  29.314  31.920  1.00  0.00    -0.248 NA
ATOM     53  C   UNL A   1      42.422  27.499  30.761  1.00  0.00     0.031 C 
ATOM     54  C   UNL A   1      43.191  30.957  35.688  1.00  0.00     0.029 A 
ATOM     55  C   UNL A   1      42.687  30.425  34.513  1.00  0.00     0.049 A 
ATOM     56  H   UNL A   1      41.056  31.081  33.346  1.00  0.00     0.167 HD
ATOM     57  C   UNL A   1      42.613  28.828  32.618  1.00  0.00     0.074 A 
ATOM     58  C   UNL A   1      43.115  27.691  31.876  1.00  0.00     0.031 C 
ATOM     59  C   UNL A   1      43.158  29.282  33.773  1.00  0.00     0.037 A 
BRANCH  46  60
ATOM     60  C   UNL A   1      40.339  34.262  36.096  1.00  0.00     0.057 A 
ATOM     61  C   UNL A   1      41.018  35.482  35.970  1.00  0.00     0.134 A 
ATOM     62  C   UNL A   1      39.576  34.062  37.253  1.00  0.00     0.134 A 
ATOM     63  F   UNL A   1      41.777  35.729  34.893  1.00  0.00    -0.206 F 
ATOM     64  C   UNL A   1      40.958  36.456  36.968  1.00  0.00     0.040 A 
ATOM     65  C   UNL A   1      39.488  35.040  38.245  1.00  0.00     0.040 A 
ATOM     66  F   UNL A   1      38.897  32.920  37.433  1.00  0.00    -0.206 F 
ATOM     67  C   UNL A   1      40.185  36.239  38.107  1.00  0.00     0.006 A 
ENDBRANCH  46  60
BRANCH  47  68
ATOM     68  C   UNL A   1      40.388  27.594  28.671  1.00  0.00     0.057 A 
ATOM     69  C   UNL A   1      41.140  27.836  27.515  1.00  0.00     0.134 A 
ATOM     70  C   UNL A   1      39.654  26.405  28.726  1.00  0.00     0.134 A 
ATOM     71  F   UNL A   1      41.847  28.970  27.395  1.00  0.00    -0.206 F 
ATOM     72  C   UNL A   1      41.140  26.943  26.443  1.00  0.00     0.040 A 
ATOM     73  C   UNL A   1      39.665  25.490  27.671  1.00  0.00     0.040 A 
ATOM     74  F   UNL A   1      38.918  26.111  29.807  1.00  0.00    -0.206 F 
ATOM     75  C   UNL A   1      40.404  25.763  26.520  1.00  0.00     0.006 A 
ENDBRANCH  47  68
BRANCH  59  76
ATOM     76  C   UNL A   1      44.320  28.520  34.333  1.00  0.00     0.057 A 
ATOM     77  C   UNL A   1      45.644  28.868  34.043  1.00  0.00     0.134 A 
ATOM     78  C   UNL A   1      44.110  27.449  35.212  1.00  0.00     0.134 A 
ATOM     79  F   UNL A   1      45.913  29.876  33.198  1.00  0.00    -0.206 F 
ATOM     80  C   UNL A   1      46.719  28.167  34.593  1.00  0.00     0.040 A 
ATOM     81  C   UNL A   1      45.175  26.756  35.787  1.00  0.00     0.040 A 
ATOM     82  F   UNL A   1      42.864  27.070  35.537  1.00  0.00    -0.206 F 
ATOM     83  C   UNL A   1      46.485  27.113  35.472  1.00  0.00     0.006 A 
ENDBRANCH  59  76
ENDBRANCH  33  34
ENDBRANCH  25  28
ENDBRANCH  23  24
ENDBRANCH  22  23
ENDBRANCH   1  22
TORSDOF 14
ENDMDL
