MODEL 1
REMARK VINA RESULT:     -11.2      0.000      0.000
REMARK SMILES CCSc1nc(CC(=O)N[C@@H](C(=O)NCCCCNC(=O)c2ccc(-c3c4nc(c(-c5c(F)cccc5F)c5ccc([nH]5)c(-c5c(F)cccc5F)c5nc(c(-c6c(F)cccc6F)c6ccc3[nH]6)C=C5)C=C4)cc2)C2=C(C)N=N[C@@H]2C)cs1
REMARK SMILES IDX 15 1 14 2 12 3 13 4 11 6 10 7 8 8 9 9 7 11 6 12 4 13 5 14
REMARK SMILES IDX 84 15 83 16 3 17 2 18 1 19 76 20 77 21 81 22 78 23 79 24
REMARK SMILES IDX 80 25 82 26 16 27 17 28 18 29 19 30 20 31 21 33 22 34 23 35
REMARK SMILES IDX 75 36 24 37 74 38 25 39 26 40 27 41 68 42 28 43 73 44 67 45
REMARK SMILES IDX 69 46 29 47 72 48 66 49 65 50 30 52 56 53 39 54 55 55 40 56
REMARK SMILES IDX 43 57 54 58 70 59 41 60 42 61 53 63 71 64 44 65 31 66 32 67
REMARK SMILES IDX 37 68 33 69 34 70 36 71 38 72 35 73 57 74 58 75 63 76 59 77
REMARK SMILES IDX 60 78 62 79 64 80 61 81 45 82 46 83 51 84 47 85 48 86 50 87
REMARK SMILES IDX 52 88 49 89
REMARK H PARENT 14 5 10 10 19 32 69 51 43 62
REMARK Flexibility Score: inf
ROOT
ATOM      1  C   UNL A   1      32.935  28.054  26.822  1.00  0.00     0.116 C 
ENDROOT
BRANCH   1   2
ATOM      2  N   UNL A   1      33.194  28.114  25.405  1.00  0.00    -0.354 N 
ATOM      3  C   UNL A   1      32.833  27.193  24.454  1.00  0.00     0.247 C 
ATOM      4  O   UNL A   1      32.496  27.677  23.367  1.00  0.00    -0.272 OA
ATOM      5  H   UNL A   1      33.684  28.905  25.083  1.00  0.00     0.163 HD
BRANCH   3   6
ATOM      6  C   UNL A   1      32.795  25.629  24.720  1.00  0.00     0.202 C 
BRANCH   6   7
ATOM      7  N   UNL A   1      32.769  24.822  23.498  1.00  0.00    -0.340 N 
ATOM      8  C   UNL A   1      33.760  24.111  22.881  1.00  0.00     0.226 C 
ATOM      9  O   UNL A   1      33.533  23.692  21.742  1.00  0.00    -0.275 OA
ATOM     10  H   UNL A   1      31.894  24.786  23.046  1.00  0.00     0.164 HD
BRANCH   8  11
ATOM     11  C   UNL A   1      35.103  23.841  23.545  1.00  0.00     0.157 C 
BRANCH  11  12
ATOM     12  C   UNL A   1      35.240  22.456  24.083  1.00  0.00     0.062 A 
ATOM     13  C   UNL A   1      34.351  20.503  24.691  1.00  0.00     0.150 A 
ATOM     14  N   UNL A   1      34.087  21.698  24.211  1.00  0.00    -0.234 NA
ATOM     15  S   UNL A   1      36.004  20.232  25.052  1.00  0.00    -0.116 S 
ATOM     16  C   UNL A   1      36.390  21.806  24.486  1.00  0.00     0.092 A 
BRANCH  13  17
ATOM     17  S   UNL A   1      33.007  19.414  24.952  1.00  0.00    -0.096 SA
BRANCH  17  18
ATOM     18  C   UNL A   1      33.663  17.747  24.712  1.00  0.00     0.074 C 
ATOM     19  C   UNL A   1      33.664  17.329  23.253  1.00  0.00     0.016 C 
ENDBRANCH  17  18
ENDBRANCH  13  17
ENDBRANCH  11  12
ENDBRANCH   8  11
ENDBRANCH   6   7
BRANCH   6  20
ATOM     20  C   UNL A   1      31.584  25.224  25.530  1.00  0.00     0.011 C 
ATOM     21  C   UNL A   1      31.420  24.232  26.420  1.00  0.00     0.064 C 
ATOM     22  C   UNL A   1      30.276  25.962  25.565  1.00  0.00     0.156 C 
ATOM     23  C   UNL A   1      32.367  23.178  26.869  1.00  0.00     0.069 C 
ATOM     24  N   UNL A   1      30.175  24.230  26.998  1.00  0.00    -0.160 NA
ATOM     25  N   UNL A   1      29.485  25.186  26.561  1.00  0.00    -0.181 NA
ATOM     26  C   UNL A   1      29.492  25.962  24.259  1.00  0.00     0.040 C 
ENDBRANCH   6  20
ENDBRANCH   3   6
ENDBRANCH   1   2
BRANCH   1  27
ATOM     27  C   UNL A   1      31.961  29.100  27.339  1.00  0.00     0.023 C 
BRANCH  27  28
ATOM     28  C   UNL A   1      32.050  30.459  26.650  1.00  0.00     0.023 C 
BRANCH  28  29
ATOM     29  C   UNL A   1      33.066  31.441  27.232  1.00  0.00     0.116 C 
BRANCH  29  30
ATOM     30  N   UNL A   1      32.536  32.775  27.482  1.00  0.00    -0.352 N 
ATOM     31  C   UNL A   1      33.099  33.809  28.204  1.00  0.00     0.251 C 
ATOM     32  H   UNL A   1      31.657  32.965  27.083  1.00  0.00     0.163 HD
ATOM     33  O   UNL A   1      32.507  34.861  28.359  1.00  0.00    -0.269 OA
BRANCH  31  34
ATOM     34  C   UNL A   1      34.421  33.595  28.832  1.00  0.00     0.039 A 
ATOM     35  C   UNL A   1      34.472  33.036  30.111  1.00  0.00     0.014 A 
ATOM     36  C   UNL A   1      35.593  33.847  28.116  1.00  0.00     0.014 A 
ATOM     37  C   UNL A   1      35.700  32.615  30.626  1.00  0.00     0.010 A 
ATOM     38  C   UNL A   1      36.806  33.371  28.604  1.00  0.00     0.010 A 
ATOM     39  C   UNL A   1      36.864  32.719  29.845  1.00  0.00    -0.014 A 
BRANCH  39  40
ATOM     40  C   UNL A   1      38.134  32.073  30.262  1.00  0.00     0.031 A 
ATOM     41  C   UNL A   1      39.096  32.794  31.159  1.00  0.00     0.074 A 
ATOM     42  C   UNL A   1      38.467  30.877  29.737  1.00  0.00     0.049 A 
ATOM     43  N   UNL A   1      40.304  32.446  31.521  1.00  0.00    -0.248 NA
ATOM     44  C   UNL A   1      38.651  34.089  31.697  1.00  0.00     0.031 C 
ATOM     45  C   UNL A   1      37.640  30.097  28.814  1.00  0.00     0.029 A 
ATOM     46  N   UNL A   1      39.602  30.119  29.885  1.00  0.00    -0.354 N 
ATOM     47  C   UNL A   1      40.771  33.482  32.319  1.00  0.00     0.074 A 
ATOM     48  C   UNL A   1      39.731  34.490  32.354  1.00  0.00     0.031 C 
ATOM     49  C   UNL A   1      38.289  28.967  28.489  1.00  0.00     0.029 A 
ATOM     50  C   UNL A   1      39.593  28.962  29.144  1.00  0.00     0.049 A 
ATOM     51  H   UNL A   1      40.352  30.380  30.468  1.00  0.00     0.167 HD
ATOM     52  C   UNL A   1      41.951  33.576  32.974  1.00  0.00     0.037 A 
ATOM     53  C   UNL A   1      40.535  28.013  28.993  1.00  0.00     0.037 A 
ATOM     54  C   UNL A   1      42.972  32.562  32.960  1.00  0.00     0.049 A 
ATOM     55  C   UNL A   1      41.847  28.155  29.708  1.00  0.00     0.074 A 
ATOM     56  C   UNL A   1      44.163  32.527  33.665  1.00  0.00     0.029 A 
ATOM     57  N   UNL A   1      42.928  31.408  32.192  1.00  0.00    -0.354 N 
ATOM     58  N   UNL A   1      42.247  29.107  30.514  1.00  0.00    -0.248 NA
ATOM     59  C   UNL A   1      42.844  27.097  29.483  1.00  0.00     0.031 C 
ATOM     60  C   UNL A   1      44.857  31.371  33.293  1.00  0.00     0.029 A 
ATOM     61  C   UNL A   1      44.085  30.670  32.382  1.00  0.00     0.049 A 
ATOM     62  H   UNL A   1      42.184  31.151  31.601  1.00  0.00     0.167 HD
ATOM     63  C   UNL A   1      43.533  28.760  30.902  1.00  0.00     0.074 A 
ATOM     64  C   UNL A   1      43.843  27.502  30.255  1.00  0.00     0.031 C 
ATOM     65  C   UNL A   1      44.383  29.427  31.721  1.00  0.00     0.037 A 
BRANCH  52  66
ATOM     66  C   UNL A   1      42.198  34.820  33.772  1.00  0.00     0.057 A 
ATOM     67  C   UNL A   1      41.812  34.922  35.114  1.00  0.00     0.134 A 
ATOM     68  C   UNL A   1      42.859  35.915  33.203  1.00  0.00     0.134 A 
ATOM     69  F   UNL A   1      41.164  33.912  35.714  1.00  0.00    -0.206 F 
ATOM     70  C   UNL A   1      42.054  36.079  35.857  1.00  0.00     0.040 A 
ATOM     71  C   UNL A   1      43.126  37.069  33.941  1.00  0.00     0.040 A 
ATOM     72  F   UNL A   1      43.258  35.880  31.923  1.00  0.00    -0.206 F 
ATOM     73  C   UNL A   1      42.718  37.155  35.271  1.00  0.00     0.006 A 
ENDBRANCH  52  66
BRANCH  53  74
ATOM     74  C   UNL A   1      40.270  26.840  28.123  1.00  0.00     0.057 A 
ATOM     75  C   UNL A   1      39.459  25.789  28.565  1.00  0.00     0.134 A 
ATOM     76  C   UNL A   1      40.816  26.742  26.839  1.00  0.00     0.134 A 
ATOM     77  F   UNL A   1      38.925  25.819  29.795  1.00  0.00    -0.206 F 
ATOM     78  C   UNL A   1      39.207  24.675  27.764  1.00  0.00     0.040 A 
ATOM     79  C   UNL A   1      40.556  25.642  26.019  1.00  0.00     0.040 A 
ATOM     80  F   UNL A   1      41.598  27.718  26.358  1.00  0.00    -0.206 F 
ATOM     81  C   UNL A   1      39.753  24.602  26.483  1.00  0.00     0.006 A 
ENDBRANCH  53  74
BRANCH  65  82
ATOM     82  C   UNL A   1      45.726  28.808  31.961  1.00  0.00     0.057 A 
ATOM     83  C   UNL A   1      46.835  29.142  31.175  1.00  0.00     0.134 A 
ATOM     84  C   UNL A   1      45.923  27.906  33.014  1.00  0.00     0.134 A 
ATOM     85  F   UNL A   1      46.706  29.987  30.141  1.00  0.00    -0.206 F 
ATOM     86  C   UNL A   1      48.093  28.590  31.421  1.00  0.00     0.040 A 
ATOM     87  C   UNL A   1      47.181  27.363  33.281  1.00  0.00     0.040 A 
ATOM     88  F   UNL A   1      44.901  27.550  33.806  1.00  0.00    -0.206 F 
ATOM     89  C   UNL A   1      48.269  27.703  32.481  1.00  0.00     0.006 A 
ENDBRANCH  65  82
ENDBRANCH  39  40
ENDBRANCH  31  34
ENDBRANCH  29  30
ENDBRANCH  28  29
ENDBRANCH  27  28
ENDBRANCH   1  27
TORSDOF 17
ENDMDL
MODEL 2
REMARK VINA RESULT:     -11.1      3.300      8.504
REMARK SMILES CCSc1nc(CC(=O)N[C@@H](C(=O)NCCCCNC(=O)c2ccc(-c3c4nc(c(-c5c(F)cccc5F)c5ccc([nH]5)c(-c5c(F)cccc5F)c5nc(c(-c6c(F)cccc6F)c6ccc3[nH]6)C=C5)C=C4)cc2)C2=C(C)N=N[C@@H]2C)cs1
REMARK SMILES IDX 15 1 14 2 12 3 13 4 11 6 10 7 8 8 9 9 7 11 6 12 4 13 5 14
REMARK SMILES IDX 84 15 83 16 3 17 2 18 1 19 76 20 77 21 81 22 78 23 79 24
REMARK SMILES IDX 80 25 82 26 16 27 17 28 18 29 19 30 20 31 21 33 22 34 23 35
REMARK SMILES IDX 75 36 24 37 74 38 25 39 26 40 27 41 68 42 28 43 73 44 67 45
REMARK SMILES IDX 69 46 29 47 72 48 66 49 65 50 30 52 56 53 39 54 55 55 40 56
REMARK SMILES IDX 43 57 54 58 70 59 41 60 42 61 53 63 71 64 44 65 31 66 32 67
REMARK SMILES IDX 37 68 33 69 34 70 36 71 38 72 35 73 57 74 58 75 63 76 59 77
REMARK SMILES IDX 60 78 62 79 64 80 61 81 45 82 46 83 51 84 47 85 48 86 50 87
REMARK SMILES IDX 52 88 49 89
REMARK H PARENT 14 5 10 10 19 32 69 51 43 62
REMARK Flexibility Score: inf
ROOT
ATOM      1  C   UNL A   1      36.051  23.241  25.021  1.00  0.00     0.116 C 
ENDROOT
BRANCH   1   2
ATOM      2  N   UNL A   1      35.599  22.816  26.322  1.00  0.00    -0.354 N 
ATOM      3  C   UNL A   1      34.388  22.256  26.640  1.00  0.00     0.247 C 
ATOM      4  O   UNL A   1      34.435  21.376  27.508  1.00  0.00    -0.272 OA
ATOM      5  H   UNL A   1      36.231  22.940  27.067  1.00  0.00     0.163 HD
BRANCH   3   6
ATOM      6  C   UNL A   1      33.026  22.653  25.928  1.00  0.00     0.202 C 
BRANCH   6   7
ATOM      7  N   UNL A   1      31.849  22.535  26.792  1.00  0.00    -0.340 N 
ATOM      8  C   UNL A   1      30.619  23.125  26.705  1.00  0.00     0.226 C 
ATOM      9  O   UNL A   1      29.872  23.028  27.683  1.00  0.00    -0.275 OA
ATOM     10  H   UNL A   1      31.963  21.933  27.564  1.00  0.00     0.164 HD
BRANCH   8  11
ATOM     11  C   UNL A   1      30.167  23.885  25.466  1.00  0.00     0.157 C 
BRANCH  11  12
ATOM     12  C   UNL A   1      30.761  25.249  25.348  1.00  0.00     0.062 A 
ATOM     13  C   UNL A   1      31.412  27.178  26.258  1.00  0.00     0.150 A 
ATOM     14  N   UNL A   1      30.872  26.005  26.504  1.00  0.00    -0.234 NA
ATOM     15  S   UNL A   1      31.787  27.456  24.609  1.00  0.00    -0.116 S 
ATOM     16  C   UNL A   1      31.227  25.883  24.212  1.00  0.00     0.092 A 
BRANCH  13  17
ATOM     17  S   UNL A   1      31.601  28.286  27.599  1.00  0.00    -0.096 SA
BRANCH  17  18
ATOM     18  C   UNL A   1      32.890  29.452  27.103  1.00  0.00     0.074 C 
ATOM     19  C   UNL A   1      32.341  30.841  26.830  1.00  0.00     0.016 C 
ENDBRANCH  17  18
ENDBRANCH  13  17
ENDBRANCH  11  12
ENDBRANCH   8  11
ENDBRANCH   6   7
BRANCH   6  20
ATOM     20  C   UNL A   1      32.754  21.796  24.711  1.00  0.00     0.011 C 
ATOM     21  C   UNL A   1      32.670  20.463  24.582  1.00  0.00     0.064 C 
ATOM     22  C   UNL A   1      32.412  22.316  23.343  1.00  0.00     0.156 C 
ATOM     23  C   UNL A   1      32.859  19.387  25.590  1.00  0.00     0.069 C 
ATOM     24  N   UNL A   1      32.340  20.067  23.310  1.00  0.00    -0.160 NA
ATOM     25  N   UNL A   1      32.176  21.066  22.566  1.00  0.00    -0.181 NA
ATOM     26  C   UNL A   1      33.521  23.088  22.642  1.00  0.00     0.040 C 
ENDBRANCH   6  20
ENDBRANCH   3   6
ENDBRANCH   1   2
BRANCH   1  27
ATOM     27  C   UNL A   1      36.839  22.198  24.245  1.00  0.00     0.023 C 
BRANCH  27  28
ATOM     28  C   UNL A   1      37.352  21.027  25.080  1.00  0.00     0.023 C 
BRANCH  28  29
ATOM     29  C   UNL A   1      38.744  21.194  25.688  1.00  0.00     0.116 C 
BRANCH  29  30
ATOM     30  N   UNL A   1      39.569  19.995  25.639  1.00  0.00    -0.352 N 
ATOM     31  C   UNL A   1      40.884  19.832  26.027  1.00  0.00     0.251 C 
ATOM     32  H   UNL A   1      39.129  19.191  25.279  1.00  0.00     0.163 HD
ATOM     33  O   UNL A   1      41.453  18.766  25.882  1.00  0.00    -0.269 OA
BRANCH  31  34
ATOM     34  C   UNL A   1      41.608  20.998  26.577  1.00  0.00     0.039 A 
ATOM     35  C   UNL A   1      42.255  21.864  25.692  1.00  0.00     0.014 A 
ATOM     36  C   UNL A   1      41.554  21.284  27.943  1.00  0.00     0.014 A 
ATOM     37  C   UNL A   1      42.744  23.085  26.162  1.00  0.00     0.010 A 
ATOM     38  C   UNL A   1      41.986  22.526  28.397  1.00  0.00     0.010 A 
ATOM     39  C   UNL A   1      42.551  23.451  27.505  1.00  0.00    -0.014 A 
BRANCH  39  40
ATOM     40  C   UNL A   1      42.846  24.825  27.981  1.00  0.00     0.031 A 
ATOM     41  C   UNL A   1      44.232  25.200  28.415  1.00  0.00     0.074 A 
ATOM     42  C   UNL A   1      41.833  25.702  28.126  1.00  0.00     0.049 A 
ATOM     43  N   UNL A   1      44.649  26.305  28.978  1.00  0.00    -0.248 NA
ATOM     44  C   UNL A   1      45.281  24.190  28.213  1.00  0.00     0.031 C 
ATOM     45  C   UNL A   1      40.432  25.442  27.787  1.00  0.00     0.029 A 
ATOM     46  N   UNL A   1      41.820  26.983  28.621  1.00  0.00    -0.354 N 
ATOM     47  C   UNL A   1      46.004  26.120  29.211  1.00  0.00     0.074 A 
ATOM     48  C   UNL A   1      46.331  24.781  28.765  1.00  0.00     0.031 C 
ATOM     49  C   UNL A   1      39.700  26.532  28.071  1.00  0.00     0.029 A 
ATOM     50  C   UNL A   1      40.570  27.550  28.652  1.00  0.00     0.049 A 
ATOM     51  H   UNL A   1      42.632  27.451  28.924  1.00  0.00     0.167 HD
ATOM     52  C   UNL A   1      46.897  26.993  29.733  1.00  0.00     0.037 A 
ATOM     53  C   UNL A   1      40.164  28.748  29.113  1.00  0.00     0.037 A 
ATOM     54  C   UNL A   1      46.576  28.332  30.151  1.00  0.00     0.049 A 
ATOM     55  C   UNL A   1      41.169  29.686  29.715  1.00  0.00     0.074 A 
ATOM     56  C   UNL A   1      47.430  29.321  30.609  1.00  0.00     0.029 A 
ATOM     57  N   UNL A   1      45.297  28.867  30.173  1.00  0.00    -0.354 N 
ATOM     58  N   UNL A   1      42.460  29.524  29.865  1.00  0.00    -0.248 NA
ATOM     59  C   UNL A   1      40.659  30.969  30.223  1.00  0.00     0.031 C 
ATOM     60  C   UNL A   1      46.662  30.441  30.945  1.00  0.00     0.029 A 
ATOM     61  C   UNL A   1      45.335  30.161  30.666  1.00  0.00     0.049 A 
ATOM     62  H   UNL A   1      44.483  28.397  29.880  1.00  0.00     0.167 HD
ATOM     63  C   UNL A   1      42.920  30.685  30.471  1.00  0.00     0.074 A 
ATOM     64  C   UNL A   1      41.772  31.550  30.649  1.00  0.00     0.031 C 
ATOM     65  C   UNL A   1      44.182  31.003  30.849  1.00  0.00     0.037 A 
BRANCH  52  66
ATOM     66  C   UNL A   1      48.314  26.527  29.874  1.00  0.00     0.057 A 
ATOM     67  C   UNL A   1      49.273  26.775  28.884  1.00  0.00     0.134 A 
ATOM     68  C   UNL A   1      48.733  25.851  31.026  1.00  0.00     0.134 A 
ATOM     69  F   UNL A   1      48.931  27.408  27.751  1.00  0.00    -0.206 F 
ATOM     70  C   UNL A   1      50.595  26.348  29.025  1.00  0.00     0.040 A 
ATOM     71  C   UNL A   1      50.057  25.438  31.189  1.00  0.00     0.040 A 
ATOM     72  F   UNL A   1      47.865  25.584  32.014  1.00  0.00    -0.206 F 
ATOM     73  C   UNL A   1      50.990  25.682  30.183  1.00  0.00     0.006 A 
ENDBRANCH  52  66
BRANCH  53  74
ATOM     74  C   UNL A   1      38.732  29.128  29.025  1.00  0.00     0.057 A 
ATOM     75  C   UNL A   1      37.893  29.023  30.139  1.00  0.00     0.134 A 
ATOM     76  C   UNL A   1      38.172  29.604  27.834  1.00  0.00     0.134 A 
ATOM     77  F   UNL A   1      38.369  28.554  31.301  1.00  0.00    -0.206 F 
ATOM     78  C   UNL A   1      36.543  29.369  30.071  1.00  0.00     0.040 A 
ATOM     79  C   UNL A   1      36.828  29.972  27.757  1.00  0.00     0.040 A 
ATOM     80  F   UNL A   1      38.926  29.731  26.734  1.00  0.00    -0.206 F 
ATOM     81  C   UNL A   1      36.007  29.850  28.878  1.00  0.00     0.006 A 
ENDBRANCH  53  74
BRANCH  65  82
ATOM     82  C   UNL A   1      44.385  32.342  31.491  1.00  0.00     0.057 A 
ATOM     83  C   UNL A   1      44.612  33.492  30.725  1.00  0.00     0.134 A 
ATOM     84  C   UNL A   1      44.308  32.490  32.881  1.00  0.00     0.134 A 
ATOM     85  F   UNL A   1      44.711  33.412  29.390  1.00  0.00    -0.206 F 
ATOM     86  C   UNL A   1      44.768  34.744  31.322  1.00  0.00     0.040 A 
ATOM     87  C   UNL A   1      44.443  33.740  33.488  1.00  0.00     0.040 A 
ATOM     88  F   UNL A   1      44.088  31.427  33.668  1.00  0.00    -0.206 F 
ATOM     89  C   UNL A   1      44.676  34.870  32.708  1.00  0.00     0.006 A 
ENDBRANCH  65  82
ENDBRANCH  39  40
ENDBRANCH  31  34
ENDBRANCH  29  30
ENDBRANCH  28  29
ENDBRANCH  27  28
ENDBRANCH   1  27
TORSDOF 17
ENDMDL
MODEL 3
REMARK VINA RESULT:     -10.9      2.757      4.245
REMARK SMILES CCSc1nc(CC(=O)N[C@@H](C(=O)NCCCCNC(=O)c2ccc(-c3c4nc(c(-c5c(F)cccc5F)c5ccc([nH]5)c(-c5c(F)cccc5F)c5nc(c(-c6c(F)cccc6F)c6ccc3[nH]6)C=C5)C=C4)cc2)C2=C(C)N=N[C@@H]2C)cs1
REMARK SMILES IDX 15 1 14 2 12 3 13 4 11 6 10 7 8 8 9 9 7 11 6 12 4 13 5 14
REMARK SMILES IDX 84 15 83 16 3 17 2 18 1 19 76 20 77 21 81 22 78 23 79 24
REMARK SMILES IDX 80 25 82 26 16 27 17 28 18 29 19 30 20 31 21 33 22 34 23 35
REMARK SMILES IDX 75 36 24 37 74 38 25 39 26 40 27 41 68 42 28 43 73 44 67 45
REMARK SMILES IDX 69 46 29 47 72 48 66 49 65 50 30 52 56 53 39 54 55 55 40 56
REMARK SMILES IDX 43 57 54 58 70 59 41 60 42 61 53 63 71 64 44 65 31 66 32 67
REMARK SMILES IDX 37 68 33 69 34 70 36 71 38 72 35 73 57 74 58 75 63 76 59 77
REMARK SMILES IDX 60 78 62 79 64 80 61 81 45 82 46 83 51 84 47 85 48 86 50 87
REMARK SMILES IDX 52 88 49 89
REMARK H PARENT 14 5 10 10 19 32 69 51 43 62
REMARK Flexibility Score: inf
ROOT
ATOM      1  C   UNL A   1      31.458  26.722  26.510  1.00  0.00     0.116 C 
ENDROOT
BRANCH   1   2
ATOM      2  N   UNL A   1      32.599  25.932  26.120  1.00  0.00    -0.354 N 
ATOM      3  C   UNL A   1      33.049  25.693  24.847  1.00  0.00     0.247 C 
ATOM      4  O   UNL A   1      34.280  25.651  24.731  1.00  0.00    -0.272 OA
ATOM      5  H   UNL A   1      33.114  25.518  26.850  1.00  0.00     0.163 HD
BRANCH   3   6
ATOM      6  C   UNL A   1      32.087  25.529  23.595  1.00  0.00     0.202 C 
BRANCH   6   7
ATOM      7  N   UNL A   1      32.735  24.933  22.424  1.00  0.00    -0.340 N 
ATOM      8  C   UNL A   1      32.875  23.624  22.057  1.00  0.00     0.226 C 
ATOM      9  O   UNL A   1      33.654  23.373  21.133  1.00  0.00    -0.275 OA
ATOM     10  H   UNL A   1      33.137  25.580  21.801  1.00  0.00     0.164 HD
BRANCH   8  11
ATOM     11  C   UNL A   1      32.120  22.498  22.750  1.00  0.00     0.157 C 
BRANCH  11  12
ATOM     12  C   UNL A   1      32.849  21.910  23.912  1.00  0.00     0.062 A 
ATOM     13  C   UNL A   1      34.630  21.815  25.250  1.00  0.00     0.150 A 
ATOM     14  N   UNL A   1      34.105  22.417  24.207  1.00  0.00    -0.234 NA
ATOM     15  S   UNL A   1      33.656  20.574  25.920  1.00  0.00    -0.116 S 
ATOM     16  C   UNL A   1      32.435  20.900  24.758  1.00  0.00     0.092 A 
BRANCH  13  17
ATOM     17  S   UNL A   1      36.233  22.303  25.751  1.00  0.00    -0.096 SA
BRANCH  17  18
ATOM     18  C   UNL A   1      37.382  21.442  24.654  1.00  0.00     0.074 C 
ATOM     19  C   UNL A   1      37.474  19.957  24.960  1.00  0.00     0.016 C 
ENDBRANCH  17  18
ENDBRANCH  13  17
ENDBRANCH  11  12
ENDBRANCH   8  11
ENDBRANCH   6   7
BRANCH   6  20
ATOM     20  C   UNL A   1      31.518  26.856  23.143  1.00  0.00     0.011 C 
ATOM     21  C   UNL A   1      32.121  28.032  22.911  1.00  0.00     0.064 C 
ATOM     22  C   UNL A   1      30.088  27.098  22.751  1.00  0.00     0.156 C 
ATOM     23  C   UNL A   1      33.546  28.428  23.066  1.00  0.00     0.069 C 
ATOM     24  N   UNL A   1      31.260  28.994  22.446  1.00  0.00    -0.160 NA
ATOM     25  N   UNL A   1      30.100  28.527  22.328  1.00  0.00    -0.181 NA
ATOM     26  C   UNL A   1      29.071  26.963  23.876  1.00  0.00     0.040 C 
ENDBRANCH   6  20
ENDBRANCH   3   6
ENDBRANCH   1   2
BRANCH   1  27
ATOM     27  C   UNL A   1      31.775  27.897  27.421  1.00  0.00     0.023 C 
BRANCH  27  28
ATOM     28  C   UNL A   1      32.405  29.100  26.723  1.00  0.00     0.023 C 
BRANCH  28  29
ATOM     29  C   UNL A   1      33.834  29.445  27.140  1.00  0.00     0.116 C 
BRANCH  29  30
ATOM     30  N   UNL A   1      33.943  30.616  28.001  1.00  0.00    -0.352 N 
ATOM     31  C   UNL A   1      35.015  31.033  28.763  1.00  0.00     0.251 C 
ATOM     32  H   UNL A   1      33.142  31.186  28.046  1.00  0.00     0.163 HD
ATOM     33  O   UNL A   1      34.936  32.021  29.470  1.00  0.00    -0.269 OA
BRANCH  31  34
ATOM     34  C   UNL A   1      36.253  30.225  28.743  1.00  0.00     0.039 A 
ATOM     35  C   UNL A   1      37.065  30.269  27.607  1.00  0.00     0.014 A 
ATOM     36  C   UNL A   1      36.653  29.517  29.879  1.00  0.00     0.014 A 
ATOM     37  C   UNL A   1      38.341  29.703  27.655  1.00  0.00     0.010 A 
ATOM     38  C   UNL A   1      37.947  29.008  29.945  1.00  0.00     0.010 A 
ATOM     39  C   UNL A   1      38.813  29.129  28.847  1.00  0.00    -0.014 A 
BRANCH  39  40
ATOM     40  C   UNL A   1      40.235  28.730  29.003  1.00  0.00     0.031 A 
ATOM     41  C   UNL A   1      41.257  29.725  29.467  1.00  0.00     0.074 A 
ATOM     42  C   UNL A   1      40.618  27.497  28.618  1.00  0.00     0.049 A 
ATOM     43  N   UNL A   1      42.557  29.598  29.538  1.00  0.00    -0.248 NA
ATOM     44  C   UNL A   1      40.754  31.044  29.878  1.00  0.00     0.031 C 
ATOM     45  C   UNL A   1      39.727  26.455  28.103  1.00  0.00     0.029 A 
ATOM     46  N   UNL A   1      41.862  26.919  28.576  1.00  0.00    -0.354 N 
ATOM     47  C   UNL A   1      43.031  30.822  29.989  1.00  0.00     0.074 A 
ATOM     48  C   UNL A   1      41.882  31.691  30.136  1.00  0.00     0.031 C 
ATOM     49  C   UNL A   1      40.451  25.363  27.810  1.00  0.00     0.029 A 
ATOM     50  C   UNL A   1      41.859  25.640  28.074  1.00  0.00     0.049 A 
ATOM     51  H   UNL A   1      42.680  27.377  28.878  1.00  0.00     0.167 HD
ATOM     52  C   UNL A   1      44.305  31.181  30.271  1.00  0.00     0.037 A 
ATOM     53  C   UNL A   1      42.877  24.792  27.833  1.00  0.00     0.037 A 
ATOM     54  C   UNL A   1      45.442  30.308  30.149  1.00  0.00     0.049 A 
ATOM     55  C   UNL A   1      44.284  25.226  28.127  1.00  0.00     0.074 A 
ATOM     56  C   UNL A   1      46.760  30.554  30.497  1.00  0.00     0.029 A 
ATOM     57  N   UNL A   1      45.399  29.023  29.631  1.00  0.00    -0.354 N 
ATOM     58  N   UNL A   1      44.709  26.363  28.619  1.00  0.00    -0.248 NA
ATOM     59  C   UNL A   1      45.353  24.264  27.820  1.00  0.00     0.031 C 
ATOM     60  C   UNL A   1      47.520  29.432  30.151  1.00  0.00     0.029 A 
ATOM     61  C   UNL A   1      46.671  28.475  29.619  1.00  0.00     0.049 A 
ATOM     62  H   UNL A   1      44.584  28.567  29.319  1.00  0.00     0.167 HD
ATOM     63  C   UNL A   1      46.091  26.250  28.693  1.00  0.00     0.074 A 
ATOM     64  C   UNL A   1      46.431  24.929  28.209  1.00  0.00     0.031 C 
ATOM     65  C   UNL A   1      46.995  27.163  29.122  1.00  0.00     0.037 A 
BRANCH  52  66
ATOM     66  C   UNL A   1      44.535  32.584  30.747  1.00  0.00     0.057 A 
ATOM     67  C   UNL A   1      44.795  33.631  29.855  1.00  0.00     0.134 A 
ATOM     68  C   UNL A   1      44.464  32.896  32.110  1.00  0.00     0.134 A 
ATOM     69  F   UNL A   1      44.888  33.393  28.537  1.00  0.00    -0.206 F 
ATOM     70  C   UNL A   1      44.998  34.937  30.302  1.00  0.00     0.040 A 
ATOM     71  C   UNL A   1      44.643  34.203  32.568  1.00  0.00     0.040 A 
ATOM     72  F   UNL A   1      44.215  31.939  33.017  1.00  0.00    -0.206 F 
ATOM     73  C   UNL A   1      44.917  35.226  31.663  1.00  0.00     0.006 A 
ENDBRANCH  52  66
BRANCH  53  74
ATOM     74  C   UNL A   1      42.601  23.443  27.282  1.00  0.00     0.057 A 
ATOM     75  C   UNL A   1      42.285  22.374  28.127  1.00  0.00     0.134 A 
ATOM     76  C   UNL A   1      42.644  23.190  25.906  1.00  0.00     0.134 A 
ATOM     77  F   UNL A   1      42.249  22.552  29.456  1.00  0.00    -0.206 F 
ATOM     78  C   UNL A   1      42.031  21.097  27.626  1.00  0.00     0.040 A 
ATOM     79  C   UNL A   1      42.372  21.922  25.389  1.00  0.00     0.040 A 
ATOM     80  F   UNL A   1      42.936  24.175  25.045  1.00  0.00    -0.206 F 
ATOM     81  C   UNL A   1      42.069  20.869  26.251  1.00  0.00     0.006 A 
ENDBRANCH  53  74
BRANCH  65  82
ATOM     82  C   UNL A   1      48.439  26.763  29.087  1.00  0.00     0.057 A 
ATOM     83  C   UNL A   1      49.020  26.032  30.131  1.00  0.00     0.134 A 
ATOM     84  C   UNL A   1      49.242  27.070  27.982  1.00  0.00     0.134 A 
ATOM     85  F   UNL A   1      48.305  25.721  31.223  1.00  0.00    -0.206 F 
ATOM     86  C   UNL A   1      50.355  25.631  30.082  1.00  0.00     0.040 A 
ATOM     87  C   UNL A   1      50.574  26.657  27.914  1.00  0.00     0.040 A 
ATOM     88  F   UNL A   1      48.743  27.764  26.949  1.00  0.00    -0.206 F 
ATOM     89  C   UNL A   1      51.134  25.938  28.967  1.00  0.00     0.006 A 
ENDBRANCH  65  82
ENDBRANCH  39  40
ENDBRANCH  31  34
ENDBRANCH  29  30
ENDBRANCH  28  29
ENDBRANCH  27  28
ENDBRANCH   1  27
TORSDOF 17
ENDMDL
