MODEL 1
REMARK VINA RESULT:     -12.4      0.000      0.000
REMARK SMILES Cc1ccc2[nH]c3c(=O)n(CC(=O)NCCCCNC(=O)c4ccc(-c5c6nc(c(-c7c(F)cccc7F)c7ccc([nH]7)c(-c7c(F)cccc7F)c7nc(c(-c8c(F)cccc8F)c8ccc5[nH]8)C=C7)C=C6)cc4)cnc3c2c1
REMARK SMILES IDX 17 1 16 2 15 3 14 4 12 5 13 6 11 8 10 9 1 10 2 11 3 12 80 13
REMARK SMILES IDX 4 14 79 15 5 16 78 17 6 18 7 19 77 20 8 22 76 23 9 24 18 25
REMARK SMILES IDX 19 26 20 27 21 29 22 30 23 31 75 32 24 33 74 34 25 35 26 36
REMARK SMILES IDX 27 37 68 38 28 39 73 40 67 41 69 42 29 43 72 44 66 45 65 46
REMARK SMILES IDX 30 48 56 49 39 50 55 51 40 52 43 53 54 54 70 55 41 56 42 57
REMARK SMILES IDX 53 59 71 60 44 61 31 62 32 63 37 64 33 65 34 66 36 67 38 68
REMARK SMILES IDX 35 69 57 70 58 71 63 72 59 73 60 74 62 75 64 76 61 77 45 78
REMARK SMILES IDX 46 79 51 80 47 81 48 82 50 83 52 84 49 85
REMARK H PARENT 14 7 6 21 19 28 69 47 43 58
REMARK Flexibility Score: inf
ROOT
ATOM      1  C   UNL A   1      33.716  29.847  26.450  1.00  0.00     0.023 C 
ENDROOT
BRANCH   1   2
ATOM      2  C   UNL A   1      32.895  28.944  25.516  1.00  0.00     0.023 C 
BRANCH   2   3
ATOM      3  C   UNL A   1      31.524  29.492  25.134  1.00  0.00     0.116 C 
BRANCH   3   4
ATOM      4  N   UNL A   1      31.236  29.335  23.724  1.00  0.00    -0.355 N 
ATOM      5  C   UNL A   1      30.417  28.445  23.093  1.00  0.00     0.240 C 
ATOM      6  O   UNL A   1      30.088  28.711  21.934  1.00  0.00    -0.273 OA
ATOM      7  H   UNL A   1      31.703  29.966  23.131  1.00  0.00     0.163 HD
BRANCH   5   8
ATOM      8  C   UNL A   1      29.787  27.262  23.836  1.00  0.00     0.226 C 
BRANCH   8   9
ATOM      9  N   UNL A   1      30.737  26.212  24.173  1.00  0.00    -0.288 N 
ATOM     10  C   UNL A   1      36.133  20.637  25.009  1.00  0.00     0.044 C 
ATOM     11  C   UNL A   1      35.051  21.530  25.543  1.00  0.00    -0.050 A 
ATOM     12  C   UNL A   1      34.703  21.462  26.897  1.00  0.00     0.005 A 
ATOM     13  C   UNL A   1      34.391  22.438  24.697  1.00  0.00     0.016 A 
ATOM     14  C   UNL A   1      33.707  22.281  27.441  1.00  0.00     0.027 A 
ATOM     15  C   UNL A   1      33.390  23.278  25.221  1.00  0.00     0.026 A 
ATOM     16  C   UNL A   1      33.069  23.180  26.582  1.00  0.00     0.048 A 
ATOM     17  C   UNL A   1      32.554  24.287  24.697  1.00  0.00     0.103 A 
ATOM     18  N   UNL A   1      32.074  24.102  26.841  1.00  0.00    -0.349 N 
ATOM     19  C   UNL A   1      31.762  24.774  25.694  1.00  0.00     0.132 A 
ATOM     20  N   UNL A   1      32.508  24.778  23.391  1.00  0.00    -0.236 NA
ATOM     21  H   UNL A   1      31.654  24.253  27.719  1.00  0.00     0.167 HD
ATOM     22  C   UNL A   1      30.803  25.807  25.502  1.00  0.00     0.278 A 
ATOM     23  C   UNL A   1      31.618  25.708  23.227  1.00  0.00     0.203 A 
ATOM     24  O   UNL A   1      30.123  26.273  26.410  1.00  0.00    -0.267 OA
ENDBRANCH   8   9
ENDBRANCH   5   8
ENDBRANCH   3   4
ENDBRANCH   2   3
ENDBRANCH   1   2
BRANCH   1  25
ATOM     25  C   UNL A   1      34.824  29.142  27.236  1.00  0.00     0.116 C 
BRANCH  25  26
ATOM     26  N   UNL A   1      35.047  29.688  28.560  1.00  0.00    -0.352 N 
ATOM     27  C   UNL A   1      36.135  29.851  29.370  1.00  0.00     0.251 C 
ATOM     28  H   UNL A   1      34.217  30.018  28.974  1.00  0.00     0.163 HD
ATOM     29  O   UNL A   1      35.940  30.495  30.404  1.00  0.00    -0.269 OA
BRANCH  27  30
ATOM     30  C   UNL A   1      37.490  29.286  29.126  1.00  0.00     0.039 A 
ATOM     31  C   UNL A   1      38.146  28.366  29.941  1.00  0.00     0.014 A 
ATOM     32  C   UNL A   1      38.170  29.780  27.993  1.00  0.00     0.014 A 
ATOM     33  C   UNL A   1      39.465  28.007  29.680  1.00  0.00     0.010 A 
ATOM     34  C   UNL A   1      39.484  29.416  27.720  1.00  0.00     0.010 A 
ATOM     35  C   UNL A   1      40.145  28.557  28.590  1.00  0.00    -0.014 A 
BRANCH  35  36
ATOM     36  C   UNL A   1      41.524  28.127  28.368  1.00  0.00     0.031 A 
ATOM     37  C   UNL A   1      41.670  26.810  27.691  1.00  0.00     0.074 A 
ATOM     38  C   UNL A   1      42.606  28.870  28.677  1.00  0.00     0.049 A 
ATOM     39  N   UNL A   1      42.185  25.725  28.169  1.00  0.00    -0.248 NA
ATOM     40  C   UNL A   1      41.082  26.656  26.353  1.00  0.00     0.031 C 
ATOM     41  C   UNL A   1      42.632  30.273  29.096  1.00  0.00     0.029 A 
ATOM     42  N   UNL A   1      43.930  28.539  28.606  1.00  0.00    -0.354 N 
ATOM     43  C   UNL A   1      42.153  24.795  27.131  1.00  0.00     0.074 A 
ATOM     44  C   UNL A   1      41.352  25.377  26.087  1.00  0.00     0.031 C 
ATOM     45  C   UNL A   1      43.903  30.729  29.048  1.00  0.00     0.029 A 
ATOM     46  C   UNL A   1      44.790  29.619  28.741  1.00  0.00     0.049 A 
ATOM     47  H   UNL A   1      44.246  27.615  28.471  1.00  0.00     0.167 HD
ATOM     48  C   UNL A   1      42.982  23.716  27.127  1.00  0.00     0.037 A 
ATOM     49  C   UNL A   1      46.136  29.621  28.596  1.00  0.00     0.037 A 
ATOM     50  C   UNL A   1      43.554  23.488  28.428  1.00  0.00     0.049 A 
ATOM     51  C   UNL A   1      46.630  28.242  28.790  1.00  0.00     0.074 A 
ATOM     52  C   UNL A   1      43.141  22.973  29.636  1.00  0.00     0.029 A 
ATOM     53  N   UNL A   1      44.737  24.140  28.644  1.00  0.00    -0.354 N 
ATOM     54  N   UNL A   1      46.634  27.630  29.940  1.00  0.00    -0.248 NA
ATOM     55  C   UNL A   1      46.876  27.392  27.631  1.00  0.00     0.031 C 
ATOM     56  C   UNL A   1      43.999  23.549  30.622  1.00  0.00     0.029 A 
ATOM     57  C   UNL A   1      44.910  24.385  29.978  1.00  0.00     0.049 A 
ATOM     58  H   UNL A   1      45.372  24.397  27.939  1.00  0.00     0.167 HD
ATOM     59  C   UNL A   1      46.446  26.301  29.620  1.00  0.00     0.074 A 
ATOM     60  C   UNL A   1      46.798  26.192  28.212  1.00  0.00     0.031 C 
ATOM     61  C   UNL A   1      45.716  25.491  30.438  1.00  0.00     0.037 A 
BRANCH  48  62
ATOM     62  C   UNL A   1      43.657  23.152  25.891  1.00  0.00     0.057 A 
ATOM     63  C   UNL A   1      44.592  23.861  25.111  1.00  0.00     0.134 A 
ATOM     64  C   UNL A   1      43.646  21.758  25.684  1.00  0.00     0.134 A 
ATOM     65  F   UNL A   1      44.775  25.180  25.233  1.00  0.00    -0.206 F 
ATOM     66  C   UNL A   1      45.477  23.230  24.229  1.00  0.00     0.040 A 
ATOM     67  C   UNL A   1      44.560  21.113  24.839  1.00  0.00     0.040 A 
ATOM     68  F   UNL A   1      42.802  20.966  26.365  1.00  0.00    -0.206 F 
ATOM     69  C   UNL A   1      45.488  21.849  24.118  1.00  0.00     0.006 A 
ENDBRANCH  48  62
BRANCH  49  70
ATOM     70  C   UNL A   1      47.031  30.714  28.168  1.00  0.00     0.057 A 
ATOM     71  C   UNL A   1      47.882  31.348  29.087  1.00  0.00     0.134 A 
ATOM     72  C   UNL A   1      46.883  31.341  26.923  1.00  0.00     0.134 A 
ATOM     73  F   UNL A   1      48.039  30.865  30.328  1.00  0.00    -0.206 F 
ATOM     74  C   UNL A   1      48.529  32.553  28.797  1.00  0.00     0.040 A 
ATOM     75  C   UNL A   1      47.520  32.551  26.621  1.00  0.00     0.040 A 
ATOM     76  F   UNL A   1      46.066  30.827  25.992  1.00  0.00    -0.206 F 
ATOM     77  C   UNL A   1      48.336  33.167  27.564  1.00  0.00     0.006 A 
ENDBRANCH  49  70
BRANCH  61  78
ATOM     78  C   UNL A   1      45.583  25.924  31.863  1.00  0.00     0.057 A 
ATOM     79  C   UNL A   1      44.452  26.655  32.237  1.00  0.00     0.134 A 
ATOM     80  C   UNL A   1      46.544  25.679  32.853  1.00  0.00     0.134 A 
ATOM     81  F   UNL A   1      43.517  26.967  31.325  1.00  0.00    -0.206 F 
ATOM     82  C   UNL A   1      44.266  27.105  33.544  1.00  0.00     0.040 A 
ATOM     83  C   UNL A   1      46.355  26.093  34.174  1.00  0.00     0.040 A 
ATOM     84  F   UNL A   1      47.696  25.059  32.562  1.00  0.00    -0.206 F 
ATOM     85  C   UNL A   1      45.213  26.809  34.522  1.00  0.00     0.006 A 
ENDBRANCH  61  78
ENDBRANCH  35  36
ENDBRANCH  27  30
ENDBRANCH  25  26
ENDBRANCH   1  25
TORSDOF 12
ENDMDL
MODEL 2
REMARK VINA RESULT:     -12.4      1.594      2.273
REMARK SMILES Cc1ccc2[nH]c3c(=O)n(CC(=O)NCCCCNC(=O)c4ccc(-c5c6nc(c(-c7c(F)cccc7F)c7ccc([nH]7)c(-c7c(F)cccc7F)c7nc(c(-c8c(F)cccc8F)c8ccc5[nH]8)C=C7)C=C6)cc4)cnc3c2c1
REMARK SMILES IDX 17 1 16 2 15 3 14 4 12 5 13 6 11 8 10 9 1 10 2 11 3 12 80 13
REMARK SMILES IDX 4 14 79 15 5 16 78 17 6 18 7 19 77 20 8 22 76 23 9 24 18 25
REMARK SMILES IDX 19 26 20 27 21 29 22 30 23 31 75 32 24 33 74 34 25 35 26 36
REMARK SMILES IDX 27 37 68 38 28 39 73 40 67 41 69 42 29 43 72 44 66 45 65 46
REMARK SMILES IDX 30 48 56 49 39 50 55 51 40 52 43 53 54 54 70 55 41 56 42 57
REMARK SMILES IDX 53 59 71 60 44 61 31 62 32 63 37 64 33 65 34 66 36 67 38 68
REMARK SMILES IDX 35 69 57 70 58 71 63 72 59 73 60 74 62 75 64 76 61 77 45 78
REMARK SMILES IDX 46 79 51 80 47 81 48 82 50 83 52 84 49 85
REMARK H PARENT 14 7 6 21 19 28 69 47 43 58
REMARK Flexibility Score: inf
ROOT
ATOM      1  C   UNL A   1      33.373  28.146  27.216  1.00  0.00     0.023 C 
ENDROOT
BRANCH   1   2
ATOM      2  C   UNL A   1      32.188  28.777  26.469  1.00  0.00     0.023 C 
BRANCH   2   3
ATOM      3  C   UNL A   1      31.462  27.840  25.508  1.00  0.00     0.116 C 
BRANCH   3   4
ATOM      4  N   UNL A   1      31.055  26.603  26.139  1.00  0.00    -0.355 N 
ATOM      5  C   UNL A   1      31.609  25.359  26.063  1.00  0.00     0.240 C 
ATOM      6  O   UNL A   1      31.283  24.546  26.933  1.00  0.00    -0.273 OA
ATOM      7  H   UNL A   1      30.255  26.670  26.709  1.00  0.00     0.163 HD
BRANCH   5   8
ATOM      8  C   UNL A   1      32.719  25.031  25.058  1.00  0.00     0.226 C 
BRANCH   8   9
ATOM      9  N   UNL A   1      32.956  23.604  24.895  1.00  0.00    -0.288 N 
ATOM     10  C   UNL A   1      34.849  16.034  24.818  1.00  0.00     0.044 C 
ATOM     11  C   UNL A   1      34.092  17.220  24.294  1.00  0.00    -0.050 A 
ATOM     12  C   UNL A   1      33.197  17.056  23.230  1.00  0.00     0.005 A 
ATOM     13  C   UNL A   1      34.268  18.491  24.869  1.00  0.00     0.016 A 
ATOM     14  C   UNL A   1      32.463  18.131  22.716  1.00  0.00     0.027 A 
ATOM     15  C   UNL A   1      33.537  19.587  24.373  1.00  0.00     0.026 A 
ATOM     16  C   UNL A   1      32.651  19.383  23.307  1.00  0.00     0.048 A 
ATOM     17  C   UNL A   1      33.444  20.958  24.698  1.00  0.00     0.103 A 
ATOM     18  N   UNL A   1      32.062  20.599  23.017  1.00  0.00    -0.349 N 
ATOM     19  C   UNL A   1      32.545  21.555  23.864  1.00  0.00     0.132 A 
ATOM     20  N   UNL A   1      34.109  21.652  25.710  1.00  0.00    -0.236 NA
ATOM     21  H   UNL A   1      31.396  20.752  22.308  1.00  0.00     0.167 HD
ATOM     22  C   UNL A   1      32.215  22.937  23.926  1.00  0.00     0.278 A 
ATOM     23  C   UNL A   1      33.809  22.914  25.745  1.00  0.00     0.203 A 
ATOM     24  O   UNL A   1      31.375  23.462  23.203  1.00  0.00    -0.267 OA
ENDBRANCH   8   9
ENDBRANCH   5   8
ENDBRANCH   3   4
ENDBRANCH   2   3
ENDBRANCH   1   2
BRANCH   1  25
ATOM     25  C   UNL A   1      34.675  28.950  27.177  1.00  0.00     0.116 C 
BRANCH  25  26
ATOM     26  N   UNL A   1      34.927  29.721  28.379  1.00  0.00    -0.352 N 
ATOM     27  C   UNL A   1      36.036  30.031  29.116  1.00  0.00     0.251 C 
ATOM     28  H   UNL A   1      34.105  30.112  28.753  1.00  0.00     0.163 HD
ATOM     29  O   UNL A   1      35.861  30.843  30.028  1.00  0.00    -0.269 OA
BRANCH  27  30
ATOM     30  C   UNL A   1      37.390  29.443  28.934  1.00  0.00     0.039 A 
ATOM     31  C   UNL A   1      38.063  28.650  29.861  1.00  0.00     0.014 A 
ATOM     32  C   UNL A   1      38.051  29.775  27.733  1.00  0.00     0.014 A 
ATOM     33  C   UNL A   1      39.380  28.263  29.633  1.00  0.00     0.010 A 
ATOM     34  C   UNL A   1      39.364  29.381  27.494  1.00  0.00     0.010 A 
ATOM     35  C   UNL A   1      40.042  28.656  28.466  1.00  0.00    -0.014 A 
BRANCH  35  36
ATOM     36  C   UNL A   1      41.420  28.205  28.287  1.00  0.00     0.031 A 
ATOM     37  C   UNL A   1      41.567  26.894  27.598  1.00  0.00     0.074 A 
ATOM     38  C   UNL A   1      42.503  28.925  28.644  1.00  0.00     0.049 A 
ATOM     39  N   UNL A   1      42.046  25.794  28.079  1.00  0.00    -0.248 NA
ATOM     40  C   UNL A   1      41.024  26.768  26.238  1.00  0.00     0.031 C 
ATOM     41  C   UNL A   1      42.539  30.321  29.083  1.00  0.00     0.029 A 
ATOM     42  N   UNL A   1      43.823  28.571  28.615  1.00  0.00    -0.354 N 
ATOM     43  C   UNL A   1      42.035  24.878  27.027  1.00  0.00     0.074 A 
ATOM     44  C   UNL A   1      41.281  25.488  25.964  1.00  0.00     0.031 C 
ATOM     45  C   UNL A   1      43.818  30.755  29.085  1.00  0.00     0.029 A 
ATOM     46  C   UNL A   1      44.696  29.634  28.794  1.00  0.00     0.049 A 
ATOM     47  H   UNL A   1      44.127  27.644  28.478  1.00  0.00     0.167 HD
ATOM     48  C   UNL A   1      42.845  23.784  27.038  1.00  0.00     0.037 A 
ATOM     49  C   UNL A   1      46.046  29.613  28.697  1.00  0.00     0.037 A 
ATOM     50  C   UNL A   1      43.366  23.530  28.355  1.00  0.00     0.049 A 
ATOM     51  C   UNL A   1      46.509  28.224  28.889  1.00  0.00     0.074 A 
ATOM     52  C   UNL A   1      42.902  23.007  29.541  1.00  0.00     0.029 A 
ATOM     53  N   UNL A   1      44.552  24.158  28.621  1.00  0.00    -0.354 N 
ATOM     54  N   UNL A   1      46.463  27.597  30.029  1.00  0.00    -0.248 NA
ATOM     55  C   UNL A   1      46.781  27.384  27.728  1.00  0.00     0.031 C 
ATOM     56  C   UNL A   1      43.735  23.555  30.563  1.00  0.00     0.029 A 
ATOM     57  C   UNL A   1      44.682  24.382  29.964  1.00  0.00     0.049 A 
ATOM     58  H   UNL A   1      45.216  24.413  27.942  1.00  0.00     0.167 HD
ATOM     59  C   UNL A   1      46.263  26.276  29.685  1.00  0.00     0.074 A 
ATOM     60  C   UNL A   1      46.662  26.179  28.289  1.00  0.00     0.031 C 
ATOM     61  C   UNL A   1      45.491  25.468  30.466  1.00  0.00     0.037 A 
BRANCH  48  62
ATOM     62  C   UNL A   1      43.553  23.225  25.819  1.00  0.00     0.057 A 
ATOM     63  C   UNL A   1      44.472  23.953  25.037  1.00  0.00     0.134 A 
ATOM     64  C   UNL A   1      43.592  21.829  25.634  1.00  0.00     0.134 A 
ATOM     65  F   UNL A   1      44.608  25.280  25.140  1.00  0.00    -0.206 F 
ATOM     66  C   UNL A   1      45.388  23.340  24.176  1.00  0.00     0.040 A 
ATOM     67  C   UNL A   1      44.537  21.202  24.810  1.00  0.00     0.040 A 
ATOM     68  F   UNL A   1      42.768  21.019  26.319  1.00  0.00    -0.206 F 
ATOM     69  C   UNL A   1      45.448  21.958  24.088  1.00  0.00     0.006 A 
ENDBRANCH  48  62
BRANCH  49  70
ATOM     70  C   UNL A   1      46.975  30.696  28.314  1.00  0.00     0.057 A 
ATOM     71  C   UNL A   1      47.636  31.454  29.293  1.00  0.00     0.134 A 
ATOM     72  C   UNL A   1      47.029  31.190  27.004  1.00  0.00     0.134 A 
ATOM     73  F   UNL A   1      47.588  31.104  30.587  1.00  0.00    -0.206 F 
ATOM     74  C   UNL A   1      48.294  32.651  28.993  1.00  0.00     0.040 A 
ATOM     75  C   UNL A   1      47.679  32.390  26.689  1.00  0.00     0.040 A 
ATOM     76  F   UNL A   1      46.400  30.551  26.006  1.00  0.00    -0.206 F 
ATOM     77  C   UNL A   1      48.303  33.131  27.687  1.00  0.00     0.006 A 
ENDBRANCH  49  70
BRANCH  61  78
ATOM     78  C   UNL A   1      45.316  25.885  31.892  1.00  0.00     0.057 A 
ATOM     79  C   UNL A   1      44.178  26.620  32.238  1.00  0.00     0.134 A 
ATOM     80  C   UNL A   1      46.243  25.622  32.909  1.00  0.00     0.134 A 
ATOM     81  F   UNL A   1      43.275  26.949  31.301  1.00  0.00    -0.206 F 
ATOM     82  C   UNL A   1      43.954  27.055  33.544  1.00  0.00     0.040 A 
ATOM     83  C   UNL A   1      46.014  26.021  34.228  1.00  0.00     0.040 A 
ATOM     84  F   UNL A   1      47.398  24.996  32.647  1.00  0.00    -0.206 F 
ATOM     85  C   UNL A   1      44.866  26.740  34.548  1.00  0.00     0.006 A 
ENDBRANCH  61  78
ENDBRANCH  35  36
ENDBRANCH  27  30
ENDBRANCH  25  26
ENDBRANCH   1  25
TORSDOF 12
ENDMDL
MODEL 3
REMARK VINA RESULT:     -12.4      2.090      6.149
REMARK SMILES Cc1ccc2[nH]c3c(=O)n(CC(=O)NCCCCNC(=O)c4ccc(-c5c6nc(c(-c7c(F)cccc7F)c7ccc([nH]7)c(-c7c(F)cccc7F)c7nc(c(-c8c(F)cccc8F)c8ccc5[nH]8)C=C7)C=C6)cc4)cnc3c2c1
REMARK SMILES IDX 17 1 16 2 15 3 14 4 12 5 13 6 11 8 10 9 1 10 2 11 3 12 80 13
REMARK SMILES IDX 4 14 79 15 5 16 78 17 6 18 7 19 77 20 8 22 76 23 9 24 18 25
REMARK SMILES IDX 19 26 20 27 21 29 22 30 23 31 75 32 24 33 74 34 25 35 26 36
REMARK SMILES IDX 27 37 68 38 28 39 73 40 67 41 69 42 29 43 72 44 66 45 65 46
REMARK SMILES IDX 30 48 56 49 39 50 55 51 40 52 43 53 54 54 70 55 41 56 42 57
REMARK SMILES IDX 53 59 71 60 44 61 31 62 32 63 37 64 33 65 34 66 36 67 38 68
REMARK SMILES IDX 35 69 57 70 58 71 63 72 59 73 60 74 62 75 64 76 61 77 45 78
REMARK SMILES IDX 46 79 51 80 47 81 48 82 50 83 52 84 49 85
REMARK H PARENT 14 7 6 21 19 28 69 47 43 58
REMARK Flexibility Score: inf
ROOT
ATOM      1  C   UNL A   1      32.651  30.236  26.919  1.00  0.00     0.023 C 
ENDROOT
BRANCH   1   2
ATOM      2  C   UNL A   1      32.452  30.092  25.402  1.00  0.00     0.023 C 
BRANCH   2   3
ATOM      3  C   UNL A   1      30.997  30.056  24.945  1.00  0.00     0.116 C 
BRANCH   3   4
ATOM      4  N   UNL A   1      30.849  29.540  23.601  1.00  0.00    -0.355 N 
ATOM      5  C   UNL A   1      30.498  28.291  23.177  1.00  0.00     0.240 C 
ATOM      6  O   UNL A   1      30.128  28.181  22.005  1.00  0.00    -0.273 OA
ATOM      7  H   UNL A   1      31.031  30.188  22.883  1.00  0.00     0.163 HD
BRANCH   5   8
ATOM      8  C   UNL A   1      30.393  27.110  24.149  1.00  0.00     0.226 C 
BRANCH   8   9
ATOM      9  N   UNL A   1      31.650  26.405  24.349  1.00  0.00    -0.288 N 
ATOM     10  C   UNL A   1      38.447  23.113  26.312  1.00  0.00     0.044 C 
ATOM     11  C   UNL A   1      37.281  23.302  25.386  1.00  0.00    -0.050 A 
ATOM     12  C   UNL A   1      37.213  22.567  24.197  1.00  0.00     0.005 A 
ATOM     13  C   UNL A   1      36.252  24.206  25.707  1.00  0.00     0.016 A 
ATOM     14  C   UNL A   1      36.141  22.705  23.308  1.00  0.00     0.027 A 
ATOM     15  C   UNL A   1      35.159  24.358  24.833  1.00  0.00     0.026 A 
ATOM     16  C   UNL A   1      35.128  23.604  23.652  1.00  0.00     0.048 A 
ATOM     17  C   UNL A   1      33.978  25.129  24.832  1.00  0.00     0.103 A 
ATOM     18  N   UNL A   1      33.965  23.929  22.983  1.00  0.00    -0.349 N 
ATOM     19  C   UNL A   1      33.266  24.857  23.701  1.00  0.00     0.132 A 
ATOM     20  N   UNL A   1      33.530  26.023  25.807  1.00  0.00    -0.236 NA
ATOM     21  H   UNL A   1      33.682  23.550  22.118  1.00  0.00     0.167 HD
ATOM     22  C   UNL A   1      32.020  25.467  23.392  1.00  0.00     0.278 A 
ATOM     23  C   UNL A   1      32.399  26.583  25.503  1.00  0.00     0.203 A 
ATOM     24  O   UNL A   1      31.362  25.187  22.395  1.00  0.00    -0.267 OA
ENDBRANCH   8   9
ENDBRANCH   5   8
ENDBRANCH   3   4
ENDBRANCH   2   3
ENDBRANCH   1   2
BRANCH   1  25
ATOM     25  C   UNL A   1      34.075  30.579  27.363  1.00  0.00     0.116 C 
BRANCH  25  26
ATOM     26  N   UNL A   1      34.138  31.487  28.491  1.00  0.00    -0.352 N 
ATOM     27  C   UNL A   1      35.091  31.824  29.411  1.00  0.00     0.251 C 
ATOM     28  H   UNL A   1      33.294  31.974  28.628  1.00  0.00     0.163 HD
ATOM     29  O   UNL A   1      34.802  32.761  30.161  1.00  0.00    -0.269 OA
BRANCH  27  30
ATOM     30  C   UNL A   1      36.396  31.135  29.600  1.00  0.00     0.039 A 
ATOM     31  C   UNL A   1      37.652  31.702  29.391  1.00  0.00     0.014 A 
ATOM     32  C   UNL A   1      36.328  29.777  29.973  1.00  0.00     0.014 A 
ATOM     33  C   UNL A   1      38.800  30.921  29.476  1.00  0.00     0.010 A 
ATOM     34  C   UNL A   1      37.474  28.994  30.071  1.00  0.00     0.010 A 
ATOM     35  C   UNL A   1      38.710  29.560  29.782  1.00  0.00    -0.014 A 
BRANCH  35  36
ATOM     36  C   UNL A   1      39.956  28.802  29.866  1.00  0.00     0.031 A 
ATOM     37  C   UNL A   1      40.542  28.706  31.231  1.00  0.00     0.074 A 
ATOM     38  C   UNL A   1      40.526  28.168  28.822  1.00  0.00     0.049 A 
ATOM     39  N   UNL A   1      41.667  29.189  31.648  1.00  0.00    -0.248 NA
ATOM     40  C   UNL A   1      39.731  28.079  32.284  1.00  0.00     0.031 C 
ATOM     41  C   UNL A   1      39.950  27.945  27.493  1.00  0.00     0.029 A 
ATOM     42  N   UNL A   1      41.726  27.516  28.757  1.00  0.00    -0.354 N 
ATOM     43  C   UNL A   1      41.796  28.773  32.972  1.00  0.00     0.074 A 
ATOM     44  C   UNL A   1      40.526  28.209  33.348  1.00  0.00     0.031 C 
ATOM     45  C   UNL A   1      40.706  27.046  26.825  1.00  0.00     0.029 A 
ATOM     46  C   UNL A   1      41.889  26.746  27.615  1.00  0.00     0.049 A 
ATOM     47  H   UNL A   1      42.414  27.587  29.459  1.00  0.00     0.167 HD
ATOM     48  C   UNL A   1      43.013  28.721  33.578  1.00  0.00     0.037 A 
ATOM     49  C   UNL A   1      42.910  25.903  27.331  1.00  0.00     0.037 A 
ATOM     50  C   UNL A   1      43.997  29.471  32.844  1.00  0.00     0.049 A 
ATOM     51  C   UNL A   1      44.080  26.294  28.144  1.00  0.00     0.074 A 
ATOM     52  C   UNL A   1      44.321  30.796  32.652  1.00  0.00     0.029 A 
ATOM     53  N   UNL A   1      44.665  28.747  31.896  1.00  0.00    -0.354 N 
ATOM     54  N   UNL A   1      44.766  27.383  27.947  1.00  0.00    -0.248 NA
ATOM     55  C   UNL A   1      44.349  25.607  29.402  1.00  0.00     0.031 C 
ATOM     56  C   UNL A   1      45.014  30.854  31.406  1.00  0.00     0.029 A 
ATOM     57  C   UNL A   1      45.098  29.562  30.888  1.00  0.00     0.049 A 
ATOM     58  H   UNL A   1      44.812  27.774  31.934  1.00  0.00     0.167 HD
ATOM     59  C   UNL A   1      45.206  27.741  29.205  1.00  0.00     0.074 A 
ATOM     60  C   UNL A   1      45.096  26.533  30.009  1.00  0.00     0.031 C 
ATOM     61  C   UNL A   1      45.309  29.055  29.552  1.00  0.00     0.037 A 
BRANCH  48  62
ATOM     62  C   UNL A   1      43.449  27.636  34.543  1.00  0.00     0.057 A 
ATOM     63  C   UNL A   1      43.439  27.776  35.946  1.00  0.00     0.134 A 
ATOM     64  C   UNL A   1      43.541  26.308  34.080  1.00  0.00     0.134 A 
ATOM     65  F   UNL A   1      43.292  28.962  36.546  1.00  0.00    -0.206 F 
ATOM     66  C   UNL A   1      43.469  26.683  36.817  1.00  0.00     0.040 A 
ATOM     67  C   UNL A   1      43.523  25.204  34.944  1.00  0.00     0.040 A 
ATOM     68  F   UNL A   1      43.560  26.036  32.765  1.00  0.00    -0.206 F 
ATOM     69  C   UNL A   1      43.474  25.390  36.318  1.00  0.00     0.006 A 
ENDBRANCH  48  62
BRANCH  49  70
ATOM     70  C   UNL A   1      42.916  24.685  26.496  1.00  0.00     0.057 A 
ATOM     71  C   UNL A   1      42.380  23.481  26.979  1.00  0.00     0.134 A 
ATOM     72  C   UNL A   1      43.681  24.600  25.326  1.00  0.00     0.134 A 
ATOM     73  F   UNL A   1      41.689  23.445  28.128  1.00  0.00    -0.206 F 
ATOM     74  C   UNL A   1      42.612  22.255  26.349  1.00  0.00     0.040 A 
ATOM     75  C   UNL A   1      43.927  23.378  24.687  1.00  0.00     0.040 A 
ATOM     76  F   UNL A   1      44.261  25.692  24.807  1.00  0.00    -0.206 F 
ATOM     77  C   UNL A   1      43.403  22.199  25.206  1.00  0.00     0.006 A 
ENDBRANCH  49  70
BRANCH  61  78
ATOM     78  C   UNL A   1      45.430  30.036  28.430  1.00  0.00     0.057 A 
ATOM     79  C   UNL A   1      44.267  30.638  27.939  1.00  0.00     0.134 A 
ATOM     80  C   UNL A   1      46.638  30.369  27.802  1.00  0.00     0.134 A 
ATOM     81  F   UNL A   1      43.072  30.326  28.464  1.00  0.00    -0.206 F 
ATOM     82  C   UNL A   1      44.302  31.552  26.886  1.00  0.00     0.040 A 
ATOM     83  C   UNL A   1      46.691  31.308  26.769  1.00  0.00     0.040 A 
ATOM     84  F   UNL A   1      47.787  29.776  28.154  1.00  0.00    -0.206 F 
ATOM     85  C   UNL A   1      45.519  31.902  26.309  1.00  0.00     0.006 A 
ENDBRANCH  61  78
ENDBRANCH  35  36
ENDBRANCH  27  30
ENDBRANCH  25  26
ENDBRANCH   1  25
TORSDOF 12
ENDMDL
