MODEL 1
REMARK VINA RESULT:     -12.2      0.000      0.000
REMARK SMILES Cn1cc(C(=O)NCCCCNC(=O)c2ccc(-c3c4nc(c(-c5c(F)cccc5F)c5ccc([nH]5)c(-c5c(F)cccc5F)c5nc(c(-c6c(F)cccc6F)c6ccc3[nH]6)C=C5)C=C4)cc2)c(C(=O)Nc2ccc(-n3cncn3)cc2)n1
REMARK SMILES IDX 9 1 8 2 7 3 5 4 6 5 4 7 1 8 2 9 3 10 84 11 69 12 70 13 71 14
REMARK SMILES IDX 72 15 73 17 74 18 83 19 75 20 82 21 76 22 77 23 78 24 81 25
REMARK SMILES IDX 79 26 80 27 10 28 11 29 12 30 13 31 14 33 15 34 16 35 68 36
REMARK SMILES IDX 17 37 67 38 18 39 19 40 20 41 61 42 21 43 66 44 60 45 62 46
REMARK SMILES IDX 22 47 65 48 59 49 58 50 23 52 49 53 32 54 48 55 33 56 36 57
REMARK SMILES IDX 47 58 63 59 34 60 35 61 46 63 64 64 37 65 24 66 25 67 30 68
REMARK SMILES IDX 26 69 27 70 29 71 31 72 28 73 50 74 51 75 56 76 52 77 53 78
REMARK SMILES IDX 55 79 57 80 54 81 38 82 39 83 44 84 40 85 41 86 43 87 45 88
REMARK SMILES IDX 42 89
REMARK H PARENT 7 6 72 16 12 32 62 51 36 62
REMARK Flexibility Score: inf
ROOT
ATOM      1  C   UNL A   1      32.261  27.097  26.378  1.00  0.00     0.023 C 
ENDROOT
BRANCH   1   2
ATOM      2  C   UNL A   1      33.350  26.742  25.367  1.00  0.00     0.116 C 
BRANCH   2   3
ATOM      3  N   UNL A   1      34.252  25.678  25.757  1.00  0.00    -0.352 N 
ATOM      4  C   UNL A   1      34.094  24.320  25.885  1.00  0.00     0.255 C 
ATOM      5  O   UNL A   1      35.128  23.659  26.009  1.00  0.00    -0.269 OA
ATOM      6  H   UNL A   1      35.160  25.991  25.973  1.00  0.00     0.163 HD
BRANCH   4   7
ATOM      7  C   UNL A   1      32.785  23.687  25.912  1.00  0.00     0.090 A 
ATOM      8  C   UNL A   1      29.596  22.577  27.203  1.00  0.00     0.173 C 
ATOM      9  N   UNL A   1      30.797  22.912  26.475  1.00  0.00    -0.274 N 
ATOM     10  C   UNL A   1      31.920  23.496  26.975  1.00  0.00     0.123 A 
ATOM     11  N   UNL A   1      30.850  22.691  25.160  1.00  0.00    -0.167 NA
ATOM     12  C   UNL A   1      32.035  23.208  24.775  1.00  0.00     0.163 A 
BRANCH  12  13
ATOM     13  C   UNL A   1      32.355  23.303  23.338  1.00  0.00     0.276 C 
ATOM     14  O   UNL A   1      33.129  22.503  22.801  1.00  0.00    -0.267 OA
ATOM     15  N   UNL A   1      31.742  24.230  22.525  1.00  0.00    -0.321 N 
ATOM     16  H   UNL A   1      31.816  24.027  21.564  1.00  0.00     0.170 HD
BRANCH  15  17
ATOM     17  C   UNL A   1      31.036  25.406  22.803  1.00  0.00     0.041 A 
ATOM     18  C   UNL A   1      31.505  26.580  22.206  1.00  0.00     0.028 A 
ATOM     19  C   UNL A   1      29.927  25.466  23.644  1.00  0.00     0.028 A 
ATOM     20  C   UNL A   1      30.813  27.784  22.361  1.00  0.00     0.030 A 
ATOM     21  C   UNL A   1      29.249  26.680  23.836  1.00  0.00     0.030 A 
ATOM     22  C   UNL A   1      29.663  27.835  23.158  1.00  0.00     0.067 A 
BRANCH  22  23
ATOM     23  N   UNL A   1      28.917  29.042  23.226  1.00  0.00    -0.221 N 
ATOM     24  C   UNL A   1      27.564  29.234  23.078  1.00  0.00     0.225 A 
ATOM     25  N   UNL A   1      29.516  30.251  23.383  1.00  0.00    -0.155 NA
ATOM     26  N   UNL A   1      27.269  30.514  23.114  1.00  0.00    -0.223 NA
ATOM     27  C   UNL A   1      28.484  31.092  23.315  1.00  0.00     0.246 A 
ENDBRANCH  22  23
ENDBRANCH  15  17
ENDBRANCH  12  13
ENDBRANCH   4   7
ENDBRANCH   2   3
ENDBRANCH   1   2
BRANCH   1  28
ATOM     28  C   UNL A   1      31.587  28.459  26.201  1.00  0.00     0.023 C 
BRANCH  28  29
ATOM     29  C   UNL A   1      32.410  29.566  25.548  1.00  0.00     0.116 C 
BRANCH  29  30
ATOM     30  N   UNL A   1      32.047  30.896  25.988  1.00  0.00    -0.352 N 
ATOM     31  C   UNL A   1      32.657  31.738  26.883  1.00  0.00     0.251 C 
ATOM     32  H   UNL A   1      31.227  31.257  25.578  1.00  0.00     0.163 HD
ATOM     33  O   UNL A   1      32.130  32.826  27.114  1.00  0.00    -0.269 OA
BRANCH  31  34
ATOM     34  C   UNL A   1      33.901  31.367  27.605  1.00  0.00     0.039 A 
ATOM     35  C   UNL A   1      34.783  32.404  27.942  1.00  0.00     0.014 A 
ATOM     36  C   UNL A   1      34.252  30.047  27.906  1.00  0.00     0.014 A 
ATOM     37  C   UNL A   1      35.976  32.130  28.615  1.00  0.00     0.010 A 
ATOM     38  C   UNL A   1      35.429  29.774  28.611  1.00  0.00     0.010 A 
ATOM     39  C   UNL A   1      36.297  30.814  28.971  1.00  0.00    -0.014 A 
BRANCH  39  40
ATOM     40  C   UNL A   1      37.544  30.519  29.716  1.00  0.00     0.031 A 
ATOM     41  C   UNL A   1      38.647  29.732  29.072  1.00  0.00     0.074 A 
ATOM     42  C   UNL A   1      37.677  30.944  30.986  1.00  0.00     0.049 A 
ATOM     43  N   UNL A   1      39.766  29.302  29.597  1.00  0.00    -0.248 NA
ATOM     44  C   UNL A   1      38.464  29.373  27.658  1.00  0.00     0.031 C 
ATOM     45  C   UNL A   1      36.675  31.703  31.736  1.00  0.00     0.029 A 
ATOM     46  N   UNL A   1      38.716  30.795  31.868  1.00  0.00    -0.354 N 
ATOM     47  C   UNL A   1      40.401  28.583  28.594  1.00  0.00     0.074 A 
ATOM     48  C   UNL A   1      39.554  28.654  27.421  1.00  0.00     0.031 C 
ATOM     49  C   UNL A   1      37.159  31.974  32.960  1.00  0.00     0.029 A 
ATOM     50  C   UNL A   1      38.493  31.391  33.083  1.00  0.00     0.049 A 
ATOM     51  H   UNL A   1      39.543  30.307  31.650  1.00  0.00     0.167 HD
ATOM     52  C   UNL A   1      41.576  27.914  28.650  1.00  0.00     0.037 A 
ATOM     53  C   UNL A   1      39.275  31.457  34.175  1.00  0.00     0.037 A 
ATOM     54  C   UNL A   1      42.446  27.870  29.794  1.00  0.00     0.049 A 
ATOM     55  C   UNL A   1      40.615  30.788  34.180  1.00  0.00     0.074 A 
ATOM     56  C   UNL A   1      43.651  27.203  29.940  1.00  0.00     0.029 A 
ATOM     57  N   UNL A   1      42.212  28.541  30.983  1.00  0.00    -0.354 N 
ATOM     58  N   UNL A   1      41.182  30.074  33.238  1.00  0.00    -0.248 NA
ATOM     59  C   UNL A   1      41.422  30.927  35.401  1.00  0.00     0.031 C 
ATOM     60  C   UNL A   1      44.153  27.482  31.218  1.00  0.00     0.029 A 
ATOM     61  C   UNL A   1      43.258  28.320  31.862  1.00  0.00     0.049 A 
ATOM     62  H   UNL A   1      41.421  29.093  31.173  1.00  0.00     0.167 HD
ATOM     63  C   UNL A   1      42.402  29.667  33.756  1.00  0.00     0.074 A 
ATOM     64  C   UNL A   1      42.504  30.226  35.090  1.00  0.00     0.031 C 
ATOM     65  C   UNL A   1      43.348  28.888  33.180  1.00  0.00     0.037 A 
BRANCH  52  66
ATOM     66  C   UNL A   1      41.978  27.156  27.428  1.00  0.00     0.057 A 
ATOM     67  C   UNL A   1      42.687  27.768  26.390  1.00  0.00     0.134 A 
ATOM     68  C   UNL A   1      41.666  25.797  27.297  1.00  0.00     0.134 A 
ATOM     69  F   UNL A   1      43.000  29.071  26.456  1.00  0.00    -0.206 F 
ATOM     70  C   UNL A   1      43.070  27.052  25.255  1.00  0.00     0.040 A 
ATOM     71  C   UNL A   1      42.047  25.070  26.170  1.00  0.00     0.040 A 
ATOM     72  F   UNL A   1      40.980  25.161  28.260  1.00  0.00    -0.206 F 
ATOM     73  C   UNL A   1      42.751  25.699  25.145  1.00  0.00     0.006 A 
ENDBRANCH  52  66
BRANCH  53  74
ATOM     74  C   UNL A   1      38.802  32.192  35.365  1.00  0.00     0.057 A 
ATOM     75  C   UNL A   1      38.945  33.580  35.454  1.00  0.00     0.134 A 
ATOM     76  C   UNL A   1      38.192  31.525  36.431  1.00  0.00     0.134 A 
ATOM     77  F   UNL A   1      39.535  34.264  34.463  1.00  0.00    -0.206 F 
ATOM     78  C   UNL A   1      38.495  34.285  36.570  1.00  0.00     0.040 A 
ATOM     79  C   UNL A   1      37.734  32.218  37.552  1.00  0.00     0.040 A 
ATOM     80  F   UNL A   1      38.038  30.194  36.397  1.00  0.00    -0.206 F 
ATOM     81  C   UNL A   1      37.885  33.603  37.622  1.00  0.00     0.006 A 
ENDBRANCH  53  74
BRANCH  65  82
ATOM     82  C   UNL A   1      44.566  28.594  33.993  1.00  0.00     0.057 A 
ATOM     83  C   UNL A   1      44.620  27.474  34.829  1.00  0.00     0.134 A 
ATOM     84  C   UNL A   1      45.693  29.420  33.928  1.00  0.00     0.134 A 
ATOM     85  F   UNL A   1      43.564  26.655  34.937  1.00  0.00    -0.206 F 
ATOM     86  C   UNL A   1      45.759  27.184  35.580  1.00  0.00     0.040 A 
ATOM     87  C   UNL A   1      46.839  29.140  34.674  1.00  0.00     0.040 A 
ATOM     88  F   UNL A   1      45.693  30.512  33.151  1.00  0.00    -0.206 F 
ATOM     89  C   UNL A   1      46.874  28.018  35.503  1.00  0.00     0.006 A 
ENDBRANCH  65  82
ENDBRANCH  39  40
ENDBRANCH  31  34
ENDBRANCH  29  30
ENDBRANCH  28  29
ENDBRANCH   1  28
TORSDOF 14
ENDMDL
MODEL 2
REMARK VINA RESULT:     -12.2      3.659      8.049
REMARK SMILES Cn1cc(C(=O)NCCCCNC(=O)c2ccc(-c3c4nc(c(-c5c(F)cccc5F)c5ccc([nH]5)c(-c5c(F)cccc5F)c5nc(c(-c6c(F)cccc6F)c6ccc3[nH]6)C=C5)C=C4)cc2)c(C(=O)Nc2ccc(-n3cncn3)cc2)n1
REMARK SMILES IDX 9 1 8 2 7 3 5 4 6 5 4 7 1 8 2 9 3 10 84 11 69 12 70 13 71 14
REMARK SMILES IDX 72 15 73 17 74 18 83 19 75 20 82 21 76 22 77 23 78 24 81 25
REMARK SMILES IDX 79 26 80 27 10 28 11 29 12 30 13 31 14 33 15 34 16 35 68 36
REMARK SMILES IDX 17 37 67 38 18 39 19 40 20 41 61 42 21 43 66 44 60 45 62 46
REMARK SMILES IDX 22 47 65 48 59 49 58 50 23 52 49 53 32 54 48 55 33 56 36 57
REMARK SMILES IDX 47 58 63 59 34 60 35 61 46 63 64 64 37 65 24 66 25 67 30 68
REMARK SMILES IDX 26 69 27 70 29 71 31 72 28 73 50 74 51 75 56 76 52 77 53 78
REMARK SMILES IDX 55 79 57 80 54 81 38 82 39 83 44 84 40 85 41 86 43 87 45 88
REMARK SMILES IDX 42 89
REMARK H PARENT 7 6 72 16 12 32 62 51 36 62
REMARK Flexibility Score: inf
ROOT
ATOM      1  C   UNL A   1      37.117  21.668  24.440  1.00  0.00     0.023 C 
ENDROOT
BRANCH   1   2
ATOM      2  C   UNL A   1      36.629  22.351  25.716  1.00  0.00     0.116 C 
BRANCH   2   3
ATOM      3  N   UNL A   1      36.105  23.692  25.554  1.00  0.00    -0.352 N 
ATOM      4  C   UNL A   1      34.849  24.178  25.287  1.00  0.00     0.255 C 
ATOM      5  O   UNL A   1      34.687  25.390  25.448  1.00  0.00    -0.269 OA
ATOM      6  H   UNL A   1      36.786  24.395  25.658  1.00  0.00     0.163 HD
BRANCH   4   7
ATOM      7  C   UNL A   1      33.772  23.328  24.803  1.00  0.00     0.090 A 
ATOM      8  C   UNL A   1      32.089  20.780  22.869  1.00  0.00     0.173 C 
ATOM      9  N   UNL A   1      32.539  21.834  23.748  1.00  0.00    -0.274 N 
ATOM     10  C   UNL A   1      33.766  22.422  23.758  1.00  0.00     0.123 A 
ATOM     11  N   UNL A   1      31.722  22.285  24.703  1.00  0.00    -0.167 NA
ATOM     12  C   UNL A   1      32.469  23.162  25.404  1.00  0.00     0.163 A 
BRANCH  12  13
ATOM     13  C   UNL A   1      31.940  23.729  26.659  1.00  0.00     0.276 C 
ATOM     14  O   UNL A   1      31.951  23.080  27.709  1.00  0.00    -0.267 OA
ATOM     15  N   UNL A   1      31.490  25.029  26.726  1.00  0.00    -0.321 N 
ATOM     16  H   UNL A   1      31.426  25.381  27.644  1.00  0.00     0.170 HD
BRANCH  15  17
ATOM     17  C   UNL A   1      31.108  25.946  25.740  1.00  0.00     0.041 A 
ATOM     18  C   UNL A   1      30.012  25.597  24.944  1.00  0.00     0.028 A 
ATOM     19  C   UNL A   1      31.764  27.152  25.502  1.00  0.00     0.028 A 
ATOM     20  C   UNL A   1      29.509  26.488  23.992  1.00  0.00     0.030 A 
ATOM     21  C   UNL A   1      31.288  28.036  24.521  1.00  0.00     0.030 A 
ATOM     22  C   UNL A   1      30.131  27.726  23.793  1.00  0.00     0.067 A 
BRANCH  22  23
ATOM     23  N   UNL A   1      29.550  28.659  22.893  1.00  0.00    -0.221 N 
ATOM     24  C   UNL A   1      30.170  29.529  22.028  1.00  0.00     0.225 A 
ATOM     25  N   UNL A   1      28.209  28.866  22.837  1.00  0.00    -0.155 NA
ATOM     26  N   UNL A   1      29.288  30.299  21.432  1.00  0.00    -0.223 NA
ATOM     27  C   UNL A   1      28.109  29.851  21.944  1.00  0.00     0.246 A 
ENDBRANCH  22  23
ENDBRANCH  15  17
ENDBRANCH  12  13
ENDBRANCH   4   7
ENDBRANCH   2   3
ENDBRANCH   1   2
BRANCH   1  28
ATOM     28  C   UNL A   1      37.817  20.319  24.616  1.00  0.00     0.023 C 
BRANCH  28  29
ATOM     29  C   UNL A   1      38.603  20.103  25.905  1.00  0.00     0.116 C 
BRANCH  29  30
ATOM     30  N   UNL A   1      39.810  19.323  25.727  1.00  0.00    -0.352 N 
ATOM     31  C   UNL A   1      41.116  19.615  26.030  1.00  0.00     0.251 C 
ATOM     32  H   UNL A   1      39.670  18.436  25.322  1.00  0.00     0.163 HD
ATOM     33  O   UNL A   1      41.979  18.785  25.751  1.00  0.00    -0.269 OA
BRANCH  31  34
ATOM     34  C   UNL A   1      41.521  20.906  26.642  1.00  0.00     0.039 A 
ATOM     35  C   UNL A   1      41.869  21.950  25.772  1.00  0.00     0.014 A 
ATOM     36  C   UNL A   1      41.625  21.105  28.023  1.00  0.00     0.014 A 
ATOM     37  C   UNL A   1      42.268  23.190  26.276  1.00  0.00     0.010 A 
ATOM     38  C   UNL A   1      41.991  22.356  28.529  1.00  0.00     0.010 A 
ATOM     39  C   UNL A   1      42.312  23.407  27.659  1.00  0.00    -0.014 A 
BRANCH  39  40
ATOM     40  C   UNL A   1      42.701  24.731  28.201  1.00  0.00     0.031 A 
ATOM     41  C   UNL A   1      41.660  25.777  28.472  1.00  0.00     0.074 A 
ATOM     42  C   UNL A   1      43.999  25.000  28.433  1.00  0.00     0.049 A 
ATOM     43  N   UNL A   1      41.821  27.017  28.857  1.00  0.00    -0.248 NA
ATOM     44  C   UNL A   1      40.258  25.382  28.271  1.00  0.00     0.031 C 
ATOM     45  C   UNL A   1      45.112  24.079  28.198  1.00  0.00     0.029 A 
ATOM     46  N   UNL A   1      44.597  26.133  28.920  1.00  0.00    -0.354 N 
ATOM     47  C   UNL A   1      40.547  27.565  28.903  1.00  0.00     0.074 A 
ATOM     48  C   UNL A   1      39.621  26.517  28.529  1.00  0.00     0.031 C 
ATOM     49  C   UNL A   1      46.258  24.678  28.565  1.00  0.00     0.029 A 
ATOM     50  C   UNL A   1      45.959  26.027  29.039  1.00  0.00     0.049 A 
ATOM     51  H   UNL A   1      44.096  26.946  29.162  1.00  0.00     0.167 HD
ATOM     52  C   UNL A   1      40.185  28.831  29.216  1.00  0.00     0.037 A 
ATOM     53  C   UNL A   1      46.865  26.918  29.479  1.00  0.00     0.037 A 
ATOM     54  C   UNL A   1      41.089  29.870  29.630  1.00  0.00     0.049 A 
ATOM     55  C   UNL A   1      46.427  28.283  29.911  1.00  0.00     0.074 A 
ATOM     56  C   UNL A   1      40.805  31.186  29.953  1.00  0.00     0.029 A 
ATOM     57  N   UNL A   1      42.453  29.700  29.799  1.00  0.00    -0.354 N 
ATOM     58  N   UNL A   1      45.224  28.801  29.906  1.00  0.00    -0.248 NA
ATOM     59  C   UNL A   1      47.474  29.190  30.403  1.00  0.00     0.031 C 
ATOM     60  C   UNL A   1      42.001  31.811  30.331  1.00  0.00     0.029 A 
ATOM     61  C   UNL A   1      43.024  30.881  30.239  1.00  0.00     0.049 A 
ATOM     62  H   UNL A   1      42.942  28.864  29.631  1.00  0.00     0.167 HD
ATOM     63  C   UNL A   1      45.368  30.096  30.379  1.00  0.00     0.074 A 
ATOM     64  C   UNL A   1      46.774  30.284  30.677  1.00  0.00     0.031 C 
ATOM     65  C   UNL A   1      44.420  31.049  30.539  1.00  0.00     0.037 A 
BRANCH  52  66
ATOM     66  C   UNL A   1      38.733  29.163  29.103  1.00  0.00     0.057 A 
ATOM     67  C   UNL A   1      37.877  29.075  30.205  1.00  0.00     0.134 A 
ATOM     68  C   UNL A   1      38.192  29.589  27.884  1.00  0.00     0.134 A 
ATOM     69  F   UNL A   1      38.338  28.658  31.394  1.00  0.00    -0.206 F 
ATOM     70  C   UNL A   1      36.523  29.397  30.098  1.00  0.00     0.040 A 
ATOM     71  C   UNL A   1      36.842  29.917  27.765  1.00  0.00     0.040 A 
ATOM     72  F   UNL A   1      38.966  29.684  26.792  1.00  0.00    -0.206 F 
ATOM     73  C   UNL A   1      36.004  29.821  28.875  1.00  0.00     0.006 A 
ENDBRANCH  52  66
BRANCH  53  74
ATOM     74  C   UNL A   1      48.292  26.538  29.530  1.00  0.00     0.057 A 
ATOM     75  C   UNL A   1      49.154  26.844  28.473  1.00  0.00     0.134 A 
ATOM     76  C   UNL A   1      48.823  25.872  30.638  1.00  0.00     0.134 A 
ATOM     77  F   UNL A   1      48.689  27.471  27.382  1.00  0.00    -0.206 F 
ATOM     78  C   UNL A   1      50.503  26.497  28.514  1.00  0.00     0.040 A 
ATOM     79  C   UNL A   1      50.172  25.523  30.695  1.00  0.00     0.040 A 
ATOM     80  F   UNL A   1      48.036  25.551  31.675  1.00  0.00    -0.206 F 
ATOM     81  C   UNL A   1      51.016  25.836  29.630  1.00  0.00     0.006 A 
ENDBRANCH  53  74
BRANCH  65  82
ATOM     82  C   UNL A   1      44.877  32.375  31.053  1.00  0.00     0.057 A 
ATOM     83  C   UNL A   1      45.271  33.390  30.175  1.00  0.00     0.134 A 
ATOM     84  C   UNL A   1      44.906  32.645  32.425  1.00  0.00     0.134 A 
ATOM     85  F   UNL A   1      45.272  33.181  28.850  1.00  0.00    -0.206 F 
ATOM     86  C   UNL A   1      45.684  34.637  30.646  1.00  0.00     0.040 A 
ATOM     87  C   UNL A   1      45.317  33.888  32.909  1.00  0.00     0.040 A 
ATOM     88  F   UNL A   1      44.549  31.706  33.312  1.00  0.00    -0.206 F 
ATOM     89  C   UNL A   1      45.707  34.888  32.018  1.00  0.00     0.006 A 
ENDBRANCH  65  82
ENDBRANCH  39  40
ENDBRANCH  31  34
ENDBRANCH  29  30
ENDBRANCH  28  29
ENDBRANCH   1  28
TORSDOF 14
ENDMDL
MODEL 3
REMARK VINA RESULT:     -12.2      3.556      7.043
REMARK SMILES Cn1cc(C(=O)NCCCCNC(=O)c2ccc(-c3c4nc(c(-c5c(F)cccc5F)c5ccc([nH]5)c(-c5c(F)cccc5F)c5nc(c(-c6c(F)cccc6F)c6ccc3[nH]6)C=C5)C=C4)cc2)c(C(=O)Nc2ccc(-n3cncn3)cc2)n1
REMARK SMILES IDX 9 1 8 2 7 3 5 4 6 5 4 7 1 8 2 9 3 10 84 11 69 12 70 13 71 14
REMARK SMILES IDX 72 15 73 17 74 18 83 19 75 20 82 21 76 22 77 23 78 24 81 25
REMARK SMILES IDX 79 26 80 27 10 28 11 29 12 30 13 31 14 33 15 34 16 35 68 36
REMARK SMILES IDX 17 37 67 38 18 39 19 40 20 41 61 42 21 43 66 44 60 45 62 46
REMARK SMILES IDX 22 47 65 48 59 49 58 50 23 52 49 53 32 54 48 55 33 56 36 57
REMARK SMILES IDX 47 58 63 59 34 60 35 61 46 63 64 64 37 65 24 66 25 67 30 68
REMARK SMILES IDX 26 69 27 70 29 71 31 72 28 73 50 74 51 75 56 76 52 77 53 78
REMARK SMILES IDX 55 79 57 80 54 81 38 82 39 83 44 84 40 85 41 86 43 87 45 88
REMARK SMILES IDX 42 89
REMARK H PARENT 7 6 72 16 12 32 62 51 36 62
REMARK Flexibility Score: inf
ROOT
ATOM      1  C   UNL A   1      37.991  22.396  25.643  1.00  0.00     0.023 C 
ENDROOT
BRANCH   1   2
ATOM      2  C   UNL A   1      36.494  22.556  25.906  1.00  0.00     0.116 C 
BRANCH   2   3
ATOM      3  N   UNL A   1      35.961  23.891  25.728  1.00  0.00    -0.352 N 
ATOM      4  C   UNL A   1      34.714  24.363  25.400  1.00  0.00     0.255 C 
ATOM      5  O   UNL A   1      34.527  25.571  25.561  1.00  0.00    -0.269 OA
ATOM      6  H   UNL A   1      36.626  24.603  25.871  1.00  0.00     0.163 HD
BRANCH   4   7
ATOM      7  C   UNL A   1      33.674  23.503  24.856  1.00  0.00     0.090 A 
ATOM      8  C   UNL A   1      32.126  20.950  22.817  1.00  0.00     0.173 C 
ATOM      9  N   UNL A   1      32.517  22.001  23.727  1.00  0.00    -0.274 N 
ATOM     10  C   UNL A   1      33.733  22.607  23.803  1.00  0.00     0.123 A 
ATOM     11  N   UNL A   1      31.648  22.431  24.644  1.00  0.00    -0.167 NA
ATOM     12  C   UNL A   1      32.346  23.312  25.389  1.00  0.00     0.163 A 
BRANCH  12  13
ATOM     13  C   UNL A   1      31.747  23.859  26.621  1.00  0.00     0.276 C 
ATOM     14  O   UNL A   1      31.726  23.204  27.668  1.00  0.00    -0.267 OA
ATOM     15  N   UNL A   1      31.264  25.147  26.675  1.00  0.00    -0.321 N 
ATOM     16  H   UNL A   1      31.149  25.492  27.590  1.00  0.00     0.170 HD
BRANCH  15  17
ATOM     17  C   UNL A   1      30.904  26.060  25.676  1.00  0.00     0.041 A 
ATOM     18  C   UNL A   1      29.788  25.738  24.898  1.00  0.00     0.028 A 
ATOM     19  C   UNL A   1      31.601  27.238  25.411  1.00  0.00     0.028 A 
ATOM     20  C   UNL A   1      29.307  26.630  23.936  1.00  0.00     0.030 A 
ATOM     21  C   UNL A   1      31.147  28.121  24.420  1.00  0.00     0.030 A 
ATOM     22  C   UNL A   1      29.971  27.842  23.709  1.00  0.00     0.067 A 
BRANCH  22  23
ATOM     23  N   UNL A   1      29.415  28.779  22.799  1.00  0.00    -0.221 N 
ATOM     24  C   UNL A   1      30.058  29.648  21.949  1.00  0.00     0.225 A 
ATOM     25  N   UNL A   1      28.077  28.994  22.715  1.00  0.00    -0.155 NA
ATOM     26  N   UNL A   1      29.193  30.423  21.336  1.00  0.00    -0.223 NA
ATOM     27  C   UNL A   1      28.001  29.981  21.822  1.00  0.00     0.246 A 
ENDBRANCH  22  23
ENDBRANCH  15  17
ENDBRANCH  12  13
ENDBRANCH   4   7
ENDBRANCH   2   3
ENDBRANCH   1   2
BRANCH   1  28
ATOM     28  C   UNL A   1      38.431  21.077  25.004  1.00  0.00     0.023 C 
BRANCH  28  29
ATOM     29  C   UNL A   1      38.645  19.887  25.934  1.00  0.00     0.116 C 
BRANCH  29  30
ATOM     30  N   UNL A   1      39.902  19.201  25.720  1.00  0.00    -0.352 N 
ATOM     31  C   UNL A   1      41.190  19.591  25.990  1.00  0.00     0.251 C 
ATOM     32  H   UNL A   1      39.820  18.308  25.314  1.00  0.00     0.163 HD
ATOM     33  O   UNL A   1      42.106  18.830  25.684  1.00  0.00    -0.269 OA
BRANCH  31  34
ATOM     34  C   UNL A   1      41.512  20.907  26.599  1.00  0.00     0.039 A 
ATOM     35  C   UNL A   1      41.974  21.916  25.741  1.00  0.00     0.014 A 
ATOM     36  C   UNL A   1      41.434  21.160  27.972  1.00  0.00     0.014 A 
ATOM     37  C   UNL A   1      42.304  23.178  26.243  1.00  0.00     0.010 A 
ATOM     38  C   UNL A   1      41.730  22.433  28.471  1.00  0.00     0.010 A 
ATOM     39  C   UNL A   1      42.165  23.449  27.610  1.00  0.00    -0.014 A 
BRANCH  39  40
ATOM     40  C   UNL A   1      42.480  24.795  28.145  1.00  0.00     0.031 A 
ATOM     41  C   UNL A   1      43.888  25.159  28.511  1.00  0.00     0.074 A 
ATOM     42  C   UNL A   1      41.490  25.690  28.321  1.00  0.00     0.049 A 
ATOM     43  N   UNL A   1      44.336  26.250  29.076  1.00  0.00    -0.248 NA
ATOM     44  C   UNL A   1      44.926  24.160  28.215  1.00  0.00     0.031 C 
ATOM     45  C   UNL A   1      40.075  25.460  28.021  1.00  0.00     0.029 A 
ATOM     46  N   UNL A   1      41.528  26.976  28.795  1.00  0.00    -0.354 N 
ATOM     47  C   UNL A   1      45.699  26.055  29.246  1.00  0.00     0.074 A 
ATOM     48  C   UNL A   1      46.011  24.749  28.703  1.00  0.00     0.031 C 
ATOM     49  C   UNL A   1      39.384  26.579  28.297  1.00  0.00     0.029 A 
ATOM     50  C   UNL A   1      40.303  27.591  28.811  1.00  0.00     0.049 A 
ATOM     51  H   UNL A   1      42.357  27.414  29.096  1.00  0.00     0.167 HD
ATOM     52  C   UNL A   1      46.606  26.883  29.814  1.00  0.00     0.037 A 
ATOM     53  C   UNL A   1      39.959  28.832  29.198  1.00  0.00     0.037 A 
ATOM     54  C   UNL A   1      46.319  28.199  30.319  1.00  0.00     0.049 A 
ATOM     55  C   UNL A   1      40.999  29.766  29.736  1.00  0.00     0.074 A 
ATOM     56  C   UNL A   1      47.179  29.101  30.923  1.00  0.00     0.029 A 
ATOM     57  N   UNL A   1      45.077  28.809  30.256  1.00  0.00    -0.354 N 
ATOM     58  N   UNL A   1      42.277  29.550  29.931  1.00  0.00    -0.248 NA
ATOM     59  C   UNL A   1      40.549  31.114  30.114  1.00  0.00     0.031 C 
ATOM     60  C   UNL A   1      46.456  30.265  31.216  1.00  0.00     0.029 A 
ATOM     61  C   UNL A   1      45.149  30.082  30.793  1.00  0.00     0.049 A 
ATOM     62  H   UNL A   1      44.265  28.398  29.883  1.00  0.00     0.167 HD
ATOM     63  C   UNL A   1      42.780  30.726  30.466  1.00  0.00     0.074 A 
ATOM     64  C   UNL A   1      41.676  31.660  30.552  1.00  0.00     0.031 C 
ATOM     65  C   UNL A   1      44.046  31.000  30.864  1.00  0.00     0.037 A 
BRANCH  52  66
ATOM     66  C   UNL A   1      48.005  26.372  29.932  1.00  0.00     0.057 A 
ATOM     67  C   UNL A   1      48.449  25.726  31.090  1.00  0.00     0.134 A 
ATOM     68  C   UNL A   1      48.908  26.516  28.873  1.00  0.00     0.134 A 
ATOM     69  F   UNL A   1      47.630  25.573  32.142  1.00  0.00    -0.206 F 
ATOM     70  C   UNL A   1      49.753  25.239  31.192  1.00  0.00     0.040 A 
ATOM     71  C   UNL A   1      50.213  26.031  28.961  1.00  0.00     0.040 A 
ATOM     72  F   UNL A   1      48.538  27.136  27.742  1.00  0.00    -0.206 F 
ATOM     73  C   UNL A   1      50.638  25.391  30.124  1.00  0.00     0.006 A 
ENDBRANCH  52  66
BRANCH  53  74
ATOM     74  C   UNL A   1      38.551  29.264  29.089  1.00  0.00     0.057 A 
ATOM     75  C   UNL A   1      38.027  29.703  27.869  1.00  0.00     0.134 A 
ATOM     76  C   UNL A   1      37.700  29.239  30.197  1.00  0.00     0.134 A 
ATOM     77  F   UNL A   1      38.808  29.758  26.780  1.00  0.00    -0.206 F 
ATOM     78  C   UNL A   1      36.698  30.106  27.754  1.00  0.00     0.040 A 
ATOM     79  C   UNL A   1      36.366  29.634  30.095  1.00  0.00     0.040 A 
ATOM     80  F   UNL A   1      38.155  28.831  31.391  1.00  0.00    -0.206 F 
ATOM     81  C   UNL A   1      35.863  30.070  28.870  1.00  0.00     0.006 A 
ENDBRANCH  53  74
BRANCH  65  82
ATOM     82  C   UNL A   1      44.294  32.360  31.430  1.00  0.00     0.057 A 
ATOM     83  C   UNL A   1      44.659  33.428  30.603  1.00  0.00     0.134 A 
ATOM     84  C   UNL A   1      44.151  32.608  32.799  1.00  0.00     0.134 A 
ATOM     85  F   UNL A   1      44.819  33.243  29.284  1.00  0.00    -0.206 F 
ATOM     86  C   UNL A   1      44.877  34.705  31.122  1.00  0.00     0.040 A 
ATOM     87  C   UNL A   1      44.366  33.881  33.330  1.00  0.00     0.040 A 
ATOM     88  F   UNL A   1      43.813  31.619  33.639  1.00  0.00    -0.206 F 
ATOM     89  C   UNL A   1      44.730  34.934  32.490  1.00  0.00     0.006 A 
ENDBRANCH  65  82
ENDBRANCH  39  40
ENDBRANCH  31  34
ENDBRANCH  29  30
ENDBRANCH  28  29
ENDBRANCH   1  28
TORSDOF 14
ENDMDL
