MODEL 1
REMARK VINA RESULT:      -9.7      0.000      0.000
REMARK SMILES Nc1cc(C(=O)NCCCCNC(=O)c2ccc(-c3c4nc(c(-c5c(F)cccc5F)c5ccc([nH]5)c(-c5c(F)cccc5F)c5nc(c(-c6c(F)cccc6F)c6ccc3[nH]6)C=C5)C=C4)cc2)nc2ccccc12
REMARK SMILES IDX 10 1 9 2 8 3 7 4 5 5 6 6 4 8 2 9 3 10 75 11 70 12 74 13
REMARK SMILES IDX 69 14 71 15 73 16 72 17 1 18 11 21 12 22 13 23 14 25 15 26
REMARK SMILES IDX 16 27 68 28 17 29 67 30 18 31 19 32 20 33 61 34 21 35 66 36
REMARK SMILES IDX 60 37 62 38 22 39 65 40 59 41 58 42 23 44 49 45 32 46 48 47
REMARK SMILES IDX 33 48 36 49 47 50 63 51 34 52 35 53 46 55 64 56 37 57 24 58
REMARK SMILES IDX 25 59 30 60 26 61 27 62 29 63 31 64 28 65 50 66 51 67 56 68
REMARK SMILES IDX 52 69 53 70 55 71 57 72 54 73 38 74 39 75 44 76 40 77 41 78
REMARK SMILES IDX 43 79 45 80 42 81
REMARK H PARENT 7 7 1 19 1 20 12 24 62 43 36 54
REMARK Flexibility Score: inf
ROOT
ATOM      1  C   UNL A   1      45.030  20.664  24.363  1.00  0.00     0.023 C 
ENDROOT
BRANCH   1   2
ATOM      2  C   UNL A   1      46.160  21.662  24.622  1.00  0.00     0.023 C 
BRANCH   2   3
ATOM      3  C   UNL A   1      45.701  23.105  24.853  1.00  0.00     0.116 C 
BRANCH   3   4
ATOM      4  N   UNL A   1      46.821  24.021  24.833  1.00  0.00    -0.351 N 
ATOM      5  C   UNL A   1      46.934  25.373  25.078  1.00  0.00     0.269 C 
ATOM      6  O   UNL A   1      48.079  25.828  25.006  1.00  0.00    -0.268 OA
ATOM      7  H   UNL A   1      47.676  23.592  24.596  1.00  0.00     0.163 HD
BRANCH   5   8
ATOM      8  C   UNL A   1      45.783  26.288  25.431  1.00  0.00     0.130 A 
ATOM      9  C   UNL A   1      43.467  26.946  25.535  1.00  0.00     0.043 A 
ATOM     10  C   UNL A   1      44.453  26.035  25.146  1.00  0.00     0.060 A 
ATOM     11  C   UNL A   1      43.864  28.170  26.117  1.00  0.00     0.023 A 
ATOM     12  C   UNL A   1      45.244  28.362  26.338  1.00  0.00     0.073 A 
ATOM     13  C   UNL A   1      42.967  29.204  26.481  1.00  0.00     0.012 A 
ATOM     14  N   UNL A   1      46.167  27.442  26.027  1.00  0.00    -0.242 NA
ATOM     15  C   UNL A   1      45.677  29.557  26.892  1.00  0.00     0.029 A 
ATOM     16  C   UNL A   1      43.428  30.395  27.038  1.00  0.00     0.001 A 
ATOM     17  C   UNL A   1      44.788  30.575  27.242  1.00  0.00     0.002 A 
BRANCH   9  18
ATOM     18  N   UNL A   1      42.142  26.661  25.198  1.00  0.00    -0.398 N 
ATOM     19  H   UNL A   1      41.925  26.318  24.301  1.00  0.00     0.156 HD
ATOM     20  H   UNL A   1      41.425  26.804  25.857  1.00  0.00     0.156 HD
ENDBRANCH   9  18
ENDBRANCH   5   8
ENDBRANCH   3   4
ENDBRANCH   2   3
ENDBRANCH   1   2
BRANCH   1  21
ATOM     21  C   UNL A   1      44.674  19.779  25.551  1.00  0.00     0.116 C 
BRANCH  21  22
ATOM     22  N   UNL A   1      43.405  19.081  25.408  1.00  0.00    -0.352 N 
ATOM     23  C   UNL A   1      42.156  19.511  25.800  1.00  0.00     0.251 C 
ATOM     24  H   UNL A   1      43.444  18.194  24.981  1.00  0.00     0.163 HD
ATOM     25  O   UNL A   1      41.178  18.783  25.691  1.00  0.00    -0.269 OA
BRANCH  23  26
ATOM     26  C   UNL A   1      42.034  20.846  26.419  1.00  0.00     0.039 A 
ATOM     27  C   UNL A   1      42.038  21.995  25.627  1.00  0.00     0.014 A 
ATOM     28  C   UNL A   1      42.020  20.942  27.813  1.00  0.00     0.014 A 
ATOM     29  C   UNL A   1      42.207  23.237  26.225  1.00  0.00     0.010 A 
ATOM     30  C   UNL A   1      42.117  22.198  28.414  1.00  0.00     0.010 A 
ATOM     31  C   UNL A   1      42.275  23.348  27.624  1.00  0.00    -0.014 A 
BRANCH  31  32
ATOM     32  C   UNL A   1      42.570  24.666  28.239  1.00  0.00     0.031 A 
ATOM     33  C   UNL A   1      43.980  25.029  28.617  1.00  0.00     0.074 A 
ATOM     34  C   UNL A   1      41.576  25.560  28.399  1.00  0.00     0.049 A 
ATOM     35  N   UNL A   1      44.431  26.126  29.173  1.00  0.00    -0.248 NA
ATOM     36  C   UNL A   1      45.023  24.029  28.338  1.00  0.00     0.031 C 
ATOM     37  C   UNL A   1      40.174  25.336  28.045  1.00  0.00     0.029 A 
ATOM     38  N   UNL A   1      41.601  26.844  28.878  1.00  0.00    -0.354 N 
ATOM     39  C   UNL A   1      45.798  25.939  29.331  1.00  0.00     0.074 A 
ATOM     40  C   UNL A   1      46.104  24.615  28.832  1.00  0.00     0.031 C 
ATOM     41  C   UNL A   1      39.480  26.461  28.280  1.00  0.00     0.029 A 
ATOM     42  C   UNL A   1      40.375  27.461  28.850  1.00  0.00     0.049 A 
ATOM     43  H   UNL A   1      42.419  27.281  29.210  1.00  0.00     0.167 HD
ATOM     44  C   UNL A   1      46.718  26.795  29.838  1.00  0.00     0.037 A 
ATOM     45  C   UNL A   1      40.013  28.692  29.253  1.00  0.00     0.037 A 
ATOM     46  C   UNL A   1      46.421  28.122  30.308  1.00  0.00     0.049 A 
ATOM     47  C   UNL A   1      41.044  29.606  29.846  1.00  0.00     0.074 A 
ATOM     48  C   UNL A   1      47.287  29.071  30.823  1.00  0.00     0.029 A 
ATOM     49  N   UNL A   1      45.157  28.692  30.313  1.00  0.00    -0.354 N 
ATOM     50  N   UNL A   1      42.330  29.409  30.003  1.00  0.00    -0.248 NA
ATOM     51  C   UNL A   1      40.569  30.909  30.330  1.00  0.00     0.031 C 
ATOM     52  C   UNL A   1      46.541  30.205  31.166  1.00  0.00     0.029 A 
ATOM     53  C   UNL A   1      45.216  29.973  30.836  1.00  0.00     0.049 A 
ATOM     54  H   UNL A   1      44.338  28.250  29.992  1.00  0.00     0.167 HD
ATOM     55  C   UNL A   1      42.819  30.563  30.598  1.00  0.00     0.074 A 
ATOM     56  C   UNL A   1      41.696  31.465  30.753  1.00  0.00     0.031 C 
ATOM     57  C   UNL A   1      44.085  30.851  30.988  1.00  0.00     0.037 A 
BRANCH  44  58
ATOM     58  C   UNL A   1      48.135  26.312  29.925  1.00  0.00     0.057 A 
ATOM     59  C   UNL A   1      48.601  25.673  31.081  1.00  0.00     0.134 A 
ATOM     60  C   UNL A   1      49.047  26.501  28.879  1.00  0.00     0.134 A 
ATOM     61  F   UNL A   1      47.778  25.463  32.120  1.00  0.00    -0.206 F 
ATOM     62  C   UNL A   1      49.923  25.240  31.194  1.00  0.00     0.040 A 
ATOM     63  C   UNL A   1      50.367  26.056  28.972  1.00  0.00     0.040 A 
ATOM     64  F   UNL A   1      48.658  27.092  27.739  1.00  0.00    -0.206 F 
ATOM     65  C   UNL A   1      50.809  25.427  30.135  1.00  0.00     0.006 A 
ENDBRANCH  44  58
BRANCH  45  66
ATOM     66  C   UNL A   1      38.601  29.125  29.121  1.00  0.00     0.057 A 
ATOM     67  C   UNL A   1      37.720  29.074  30.208  1.00  0.00     0.134 A 
ATOM     68  C   UNL A   1      38.103  29.603  27.905  1.00  0.00     0.134 A 
ATOM     69  F   UNL A   1      38.139  28.622  31.399  1.00  0.00    -0.206 F 
ATOM     70  C   UNL A   1      36.389  29.470  30.086  1.00  0.00     0.040 A 
ATOM     71  C   UNL A   1      36.780  30.025  27.774  1.00  0.00     0.040 A 
ATOM     72  F   UNL A   1      38.909  29.693  26.836  1.00  0.00    -0.206 F 
ATOM     73  C   UNL A   1      35.917  29.954  28.866  1.00  0.00     0.006 A 
ENDBRANCH  45  66
BRANCH  57  74
ATOM     74  C   UNL A   1      44.311  32.195  31.606  1.00  0.00     0.057 A 
ATOM     75  C   UNL A   1      44.634  33.303  30.812  1.00  0.00     0.134 A 
ATOM     76  C   UNL A   1      44.215  32.391  32.988  1.00  0.00     0.134 A 
ATOM     77  F   UNL A   1      44.744  33.178  29.480  1.00  0.00    -0.206 F 
ATOM     78  C   UNL A   1      44.850  34.561  31.374  1.00  0.00     0.040 A 
ATOM     79  C   UNL A   1      44.410  33.649  33.560  1.00  0.00     0.040 A 
ATOM     80  F   UNL A   1      43.892  31.372  33.798  1.00  0.00    -0.206 F 
ATOM     81  C   UNL A   1      44.732  34.738  32.751  1.00  0.00     0.006 A 
ENDBRANCH  57  74
ENDBRANCH  31  32
ENDBRANCH  23  26
ENDBRANCH  21  22
ENDBRANCH   1  21
TORSDOF 12
ENDMDL
MODEL 2
REMARK VINA RESULT:      -9.1      4.711     10.566
REMARK SMILES Nc1cc(C(=O)NCCCCNC(=O)c2ccc(-c3c4nc(c(-c5c(F)cccc5F)c5ccc([nH]5)c(-c5c(F)cccc5F)c5nc(c(-c6c(F)cccc6F)c6ccc3[nH]6)C=C5)C=C4)cc2)nc2ccccc12
REMARK SMILES IDX 10 1 9 2 8 3 7 4 5 5 6 6 4 8 2 9 3 10 75 11 70 12 74 13
REMARK SMILES IDX 69 14 71 15 73 16 72 17 1 18 11 21 12 22 13 23 14 25 15 26
REMARK SMILES IDX 16 27 68 28 17 29 67 30 18 31 19 32 20 33 61 34 21 35 66 36
REMARK SMILES IDX 60 37 62 38 22 39 65 40 59 41 58 42 23 44 49 45 32 46 48 47
REMARK SMILES IDX 33 48 36 49 47 50 63 51 34 52 35 53 46 55 64 56 37 57 24 58
REMARK SMILES IDX 25 59 30 60 26 61 27 62 29 63 31 64 28 65 50 66 51 67 56 68
REMARK SMILES IDX 52 69 53 70 55 71 57 72 54 73 38 74 39 75 44 76 40 77 41 78
REMARK SMILES IDX 43 79 45 80 42 81
REMARK H PARENT 7 7 1 19 1 20 12 24 62 43 36 54
REMARK Flexibility Score: inf
ROOT
ATOM      1  C   UNL A   1      33.406  34.917  32.755  1.00  0.00     0.023 C 
ENDROOT
BRANCH   1   2
ATOM      2  C   UNL A   1      34.294  33.723  33.114  1.00  0.00     0.023 C 
BRANCH   2   3
ATOM      3  C   UNL A   1      35.792  34.034  33.176  1.00  0.00     0.116 C 
BRANCH   3   4
ATOM      4  N   UNL A   1      36.251  34.132  34.545  1.00  0.00    -0.351 N 
ATOM      5  C   UNL A   1      37.181  33.426  35.276  1.00  0.00     0.269 C 
ATOM      6  O   UNL A   1      37.349  33.818  36.435  1.00  0.00    -0.268 OA
ATOM      7  H   UNL A   1      35.809  34.848  35.057  1.00  0.00     0.163 HD
BRANCH   5   8
ATOM      8  C   UNL A   1      37.986  32.256  34.756  1.00  0.00     0.130 A 
ATOM      9  C   UNL A   1      39.976  30.928  34.470  1.00  0.00     0.043 A 
ATOM     10  C   UNL A   1      39.335  32.056  34.988  1.00  0.00     0.060 A 
ATOM     11  C   UNL A   1      39.251  30.064  33.620  1.00  0.00     0.023 A 
ATOM     12  C   UNL A   1      37.888  30.362  33.407  1.00  0.00     0.073 A 
ATOM     13  C   UNL A   1      39.809  28.934  32.973  1.00  0.00     0.012 A 
ATOM     14  N   UNL A   1      37.274  31.408  33.975  1.00  0.00    -0.242 NA
ATOM     15  C   UNL A   1      37.145  29.549  32.565  1.00  0.00     0.029 A 
ATOM     16  C   UNL A   1      39.039  28.131  32.133  1.00  0.00     0.001 A 
ATOM     17  C   UNL A   1      37.703  28.441  31.925  1.00  0.00     0.002 A 
BRANCH   9  18
ATOM     18  N   UNL A   1      41.346  30.786  34.706  1.00  0.00    -0.398 N 
ATOM     19  H   UNL A   1      41.665  30.479  35.585  1.00  0.00     0.156 HD
ATOM     20  H   UNL A   1      41.991  30.992  33.993  1.00  0.00     0.156 HD
ENDBRANCH   9  18
ENDBRANCH   5   8
ENDBRANCH   3   4
ENDBRANCH   2   3
ENDBRANCH   1   2
BRANCH   1  21
ATOM     21  C   UNL A   1      33.814  35.658  31.487  1.00  0.00     0.116 C 
BRANCH  21  22
ATOM     22  N   UNL A   1      32.974  35.362  30.335  1.00  0.00    -0.352 N 
ATOM     23  C   UNL A   1      33.252  34.517  29.282  1.00  0.00     0.251 C 
ATOM     24  H   UNL A   1      32.105  35.821  30.303  1.00  0.00     0.163 HD
ATOM     25  O   UNL A   1      32.486  34.422  28.334  1.00  0.00    -0.269 OA
BRANCH  23  26
ATOM     26  C   UNL A   1      34.531  33.778  29.293  1.00  0.00     0.039 A 
ATOM     27  C   UNL A   1      34.637  32.559  29.965  1.00  0.00     0.014 A 
ATOM     28  C   UNL A   1      35.654  34.369  28.710  1.00  0.00     0.014 A 
ATOM     29  C   UNL A   1      35.894  32.019  30.207  1.00  0.00     0.010 A 
ATOM     30  C   UNL A   1      36.909  33.786  28.892  1.00  0.00     0.010 A 
ATOM     31  C   UNL A   1      37.044  32.641  29.695  1.00  0.00    -0.014 A 
BRANCH  31  32
ATOM     32  C   UNL A   1      38.383  32.115  30.059  1.00  0.00     0.031 A 
ATOM     33  C   UNL A   1      38.872  30.816  29.478  1.00  0.00     0.074 A 
ATOM     34  C   UNL A   1      39.182  32.837  30.865  1.00  0.00     0.049 A 
ATOM     35  N   UNL A   1      40.005  30.192  29.685  1.00  0.00    -0.248 NA
ATOM     36  C   UNL A   1      37.971  30.124  28.542  1.00  0.00     0.031 C 
ATOM     37  C   UNL A   1      38.833  34.123  31.469  1.00  0.00     0.029 A 
ATOM     38  N   UNL A   1      40.463  32.602  31.295  1.00  0.00    -0.354 N 
ATOM     39  C   UNL A   1      39.943  29.028  28.928  1.00  0.00     0.074 A 
ATOM     40  C   UNL A   1      38.654  29.019  28.272  1.00  0.00     0.031 C 
ATOM     41  C   UNL A   1      39.889  34.585  32.157  1.00  0.00     0.029 A 
ATOM     42  C   UNL A   1      40.966  33.604  32.086  1.00  0.00     0.049 A 
ATOM     43  H   UNL A   1      40.972  31.793  31.058  1.00  0.00     0.167 HD
ATOM     44  C   UNL A   1      40.879  28.059  28.787  1.00  0.00     0.037 A 
ATOM     45  C   UNL A   1      42.159  33.711  32.700  1.00  0.00     0.037 A 
ATOM     46  C   UNL A   1      42.173  28.080  29.415  1.00  0.00     0.049 A 
ATOM     47  C   UNL A   1      43.162  32.605  32.556  1.00  0.00     0.074 A 
ATOM     48  C   UNL A   1      43.197  27.152  29.318  1.00  0.00     0.029 A 
ATOM     49  N   UNL A   1      42.625  29.087  30.254  1.00  0.00    -0.354 N 
ATOM     50  N   UNL A   1      43.083  31.504  31.850  1.00  0.00    -0.248 NA
ATOM     51  C   UNL A   1      44.416  32.752  33.308  1.00  0.00     0.031 C 
ATOM     52  C   UNL A   1      44.257  27.585  30.123  1.00  0.00     0.029 A 
ATOM     53  C   UNL A   1      43.906  28.797  30.695  1.00  0.00     0.049 A 
ATOM     54  H   UNL A   1      42.111  29.889  30.500  1.00  0.00     0.167 HD
ATOM     55  C   UNL A   1      44.276  30.829  32.066  1.00  0.00     0.074 A 
ATOM     56  C   UNL A   1      45.071  31.656  32.951  1.00  0.00     0.031 C 
ATOM     57  C   UNL A   1      44.677  29.629  31.580  1.00  0.00     0.037 A 
BRANCH  44  58
ATOM     58  C   UNL A   1      40.526  26.882  27.926  1.00  0.00     0.057 A 
ATOM     59  C   UNL A   1      39.693  25.867  28.413  1.00  0.00     0.134 A 
ATOM     60  C   UNL A   1      41.031  26.737  26.628  1.00  0.00     0.134 A 
ATOM     61  F   UNL A   1      39.179  25.944  29.650  1.00  0.00    -0.206 F 
ATOM     62  C   UNL A   1      39.375  24.749  27.640  1.00  0.00     0.040 A 
ATOM     63  C   UNL A   1      40.705  25.634  25.837  1.00  0.00     0.040 A 
ATOM     64  F   UNL A   1      41.821  27.683  26.097  1.00  0.00    -0.206 F 
ATOM     65  C   UNL A   1      39.878  24.633  26.345  1.00  0.00     0.006 A 
ENDBRANCH  44  58
BRANCH  45  66
ATOM     66  C   UNL A   1      42.462  34.909  33.519  1.00  0.00     0.057 A 
ATOM     67  C   UNL A   1      43.018  36.060  32.949  1.00  0.00     0.134 A 
ATOM     68  C   UNL A   1      42.199  34.928  34.893  1.00  0.00     0.134 A 
ATOM     69  F   UNL A   1      43.294  36.100  31.637  1.00  0.00    -0.206 F 
ATOM     70  C   UNL A   1      43.314  37.185  33.718  1.00  0.00     0.040 A 
ATOM     71  C   UNL A   1      42.470  36.054  35.671  1.00  0.00     0.040 A 
ATOM     72  F   UNL A   1      41.649  33.860  35.489  1.00  0.00    -0.206 F 
ATOM     73  C   UNL A   1      43.034  37.185  35.083  1.00  0.00     0.006 A 
ENDBRANCH  45  66
BRANCH  57  74
ATOM     74  C   UNL A   1      46.036  29.156  31.993  1.00  0.00     0.057 A 
ATOM     75  C   UNL A   1      46.203  28.372  33.141  1.00  0.00     0.134 A 
ATOM     76  C   UNL A   1      47.180  29.482  31.255  1.00  0.00     0.134 A 
ATOM     77  F   UNL A   1      45.145  28.028  33.891  1.00  0.00    -0.206 F 
ATOM     78  C   UNL A   1      47.464  27.926  33.539  1.00  0.00     0.040 A 
ATOM     79  C   UNL A   1      48.444  29.026  31.633  1.00  0.00     0.040 A 
ATOM     80  F   UNL A   1      47.081  30.216  30.136  1.00  0.00    -0.206 F 
ATOM     81  C   UNL A   1      48.588  28.248  32.780  1.00  0.00     0.006 A 
ENDBRANCH  57  74
ENDBRANCH  31  32
ENDBRANCH  23  26
ENDBRANCH  21  22
ENDBRANCH   1  21
TORSDOF 12
ENDMDL
MODEL 3
REMARK VINA RESULT:      -9.0      0.579      6.418
REMARK SMILES Nc1cc(C(=O)NCCCCNC(=O)c2ccc(-c3c4nc(c(-c5c(F)cccc5F)c5ccc([nH]5)c(-c5c(F)cccc5F)c5nc(c(-c6c(F)cccc6F)c6ccc3[nH]6)C=C5)C=C4)cc2)nc2ccccc12
REMARK SMILES IDX 10 1 9 2 8 3 7 4 5 5 6 6 4 8 2 9 3 10 75 11 70 12 74 13
REMARK SMILES IDX 69 14 71 15 73 16 72 17 1 18 11 21 12 22 13 23 14 25 15 26
REMARK SMILES IDX 16 27 68 28 17 29 67 30 18 31 19 32 20 33 61 34 21 35 66 36
REMARK SMILES IDX 60 37 62 38 22 39 65 40 59 41 58 42 23 44 49 45 32 46 48 47
REMARK SMILES IDX 33 48 36 49 47 50 63 51 34 52 35 53 46 55 64 56 37 57 24 58
REMARK SMILES IDX 25 59 30 60 26 61 27 62 29 63 31 64 28 65 50 66 51 67 56 68
REMARK SMILES IDX 52 69 53 70 55 71 57 72 54 73 38 74 39 75 44 76 40 77 41 78
REMARK SMILES IDX 43 79 45 80 42 81
REMARK H PARENT 7 7 1 19 1 20 12 24 62 43 36 54
REMARK Flexibility Score: inf
ROOT
ATOM      1  C   UNL A   1      44.924  21.199  24.076  1.00  0.00     0.023 C 
ENDROOT
BRANCH   1   2
ATOM      2  C   UNL A   1      46.054  22.215  24.255  1.00  0.00     0.023 C 
BRANCH   2   3
ATOM      3  C   UNL A   1      45.909  23.127  25.476  1.00  0.00     0.116 C 
BRANCH   3   4
ATOM      4  N   UNL A   1      47.028  24.038  25.586  1.00  0.00    -0.351 N 
ATOM      5  C   UNL A   1      47.115  25.398  25.791  1.00  0.00     0.269 C 
ATOM      6  O   UNL A   1      48.263  25.847  25.871  1.00  0.00    -0.268 OA
ATOM      7  H   UNL A   1      47.904  23.597  25.495  1.00  0.00     0.163 HD
BRANCH   5   8
ATOM      8  C   UNL A   1      45.933  26.330  25.933  1.00  0.00     0.130 A 
ATOM      9  C   UNL A   1      43.674  27.072  25.537  1.00  0.00     0.043 A 
ATOM     10  C   UNL A   1      44.704  26.152  25.321  1.00  0.00     0.060 A 
ATOM     11  C   UNL A   1      43.946  28.232  26.295  1.00  0.00     0.023 A 
ATOM     12  C   UNL A   1      45.236  28.351  26.852  1.00  0.00     0.073 A 
ATOM     13  C   UNL A   1      43.010  29.272  26.518  1.00  0.00     0.012 A 
ATOM     14  N   UNL A   1      46.187  27.421  26.696  1.00  0.00    -0.242 NA
ATOM     15  C   UNL A   1      45.549  29.485  27.588  1.00  0.00     0.029 A 
ATOM     16  C   UNL A   1      43.349  30.399  27.264  1.00  0.00     0.001 A 
ATOM     17  C   UNL A   1      44.624  30.508  27.798  1.00  0.00     0.002 A 
BRANCH   9  18
ATOM     18  N   UNL A   1      42.463  26.866  24.873  1.00  0.00    -0.398 N 
ATOM     19  H   UNL A   1      41.859  27.625  24.703  1.00  0.00     0.156 HD
ATOM     20  H   UNL A   1      42.213  25.962  24.575  1.00  0.00     0.156 HD
ENDBRANCH   9  18
ENDBRANCH   5   8
ENDBRANCH   3   4
ENDBRANCH   2   3
ENDBRANCH   1   2
BRANCH   1  21
ATOM     21  C   UNL A   1      44.738  20.238  25.244  1.00  0.00     0.116 C 
BRANCH  21  22
ATOM     22  N   UNL A   1      43.487  19.494  25.203  1.00  0.00    -0.352 N 
ATOM     23  C   UNL A   1      42.269  19.861  25.732  1.00  0.00     0.251 C 
ATOM     24  H   UNL A   1      43.515  18.624  24.744  1.00  0.00     0.163 HD
ATOM     25  O   UNL A   1      41.313  19.099  25.695  1.00  0.00    -0.269 OA
BRANCH  23  26
ATOM     26  C   UNL A   1      42.161  21.171  26.407  1.00  0.00     0.039 A 
ATOM     27  C   UNL A   1      42.132  22.350  25.661  1.00  0.00     0.014 A 
ATOM     28  C   UNL A   1      42.195  21.212  27.803  1.00  0.00     0.014 A 
ATOM     29  C   UNL A   1      42.315  23.568  26.302  1.00  0.00     0.010 A 
ATOM     30  C   UNL A   1      42.306  22.444  28.450  1.00  0.00     0.010 A 
ATOM     31  C   UNL A   1      42.429  23.625  27.700  1.00  0.00    -0.014 A 
BRANCH  31  32
ATOM     32  C   UNL A   1      42.738  24.920  28.356  1.00  0.00     0.031 A 
ATOM     33  C   UNL A   1      41.659  25.950  28.547  1.00  0.00     0.074 A 
ATOM     34  C   UNL A   1      43.976  25.142  28.834  1.00  0.00     0.049 A 
ATOM     35  N   UNL A   1      41.739  27.141  29.087  1.00  0.00    -0.248 NA
ATOM     36  C   UNL A   1      40.312  25.602  28.068  1.00  0.00     0.031 C 
ATOM     37  C   UNL A   1      45.099  24.210  28.735  1.00  0.00     0.029 A 
ATOM     38  N   UNL A   1      44.488  26.212  29.521  1.00  0.00    -0.354 N 
ATOM     39  C   UNL A   1      40.466  27.690  28.991  1.00  0.00     0.074 A 
ATOM     40  C   UNL A   1      39.634  26.713  28.322  1.00  0.00     0.031 C 
ATOM     41  C   UNL A   1      46.158  24.731  29.376  1.00  0.00     0.029 A 
ATOM     42  C   UNL A   1      45.803  26.052  29.881  1.00  0.00     0.049 A 
ATOM     43  H   UNL A   1      43.964  27.018  29.734  1.00  0.00     0.167 HD
ATOM     44  C   UNL A   1      40.028  28.895  29.427  1.00  0.00     0.037 A 
ATOM     45  C   UNL A   1      46.633  26.886  30.533  1.00  0.00     0.037 A 
ATOM     46  C   UNL A   1      40.845  29.857  30.118  1.00  0.00     0.049 A 
ATOM     47  C   UNL A   1      46.132  28.231  30.972  1.00  0.00     0.074 A 
ATOM     48  C   UNL A   1      40.487  31.099  30.614  1.00  0.00     0.029 A 
ATOM     49  N   UNL A   1      42.187  29.679  30.416  1.00  0.00    -0.354 N 
ATOM     50  N   UNL A   1      44.930  28.741  30.859  1.00  0.00    -0.248 NA
ATOM     51  C   UNL A   1      47.108  29.119  31.615  1.00  0.00     0.031 C 
ATOM     52  C   UNL A   1      41.621  31.684  31.188  1.00  0.00     0.029 A 
ATOM     53  C   UNL A   1      42.677  30.794  31.076  1.00  0.00     0.049 A 
ATOM     54  H   UNL A   1      42.714  28.879  30.191  1.00  0.00     0.167 HD
ATOM     55  C   UNL A   1      45.003  30.007  31.422  1.00  0.00     0.074 A 
ATOM     56  C   UNL A   1      46.361  30.178  31.896  1.00  0.00     0.031 C 
ATOM     57  C   UNL A   1      44.033  30.948  31.533  1.00  0.00     0.037 A 
BRANCH  44  58
ATOM     58  C   UNL A   1      38.595  29.248  29.153  1.00  0.00     0.057 A 
ATOM     59  C   UNL A   1      37.636  29.174  30.170  1.00  0.00     0.134 A 
ATOM     60  C   UNL A   1      38.159  29.634  27.880  1.00  0.00     0.134 A 
ATOM     61  F   UNL A   1      37.988  28.808  31.412  1.00  0.00    -0.206 F 
ATOM     62  C   UNL A   1      36.293  29.470  29.931  1.00  0.00     0.040 A 
ATOM     63  C   UNL A   1      36.822  29.952  27.631  1.00  0.00     0.040 A 
ATOM     64  F   UNL A   1      39.033  29.740  26.866  1.00  0.00    -0.206 F 
ATOM     65  C   UNL A   1      35.884  29.865  28.659  1.00  0.00     0.006 A 
ENDBRANCH  44  58
BRANCH  45  66
ATOM     66  C   UNL A   1      48.033  26.475  30.797  1.00  0.00     0.057 A 
ATOM     67  C   UNL A   1      48.386  25.810  31.976  1.00  0.00     0.134 A 
ATOM     68  C   UNL A   1      49.049  26.739  29.872  1.00  0.00     0.134 A 
ATOM     69  F   UNL A   1      47.457  25.532  32.902  1.00  0.00    -0.206 F 
ATOM     70  C   UNL A   1      49.704  25.431  32.233  1.00  0.00     0.040 A 
ATOM     71  C   UNL A   1      50.367  26.346  30.105  1.00  0.00     0.040 A 
ATOM     72  F   UNL A   1      48.764  27.357  28.716  1.00  0.00    -0.206 F 
ATOM     73  C   UNL A   1      50.698  25.695  31.292  1.00  0.00     0.006 A 
ENDBRANCH  45  66
BRANCH  57  74
ATOM     74  C   UNL A   1      44.415  32.233  32.200  1.00  0.00     0.057 A 
ATOM     75  C   UNL A   1      44.288  32.385  33.587  1.00  0.00     0.134 A 
ATOM     76  C   UNL A   1      44.901  33.321  31.467  1.00  0.00     0.134 A 
ATOM     77  F   UNL A   1      43.824  31.378  34.343  1.00  0.00    -0.206 F 
ATOM     78  C   UNL A   1      44.637  33.577  34.221  1.00  0.00     0.040 A 
ATOM     79  C   UNL A   1      45.272  34.512  32.093  1.00  0.00     0.040 A 
ATOM     80  F   UNL A   1      45.061  33.229  30.138  1.00  0.00    -0.206 F 
ATOM     81  C   UNL A   1      45.136  34.643  33.475  1.00  0.00     0.006 A 
ENDBRANCH  57  74
ENDBRANCH  31  32
ENDBRANCH  23  26
ENDBRANCH  21  22
ENDBRANCH   1  21
TORSDOF 12
ENDMDL
