MODEL 1
REMARK VINA RESULT:     -11.8      0.000      0.000
REMARK SMILES Cc1nn(-c2ccccc2)c(C)c1CNC(=O)CCCC(=O)NCCCCNC(=O)c1ccc(-c2c3nc(c(-c4c(F)cccc4F)c4ccc([nH]4)c(-c4c(F)cccc4F)c4nc(c(-c5c(F)cccc5F)c5ccc2[nH]5)C=C4)C=C3)cc1
REMARK SMILES IDX 21 1 22 2 23 3 20 5 19 6 18 7 16 8 15 9 17 11 14 12 13 13
REMARK SMILES IDX 1 14 2 15 3 16 4 17 11 18 12 19 5 20 6 21 10 22 7 23 9 24
REMARK SMILES IDX 8 25 24 26 25 27 26 28 27 29 28 30 29 31 30 33 31 34 32 35
REMARK SMILES IDX 84 36 33 37 83 38 34 39 35 40 36 41 77 42 37 43 82 44 76 45
REMARK SMILES IDX 78 46 38 47 81 48 75 49 74 50 39 52 65 53 48 54 64 55 49 56
REMARK SMILES IDX 52 57 63 58 79 59 50 60 51 61 62 63 80 64 53 65 40 66 41 67
REMARK SMILES IDX 46 68 42 69 43 70 45 71 47 72 44 73 66 74 67 75 72 76 68 77
REMARK SMILES IDX 69 78 71 79 73 80 70 81 54 82 55 83 60 84 56 85 57 86 59 87
REMARK SMILES IDX 61 88 58 89
REMARK H PARENT 23 4 15 10 28 32 78 51 52 62
REMARK Flexibility Score: inf
ROOT
ATOM      1  C   UNL A   1      30.737  28.531  23.527  1.00  0.00     0.220 C 
ATOM      2  O   UNL A   1      29.991  28.906  22.617  1.00  0.00    -0.275 OA
ATOM      3  N   UNL A   1      31.835  29.293  23.758  1.00  0.00    -0.356 N 
ATOM      4  H   UNL A   1      31.904  30.081  23.171  1.00  0.00     0.163 HD
ENDROOT
BRANCH   1   5
ATOM      5  C   UNL A   1      30.339  27.342  24.386  1.00  0.00     0.100 C 
BRANCH   5   6
ATOM      6  C   UNL A   1      31.311  26.198  24.625  1.00  0.00     0.020 C 
BRANCH   6   7
ATOM      7  C   UNL A   1      31.369  25.408  25.933  1.00  0.00     0.100 C 
BRANCH   7   8
ATOM      8  C   UNL A   1      30.844  24.004  26.249  1.00  0.00     0.220 C 
ATOM      9  N   UNL A   1      30.981  22.867  25.544  1.00  0.00    -0.352 N 
ATOM     10  H   UNL A   1      30.510  22.119  25.978  1.00  0.00     0.163 HD
ATOM     11  O   UNL A   1      30.131  23.881  27.258  1.00  0.00    -0.275 OA
BRANCH   9  12
ATOM     12  C   UNL A   1      31.630  22.439  24.327  1.00  0.00     0.155 C 
BRANCH  12  13
ATOM     13  C   UNL A   1      33.107  22.671  24.354  1.00  0.00     0.016 A 
ATOM     14  C   UNL A   1      33.305  24.053  22.135  1.00  0.00     0.069 C 
ATOM     15  C   UNL A   1      33.831  23.418  23.375  1.00  0.00     0.065 A 
ATOM     16  N   UNL A   1      35.116  23.576  23.706  1.00  0.00    -0.173 NA
ATOM     17  N   UNL A   1      35.281  22.814  24.809  1.00  0.00    -0.237 N 
ATOM     18  C   UNL A   1      34.069  22.356  25.306  1.00  0.00     0.046 A 
ATOM     19  C   UNL A   1      33.971  21.771  26.673  1.00  0.00     0.067 C 
BRANCH  17  20
ATOM     20  C   UNL A   1      36.545  22.669  25.433  1.00  0.00     0.065 A 
ATOM     21  C   UNL A   1      37.274  21.493  25.246  1.00  0.00     0.028 A 
ATOM     22  C   UNL A   1      37.116  23.758  26.110  1.00  0.00     0.028 A 
ATOM     23  C   UNL A   1      38.613  21.456  25.640  1.00  0.00     0.002 A 
ATOM     24  C   UNL A   1      38.447  23.708  26.511  1.00  0.00     0.002 A 
ATOM     25  C   UNL A   1      39.202  22.566  26.254  1.00  0.00     0.000 A 
ENDBRANCH  17  20
ENDBRANCH  12  13
ENDBRANCH   9  12
ENDBRANCH   7   8
ENDBRANCH   6   7
ENDBRANCH   5   6
ENDBRANCH   1   5
BRANCH   3  26
ATOM     26  C   UNL A   1      32.923  29.171  24.700  1.00  0.00     0.116 C 
BRANCH  26  27
ATOM     27  C   UNL A   1      32.459  29.413  26.138  1.00  0.00     0.023 C 
BRANCH  27  28
ATOM     28  C   UNL A   1      33.211  28.600  27.192  1.00  0.00     0.023 C 
BRANCH  28  29
ATOM     29  C   UNL A   1      34.682  28.986  27.319  1.00  0.00     0.116 C 
BRANCH  29  30
ATOM     30  N   UNL A   1      34.889  30.170  28.147  1.00  0.00    -0.352 N 
ATOM     31  C   UNL A   1      35.961  30.432  28.983  1.00  0.00     0.251 C 
ATOM     32  H   UNL A   1      34.188  30.859  28.107  1.00  0.00     0.163 HD
ATOM     33  O   UNL A   1      35.905  31.261  29.863  1.00  0.00    -0.269 OA
BRANCH  31  34
ATOM     34  C   UNL A   1      37.191  29.650  28.763  1.00  0.00     0.039 A 
ATOM     35  C   UNL A   1      37.967  29.866  27.623  1.00  0.00     0.014 A 
ATOM     36  C   UNL A   1      37.607  28.787  29.775  1.00  0.00     0.014 A 
ATOM     37  C   UNL A   1      39.228  29.277  27.544  1.00  0.00     0.010 A 
ATOM     38  C   UNL A   1      38.888  28.275  29.729  1.00  0.00     0.010 A 
ATOM     39  C   UNL A   1      39.704  28.505  28.613  1.00  0.00    -0.014 A 
BRANCH  39  40
ATOM     40  C   UNL A   1      41.106  28.059  28.635  1.00  0.00     0.031 A 
ATOM     41  C   UNL A   1      41.437  26.784  27.912  1.00  0.00     0.074 A 
ATOM     42  C   UNL A   1      42.112  28.875  29.013  1.00  0.00     0.049 A 
ATOM     43  N   UNL A   1      42.151  25.783  28.323  1.00  0.00    -0.248 NA
ATOM     44  C   UNL A   1      40.893  26.599  26.555  1.00  0.00     0.031 C 
ATOM     45  C   UNL A   1      42.022  30.271  29.456  1.00  0.00     0.029 A 
ATOM     46  N   UNL A   1      43.459  28.671  28.924  1.00  0.00    -0.354 N 
ATOM     47  C   UNL A   1      42.277  24.911  27.240  1.00  0.00     0.074 A 
ATOM     48  C   UNL A   1      41.411  25.419  26.208  1.00  0.00     0.031 C 
ATOM     49  C   UNL A   1      43.235  30.853  29.349  1.00  0.00     0.029 A 
ATOM     50  C   UNL A   1      44.207  29.837  28.989  1.00  0.00     0.049 A 
ATOM     51  H   UNL A   1      43.862  27.779  28.824  1.00  0.00     0.167 HD
ATOM     52  C   UNL A   1      43.210  23.916  27.202  1.00  0.00     0.037 A 
ATOM     53  C   UNL A   1      45.527  29.983  28.726  1.00  0.00     0.037 A 
ATOM     54  C   UNL A   1      43.718  23.603  28.508  1.00  0.00     0.049 A 
ATOM     55  C   UNL A   1      46.159  28.648  28.822  1.00  0.00     0.074 A 
ATOM     56  C   UNL A   1      43.162  23.167  29.695  1.00  0.00     0.029 A 
ATOM     57  N   UNL A   1      44.990  24.003  28.830  1.00  0.00    -0.354 N 
ATOM     58  N   UNL A   1      46.310  27.988  29.935  1.00  0.00    -0.248 NA
ATOM     59  C   UNL A   1      46.292  27.861  27.607  1.00  0.00     0.031 C 
ATOM     60  C   UNL A   1      43.927  23.806  30.715  1.00  0.00     0.029 A 
ATOM     61  C   UNL A   1      44.912  24.562  30.078  1.00  0.00     0.049 A 
ATOM     62  H   UNL A   1      45.797  23.908  28.275  1.00  0.00     0.167 HD
ATOM     63  C   UNL A   1      46.131  26.659  29.583  1.00  0.00     0.074 A 
ATOM     64  C   UNL A   1      46.253  26.634  28.128  1.00  0.00     0.031 C 
ATOM     65  C   UNL A   1      45.623  25.754  30.470  1.00  0.00     0.037 A 
BRANCH  52  66
ATOM     66  C   UNL A   1      43.889  23.412  25.949  1.00  0.00     0.057 A 
ATOM     67  C   UNL A   1      43.829  22.044  25.620  1.00  0.00     0.134 A 
ATOM     68  C   UNL A   1      44.838  24.159  25.225  1.00  0.00     0.134 A 
ATOM     69  F   UNL A   1      42.980  21.219  26.251  1.00  0.00    -0.206 F 
ATOM     70  C   UNL A   1      44.695  21.453  24.690  1.00  0.00     0.040 A 
ATOM     71  C   UNL A   1      45.674  23.589  24.258  1.00  0.00     0.040 A 
ATOM     72  F   UNL A   1      45.074  25.452  25.484  1.00  0.00    -0.206 F 
ATOM     73  C   UNL A   1      45.627  22.225  24.010  1.00  0.00     0.006 A 
ENDBRANCH  52  66
BRANCH  53  74
ATOM     74  C   UNL A   1      46.237  31.177  28.227  1.00  0.00     0.057 A 
ATOM     75  C   UNL A   1      45.862  31.802  27.031  1.00  0.00     0.134 A 
ATOM     76  C   UNL A   1      47.161  31.877  29.028  1.00  0.00     0.134 A 
ATOM     77  F   UNL A   1      44.954  31.236  26.223  1.00  0.00    -0.206 F 
ATOM     78  C   UNL A   1      46.371  33.051  26.653  1.00  0.00     0.040 A 
ATOM     79  C   UNL A   1      47.686  33.118  28.657  1.00  0.00     0.040 A 
ATOM     80  F   UNL A   1      47.525  31.413  30.233  1.00  0.00    -0.206 F 
ATOM     81  C   UNL A   1      47.282  33.715  27.470  1.00  0.00     0.006 A 
ENDBRANCH  53  74
BRANCH  65  82
ATOM     82  C   UNL A   1      45.514  26.159  31.913  1.00  0.00     0.057 A 
ATOM     83  C   UNL A   1      44.365  26.736  32.474  1.00  0.00     0.134 A 
ATOM     84  C   UNL A   1      46.539  25.804  32.796  1.00  0.00     0.134 A 
ATOM     85  F   UNL A   1      43.289  27.006  31.727  1.00  0.00    -0.206 F 
ATOM     86  C   UNL A   1      44.262  26.995  33.843  1.00  0.00     0.040 A 
ATOM     87  C   UNL A   1      46.435  26.027  34.172  1.00  0.00     0.040 A 
ATOM     88  F   UNL A   1      47.642  25.188  32.342  1.00  0.00    -0.206 F 
ATOM     89  C   UNL A   1      45.297  26.635  34.698  1.00  0.00     0.006 A 
ENDBRANCH  65  82
ENDBRANCH  39  40
ENDBRANCH  31  34
ENDBRANCH  29  30
ENDBRANCH  28  29
ENDBRANCH  27  28
ENDBRANCH  26  27
ENDBRANCH   3  26
TORSDOF 17
ENDMDL
MODEL 2
REMARK VINA RESULT:     -11.8      1.789      5.903
REMARK SMILES Cc1nn(-c2ccccc2)c(C)c1CNC(=O)CCCC(=O)NCCCCNC(=O)c1ccc(-c2c3nc(c(-c4c(F)cccc4F)c4ccc([nH]4)c(-c4c(F)cccc4F)c4nc(c(-c5c(F)cccc5F)c5ccc2[nH]5)C=C4)C=C3)cc1
REMARK SMILES IDX 21 1 22 2 23 3 20 5 19 6 18 7 16 8 15 9 17 11 14 12 13 13
REMARK SMILES IDX 1 14 2 15 3 16 4 17 11 18 12 19 5 20 6 21 10 22 7 23 9 24
REMARK SMILES IDX 8 25 24 26 25 27 26 28 27 29 28 30 29 31 30 33 31 34 32 35
REMARK SMILES IDX 84 36 33 37 83 38 34 39 35 40 36 41 77 42 37 43 82 44 76 45
REMARK SMILES IDX 78 46 38 47 81 48 75 49 74 50 39 52 65 53 48 54 64 55 49 56
REMARK SMILES IDX 52 57 63 58 79 59 50 60 51 61 62 63 80 64 53 65 40 66 41 67
REMARK SMILES IDX 46 68 42 69 43 70 45 71 47 72 44 73 66 74 67 75 72 76 68 77
REMARK SMILES IDX 69 78 71 79 73 80 70 81 54 82 55 83 60 84 56 85 57 86 59 87
REMARK SMILES IDX 61 88 58 89
REMARK H PARENT 23 4 15 10 28 32 78 51 52 62
REMARK Flexibility Score: inf
ROOT
ATOM      1  C   UNL A   1      30.571  29.330  22.353  1.00  0.00     0.220 C 
ATOM      2  O   UNL A   1      29.993  29.964  21.464  1.00  0.00    -0.275 OA
ATOM      3  N   UNL A   1      31.927  29.346  22.319  1.00  0.00    -0.356 N 
ATOM      4  H   UNL A   1      32.301  29.884  21.584  1.00  0.00     0.163 HD
ENDROOT
BRANCH   1   5
ATOM      5  C   UNL A   1      29.763  28.682  23.465  1.00  0.00     0.100 C 
BRANCH   5   6
ATOM      6  C   UNL A   1      29.803  27.178  23.680  1.00  0.00     0.020 C 
BRANCH   6   7
ATOM      7  C   UNL A   1      30.475  26.523  24.887  1.00  0.00     0.100 C 
BRANCH   7   8
ATOM      8  C   UNL A   1      30.236  25.143  25.507  1.00  0.00     0.220 C 
ATOM      9  N   UNL A   1      30.478  23.925  24.989  1.00  0.00    -0.352 N 
ATOM     10  H   UNL A   1      30.195  23.213  25.606  1.00  0.00     0.163 HD
ATOM     11  O   UNL A   1      29.680  25.110  26.617  1.00  0.00    -0.275 OA
BRANCH   9  12
ATOM     12  C   UNL A   1      31.039  23.374  23.778  1.00  0.00     0.155 C 
BRANCH  12  13
ATOM     13  C   UNL A   1      32.527  23.507  23.725  1.00  0.00     0.016 A 
ATOM     14  C   UNL A   1      32.677  25.195  21.726  1.00  0.00     0.069 C 
ATOM     15  C   UNL A   1      33.238  24.347  22.814  1.00  0.00     0.065 A 
ATOM     16  N   UNL A   1      34.550  24.373  23.066  1.00  0.00    -0.173 NA
ATOM     17  N   UNL A   1      34.731  23.444  24.029  1.00  0.00    -0.237 N 
ATOM     18  C   UNL A   1      33.525  22.992  24.544  1.00  0.00     0.046 A 
ATOM     19  C   UNL A   1      33.476  22.213  25.814  1.00  0.00     0.067 C 
BRANCH  17  20
ATOM     20  C   UNL A   1      36.021  23.127  24.525  1.00  0.00     0.065 A 
ATOM     21  C   UNL A   1      36.643  23.992  25.426  1.00  0.00     0.028 A 
ATOM     22  C   UNL A   1      36.597  21.884  24.221  1.00  0.00     0.028 A 
ATOM     23  C   UNL A   1      37.783  23.556  26.106  1.00  0.00     0.002 A 
ATOM     24  C   UNL A   1      37.740  21.463  24.892  1.00  0.00     0.002 A 
ATOM     25  C   UNL A   1      38.319  22.289  25.853  1.00  0.00     0.000 A 
ENDBRANCH  17  20
ENDBRANCH  12  13
ENDBRANCH   9  12
ENDBRANCH   7   8
ENDBRANCH   6   7
ENDBRANCH   5   6
ENDBRANCH   1   5
BRANCH   3  26
ATOM     26  C   UNL A   1      32.929  28.725  23.155  1.00  0.00     0.116 C 
BRANCH  26  27
ATOM     27  C   UNL A   1      33.012  29.391  24.531  1.00  0.00     0.023 C 
BRANCH  27  28
ATOM     28  C   UNL A   1      33.484  28.467  25.654  1.00  0.00     0.023 C 
BRANCH  28  29
ATOM     29  C   UNL A   1      34.481  29.128  26.602  1.00  0.00     0.116 C 
BRANCH  29  30
ATOM     30  N   UNL A   1      34.121  30.503  26.936  1.00  0.00    -0.352 N 
ATOM     31  C   UNL A   1      34.630  31.278  27.963  1.00  0.00     0.251 C 
ATOM     32  H   UNL A   1      33.439  30.926  26.367  1.00  0.00     0.163 HD
ATOM     33  O   UNL A   1      34.062  32.266  28.369  1.00  0.00    -0.269 OA
BRANCH  31  34
ATOM     34  C   UNL A   1      35.908  30.848  28.559  1.00  0.00     0.039 A 
ATOM     35  C   UNL A   1      36.087  29.521  28.957  1.00  0.00     0.014 A 
ATOM     36  C   UNL A   1      36.954  31.767  28.600  1.00  0.00     0.014 A 
ATOM     37  C   UNL A   1      37.365  29.090  29.312  1.00  0.00     0.010 A 
ATOM     38  C   UNL A   1      38.229  31.316  28.871  1.00  0.00     0.010 A 
ATOM     39  C   UNL A   1      38.446  29.980  29.239  1.00  0.00    -0.014 A 
BRANCH  39  40
ATOM     40  C   UNL A   1      39.821  29.486  29.401  1.00  0.00     0.031 A 
ATOM     41  C   UNL A   1      40.336  29.325  30.803  1.00  0.00     0.074 A 
ATOM     42  C   UNL A   1      40.503  28.915  28.386  1.00  0.00     0.049 A 
ATOM     43  N   UNL A   1      41.473  29.706  31.296  1.00  0.00    -0.248 NA
ATOM     44  C   UNL A   1      39.465  28.657  31.787  1.00  0.00     0.031 C 
ATOM     45  C   UNL A   1      40.050  28.693  27.008  1.00  0.00     0.029 A 
ATOM     46  N   UNL A   1      41.700  28.261  28.421  1.00  0.00    -0.354 N 
ATOM     47  C   UNL A   1      41.533  29.204  32.598  1.00  0.00     0.074 A 
ATOM     48  C   UNL A   1      40.235  28.644  32.876  1.00  0.00     0.031 C 
ATOM     49  C   UNL A   1      40.826  27.755  26.428  1.00  0.00     0.029 A 
ATOM     50  C   UNL A   1      41.918  27.434  27.329  1.00  0.00     0.049 A 
ATOM     51  H   UNL A   1      42.350  28.367  29.152  1.00  0.00     0.167 HD
ATOM     52  C   UNL A   1      42.696  29.135  33.308  1.00  0.00     0.037 A 
ATOM     53  C   UNL A   1      42.898  26.513  27.177  1.00  0.00     0.037 A 
ATOM     54  C   UNL A   1      43.710  29.996  32.765  1.00  0.00     0.049 A 
ATOM     55  C   UNL A   1      43.981  26.842  28.131  1.00  0.00     0.074 A 
ATOM     56  C   UNL A   1      43.818  31.353  32.534  1.00  0.00     0.029 A 
ATOM     57  N   UNL A   1      44.757  29.428  32.086  1.00  0.00    -0.354 N 
ATOM     58  N   UNL A   1      44.754  27.885  28.029  1.00  0.00    -0.248 NA
ATOM     59  C   UNL A   1      43.968  26.200  29.436  1.00  0.00     0.031 C 
ATOM     60  C   UNL A   1      44.587  31.462  31.339  1.00  0.00     0.029 A 
ATOM     61  C   UNL A   1      44.917  30.165  30.943  1.00  0.00     0.049 A 
ATOM     62  H   UNL A   1      45.288  28.648  32.365  1.00  0.00     0.167 HD
ATOM     63  C   UNL A   1      44.984  28.281  29.337  1.00  0.00     0.074 A 
ATOM     64  C   UNL A   1      44.586  27.138  30.154  1.00  0.00     0.031 C 
ATOM     65  C   UNL A   1      45.207  29.591  29.651  1.00  0.00     0.037 A 
BRANCH  52  66
ATOM     66  C   UNL A   1      43.028  28.069  34.327  1.00  0.00     0.057 A 
ATOM     67  C   UNL A   1      43.186  28.421  35.683  1.00  0.00     0.134 A 
ATOM     68  C   UNL A   1      43.485  26.782  33.987  1.00  0.00     0.134 A 
ATOM     69  F   UNL A   1      42.808  29.627  36.132  1.00  0.00    -0.206 F 
ATOM     70  C   UNL A   1      43.815  27.580  36.611  1.00  0.00     0.040 A 
ATOM     71  C   UNL A   1      44.070  25.915  34.917  1.00  0.00     0.040 A 
ATOM     72  F   UNL A   1      43.482  26.338  32.723  1.00  0.00    -0.206 F 
ATOM     73  C   UNL A   1      44.266  26.324  36.227  1.00  0.00     0.006 A 
ENDBRANCH  52  66
BRANCH  53  74
ATOM     74  C   UNL A   1      42.874  25.268  26.382  1.00  0.00     0.057 A 
ATOM     75  C   UNL A   1      43.773  25.058  25.329  1.00  0.00     0.134 A 
ATOM     76  C   UNL A   1      42.117  24.151  26.782  1.00  0.00     0.134 A 
ATOM     77  F   UNL A   1      44.571  26.049  24.907  1.00  0.00    -0.206 F 
ATOM     78  C   UNL A   1      43.914  23.810  24.710  1.00  0.00     0.040 A 
ATOM     79  C   UNL A   1      42.239  22.902  26.165  1.00  0.00     0.040 A 
ATOM     80  F   UNL A   1      41.288  24.214  27.835  1.00  0.00    -0.206 F 
ATOM     81  C   UNL A   1      43.149  22.726  25.132  1.00  0.00     0.006 A 
ENDBRANCH  53  74
BRANCH  65  82
ATOM     82  C   UNL A   1      45.468  30.555  28.529  1.00  0.00     0.057 A 
ATOM     83  C   UNL A   1      44.454  31.233  27.835  1.00  0.00     0.134 A 
ATOM     84  C   UNL A   1      46.785  30.935  28.252  1.00  0.00     0.134 A 
ATOM     85  F   UNL A   1      43.163  31.020  28.111  1.00  0.00    -0.206 F 
ATOM     86  C   UNL A   1      44.740  32.206  26.875  1.00  0.00     0.040 A 
ATOM     87  C   UNL A   1      47.084  31.930  27.318  1.00  0.00     0.040 A 
ATOM     88  F   UNL A   1      47.806  30.378  28.924  1.00  0.00    -0.206 F 
ATOM     89  C   UNL A   1      46.059  32.562  26.617  1.00  0.00     0.006 A 
ENDBRANCH  65  82
ENDBRANCH  39  40
ENDBRANCH  31  34
ENDBRANCH  29  30
ENDBRANCH  28  29
ENDBRANCH  27  28
ENDBRANCH  26  27
ENDBRANCH   3  26
TORSDOF 17
ENDMDL
MODEL 3
REMARK VINA RESULT:     -11.7      3.808      8.897
REMARK SMILES Cc1nn(-c2ccccc2)c(C)c1CNC(=O)CCCC(=O)NCCCCNC(=O)c1ccc(-c2c3nc(c(-c4c(F)cccc4F)c4ccc([nH]4)c(-c4c(F)cccc4F)c4nc(c(-c5c(F)cccc5F)c5ccc2[nH]5)C=C4)C=C3)cc1
REMARK SMILES IDX 21 1 22 2 23 3 20 5 19 6 18 7 16 8 15 9 17 11 14 12 13 13
REMARK SMILES IDX 1 14 2 15 3 16 4 17 11 18 12 19 5 20 6 21 10 22 7 23 9 24
REMARK SMILES IDX 8 25 24 26 25 27 26 28 27 29 28 30 29 31 30 33 31 34 32 35
REMARK SMILES IDX 84 36 33 37 83 38 34 39 35 40 36 41 77 42 37 43 82 44 76 45
REMARK SMILES IDX 78 46 38 47 81 48 75 49 74 50 39 52 65 53 48 54 64 55 49 56
REMARK SMILES IDX 52 57 63 58 79 59 50 60 51 61 62 63 80 64 53 65 40 66 41 67
REMARK SMILES IDX 46 68 42 69 43 70 45 71 47 72 44 73 66 74 67 75 72 76 68 77
REMARK SMILES IDX 69 78 71 79 73 80 70 81 54 82 55 83 60 84 56 85 57 86 59 87
REMARK SMILES IDX 61 88 58 89
REMARK H PARENT 23 4 15 10 28 32 78 51 52 62
REMARK Flexibility Score: inf
ROOT
ATOM      1  C   UNL A   1      34.175  21.526  26.596  1.00  0.00     0.220 C 
ATOM      2  O   UNL A   1      33.821  22.064  27.650  1.00  0.00    -0.275 OA
ATOM      3  N   UNL A   1      35.512  21.410  26.399  1.00  0.00    -0.356 N 
ATOM      4  H   UNL A   1      36.056  21.763  27.140  1.00  0.00     0.163 HD
ENDROOT
BRANCH   1   5
ATOM      5  C   UNL A   1      33.130  20.939  25.661  1.00  0.00     0.100 C 
BRANCH   5   6
ATOM      6  C   UNL A   1      32.265  21.844  24.798  1.00  0.00     0.020 C 
BRANCH   6   7
ATOM      7  C   UNL A   1      32.485  22.026  23.296  1.00  0.00     0.100 C 
BRANCH   7   8
ATOM      8  C   UNL A   1      32.721  23.309  22.494  1.00  0.00     0.220 C 
ATOM      9  N   UNL A   1      32.027  24.462  22.511  1.00  0.00    -0.352 N 
ATOM     10  H   UNL A   1      32.393  25.108  21.864  1.00  0.00     0.163 HD
ATOM     11  O   UNL A   1      33.633  23.290  21.652  1.00  0.00    -0.275 OA
BRANCH   9  12
ATOM     12  C   UNL A   1      30.895  25.015  23.217  1.00  0.00     0.155 C 
BRANCH  12  13
ATOM     13  C   UNL A   1      31.305  25.896  24.354  1.00  0.00     0.016 A 
ATOM     14  C   UNL A   1      30.277  24.483  26.307  1.00  0.00     0.069 C 
ATOM     15  C   UNL A   1      31.039  25.625  25.731  1.00  0.00     0.065 A 
ATOM     16  N   UNL A   1      31.624  26.510  26.544  1.00  0.00    -0.173 NA
ATOM     17  N   UNL A   1      32.141  27.444  25.717  1.00  0.00    -0.237 N 
ATOM     18  C   UNL A   1      32.084  27.047  24.389  1.00  0.00     0.046 A 
ATOM     19  C   UNL A   1      32.867  27.758  23.340  1.00  0.00     0.067 C 
BRANCH  17  20
ATOM     20  C   UNL A   1      32.796  28.599  26.214  1.00  0.00     0.065 A 
ATOM     21  C   UNL A   1      32.077  29.786  26.367  1.00  0.00     0.028 A 
ATOM     22  C   UNL A   1      34.115  28.503  26.683  1.00  0.00     0.028 A 
ATOM     23  C   UNL A   1      32.648  30.834  27.091  1.00  0.00     0.002 A 
ATOM     24  C   UNL A   1      34.681  29.557  27.392  1.00  0.00     0.002 A 
ATOM     25  C   UNL A   1      33.938  30.713  27.617  1.00  0.00     0.000 A 
ENDBRANCH  17  20
ENDBRANCH  12  13
ENDBRANCH   9  12
ENDBRANCH   7   8
ENDBRANCH   6   7
ENDBRANCH   5   6
ENDBRANCH   1   5
BRANCH   3  26
ATOM     26  C   UNL A   1      36.291  20.869  25.309  1.00  0.00     0.116 C 
BRANCH  26  27
ATOM     27  C   UNL A   1      37.396  21.832  24.868  1.00  0.00     0.023 C 
BRANCH  27  28
ATOM     28  C   UNL A   1      37.022  23.311  24.963  1.00  0.00     0.023 C 
BRANCH  28  29
ATOM     29  C   UNL A   1      37.799  24.063  26.040  1.00  0.00     0.116 C 
BRANCH  29  30
ATOM     30  N   UNL A   1      39.187  23.629  26.147  1.00  0.00    -0.352 N 
ATOM     31  C   UNL A   1      40.275  24.384  26.551  1.00  0.00     0.251 C 
ATOM     32  H   UNL A   1      39.372  22.693  25.905  1.00  0.00     0.163 HD
ATOM     33  O   UNL A   1      41.414  24.057  26.306  1.00  0.00    -0.269 OA
BRANCH  31  34
ATOM     34  C   UNL A   1      39.992  25.624  27.297  1.00  0.00     0.039 A 
ATOM     35  C   UNL A   1      39.401  25.563  28.561  1.00  0.00     0.014 A 
ATOM     36  C   UNL A   1      40.435  26.829  26.757  1.00  0.00     0.014 A 
ATOM     37  C   UNL A   1      39.343  26.723  29.333  1.00  0.00     0.010 A 
ATOM     38  C   UNL A   1      40.451  27.953  27.557  1.00  0.00     0.010 A 
ATOM     39  C   UNL A   1      39.897  27.914  28.845  1.00  0.00    -0.014 A 
BRANCH  39  40
ATOM     40  C   UNL A   1      40.034  29.082  29.728  1.00  0.00     0.031 A 
ATOM     41  C   UNL A   1      38.813  29.928  29.949  1.00  0.00     0.074 A 
ATOM     42  C   UNL A   1      41.095  29.240  30.549  1.00  0.00     0.049 A 
ATOM     43  N   UNL A   1      38.707  31.220  29.906  1.00  0.00    -0.248 NA
ATOM     44  C   UNL A   1      37.543  29.245  30.247  1.00  0.00     0.031 C 
ATOM     45  C   UNL A   1      42.251  28.350  30.709  1.00  0.00     0.029 A 
ATOM     46  N   UNL A   1      41.282  30.162  31.537  1.00  0.00    -0.354 N 
ATOM     47  C   UNL A   1      37.407  31.528  30.315  1.00  0.00     0.074 A 
ATOM     48  C   UNL A   1      36.711  30.272  30.427  1.00  0.00     0.031 C 
ATOM     49  C   UNL A   1      42.867  28.624  31.878  1.00  0.00     0.029 A 
ATOM     50  C   UNL A   1      42.252  29.803  32.461  1.00  0.00     0.049 A 
ATOM     51  H   UNL A   1      40.776  31.004  31.590  1.00  0.00     0.167 HD
ATOM     52  C   UNL A   1      37.033  32.783  30.694  1.00  0.00     0.037 A 
ATOM     53  C   UNL A   1      42.517  30.396  33.649  1.00  0.00     0.037 A 
ATOM     54  C   UNL A   1      37.952  33.784  30.227  1.00  0.00     0.049 A 
ATOM     55  C   UNL A   1      41.950  31.763  33.609  1.00  0.00     0.074 A 
ATOM     56  C   UNL A   1      38.409  34.189  28.989  1.00  0.00     0.029 A 
ATOM     57  N   UNL A   1      38.791  34.378  31.134  1.00  0.00    -0.354 N 
ATOM     58  N   UNL A   1      42.413  32.727  32.865  1.00  0.00    -0.248 NA
ATOM     59  C   UNL A   1      40.606  31.966  34.128  1.00  0.00     0.031 C 
ATOM     60  C   UNL A   1      39.768  34.561  29.202  1.00  0.00     0.029 A 
ATOM     61  C   UNL A   1      40.034  34.383  30.561  1.00  0.00     0.049 A 
ATOM     62  H   UNL A   1      38.548  34.731  32.021  1.00  0.00     0.167 HD
ATOM     63  C   UNL A   1      41.291  33.440  32.475  1.00  0.00     0.074 A 
ATOM     64  C   UNL A   1      40.232  33.006  33.381  1.00  0.00     0.031 C 
ATOM     65  C   UNL A   1      41.252  34.101  31.280  1.00  0.00     0.037 A 
BRANCH  52  66
ATOM     66  C   UNL A   1      35.988  33.098  31.740  1.00  0.00     0.057 A 
ATOM     67  C   UNL A   1      34.928  33.974  31.432  1.00  0.00     0.134 A 
ATOM     68  C   UNL A   1      36.148  32.813  33.110  1.00  0.00     0.134 A 
ATOM     69  F   UNL A   1      34.682  34.341  30.165  1.00  0.00    -0.206 F 
ATOM     70  C   UNL A   1      34.134  34.573  32.418  1.00  0.00     0.040 A 
ATOM     71  C   UNL A   1      35.329  33.367  34.100  1.00  0.00     0.040 A 
ATOM     72  F   UNL A   1      37.162  32.068  33.567  1.00  0.00    -0.206 F 
ATOM     73  C   UNL A   1      34.337  34.275  33.760  1.00  0.00     0.006 A 
ENDBRANCH  52  66
BRANCH  53  74
ATOM     74  C   UNL A   1      43.076  29.790  34.874  1.00  0.00     0.057 A 
ATOM     75  C   UNL A   1      42.356  28.842  35.612  1.00  0.00     0.134 A 
ATOM     76  C   UNL A   1      44.428  29.956  35.230  1.00  0.00     0.134 A 
ATOM     77  F   UNL A   1      41.075  28.581  35.319  1.00  0.00    -0.206 F 
ATOM     78  C   UNL A   1      42.946  28.099  36.642  1.00  0.00     0.040 A 
ATOM     79  C   UNL A   1      45.026  29.228  36.263  1.00  0.00     0.040 A 
ATOM     80  F   UNL A   1      45.234  30.774  34.535  1.00  0.00    -0.206 F 
ATOM     81  C   UNL A   1      44.287  28.287  36.966  1.00  0.00     0.006 A 
ENDBRANCH  53  74
BRANCH  65  82
ATOM     82  C   UNL A   1      42.538  34.268  30.520  1.00  0.00     0.057 A 
ATOM     83  C   UNL A   1      43.429  35.331  30.724  1.00  0.00     0.134 A 
ATOM     84  C   UNL A   1      42.967  33.237  29.678  1.00  0.00     0.134 A 
ATOM     85  F   UNL A   1      43.156  36.307  31.597  1.00  0.00    -0.206 F 
ATOM     86  C   UNL A   1      44.667  35.392  30.080  1.00  0.00     0.040 A 
ATOM     87  C   UNL A   1      44.217  33.268  29.054  1.00  0.00     0.040 A 
ATOM     88  F   UNL A   1      42.197  32.154  29.486  1.00  0.00    -0.206 F 
ATOM     89  C   UNL A   1      45.067  34.354  29.245  1.00  0.00     0.006 A 
ENDBRANCH  65  82
ENDBRANCH  39  40
ENDBRANCH  31  34
ENDBRANCH  29  30
ENDBRANCH  28  29
ENDBRANCH  27  28
ENDBRANCH  26  27
ENDBRANCH   3  26
TORSDOF 17
ENDMDL
