MODEL 1
REMARK VINA RESULT:     -11.3      0.000      0.000
REMARK SMILES C[C@H](Nc1cccc(F)c1C(=O)NCCCCNC(=O)c1ccc(-c2c3nc(c(-c4c(F)cccc4F)c4ccc([nH]4)c(-c4c(F)cccc4F)c4nc(c(-c5c(F)cccc5F)c5ccc2[nH]5)C=C4)C=C3)cc1)c1cccc(Cl)c1
REMARK SMILES IDX 15 1 14 2 13 3 11 4 12 5 10 7 4 8 5 9 6 10 8 11 7 12 9 13
REMARK SMILES IDX 3 14 2 16 1 17 75 18 76 19 81 20 77 21 79 22 78 23 80 24
REMARK SMILES IDX 16 25 17 26 18 27 19 28 20 30 21 31 22 32 74 33 23 34 73 35
REMARK SMILES IDX 24 36 25 37 26 38 67 39 27 40 72 41 66 42 68 43 28 44 71 45
REMARK SMILES IDX 65 46 64 47 29 49 55 50 38 51 54 52 39 53 42 54 53 55 69 56
REMARK SMILES IDX 40 57 41 58 52 60 70 61 43 62 30 63 31 64 36 65 32 66 33 67
REMARK SMILES IDX 35 68 37 69 34 70 56 71 57 72 62 73 58 74 59 75 61 76 63 77
REMARK SMILES IDX 60 78 44 79 45 80 50 81 46 82 47 83 49 84 51 85 48 86
REMARK H PARENT 13 6 3 15 18 29 68 48 42 59
REMARK Flexibility Score: inf
ROOT
ATOM      1  C   UNL A   1      33.805  29.128  24.696  1.00  0.00     0.023 C 
ENDROOT
BRANCH   1   2
ATOM      2  C   UNL A   1      33.175  29.000  23.311  1.00  0.00     0.116 C 
BRANCH   2   3
ATOM      3  N   UNL A   1      33.609  27.831  22.565  1.00  0.00    -0.352 N 
ATOM      4  C   UNL A   1      33.248  26.503  22.657  1.00  0.00     0.256 C 
ATOM      5  O   UNL A   1      33.853  25.721  21.922  1.00  0.00    -0.269 OA
ATOM      6  H   UNL A   1      34.281  28.020  21.871  1.00  0.00     0.163 HD
BRANCH   4   7
ATOM      7  C   UNL A   1      32.275  25.987  23.668  1.00  0.00     0.098 A 
ATOM      8  C   UNL A   1      32.732  25.231  24.776  1.00  0.00     0.050 A 
ATOM      9  C   UNL A   1      31.850  25.034  25.853  1.00  0.00     0.027 A 
ATOM     10  C   UNL A   1      30.519  25.442  25.797  1.00  0.00     0.005 A 
ATOM     11  C   UNL A   1      30.908  26.259  23.571  1.00  0.00     0.138 A 
ATOM     12  C   UNL A   1      30.035  26.010  24.629  1.00  0.00     0.040 A 
ATOM     13  F   UNL A   1      30.376  26.757  22.445  1.00  0.00    -0.206 F 
BRANCH   8  14
ATOM     14  N   UNL A   1      33.993  24.620  24.812  1.00  0.00    -0.378 N 
ATOM     15  H   UNL A   1      34.793  25.190  24.880  1.00  0.00     0.161 HD
BRANCH  14  16
ATOM     16  C   UNL A   1      34.172  23.152  24.755  1.00  0.00     0.106 C 
ATOM     17  C   UNL A   1      33.623  22.457  23.507  1.00  0.00     0.036 C 
BRANCH  16  18
ATOM     18  C   UNL A   1      35.615  22.777  25.074  1.00  0.00    -0.025 A 
ATOM     19  C   UNL A   1      36.468  23.751  25.628  1.00  0.00     0.006 A 
ATOM     20  C   UNL A   1      36.144  21.500  24.822  1.00  0.00     0.026 A 
ATOM     21  C   UNL A   1      37.795  23.454  25.943  1.00  0.00     0.002 A 
ATOM     22  C   UNL A   1      37.471  21.206  25.147  1.00  0.00     0.041 A 
ATOM     23  C   UNL A   1      38.296  22.176  25.710  1.00  0.00     0.020 A 
ATOM     24  Cl  UNL A   1      38.090  19.627  24.857  1.00  0.00    -0.084 Cl
ENDBRANCH  16  18
ENDBRANCH  14  16
ENDBRANCH   8  14
ENDBRANCH   4   7
ENDBRANCH   2   3
ENDBRANCH   1   2
BRANCH   1  25
ATOM     25  C   UNL A   1      32.941  28.715  25.885  1.00  0.00     0.023 C 
BRANCH  25  26
ATOM     26  C   UNL A   1      33.596  28.793  27.260  1.00  0.00     0.116 C 
BRANCH  26  27
ATOM     27  N   UNL A   1      33.666  30.139  27.805  1.00  0.00    -0.352 N 
ATOM     28  C   UNL A   1      34.710  30.806  28.406  1.00  0.00     0.251 C 
ATOM     29  H   UNL A   1      32.832  30.658  27.733  1.00  0.00     0.163 HD
ATOM     30  O   UNL A   1      34.531  31.927  28.869  1.00  0.00    -0.269 OA
BRANCH  28  31
ATOM     31  C   UNL A   1      36.037  30.163  28.540  1.00  0.00     0.039 A 
ATOM     32  C   UNL A   1      36.921  30.224  27.458  1.00  0.00     0.014 A 
ATOM     33  C   UNL A   1      36.421  29.512  29.714  1.00  0.00     0.014 A 
ATOM     34  C   UNL A   1      38.218  29.720  27.589  1.00  0.00     0.010 A 
ATOM     35  C   UNL A   1      37.736  29.080  29.871  1.00  0.00     0.010 A 
ATOM     36  C   UNL A   1      38.653  29.190  28.814  1.00  0.00    -0.014 A 
BRANCH  36  37
ATOM     37  C   UNL A   1      40.064  28.774  29.019  1.00  0.00     0.031 A 
ATOM     38  C   UNL A   1      41.060  29.726  29.620  1.00  0.00     0.074 A 
ATOM     39  C   UNL A   1      40.468  27.559  28.599  1.00  0.00     0.049 A 
ATOM     40  N   UNL A   1      42.347  29.571  29.799  1.00  0.00    -0.248 NA
ATOM     41  C   UNL A   1      40.547  31.036  30.055  1.00  0.00     0.031 C 
ATOM     42  C   UNL A   1      39.614  26.557  27.959  1.00  0.00     0.029 A 
ATOM     43  N   UNL A   1      41.704  26.961  28.642  1.00  0.00    -0.354 N 
ATOM     44  C   UNL A   1      42.799  30.764  30.349  1.00  0.00     0.074 A 
ATOM     45  C   UNL A   1      41.659  31.650  30.432  1.00  0.00     0.031 C 
ATOM     46  C   UNL A   1      40.342  25.461  27.696  1.00  0.00     0.029 A 
ATOM     47  C   UNL A   1      41.721  25.693  28.113  1.00  0.00     0.049 A 
ATOM     48  H   UNL A   1      42.503  27.399  29.016  1.00  0.00     0.167 HD
ATOM     49  C   UNL A   1      44.047  31.082  30.769  1.00  0.00     0.037 A 
ATOM     50  C   UNL A   1      42.734  24.815  27.975  1.00  0.00     0.037 A 
ATOM     51  C   UNL A   1      45.174  30.189  30.718  1.00  0.00     0.049 A 
ATOM     52  C   UNL A   1      44.108  25.191  28.451  1.00  0.00     0.074 A 
ATOM     53  C   UNL A   1      46.462  30.405  31.174  1.00  0.00     0.029 A 
ATOM     54  N   UNL A   1      45.146  28.910  30.185  1.00  0.00    -0.354 N 
ATOM     55  N   UNL A   1      44.510  26.305  29.011  1.00  0.00    -0.248 NA
ATOM     56  C   UNL A   1      45.170  24.188  28.277  1.00  0.00     0.031 C 
ATOM     57  C   UNL A   1      47.224  29.270  30.886  1.00  0.00     0.029 A 
ATOM     58  C   UNL A   1      46.400  28.330  30.287  1.00  0.00     0.049 A 
ATOM     59  H   UNL A   1      44.354  28.478  29.793  1.00  0.00     0.167 HD
ATOM     60  C   UNL A   1      45.862  26.134  29.274  1.00  0.00     0.074 A 
ATOM     61  C   UNL A   1      46.211  24.802  28.825  1.00  0.00     0.031 C 
ATOM     62  C   UNL A   1      46.734  27.003  29.840  1.00  0.00     0.037 A 
BRANCH  49  63
ATOM     63  C   UNL A   1      44.258  32.453  31.340  1.00  0.00     0.057 A 
ATOM     64  C   UNL A   1      44.032  32.706  32.699  1.00  0.00     0.134 A 
ATOM     65  C   UNL A   1      44.628  33.535  30.532  1.00  0.00     0.134 A 
ATOM     66  F   UNL A   1      43.668  31.714  33.526  1.00  0.00    -0.206 F 
ATOM     67  C   UNL A   1      44.161  33.990  33.232  1.00  0.00     0.040 A 
ATOM     68  C   UNL A   1      44.785  34.819  31.059  1.00  0.00     0.040 A 
ATOM     69  F   UNL A   1      44.870  33.357  29.225  1.00  0.00    -0.206 F 
ATOM     70  C   UNL A   1      44.542  35.050  32.411  1.00  0.00     0.006 A 
ENDBRANCH  49  63
BRANCH  50  71
ATOM     71  C   UNL A   1      42.471  23.477  27.390  1.00  0.00     0.057 A 
ATOM     72  C   UNL A   1      42.583  23.240  26.015  1.00  0.00     0.134 A 
ATOM     73  C   UNL A   1      42.076  22.407  28.199  1.00  0.00     0.134 A 
ATOM     74  F   UNL A   1      42.952  24.227  25.186  1.00  0.00    -0.206 F 
ATOM     75  C   UNL A   1      42.297  21.990  25.464  1.00  0.00     0.040 A 
ATOM     76  C   UNL A   1      41.806  21.146  27.665  1.00  0.00     0.040 A 
ATOM     77  F   UNL A   1      41.968  22.569  29.527  1.00  0.00    -0.206 F 
ATOM     78  C   UNL A   1      41.910  20.938  26.291  1.00  0.00     0.006 A 
ENDBRANCH  50  71
BRANCH  62  79
ATOM     79  C   UNL A   1      48.149  26.545  30.027  1.00  0.00     0.057 A 
ATOM     80  C   UNL A   1      48.537  25.889  31.202  1.00  0.00     0.134 A 
ATOM     81  C   UNL A   1      49.141  26.819  29.078  1.00  0.00     0.134 A 
ATOM     82  F   UNL A   1      47.635  25.605  32.154  1.00  0.00    -0.206 F 
ATOM     83  C   UNL A   1      49.867  25.537  31.435  1.00  0.00     0.040 A 
ATOM     84  C   UNL A   1      50.471  26.452  29.290  1.00  0.00     0.040 A 
ATOM     85  F   UNL A   1      48.830  27.435  27.928  1.00  0.00    -0.206 F 
ATOM     86  C   UNL A   1      50.838  25.818  30.475  1.00  0.00     0.006 A 
ENDBRANCH  62  79
ENDBRANCH  36  37
ENDBRANCH  28  31
ENDBRANCH  26  27
ENDBRANCH  25  26
ENDBRANCH   1  25
TORSDOF 14
ENDMDL
MODEL 2
REMARK VINA RESULT:     -11.3      4.334      8.323
REMARK SMILES C[C@H](Nc1cccc(F)c1C(=O)NCCCCNC(=O)c1ccc(-c2c3nc(c(-c4c(F)cccc4F)c4ccc([nH]4)c(-c4c(F)cccc4F)c4nc(c(-c5c(F)cccc5F)c5ccc2[nH]5)C=C4)C=C3)cc1)c1cccc(Cl)c1
REMARK SMILES IDX 15 1 14 2 13 3 11 4 12 5 10 7 4 8 5 9 6 10 8 11 7 12 9 13
REMARK SMILES IDX 3 14 2 16 1 17 75 18 76 19 81 20 77 21 79 22 78 23 80 24
REMARK SMILES IDX 16 25 17 26 18 27 19 28 20 30 21 31 22 32 74 33 23 34 73 35
REMARK SMILES IDX 24 36 25 37 26 38 67 39 27 40 72 41 66 42 68 43 28 44 71 45
REMARK SMILES IDX 65 46 64 47 29 49 55 50 38 51 54 52 39 53 42 54 53 55 69 56
REMARK SMILES IDX 40 57 41 58 52 60 70 61 43 62 30 63 31 64 36 65 32 66 33 67
REMARK SMILES IDX 35 68 37 69 34 70 56 71 57 72 62 73 58 74 59 75 61 76 63 77
REMARK SMILES IDX 60 78 44 79 45 80 50 81 46 82 47 83 49 84 51 85 48 86
REMARK H PARENT 13 6 3 15 18 29 68 48 42 59
REMARK Flexibility Score: inf
ROOT
ATOM      1  C   UNL A   1      32.076  30.130  27.015  1.00  0.00     0.023 C 
ENDROOT
BRANCH   1   2
ATOM      2  C   UNL A   1      32.004  29.224  25.789  1.00  0.00     0.116 C 
BRANCH   2   3
ATOM      3  N   UNL A   1      32.990  29.528  24.765  1.00  0.00    -0.352 N 
ATOM      4  C   UNL A   1      33.449  28.793  23.693  1.00  0.00     0.256 C 
ATOM      5  O   UNL A   1      34.357  29.299  23.032  1.00  0.00    -0.269 OA
ATOM      6  H   UNL A   1      33.404  30.417  24.853  1.00  0.00     0.163 HD
BRANCH   4   7
ATOM      7  C   UNL A   1      32.987  27.402  23.395  1.00  0.00     0.098 A 
ATOM      8  C   UNL A   1      31.971  27.180  22.432  1.00  0.00     0.050 A 
ATOM      9  C   UNL A   1      31.784  25.870  21.956  1.00  0.00     0.027 A 
ATOM     10  C   UNL A   1      32.470  24.786  22.500  1.00  0.00     0.005 A 
ATOM     11  C   UNL A   1      33.556  26.292  24.024  1.00  0.00     0.138 A 
ATOM     12  C   UNL A   1      33.321  24.995  23.574  1.00  0.00     0.040 A 
ATOM     13  F   UNL A   1      34.343  26.431  25.101  1.00  0.00    -0.206 F 
BRANCH   8  14
ATOM     14  N   UNL A   1      31.108  28.192  21.989  1.00  0.00    -0.378 N 
ATOM     15  H   UNL A   1      31.451  28.860  21.352  1.00  0.00     0.161 HD
BRANCH  14  16
ATOM     16  C   UNL A   1      29.702  28.296  22.438  1.00  0.00     0.106 C 
ATOM     17  C   UNL A   1      29.333  27.486  23.684  1.00  0.00     0.036 C 
BRANCH  16  18
ATOM     18  C   UNL A   1      29.273  29.757  22.515  1.00  0.00    -0.025 A 
ATOM     19  C   UNL A   1      29.417  30.449  23.733  1.00  0.00     0.006 A 
ATOM     20  C   UNL A   1      28.718  30.447  21.425  1.00  0.00     0.026 A 
ATOM     21  C   UNL A   1      29.044  31.789  23.852  1.00  0.00     0.002 A 
ATOM     22  C   UNL A   1      28.354  31.791  21.547  1.00  0.00     0.041 A 
ATOM     23  C   UNL A   1      28.519  32.465  22.754  1.00  0.00     0.020 A 
ATOM     24  Cl  UNL A   1      27.703  32.625  20.190  1.00  0.00    -0.084 Cl
ENDBRANCH  16  18
ENDBRANCH  14  16
ENDBRANCH   8  14
ENDBRANCH   4   7
ENDBRANCH   2   3
ENDBRANCH   1   2
BRANCH   1  25
ATOM     25  C   UNL A   1      31.455  31.518  26.884  1.00  0.00     0.023 C 
BRANCH  25  26
ATOM     26  C   UNL A   1      32.393  32.646  26.470  1.00  0.00     0.116 C 
BRANCH  26  27
ATOM     27  N   UNL A   1      32.252  33.853  27.269  1.00  0.00    -0.352 N 
ATOM     28  C   UNL A   1      33.009  34.323  28.318  1.00  0.00     0.251 C 
ATOM     29  H   UNL A   1      31.491  34.427  27.020  1.00  0.00     0.163 HD
ATOM     30  O   UNL A   1      32.667  35.341  28.910  1.00  0.00    -0.269 OA
BRANCH  28  31
ATOM     31  C   UNL A   1      34.211  33.584  28.770  1.00  0.00     0.039 A 
ATOM     32  C   UNL A   1      35.455  34.219  28.689  1.00  0.00     0.014 A 
ATOM     33  C   UNL A   1      34.125  32.286  29.277  1.00  0.00     0.014 A 
ATOM     34  C   UNL A   1      36.592  33.590  29.204  1.00  0.00     0.010 A 
ATOM     35  C   UNL A   1      35.243  31.692  29.859  1.00  0.00     0.010 A 
ATOM     36  C   UNL A   1      36.486  32.343  29.840  1.00  0.00    -0.014 A 
BRANCH  36  37
ATOM     37  C   UNL A   1      37.653  31.719  30.515  1.00  0.00     0.031 A 
ATOM     38  C   UNL A   1      38.491  30.697  29.799  1.00  0.00     0.074 A 
ATOM     39  C   UNL A   1      37.919  32.020  31.802  1.00  0.00     0.049 A 
ATOM     40  N   UNL A   1      39.493  29.986  30.251  1.00  0.00    -0.248 NA
ATOM     41  C   UNL A   1      38.142  30.418  28.396  1.00  0.00     0.031 C 
ATOM     42  C   UNL A   1      37.156  32.960  32.625  1.00  0.00     0.029 A 
ATOM     43  N   UNL A   1      38.901  31.562  32.645  1.00  0.00    -0.354 N 
ATOM     44  C   UNL A   1      39.881  29.167  29.199  1.00  0.00     0.074 A 
ATOM     45  C   UNL A   1      38.979  29.433  28.100  1.00  0.00     0.031 C 
ATOM     46  C   UNL A   1      37.715  33.031  33.843  1.00  0.00     0.029 A 
ATOM     47  C   UNL A   1      38.850  32.116  33.902  1.00  0.00     0.049 A 
ATOM     48  H   UNL A   1      39.577  30.899  32.376  1.00  0.00     0.167 HD
ATOM     49  C   UNL A   1      40.912  28.290  29.146  1.00  0.00     0.037 A 
ATOM     50  C   UNL A   1      39.628  31.909  34.982  1.00  0.00     0.037 A 
ATOM     51  C   UNL A   1      41.831  28.049  30.227  1.00  0.00     0.049 A 
ATOM     52  C   UNL A   1      40.766  30.933  34.898  1.00  0.00     0.074 A 
ATOM     53  C   UNL A   1      42.939  27.221  30.245  1.00  0.00     0.029 A 
ATOM     54  N   UNL A   1      41.751  28.639  31.478  1.00  0.00    -0.354 N 
ATOM     55  N   UNL A   1      41.149  30.200  33.881  1.00  0.00    -0.248 NA
ATOM     56  C   UNL A   1      41.582  30.754  36.108  1.00  0.00     0.031 C 
ATOM     57  C   UNL A   1      43.512  27.284  31.518  1.00  0.00     0.029 A 
ATOM     58  C   UNL A   1      42.783  28.181  32.281  1.00  0.00     0.049 A 
ATOM     59  H   UNL A   1      41.064  29.287  31.756  1.00  0.00     0.167 HD
ATOM     60  C   UNL A   1      42.258  29.490  34.319  1.00  0.00     0.074 A 
ATOM     61  C   UNL A   1      42.496  29.889  35.691  1.00  0.00     0.031 C 
ATOM     62  C   UNL A   1      43.011  28.589  33.644  1.00  0.00     0.037 A 
BRANCH  49  63
ATOM     63  C   UNL A   1      41.114  27.534  27.867  1.00  0.00     0.057 A 
ATOM     64  C   UNL A   1      40.542  26.269  27.683  1.00  0.00     0.134 A 
ATOM     65  C   UNL A   1      41.923  28.034  26.839  1.00  0.00     0.134 A 
ATOM     66  F   UNL A   1      39.763  25.729  28.632  1.00  0.00    -0.206 F 
ATOM     67  C   UNL A   1      40.775  25.525  26.525  1.00  0.00     0.040 A 
ATOM     68  C   UNL A   1      42.143  27.311  25.665  1.00  0.00     0.040 A 
ATOM     69  F   UNL A   1      42.491  29.245  26.949  1.00  0.00    -0.206 F 
ATOM     70  C   UNL A   1      41.574  26.048  25.510  1.00  0.00     0.006 A 
ENDBRANCH  49  63
BRANCH  50  71
ATOM     71  C   UNL A   1      39.373  32.674  36.228  1.00  0.00     0.057 A 
ATOM     72  C   UNL A   1      38.466  32.226  37.195  1.00  0.00     0.134 A 
ATOM     73  C   UNL A   1      40.020  33.892  36.464  1.00  0.00     0.134 A 
ATOM     74  F   UNL A   1      37.810  31.069  37.022  1.00  0.00    -0.206 F 
ATOM     75  C   UNL A   1      38.200  32.969  38.346  1.00  0.00     0.040 A 
ATOM     76  C   UNL A   1      39.779  34.636  37.621  1.00  0.00     0.040 A 
ATOM     77  F   UNL A   1      40.913  34.364  35.582  1.00  0.00    -0.206 F 
ATOM     78  C   UNL A   1      38.861  34.176  38.563  1.00  0.00     0.006 A 
ENDBRANCH  50  71
BRANCH  62  79
ATOM     79  C   UNL A   1      44.178  27.981  34.362  1.00  0.00     0.057 A 
ATOM     80  C   UNL A   1      45.440  28.585  34.313  1.00  0.00     0.134 A 
ATOM     81  C   UNL A   1      44.070  26.759  35.037  1.00  0.00     0.134 A 
ATOM     82  F   UNL A   1      45.612  29.753  33.674  1.00  0.00    -0.206 F 
ATOM     83  C   UNL A   1      46.558  27.989  34.897  1.00  0.00     0.040 A 
ATOM     84  C   UNL A   1      45.176  26.163  35.644  1.00  0.00     0.040 A 
ATOM     85  F   UNL A   1      42.885  26.136  35.128  1.00  0.00    -0.206 F 
ATOM     86  C   UNL A   1      46.426  26.773  35.566  1.00  0.00     0.006 A 
ENDBRANCH  62  79
ENDBRANCH  36  37
ENDBRANCH  28  31
ENDBRANCH  26  27
ENDBRANCH  25  26
ENDBRANCH   1  25
TORSDOF 14
ENDMDL
MODEL 3
REMARK VINA RESULT:     -11.3      3.330      8.146
REMARK SMILES C[C@H](Nc1cccc(F)c1C(=O)NCCCCNC(=O)c1ccc(-c2c3nc(c(-c4c(F)cccc4F)c4ccc([nH]4)c(-c4c(F)cccc4F)c4nc(c(-c5c(F)cccc5F)c5ccc2[nH]5)C=C4)C=C3)cc1)c1cccc(Cl)c1
REMARK SMILES IDX 15 1 14 2 13 3 11 4 12 5 10 7 4 8 5 9 6 10 8 11 7 12 9 13
REMARK SMILES IDX 3 14 2 16 1 17 75 18 76 19 81 20 77 21 79 22 78 23 80 24
REMARK SMILES IDX 16 25 17 26 18 27 19 28 20 30 21 31 22 32 74 33 23 34 73 35
REMARK SMILES IDX 24 36 25 37 26 38 67 39 27 40 72 41 66 42 68 43 28 44 71 45
REMARK SMILES IDX 65 46 64 47 29 49 55 50 38 51 54 52 39 53 42 54 53 55 69 56
REMARK SMILES IDX 40 57 41 58 52 60 70 61 43 62 30 63 31 64 36 65 32 66 33 67
REMARK SMILES IDX 35 68 37 69 34 70 56 71 57 72 62 73 58 74 59 75 61 76 63 77
REMARK SMILES IDX 60 78 44 79 45 80 50 81 46 82 47 83 49 84 51 85 48 86
REMARK H PARENT 13 6 3 15 18 29 68 48 42 59
REMARK Flexibility Score: inf
ROOT
ATOM      1  C   UNL A   1      35.319  23.029  26.754  1.00  0.00     0.023 C 
ENDROOT
BRANCH   1   2
ATOM      2  C   UNL A   1      34.304  22.012  27.268  1.00  0.00     0.116 C 
BRANCH   2   3
ATOM      3  N   UNL A   1      33.002  22.576  27.583  1.00  0.00    -0.352 N 
ATOM      4  C   UNL A   1      32.038  23.151  26.782  1.00  0.00     0.256 C 
ATOM      5  O   UNL A   1      31.051  23.610  27.359  1.00  0.00    -0.269 OA
ATOM      6  H   UNL A   1      32.767  22.542  28.538  1.00  0.00     0.163 HD
BRANCH   4   7
ATOM      7  C   UNL A   1      32.204  23.341  25.308  1.00  0.00     0.098 A 
ATOM      8  C   UNL A   1      32.440  24.634  24.778  1.00  0.00     0.050 A 
ATOM      9  C   UNL A   1      32.896  24.733  23.452  1.00  0.00     0.027 A 
ATOM     10  C   UNL A   1      32.989  23.618  22.621  1.00  0.00     0.005 A 
ATOM     11  C   UNL A   1      32.164  22.260  24.424  1.00  0.00     0.138 A 
ATOM     12  C   UNL A   1      32.571  22.384  23.097  1.00  0.00     0.040 A 
ATOM     13  F   UNL A   1      31.717  21.057  24.815  1.00  0.00    -0.206 F 
BRANCH   8  14
ATOM     14  N   UNL A   1      32.174  25.810  25.493  1.00  0.00    -0.378 N 
ATOM     15  H   UNL A   1      32.182  25.776  26.477  1.00  0.00     0.161 HD
BRANCH  14  16
ATOM     16  C   UNL A   1      31.884  27.099  24.830  1.00  0.00     0.106 C 
ATOM     17  C   UNL A   1      30.446  27.296  24.342  1.00  0.00     0.036 C 
BRANCH  16  18
ATOM     18  C   UNL A   1      32.403  28.261  25.670  1.00  0.00    -0.025 A 
ATOM     19  C   UNL A   1      33.618  28.111  26.367  1.00  0.00     0.006 A 
ATOM     20  C   UNL A   1      31.712  29.477  25.799  1.00  0.00     0.026 A 
ATOM     21  C   UNL A   1      34.138  29.148  27.144  1.00  0.00     0.002 A 
ATOM     22  C   UNL A   1      32.242  30.514  26.572  1.00  0.00     0.041 A 
ATOM     23  C   UNL A   1      33.453  30.356  27.241  1.00  0.00     0.020 A 
ATOM     24  Cl  UNL A   1      31.393  32.007  26.694  1.00  0.00    -0.084 Cl
ENDBRANCH  16  18
ENDBRANCH  14  16
ENDBRANCH   8  14
ENDBRANCH   4   7
ENDBRANCH   2   3
ENDBRANCH   1   2
BRANCH   1  25
ATOM     25  C   UNL A   1      35.828  22.834  25.328  1.00  0.00     0.023 C 
BRANCH  25  26
ATOM     26  C   UNL A   1      37.181  23.455  24.999  1.00  0.00     0.116 C 
BRANCH  26  27
ATOM     27  N   UNL A   1      38.316  22.620  25.357  1.00  0.00    -0.352 N 
ATOM     28  C   UNL A   1      39.419  22.897  26.133  1.00  0.00     0.251 C 
ATOM     29  H   UNL A   1      38.293  21.708  24.984  1.00  0.00     0.163 HD
ATOM     30  O   UNL A   1      40.309  22.062  26.247  1.00  0.00    -0.269 OA
BRANCH  28  31
ATOM     31  C   UNL A   1      39.563  24.214  26.795  1.00  0.00     0.039 A 
ATOM     32  C   UNL A   1      39.010  24.386  28.067  1.00  0.00     0.014 A 
ATOM     33  C   UNL A   1      40.238  25.272  26.182  1.00  0.00     0.014 A 
ATOM     34  C   UNL A   1      39.219  25.580  28.762  1.00  0.00     0.010 A 
ATOM     35  C   UNL A   1      40.512  26.432  26.903  1.00  0.00     0.010 A 
ATOM     36  C   UNL A   1      40.015  26.594  28.206  1.00  0.00    -0.014 A 
BRANCH  36  37
ATOM     37  C   UNL A   1      40.364  27.814  28.979  1.00  0.00     0.031 A 
ATOM     38  C   UNL A   1      41.692  27.921  29.675  1.00  0.00     0.074 A 
ATOM     39  C   UNL A   1      39.455  28.801  29.112  1.00  0.00     0.049 A 
ATOM     40  N   UNL A   1      42.138  28.869  30.461  1.00  0.00    -0.248 NA
ATOM     41  C   UNL A   1      42.633  26.806  29.485  1.00  0.00     0.031 C 
ATOM     42  C   UNL A   1      38.114  28.801  28.525  1.00  0.00     0.029 A 
ATOM     43  N   UNL A   1      39.521  29.993  29.790  1.00  0.00    -0.354 N 
ATOM     44  C   UNL A   1      43.400  28.457  30.871  1.00  0.00     0.074 A 
ATOM     45  C   UNL A   1      43.630  27.155  30.286  1.00  0.00     0.031 C 
ATOM     46  C   UNL A   1      37.495  29.948  28.844  1.00  0.00     0.029 A 
ATOM     47  C   UNL A   1      38.377  30.749  29.687  1.00  0.00     0.049 A 
ATOM     48  H   UNL A   1      40.311  30.280  30.303  1.00  0.00     0.167 HD
ATOM     49  C   UNL A   1      44.294  29.117  31.644  1.00  0.00     0.037 A 
ATOM     50  C   UNL A   1      38.071  31.950  30.214  1.00  0.00     0.037 A 
ATOM     51  C   UNL A   1      44.079  30.427  32.199  1.00  0.00     0.049 A 
ATOM     52  C   UNL A   1      39.080  32.663  31.067  1.00  0.00     0.074 A 
ATOM     53  C   UNL A   1      44.952  31.198  32.947  1.00  0.00     0.029 A 
ATOM     54  N   UNL A   1      42.913  31.162  32.060  1.00  0.00    -0.354 N 
ATOM     55  N   UNL A   1      40.287  32.281  31.408  1.00  0.00    -0.248 NA
ATOM     56  C   UNL A   1      38.689  33.972  31.609  1.00  0.00     0.031 C 
ATOM     57  C   UNL A   1      44.301  32.386  33.291  1.00  0.00     0.029 A 
ATOM     58  C   UNL A   1      43.038  32.373  32.724  1.00  0.00     0.049 A 
ATOM     59  H   UNL A   1      42.114  30.869  31.566  1.00  0.00     0.167 HD
ATOM     60  C   UNL A   1      40.807  33.308  32.185  1.00  0.00     0.074 A 
ATOM     61  C   UNL A   1      39.789  34.336  32.256  1.00  0.00     0.031 C 
ATOM     62  C   UNL A   1      42.019  33.389  32.784  1.00  0.00     0.037 A 
BRANCH  49  63
ATOM     63  C   UNL A   1      45.602  28.438  31.925  1.00  0.00     0.057 A 
ATOM     64  C   UNL A   1      45.764  27.637  33.063  1.00  0.00     0.134 A 
ATOM     65  C   UNL A   1      46.717  28.624  31.100  1.00  0.00     0.134 A 
ATOM     66  F   UNL A   1      44.737  27.425  33.900  1.00  0.00    -0.206 F 
ATOM     67  C   UNL A   1      46.993  27.053  33.373  1.00  0.00     0.040 A 
ATOM     68  C   UNL A   1      47.945  28.023  31.385  1.00  0.00     0.040 A 
ATOM     69  F   UNL A   1      46.624  29.369  29.989  1.00  0.00    -0.206 F 
ATOM     70  C   UNL A   1      48.087  27.241  32.530  1.00  0.00     0.006 A 
ENDBRANCH  49  63
BRANCH  50  71
ATOM     71  C   UNL A   1      36.756  32.569  29.915  1.00  0.00     0.057 A 
ATOM     72  C   UNL A   1      35.615  32.278  30.673  1.00  0.00     0.134 A 
ATOM     73  C   UNL A   1      36.609  33.453  28.840  1.00  0.00     0.134 A 
ATOM     74  F   UNL A   1      35.691  31.433  31.711  1.00  0.00    -0.206 F 
ATOM     75  C   UNL A   1      34.373  32.832  30.363  1.00  0.00     0.040 A 
ATOM     76  C   UNL A   1      35.376  34.031  28.532  1.00  0.00     0.040 A 
ATOM     77  F   UNL A   1      37.670  33.784  28.089  1.00  0.00    -0.206 F 
ATOM     78  C   UNL A   1      34.251  33.714  29.292  1.00  0.00     0.006 A 
ENDBRANCH  50  71
BRANCH  62  79
ATOM     79  C   UNL A   1      42.330  34.636  33.555  1.00  0.00     0.057 A 
ATOM     80  C   UNL A   1      41.992  34.740  34.910  1.00  0.00     0.134 A 
ATOM     81  C   UNL A   1      42.895  35.760  32.938  1.00  0.00     0.134 A 
ATOM     82  F   UNL A   1      41.441  33.702  35.556  1.00  0.00    -0.206 F 
ATOM     83  C   UNL A   1      42.190  35.924  35.622  1.00  0.00     0.040 A 
ATOM     84  C   UNL A   1      43.117  36.942  33.646  1.00  0.00     0.040 A 
ATOM     85  F   UNL A   1      43.250  35.718  31.646  1.00  0.00    -0.206 F 
ATOM     86  C   UNL A   1      42.755  37.029  34.988  1.00  0.00     0.006 A 
ENDBRANCH  62  79
ENDBRANCH  36  37
ENDBRANCH  28  31
ENDBRANCH  26  27
ENDBRANCH  25  26
ENDBRANCH   1  25
TORSDOF 14
ENDMDL
