MODEL 1
REMARK VINA RESULT:     -11.1      0.000      0.000
REMARK SMILES CNC(=O)c1ccc(N(CCC(=O)NCCCCNC(=O)c2ccc(-c3c4nc(c(-c5c(F)cccc5F)c5ccc([nH]5)c(-c5c(F)cccc5F)c5nc(c(-c6c(F)cccc6F)c6ccc3[nH]6)C=C5)C=C4)cc2)C2CC2)nn1
REMARK SMILES IDX 15 1 14 2 12 3 13 4 11 6 10 7 9 8 8 9 5 10 6 11 80 12 7 13
REMARK SMILES IDX 79 14 3 15 1 16 2 17 4 19 76 20 77 21 78 22 16 23 17 24
REMARK SMILES IDX 18 25 19 26 20 27 21 29 22 30 23 31 75 32 24 33 74 34 25 35
REMARK SMILES IDX 26 36 27 37 68 38 28 39 73 40 67 41 69 42 29 43 72 44 66 45
REMARK SMILES IDX 65 46 30 48 56 49 39 50 55 51 40 52 43 53 54 54 70 55 41 56
REMARK SMILES IDX 42 57 53 59 71 60 44 61 31 62 32 63 37 64 33 65 34 66 36 67
REMARK SMILES IDX 38 68 35 69 57 70 58 71 63 72 59 73 60 74 62 75 64 76 61 77
REMARK SMILES IDX 45 78 46 79 51 80 47 81 48 82 50 83 52 84 49 85
REMARK H PARENT 14 5 2 18 19 28 69 47 43 58
REMARK Flexibility Score: inf
ROOT
ATOM      1  C   UNL A   1      37.176  22.867  25.470  1.00  0.00     0.116 C 
ENDROOT
BRANCH   1   2
ATOM      2  N   UNL A   1      35.989  22.695  26.294  1.00  0.00    -0.356 N 
ATOM      3  C   UNL A   1      34.779  23.315  26.259  1.00  0.00     0.221 C 
ATOM      4  O   UNL A   1      34.048  23.199  27.244  1.00  0.00    -0.275 OA
ATOM      5  H   UNL A   1      36.077  22.012  26.998  1.00  0.00     0.163 HD
BRANCH   3   6
ATOM      6  C   UNL A   1      34.328  24.083  25.039  1.00  0.00     0.121 C 
BRANCH   6   7
ATOM      7  C   UNL A   1      33.730  23.153  23.980  1.00  0.00     0.128 C 
BRANCH   7   8
ATOM      8  N   UNL A   1      32.657  22.287  24.520  1.00  0.00    -0.352 N 
BRANCH   8   9
ATOM      9  C   UNL A   1      32.853  20.897  24.342  1.00  0.00     0.151 A 
ATOM     10  C   UNL A   1      33.380  18.239  23.868  1.00  0.00     0.150 A 
ATOM     11  C   UNL A   1      32.426  18.858  23.095  1.00  0.00     0.040 A 
ATOM     12  N   UNL A   1      34.033  18.878  24.858  1.00  0.00    -0.143 NA
ATOM     13  C   UNL A   1      32.153  20.197  23.360  1.00  0.00     0.051 A 
ATOM     14  N   UNL A   1      33.751  20.216  25.095  1.00  0.00    -0.132 NA
BRANCH  10  15
ATOM     15  C   UNL A   1      33.743  16.840  23.578  1.00  0.00     0.271 C 
ATOM     16  C   UNL A   1      32.705  16.009  25.739  1.00  0.00     0.143 C 
ATOM     17  N   UNL A   1      33.435  15.867  24.500  1.00  0.00    -0.354 N 
ATOM     18  H   UNL A   1      33.753  14.959  24.289  1.00  0.00     0.163 HD
ATOM     19  O   UNL A   1      34.387  16.568  22.569  1.00  0.00    -0.267 OA
ENDBRANCH  10  15
ENDBRANCH   8   9
BRANCH   8  20
ATOM     20  C   UNL A   1      31.332  22.923  24.674  1.00  0.00     0.084 C 
ATOM     21  C   UNL A   1      30.630  22.955  26.006  1.00  0.00     0.027 C 
ATOM     22  C   UNL A   1      30.997  24.235  25.316  1.00  0.00     0.027 C 
ENDBRANCH   8  20
ENDBRANCH   7   8
ENDBRANCH   6   7
ENDBRANCH   3   6
ENDBRANCH   1   2
BRANCH   1  23
ATOM     23  C   UNL A   1      37.268  21.673  24.515  1.00  0.00     0.023 C 
BRANCH  23  24
ATOM     24  C   UNL A   1      37.943  20.389  24.998  1.00  0.00     0.023 C 
BRANCH  24  25
ATOM     25  C   UNL A   1      39.187  20.555  25.858  1.00  0.00     0.116 C 
BRANCH  25  26
ATOM     26  N   UNL A   1      40.024  19.357  25.949  1.00  0.00    -0.352 N 
ATOM     27  C   UNL A   1      41.389  19.242  26.127  1.00  0.00     0.251 C 
ATOM     28  H   UNL A   1      39.539  18.504  25.871  1.00  0.00     0.163 HD
ATOM     29  O   UNL A   1      41.936  18.145  26.038  1.00  0.00    -0.269 OA
BRANCH  27  30
ATOM     30  C   UNL A   1      42.196  20.454  26.396  1.00  0.00     0.039 A 
ATOM     31  C   UNL A   1      42.751  21.183  25.343  1.00  0.00     0.014 A 
ATOM     32  C   UNL A   1      42.332  20.910  27.704  1.00  0.00     0.014 A 
ATOM     33  C   UNL A   1      43.329  22.432  25.600  1.00  0.00     0.010 A 
ATOM     34  C   UNL A   1      42.746  22.213  27.932  1.00  0.00     0.010 A 
ATOM     35  C   UNL A   1      43.267  22.989  26.889  1.00  0.00    -0.014 A 
BRANCH  35  36
ATOM     36  C   UNL A   1      43.756  24.360  27.197  1.00  0.00     0.031 A 
ATOM     37  C   UNL A   1      42.779  25.416  27.653  1.00  0.00     0.074 A 
ATOM     38  C   UNL A   1      45.043  24.692  26.964  1.00  0.00     0.049 A 
ATOM     39  N   UNL A   1      42.965  26.699  27.831  1.00  0.00    -0.248 NA
ATOM     40  C   UNL A   1      41.389  24.983  27.876  1.00  0.00     0.031 C 
ATOM     41  C   UNL A   1      46.074  23.796  26.435  1.00  0.00     0.029 A 
ATOM     42  N   UNL A   1      45.702  25.884  27.134  1.00  0.00    -0.354 N 
ATOM     43  C   UNL A   1      41.714  27.222  28.137  1.00  0.00     0.074 A 
ATOM     44  C   UNL A   1      40.765  26.138  28.037  1.00  0.00     0.031 C 
ATOM     45  C   UNL A   1      47.243  24.455  26.370  1.00  0.00     0.029 A 
ATOM     46  C   UNL A   1      47.038  25.829  26.813  1.00  0.00     0.049 A 
ATOM     47  H   UNL A   1      45.260  26.702  27.455  1.00  0.00     0.167 HD
ATOM     48  C   UNL A   1      41.386  28.481  28.513  1.00  0.00     0.037 A 
ATOM     49  C   UNL A   1      47.989  26.780  26.878  1.00  0.00     0.037 A 
ATOM     50  C   UNL A   1      42.343  29.537  28.689  1.00  0.00     0.049 A 
ATOM     51  C   UNL A   1      47.618  28.151  27.369  1.00  0.00     0.074 A 
ATOM     52  C   UNL A   1      42.135  30.824  29.153  1.00  0.00     0.029 A 
ATOM     53  N   UNL A   1      43.700  29.418  28.425  1.00  0.00    -0.354 N 
ATOM     54  N   UNL A   1      46.444  28.611  27.727  1.00  0.00    -0.248 NA
ATOM     55  C   UNL A   1      48.706  29.133  27.478  1.00  0.00     0.031 C 
ATOM     56  C   UNL A   1      43.364  31.493  29.144  1.00  0.00     0.029 A 
ATOM     57  C   UNL A   1      44.341  30.609  28.713  1.00  0.00     0.049 A 
ATOM     58  H   UNL A   1      44.140  28.607  28.085  1.00  0.00     0.167 HD
ATOM     59  C   UNL A   1      46.655  29.923  28.130  1.00  0.00     0.074 A 
ATOM     60  C   UNL A   1      48.073  30.180  27.988  1.00  0.00     0.031 C 
ATOM     61  C   UNL A   1      45.758  30.836  28.577  1.00  0.00     0.037 A 
BRANCH  48  62
ATOM     62  C   UNL A   1      39.936  28.763  28.787  1.00  0.00     0.057 A 
ATOM     63  C   UNL A   1      39.383  28.621  30.068  1.00  0.00     0.134 A 
ATOM     64  C   UNL A   1      39.081  29.185  27.761  1.00  0.00     0.134 A 
ATOM     65  F   UNL A   1      40.142  28.204  31.093  1.00  0.00    -0.206 F 
ATOM     66  C   UNL A   1      38.027  28.847  30.310  1.00  0.00     0.040 A 
ATOM     67  C   UNL A   1      37.730  29.446  27.998  1.00  0.00     0.040 A 
ATOM     68  F   UNL A   1      39.543  29.348  26.512  1.00  0.00    -0.206 F 
ATOM     69  C   UNL A   1      37.198  29.267  29.273  1.00  0.00     0.006 A 
ENDBRANCH  48  62
BRANCH  49  70
ATOM     70  C   UNL A   1      49.395  26.454  26.526  1.00  0.00     0.057 A 
ATOM     71  C   UNL A   1      50.295  26.009  27.503  1.00  0.00     0.134 A 
ATOM     72  C   UNL A   1      49.879  26.585  25.219  1.00  0.00     0.134 A 
ATOM     73  F   UNL A   1      49.896  25.878  28.777  1.00  0.00    -0.206 F 
ATOM     74  C   UNL A   1      51.628  25.726  27.198  1.00  0.00     0.040 A 
ATOM     75  C   UNL A   1      51.203  26.284  24.896  1.00  0.00     0.040 A 
ATOM     76  F   UNL A   1      49.066  26.996  24.234  1.00  0.00    -0.206 F 
ATOM     77  C   UNL A   1      52.085  25.859  25.890  1.00  0.00     0.006 A 
ENDBRANCH  49  70
BRANCH  61  78
ATOM     78  C   UNL A   1      46.290  32.177  28.980  1.00  0.00     0.057 A 
ATOM     79  C   UNL A   1      46.362  33.246  28.078  1.00  0.00     0.134 A 
ATOM     80  C   UNL A   1      46.699  32.412  30.299  1.00  0.00     0.134 A 
ATOM     81  F   UNL A   1      45.996  33.081  26.799  1.00  0.00    -0.206 F 
ATOM     82  C   UNL A   1      46.847  34.495  28.468  1.00  0.00     0.040 A 
ATOM     83  C   UNL A   1      47.160  33.663  30.708  1.00  0.00     0.040 A 
ATOM     84  F   UNL A   1      46.644  31.432  31.214  1.00  0.00    -0.206 F 
ATOM     85  C   UNL A   1      47.242  34.707  29.788  1.00  0.00     0.006 A 
ENDBRANCH  61  78
ENDBRANCH  35  36
ENDBRANCH  27  30
ENDBRANCH  25  26
ENDBRANCH  24  25
ENDBRANCH  23  24
ENDBRANCH   1  23
TORSDOF 16
ENDMDL
MODEL 2
REMARK VINA RESULT:     -11.0      1.849      7.208
REMARK SMILES CNC(=O)c1ccc(N(CCC(=O)NCCCCNC(=O)c2ccc(-c3c4nc(c(-c5c(F)cccc5F)c5ccc([nH]5)c(-c5c(F)cccc5F)c5nc(c(-c6c(F)cccc6F)c6ccc3[nH]6)C=C5)C=C4)cc2)C2CC2)nn1
REMARK SMILES IDX 15 1 14 2 12 3 13 4 11 6 10 7 9 8 8 9 5 10 6 11 80 12 7 13
REMARK SMILES IDX 79 14 3 15 1 16 2 17 4 19 76 20 77 21 78 22 16 23 17 24
REMARK SMILES IDX 18 25 19 26 20 27 21 29 22 30 23 31 75 32 24 33 74 34 25 35
REMARK SMILES IDX 26 36 27 37 68 38 28 39 73 40 67 41 69 42 29 43 72 44 66 45
REMARK SMILES IDX 65 46 30 48 56 49 39 50 55 51 40 52 43 53 54 54 70 55 41 56
REMARK SMILES IDX 42 57 53 59 71 60 44 61 31 62 32 63 37 64 33 65 34 66 36 67
REMARK SMILES IDX 38 68 35 69 57 70 58 71 63 72 59 73 60 74 62 75 64 76 61 77
REMARK SMILES IDX 45 78 46 79 51 80 47 81 48 82 50 83 52 84 49 85
REMARK H PARENT 14 5 2 18 19 28 69 47 43 58
REMARK Flexibility Score: inf
ROOT
ATOM      1  C   UNL A   1      37.445  22.268  25.505  1.00  0.00     0.116 C 
ENDROOT
BRANCH   1   2
ATOM      2  N   UNL A   1      36.134  22.492  26.096  1.00  0.00    -0.356 N 
ATOM      3  C   UNL A   1      35.147  23.370  25.773  1.00  0.00     0.221 C 
ATOM      4  O   UNL A   1      34.258  23.563  26.604  1.00  0.00    -0.275 OA
ATOM      5  H   UNL A   1      35.927  21.909  26.861  1.00  0.00     0.163 HD
BRANCH   3   6
ATOM      6  C   UNL A   1      35.115  24.052  24.425  1.00  0.00     0.121 C 
BRANCH   6   7
ATOM      7  C   UNL A   1      34.627  23.102  23.328  1.00  0.00     0.128 C 
BRANCH   7   8
ATOM      8  N   UNL A   1      33.151  23.076  23.209  1.00  0.00    -0.352 N 
BRANCH   8   9
ATOM      9  C   UNL A   1      32.537  24.333  23.003  1.00  0.00     0.151 A 
ATOM     10  C   UNL A   1      31.501  26.863  22.691  1.00  0.00     0.150 A 
ATOM     11  C   UNL A   1      31.160  26.158  23.821  1.00  0.00     0.040 A 
ATOM     12  N   UNL A   1      32.291  26.347  21.729  1.00  0.00    -0.143 NA
ATOM     13  C   UNL A   1      31.672  24.872  23.956  1.00  0.00     0.051 A 
ATOM     14  N   UNL A   1      32.799  25.066  21.893  1.00  0.00    -0.132 NA
BRANCH  10  15
ATOM     15  C   UNL A   1      31.030  28.252  22.540  1.00  0.00     0.271 C 
ATOM     16  C   UNL A   1      33.035  29.180  23.787  1.00  0.00     0.143 C 
ATOM     17  N   UNL A   1      31.766  29.270  23.102  1.00  0.00    -0.354 N 
ATOM     18  H   UNL A   1      31.378  30.171  23.028  1.00  0.00     0.163 HD
ATOM     19  O   UNL A   1      29.953  28.481  21.998  1.00  0.00    -0.267 OA
ENDBRANCH  10  15
ENDBRANCH   8   9
BRANCH   8  20
ATOM     20  C   UNL A   1      32.475  21.917  23.828  1.00  0.00     0.084 C 
ATOM     21  C   UNL A   1      32.226  20.650  23.052  1.00  0.00     0.027 C 
ATOM     22  C   UNL A   1      33.075  20.623  24.287  1.00  0.00     0.027 C 
ENDBRANCH   8  20
ENDBRANCH   7   8
ENDBRANCH   6   7
ENDBRANCH   3   6
ENDBRANCH   1   2
BRANCH   1  23
ATOM     23  C   UNL A   1      37.364  21.008  24.637  1.00  0.00     0.023 C 
BRANCH  23  24
ATOM     24  C   UNL A   1      38.235  19.804  24.997  1.00  0.00     0.023 C 
BRANCH  24  25
ATOM     25  C   UNL A   1      39.437  20.075  25.890  1.00  0.00     0.116 C 
BRANCH  25  26
ATOM     26  N   UNL A   1      40.415  18.987  25.934  1.00  0.00    -0.352 N 
ATOM     27  C   UNL A   1      41.786  19.033  26.108  1.00  0.00     0.251 C 
ATOM     28  H   UNL A   1      40.039  18.084  25.823  1.00  0.00     0.163 HD
ATOM     29  O   UNL A   1      42.463  18.017  25.976  1.00  0.00    -0.269 OA
BRANCH  27  30
ATOM     30  C   UNL A   1      42.438  20.324  26.425  1.00  0.00     0.039 A 
ATOM     31  C   UNL A   1      43.035  21.082  25.415  1.00  0.00     0.014 A 
ATOM     32  C   UNL A   1      42.384  20.819  27.724  1.00  0.00     0.014 A 
ATOM     33  C   UNL A   1      43.459  22.387  25.694  1.00  0.00     0.010 A 
ATOM     34  C   UNL A   1      42.644  22.161  27.955  1.00  0.00     0.010 A 
ATOM     35  C   UNL A   1      43.202  22.962  26.950  1.00  0.00    -0.014 A 
BRANCH  35  36
ATOM     36  C   UNL A   1      43.521  24.381  27.266  1.00  0.00     0.031 A 
ATOM     37  C   UNL A   1      44.946  24.866  27.167  1.00  0.00     0.074 A 
ATOM     38  C   UNL A   1      42.564  25.202  27.746  1.00  0.00     0.049 A 
ATOM     39  N   UNL A   1      45.462  26.011  27.534  1.00  0.00    -0.248 NA
ATOM     40  C   UNL A   1      45.939  23.910  26.646  1.00  0.00     0.031 C 
ATOM     41  C   UNL A   1      41.164  24.838  27.980  1.00  0.00     0.029 A 
ATOM     42  N   UNL A   1      42.629  26.517  28.134  1.00  0.00    -0.354 N 
ATOM     43  C   UNL A   1      46.832  25.890  27.331  1.00  0.00     0.074 A 
ATOM     44  C   UNL A   1      47.077  24.536  26.892  1.00  0.00     0.031 C 
ATOM     45  C   UNL A   1      40.495  25.915  28.424  1.00  0.00     0.029 A 
ATOM     46  C   UNL A   1      41.423  27.034  28.545  1.00  0.00     0.049 A 
ATOM     47  H   UNL A   1      43.462  27.042  28.120  1.00  0.00     0.167 HD
ATOM     48  C   UNL A   1      47.797  26.831  27.455  1.00  0.00     0.037 A 
ATOM     49  C   UNL A   1      41.103  28.273  28.964  1.00  0.00     0.037 A 
ATOM     50  C   UNL A   1      47.540  28.197  27.815  1.00  0.00     0.049 A 
ATOM     51  C   UNL A   1      42.178  29.323  29.022  1.00  0.00     0.074 A 
ATOM     52  C   UNL A   1      48.429  29.255  27.882  1.00  0.00     0.029 A 
ATOM     53  N   UNL A   1      46.291  28.697  28.151  1.00  0.00    -0.354 N 
ATOM     54  N   UNL A   1      43.456  29.213  28.755  1.00  0.00    -0.248 NA
ATOM     55  C   UNL A   1      41.763  30.673  29.428  1.00  0.00     0.031 C 
ATOM     56  C   UNL A   1      47.720  30.393  28.285  1.00  0.00     0.029 A 
ATOM     57  C   UNL A   1      46.385  30.049  28.430  1.00  0.00     0.049 A 
ATOM     58  H   UNL A   1      45.461  28.170  28.185  1.00  0.00     0.167 HD
ATOM     59  C   UNL A   1      43.993  30.482  28.931  1.00  0.00     0.074 A 
ATOM     60  C   UNL A   1      42.897  31.349  29.312  1.00  0.00     0.031 C 
ATOM     61  C   UNL A   1      45.276  30.894  28.792  1.00  0.00     0.037 A 
BRANCH  48  62
ATOM     62  C   UNL A   1      49.211  26.411  27.165  1.00  0.00     0.057 A 
ATOM     63  C   UNL A   1      49.745  26.455  25.868  1.00  0.00     0.134 A 
ATOM     64  C   UNL A   1      50.050  25.961  28.191  1.00  0.00     0.134 A 
ATOM     65  F   UNL A   1      48.990  26.860  24.836  1.00  0.00    -0.206 F 
ATOM     66  C   UNL A   1      51.045  26.027  25.597  1.00  0.00     0.040 A 
ATOM     67  C   UNL A   1      51.364  25.562  27.938  1.00  0.00     0.040 A 
ATOM     68  F   UNL A   1      49.608  25.898  29.456  1.00  0.00    -0.206 F 
ATOM     69  C   UNL A   1      51.861  25.585  26.636  1.00  0.00     0.006 A 
ENDBRANCH  48  62
BRANCH  49  70
ATOM     70  C   UNL A   1      39.696  28.607  29.304  1.00  0.00     0.057 A 
ATOM     71  C   UNL A   1      38.830  29.135  28.337  1.00  0.00     0.134 A 
ATOM     72  C   UNL A   1      39.182  28.418  30.591  1.00  0.00     0.134 A 
ATOM     73  F   UNL A   1      39.268  29.353  27.088  1.00  0.00    -0.206 F 
ATOM     74  C   UNL A   1      37.513  29.482  28.643  1.00  0.00     0.040 A 
ATOM     75  C   UNL A   1      37.860  28.739  30.906  1.00  0.00     0.040 A 
ATOM     76  F   UNL A   1      39.955  27.906  31.560  1.00  0.00    -0.206 F 
ATOM     77  C   UNL A   1      37.023  29.281  29.930  1.00  0.00     0.006 A 
ENDBRANCH  49  70
BRANCH  61  78
ATOM     78  C   UNL A   1      45.554  32.351  29.014  1.00  0.00     0.057 A 
ATOM     79  C   UNL A   1      45.460  33.288  27.978  1.00  0.00     0.134 A 
ATOM     80  C   UNL A   1      45.883  32.824  30.291  1.00  0.00     0.134 A 
ATOM     81  F   UNL A   1      45.161  32.895  26.731  1.00  0.00    -0.206 F 
ATOM     82  C   UNL A   1      45.708  34.643  28.199  1.00  0.00     0.040 A 
ATOM     83  C   UNL A   1      46.107  34.180  30.530  1.00  0.00     0.040 A 
ATOM     84  F   UNL A   1      45.979  31.978  31.328  1.00  0.00    -0.206 F 
ATOM     85  C   UNL A   1      46.027  35.093  29.480  1.00  0.00     0.006 A 
ENDBRANCH  61  78
ENDBRANCH  35  36
ENDBRANCH  27  30
ENDBRANCH  25  26
ENDBRANCH  24  25
ENDBRANCH  23  24
ENDBRANCH   1  23
TORSDOF 16
ENDMDL
MODEL 3
REMARK VINA RESULT:     -10.9      6.518     10.815
REMARK SMILES CNC(=O)c1ccc(N(CCC(=O)NCCCCNC(=O)c2ccc(-c3c4nc(c(-c5c(F)cccc5F)c5ccc([nH]5)c(-c5c(F)cccc5F)c5nc(c(-c6c(F)cccc6F)c6ccc3[nH]6)C=C5)C=C4)cc2)C2CC2)nn1
REMARK SMILES IDX 15 1 14 2 12 3 13 4 11 6 10 7 9 8 8 9 5 10 6 11 80 12 7 13
REMARK SMILES IDX 79 14 3 15 1 16 2 17 4 19 76 20 77 21 78 22 16 23 17 24
REMARK SMILES IDX 18 25 19 26 20 27 21 29 22 30 23 31 75 32 24 33 74 34 25 35
REMARK SMILES IDX 26 36 27 37 68 38 28 39 73 40 67 41 69 42 29 43 72 44 66 45
REMARK SMILES IDX 65 46 30 48 56 49 39 50 55 51 40 52 43 53 54 54 70 55 41 56
REMARK SMILES IDX 42 57 53 59 71 60 44 61 31 62 32 63 37 64 33 65 34 66 36 67
REMARK SMILES IDX 38 68 35 69 57 70 58 71 63 72 59 73 60 74 62 75 64 76 61 77
REMARK SMILES IDX 45 78 46 79 51 80 47 81 48 82 50 83 52 84 49 85
REMARK H PARENT 14 5 2 18 19 28 69 47 43 58
REMARK Flexibility Score: inf
ROOT
ATOM      1  C   UNL A   1      34.531  31.752  28.257  1.00  0.00     0.116 C 
ENDROOT
BRANCH   1   2
ATOM      2  N   UNL A   1      33.271  31.722  27.530  1.00  0.00    -0.356 N 
ATOM      3  C   UNL A   1      32.607  30.696  26.933  1.00  0.00     0.221 C 
ATOM      4  O   UNL A   1      31.713  30.980  26.135  1.00  0.00    -0.275 OA
ATOM      5  H   UNL A   1      32.822  32.595  27.457  1.00  0.00     0.163 HD
BRANCH   3   6
ATOM      6  C   UNL A   1      32.925  29.257  27.269  1.00  0.00     0.121 C 
BRANCH   6   7
ATOM      7  C   UNL A   1      33.125  28.417  26.005  1.00  0.00     0.128 C 
BRANCH   7   8
ATOM      8  N   UNL A   1      31.975  27.528  25.722  1.00  0.00    -0.352 N 
BRANCH   8   9
ATOM      9  C   UNL A   1      32.197  26.153  25.967  1.00  0.00     0.151 A 
ATOM     10  C   UNL A   1      32.739  23.531  26.603  1.00  0.00     0.150 A 
ATOM     11  C   UNL A   1      33.576  24.170  25.719  1.00  0.00     0.040 A 
ATOM     12  N   UNL A   1      31.657  24.133  27.135  1.00  0.00    -0.143 NA
ATOM     13  C   UNL A   1      33.279  25.489  25.389  1.00  0.00     0.051 A 
ATOM     14  N   UNL A   1      31.387  25.452  26.799  1.00  0.00    -0.132 NA
BRANCH  10  15
ATOM     15  C   UNL A   1      33.055  22.155  27.027  1.00  0.00     0.271 C 
ATOM     16  C   UNL A   1      31.992  21.156  24.951  1.00  0.00     0.143 C 
ATOM     17  N   UNL A   1      32.650  21.105  26.237  1.00  0.00    -0.354 N 
ATOM     18  H   UNL A   1      32.830  20.205  26.593  1.00  0.00     0.163 HD
ATOM     19  O   UNL A   1      33.594  21.954  28.111  1.00  0.00    -0.267 OA
ENDBRANCH  10  15
ENDBRANCH   8   9
BRANCH   8  20
ATOM     20  C   UNL A   1      30.981  28.046  24.759  1.00  0.00     0.084 C 
ATOM     21  C   UNL A   1      31.259  28.062  23.279  1.00  0.00     0.027 C 
ATOM     22  C   UNL A   1      30.102  27.277  23.820  1.00  0.00     0.027 C 
ENDBRANCH   8  20
ENDBRANCH   7   8
ENDBRANCH   6   7
ENDBRANCH   3   6
ENDBRANCH   1   2
BRANCH   1  23
ATOM     23  C   UNL A   1      34.613  33.084  29.008  1.00  0.00     0.023 C 
BRANCH  23  24
ATOM     24  C   UNL A   1      33.414  34.032  28.967  1.00  0.00     0.023 C 
BRANCH  24  25
ATOM     25  C   UNL A   1      33.674  35.477  29.364  1.00  0.00     0.116 C 
BRANCH  25  26
ATOM     26  N   UNL A   1      32.751  36.002  30.373  1.00  0.00    -0.352 N 
ATOM     27  C   UNL A   1      32.734  35.815  31.742  1.00  0.00     0.251 C 
ATOM     28  H   UNL A   1      32.033  36.576  30.021  1.00  0.00     0.163 HD
ATOM     29  O   UNL A   1      31.791  36.227  32.413  1.00  0.00    -0.269 OA
BRANCH  27  30
ATOM     30  C   UNL A   1      33.846  35.087  32.393  1.00  0.00     0.039 A 
ATOM     31  C   UNL A   1      33.672  33.771  32.829  1.00  0.00     0.014 A 
ATOM     32  C   UNL A   1      35.095  35.693  32.498  1.00  0.00     0.014 A 
ATOM     33  C   UNL A   1      34.785  33.033  33.249  1.00  0.00     0.010 A 
ATOM     34  C   UNL A   1      36.213  34.914  32.748  1.00  0.00     0.010 A 
ATOM     35  C   UNL A   1      36.076  33.577  33.144  1.00  0.00    -0.014 A 
BRANCH  35  36
ATOM     36  C   UNL A   1      37.305  32.799  33.461  1.00  0.00     0.031 A 
ATOM     37  C   UNL A   1      38.050  33.071  34.745  1.00  0.00     0.074 A 
ATOM     38  C   UNL A   1      37.816  31.938  32.557  1.00  0.00     0.049 A 
ATOM     39  N   UNL A   1      39.211  32.617  35.144  1.00  0.00    -0.248 NA
ATOM     40  C   UNL A   1      37.438  34.033  35.678  1.00  0.00     0.031 C 
ATOM     41  C   UNL A   1      37.250  31.648  31.238  1.00  0.00     0.029 A 
ATOM     42  N   UNL A   1      38.939  31.150  32.612  1.00  0.00    -0.354 N 
ATOM     43  C   UNL A   1      39.480  33.273  36.340  1.00  0.00     0.074 A 
ATOM     44  C   UNL A   1      38.408  34.215  36.558  1.00  0.00     0.031 C 
ATOM     45  C   UNL A   1      38.000  30.714  30.630  1.00  0.00     0.029 A 
ATOM     46  C   UNL A   1      39.121  30.367  31.496  1.00  0.00     0.049 A 
ATOM     47  H   UNL A   1      39.557  31.146  33.378  1.00  0.00     0.167 HD
ATOM     48  C   UNL A   1      40.503  33.080  37.205  1.00  0.00     0.037 A 
ATOM     49  C   UNL A   1      40.081  29.467  31.210  1.00  0.00     0.037 A 
ATOM     50  C   UNL A   1      41.525  32.086  37.025  1.00  0.00     0.049 A 
ATOM     51  C   UNL A   1      41.167  29.214  32.219  1.00  0.00     0.074 A 
ATOM     52  C   UNL A   1      42.556  31.742  37.881  1.00  0.00     0.029 A 
ATOM     53  N   UNL A   1      41.630  31.262  35.915  1.00  0.00    -0.354 N 
ATOM     54  N   UNL A   1      41.367  29.788  33.380  1.00  0.00    -0.248 NA
ATOM     55  C   UNL A   1      42.154  28.178  31.883  1.00  0.00     0.031 C 
ATOM     56  C   UNL A   1      43.303  30.725  37.274  1.00  0.00     0.029 A 
ATOM     57  C   UNL A   1      42.712  30.411  36.061  1.00  0.00     0.049 A 
ATOM     58  H   UNL A   1      41.025  31.279  35.139  1.00  0.00     0.167 HD
ATOM     59  C   UNL A   1      42.482  29.165  33.926  1.00  0.00     0.074 A 
ATOM     60  C   UNL A   1      42.904  28.158  32.975  1.00  0.00     0.031 C 
ATOM     61  C   UNL A   1      43.103  29.406  35.107  1.00  0.00     0.037 A 
BRANCH  48  62
ATOM     62  C   UNL A   1      40.539  33.942  38.435  1.00  0.00     0.057 A 
ATOM     63  C   UNL A   1      39.839  33.599  39.601  1.00  0.00     0.134 A 
ATOM     64  C   UNL A   1      41.284  35.128  38.459  1.00  0.00     0.134 A 
ATOM     65  F   UNL A   1      39.092  32.485  39.641  1.00  0.00    -0.206 F 
ATOM     66  C   UNL A   1      39.843  34.422  40.728  1.00  0.00     0.040 A 
ATOM     67  C   UNL A   1      41.324  35.943  39.591  1.00  0.00     0.040 A 
ATOM     68  F   UNL A   1      41.983  35.515  37.381  1.00  0.00    -0.206 F 
ATOM     69  C   UNL A   1      40.593  35.596  40.726  1.00  0.00     0.006 A 
ENDBRANCH  48  62
BRANCH  49  70
ATOM     70  C   UNL A   1      40.027  28.695  29.942  1.00  0.00     0.057 A 
ATOM     71  C   UNL A   1      39.299  27.500  29.860  1.00  0.00     0.134 A 
ATOM     72  C   UNL A   1      40.699  29.117  28.790  1.00  0.00     0.134 A 
ATOM     73  F   UNL A   1      38.646  27.034  30.935  1.00  0.00    -0.206 F 
ATOM     74  C   UNL A   1      39.259  26.744  28.687  1.00  0.00     0.040 A 
ATOM     75  C   UNL A   1      40.649  28.383  27.604  1.00  0.00     0.040 A 
ATOM     76  F   UNL A   1      41.405  30.258  28.799  1.00  0.00    -0.206 F 
ATOM     77  C   UNL A   1      39.933  27.188  27.552  1.00  0.00     0.006 A 
ENDBRANCH  49  70
BRANCH  61  78
ATOM     78  C   UNL A   1      44.276  28.539  35.451  1.00  0.00     0.057 A 
ATOM     79  C   UNL A   1      45.584  28.889  35.094  1.00  0.00     0.134 A 
ATOM     80  C   UNL A   1      44.096  27.357  36.181  1.00  0.00     0.134 A 
ATOM     81  F   UNL A   1      45.821  30.002  34.384  1.00  0.00    -0.206 F 
ATOM     82  C   UNL A   1      46.671  28.081  35.431  1.00  0.00     0.040 A 
ATOM     83  C   UNL A   1      45.176  26.555  36.548  1.00  0.00     0.040 A 
ATOM     84  F   UNL A   1      42.868  26.972  36.562  1.00  0.00    -0.206 F 
ATOM     85  C   UNL A   1      46.468  26.913  36.166  1.00  0.00     0.006 A 
ENDBRANCH  61  78
ENDBRANCH  35  36
ENDBRANCH  27  30
ENDBRANCH  25  26
ENDBRANCH  24  25
ENDBRANCH  23  24
ENDBRANCH   1  23
TORSDOF 16
ENDMDL
