MODEL 1
REMARK VINA RESULT:     -13.6      0.000      0.000
REMARK SMILES Cc1c(NCc2ccccn2)cccc1C(=O)N1CCOC[C@@H]1CC(=O)NCCCCNC(=O)c1ccc(-c2c3nc(c(-c4c(F)cccc4F)c4ccc([nH]4)c(-c4c(F)cccc4F)c4nc(c(-c5c(F)cccc5F)c5ccc2[nH]5)C=C4)C=C3)cc1
REMARK SMILES IDX 25 1 26 2 27 3 24 5 23 6 18 7 19 8 20 9 22 10 21 11 16 12
REMARK SMILES IDX 17 13 15 14 1 15 2 16 3 17 12 18 14 19 13 20 4 21 5 23 6 24
REMARK SMILES IDX 7 25 11 26 8 27 10 28 9 29 28 30 29 31 30 32 31 33 32 34
REMARK SMILES IDX 33 35 34 37 35 38 36 39 88 40 37 41 87 42 38 43 39 44 40 45
REMARK SMILES IDX 81 46 41 47 86 48 80 49 82 50 42 51 85 52 79 53 78 54 43 56
REMARK SMILES IDX 69 57 52 58 68 59 53 60 56 61 67 62 83 63 54 64 55 65 66 67
REMARK SMILES IDX 84 68 57 69 44 70 45 71 50 72 46 73 47 74 49 75 51 76 48 77
REMARK SMILES IDX 70 78 71 79 76 80 72 81 73 82 75 83 77 84 74 85 58 86 59 87
REMARK SMILES IDX 64 88 60 89 61 90 63 91 65 92 62 93
REMARK H PARENT 27 4 4 22 32 36 82 55 56 66
REMARK Flexibility Score: inf
ROOT
ATOM      1  C   UNL A   1      32.652  29.356  27.261  1.00  0.00     0.222 C 
ATOM      2  O   UNL A   1      31.628  28.879  27.746  1.00  0.00    -0.275 OA
ATOM      3  N   UNL A   1      33.357  30.262  28.002  1.00  0.00    -0.356 N 
ATOM      4  H   UNL A   1      33.307  30.196  28.982  1.00  0.00     0.163 HD
ENDROOT
BRANCH   1   5
ATOM      5  C   UNL A   1      33.189  28.915  25.900  1.00  0.00     0.127 C 
BRANCH   5   6
ATOM      6  C   UNL A   1      32.218  28.476  24.779  1.00  0.00     0.120 C 
ATOM      7  N   UNL A   1      31.721  27.040  24.672  1.00  0.00    -0.331 N 
ATOM      8  C   UNL A   1      30.637  26.987  23.680  1.00  0.00     0.148 C 
ATOM      9  C   UNL A   1      31.043  27.581  22.324  1.00  0.00     0.181 C 
ATOM     10  C   UNL A   1      32.680  28.937  23.373  1.00  0.00     0.185 C 
ATOM     11  O   UNL A   1      31.576  28.902  22.453  1.00  0.00    -0.377 OA
BRANCH   7  12
ATOM     12  C   UNL A   1      31.488  26.221  25.793  1.00  0.00     0.254 C 
ATOM     13  O   UNL A   1      30.637  26.514  26.629  1.00  0.00    -0.269 OA
BRANCH  12  14
ATOM     14  C   UNL A   1      32.479  25.082  26.143  1.00  0.00     0.045 A 
ATOM     15  C   UNL A   1      30.657  22.905  26.671  1.00  0.00     0.047 C 
ATOM     16  C   UNL A   1      32.005  23.330  26.198  1.00  0.00    -0.015 A 
ATOM     17  C   UNL A   1      33.148  22.029  25.629  1.00  0.00     0.038 A 
ATOM     18  C   UNL A   1      34.727  22.492  24.880  1.00  0.00     0.026 A 
ATOM     19  C   UNL A   1      34.139  25.521  25.544  1.00  0.00     0.014 A 
ATOM     20  C   UNL A   1      35.248  24.258  24.874  1.00  0.00     0.003 A 
BRANCH  17  21
ATOM     21  N   UNL A   1      32.756  20.696  25.698  1.00  0.00    -0.379 N 
ATOM     22  H   UNL A   1      32.747  20.235  26.568  1.00  0.00     0.160 HD
BRANCH  21  23
ATOM     23  C   UNL A   1      32.356  19.976  24.495  1.00  0.00     0.169 C 
BRANCH  23  24
ATOM     24  C   UNL A   1      32.743  18.503  24.544  1.00  0.00     0.059 A 
ATOM     25  C   UNL A   1      33.451  17.897  23.504  1.00  0.00     0.026 A 
ATOM     26  N   UNL A   1      32.332  17.797  25.631  1.00  0.00    -0.259 NA
ATOM     27  C   UNL A   1      33.771  16.544  23.590  1.00  0.00     0.004 A 
ATOM     28  C   UNL A   1      32.640  16.480  25.678  1.00  0.00     0.111 A 
ATOM     29  C   UNL A   1      33.355  15.817  24.696  1.00  0.00     0.020 A 
ENDBRANCH  23  24
ENDBRANCH  21  23
ENDBRANCH  17  21
ENDBRANCH  12  14
ENDBRANCH   7  12
ENDBRANCH   5   6
ENDBRANCH   1   5
BRANCH   3  30
ATOM     30  C   UNL A   1      34.166  31.306  27.436  1.00  0.00     0.116 C 
BRANCH  30  31
ATOM     31  C   UNL A   1      33.793  32.609  28.150  1.00  0.00     0.023 C 
BRANCH  31  32
ATOM     32  C   UNL A   1      34.519  33.888  27.729  1.00  0.00     0.023 C 
BRANCH  32  33
ATOM     33  C   UNL A   1      35.812  34.157  28.748  1.00  0.00     0.116 C 
BRANCH  33  34
ATOM     34  N   UNL A   1      36.822  32.976  30.143  1.00  0.00    -0.352 N 
ATOM     35  C   UNL A   1      37.264  31.649  30.651  1.00  0.00     0.251 C 
ATOM     36  H   UNL A   1      37.191  33.620  30.789  1.00  0.00     0.163 HD
ATOM     37  O   UNL A   1      37.835  31.686  31.753  1.00  0.00    -0.269 OA
BRANCH  35  38
ATOM     38  C   UNL A   1      37.291  30.291  29.953  1.00  0.00     0.039 A 
ATOM     39  C   UNL A   1      37.331  29.175  30.786  1.00  0.00     0.014 A 
ATOM     40  C   UNL A   1      37.594  30.074  28.615  1.00  0.00     0.014 A 
ATOM     41  C   UNL A   1      38.162  28.105  30.449  1.00  0.00     0.010 A 
ATOM     42  C   UNL A   1      38.560  29.108  28.327  1.00  0.00     0.010 A 
ATOM     43  C   UNL A   1      38.980  28.229  29.334  1.00  0.00    -0.014 A 
BRANCH  43  44
ATOM     44  C   UNL A   1      40.401  27.794  29.361  1.00  0.00     0.031 A 
ATOM     45  C   UNL A   1      40.827  26.463  28.870  1.00  0.00     0.074 A 
ATOM     46  C   UNL A   1      41.380  28.662  29.747  1.00  0.00     0.049 A 
ATOM     47  N   UNL A   1      42.019  25.991  29.015  1.00  0.00    -0.248 NA
ATOM     48  C   UNL A   1      39.925  25.507  28.244  1.00  0.00     0.031 C 
ATOM     49  C   UNL A   1      42.831  28.557  29.552  1.00  0.00     0.029 A 
ATOM     50  N   UNL A   1      41.254  29.787  30.569  1.00  0.00    -0.354 N 
ATOM     51  C   UNL A   1      42.116  24.801  28.344  1.00  0.00     0.074 A 
ATOM     52  C   UNL A   1      40.764  24.511  27.941  1.00  0.00     0.031 C 
ATOM     53  C   UNL A   1      43.459  29.353  30.429  1.00  0.00     0.029 A 
ATOM     54  C   UNL A   1      42.456  29.929  31.296  1.00  0.00     0.049 A 
ATOM     55  H   UNL A   1      40.466  30.375  30.631  1.00  0.00     0.167 HD
ATOM     56  C   UNL A   1      43.352  24.243  28.179  1.00  0.00     0.037 A 
ATOM     57  C   UNL A   1      42.442  29.855  32.658  1.00  0.00     0.037 A 
ATOM     58  C   UNL A   1      44.314  24.846  29.113  1.00  0.00     0.049 A 
ATOM     59  C   UNL A   1      43.094  28.597  33.198  1.00  0.00     0.074 A 
ATOM     60  C   UNL A   1      45.363  25.746  29.038  1.00  0.00     0.029 A 
ATOM     61  N   UNL A   1      44.064  24.680  30.466  1.00  0.00    -0.354 N 
ATOM     62  N   UNL A   1      43.742  27.731  32.466  1.00  0.00    -0.248 NA
ATOM     63  C   UNL A   1      42.999  28.170  34.596  1.00  0.00     0.031 C 
ATOM     64  C   UNL A   1      45.683  26.164  30.371  1.00  0.00     0.029 A 
ATOM     65  C   UNL A   1      44.856  25.490  31.253  1.00  0.00     0.049 A 
ATOM     66  H   UNL A   1      43.397  24.052  30.827  1.00  0.00     0.167 HD
ATOM     67  C   UNL A   1      44.053  26.631  33.219  1.00  0.00     0.074 A 
ATOM     68  C   UNL A   1      43.586  26.961  34.554  1.00  0.00     0.031 C 
ATOM     69  C   UNL A   1      44.621  25.506  32.692  1.00  0.00     0.037 A 
BRANCH  56  70
ATOM     70  C   UNL A   1      43.731  23.191  27.153  1.00  0.00     0.057 A 
ATOM     71  C   UNL A   1      44.619  23.510  26.103  1.00  0.00     0.134 A 
ATOM     72  C   UNL A   1      43.194  21.891  27.061  1.00  0.00     0.134 A 
ATOM     73  F   UNL A   1      45.216  24.707  26.025  1.00  0.00    -0.206 F 
ATOM     74  C   UNL A   1      44.921  22.625  25.053  1.00  0.00     0.040 A 
ATOM     75  C   UNL A   1      43.513  20.987  26.036  1.00  0.00     0.040 A 
ATOM     76  F   UNL A   1      42.295  21.415  27.924  1.00  0.00    -0.206 F 
ATOM     77  C   UNL A   1      44.369  21.355  25.017  1.00  0.00     0.006 A 
ENDBRANCH  56  70
BRANCH  57  78
ATOM     78  C   UNL A   1      41.271  30.584  33.219  1.00  0.00     0.057 A 
ATOM     79  C   UNL A   1      40.189  29.793  33.658  1.00  0.00     0.134 A 
ATOM     80  C   UNL A   1      41.386  31.863  33.765  1.00  0.00     0.134 A 
ATOM     81  F   UNL A   1      40.006  28.565  33.148  1.00  0.00    -0.206 F 
ATOM     82  C   UNL A   1      39.390  30.172  34.736  1.00  0.00     0.040 A 
ATOM     83  C   UNL A   1      40.558  32.272  34.819  1.00  0.00     0.040 A 
ATOM     84  F   UNL A   1      42.403  32.666  33.418  1.00  0.00    -0.206 F 
ATOM     85  C   UNL A   1      39.603  31.401  35.348  1.00  0.00     0.006 A 
ENDBRANCH  57  78
BRANCH  69  86
ATOM     86  C   UNL A   1      44.972  24.308  33.530  1.00  0.00     0.057 A 
ATOM     87  C   UNL A   1      46.301  23.935  33.776  1.00  0.00     0.134 A 
ATOM     88  C   UNL A   1      43.991  23.423  34.020  1.00  0.00     0.134 A 
ATOM     89  F   UNL A   1      47.321  24.672  33.311  1.00  0.00    -0.206 F 
ATOM     90  C   UNL A   1      46.631  22.780  34.497  1.00  0.00     0.040 A 
ATOM     91  C   UNL A   1      44.309  22.240  34.692  1.00  0.00     0.040 A 
ATOM     92  F   UNL A   1      42.682  23.682  33.893  1.00  0.00    -0.206 F 
ATOM     93  C   UNL A   1      45.635  21.921  34.945  1.00  0.00     0.006 A 
ENDBRANCH  69  86
ENDBRANCH  43  44
ENDBRANCH  35  38
ENDBRANCH  33  34
ENDBRANCH  32  33
ENDBRANCH  31  32
ENDBRANCH  30  31
ENDBRANCH   3  30
TORSDOF 17
ENDMDL
MODEL 2
REMARK VINA RESULT:     -13.0      1.736      2.237
REMARK SMILES Cc1c(NCc2ccccn2)cccc1C(=O)N1CCOC[C@@H]1CC(=O)NCCCCNC(=O)c1ccc(-c2c3nc(c(-c4c(F)cccc4F)c4ccc([nH]4)c(-c4c(F)cccc4F)c4nc(c(-c5c(F)cccc5F)c5ccc2[nH]5)C=C4)C=C3)cc1
REMARK SMILES IDX 25 1 26 2 27 3 24 5 23 6 18 7 19 8 20 9 22 10 21 11 16 12
REMARK SMILES IDX 17 13 15 14 1 15 2 16 3 17 12 18 14 19 13 20 4 21 5 23 6 24
REMARK SMILES IDX 7 25 11 26 8 27 10 28 9 29 28 30 29 31 30 32 31 33 32 34
REMARK SMILES IDX 33 35 34 37 35 38 36 39 88 40 37 41 87 42 38 43 39 44 40 45
REMARK SMILES IDX 81 46 41 47 86 48 80 49 82 50 42 51 85 52 79 53 78 54 43 56
REMARK SMILES IDX 69 57 52 58 68 59 53 60 56 61 67 62 83 63 54 64 55 65 66 67
REMARK SMILES IDX 84 68 57 69 44 70 45 71 50 72 46 73 47 74 49 75 51 76 48 77
REMARK SMILES IDX 70 78 71 79 76 80 72 81 73 82 75 83 77 84 74 85 58 86 59 87
REMARK SMILES IDX 64 88 60 89 61 90 63 91 65 92 62 93
REMARK H PARENT 27 4 4 22 32 36 82 55 56 66
REMARK Flexibility Score: inf
ROOT
ATOM      1  C   UNL A   1      32.828  29.915  26.749  1.00  0.00     0.222 C 
ATOM      2  O   UNL A   1      31.609  29.964  26.589  1.00  0.00    -0.275 OA
ATOM      3  N   UNL A   1      33.384  30.702  27.717  1.00  0.00    -0.356 N 
ATOM      4  H   UNL A   1      32.833  30.933  28.498  1.00  0.00     0.163 HD
ENDROOT
BRANCH   1   5
ATOM      5  C   UNL A   1      33.714  28.956  25.954  1.00  0.00     0.127 C 
BRANCH   5   6
ATOM      6  C   UNL A   1      33.210  28.339  24.628  1.00  0.00     0.120 C 
ATOM      7  N   UNL A   1      32.832  26.866  24.529  1.00  0.00    -0.331 N 
ATOM      8  C   UNL A   1      32.164  26.636  23.240  1.00  0.00     0.148 C 
ATOM      9  C   UNL A   1      32.995  27.122  22.043  1.00  0.00     0.181 C 
ATOM     10  C   UNL A   1      34.115  28.692  23.422  1.00  0.00     0.185 C 
ATOM     11  O   UNL A   1      33.401  28.485  22.190  1.00  0.00    -0.377 OA
BRANCH   7  12
ATOM     12  C   UNL A   1      32.254  26.145  25.591  1.00  0.00     0.254 C 
ATOM     13  O   UNL A   1      31.390  26.649  26.305  1.00  0.00    -0.269 OA
BRANCH  12  14
ATOM     14  C   UNL A   1      32.882  24.808  26.056  1.00  0.00     0.045 A 
ATOM     15  C   UNL A   1      30.563  23.088  26.088  1.00  0.00     0.047 C 
ATOM     16  C   UNL A   1      32.038  23.207  25.911  1.00  0.00    -0.015 A 
ATOM     17  C   UNL A   1      32.962  21.691  25.496  1.00  0.00     0.038 A 
ATOM     18  C   UNL A   1      34.722  21.798  25.097  1.00  0.00     0.026 A 
ATOM     19  C   UNL A   1      34.684  24.871  25.817  1.00  0.00     0.014 A 
ATOM     20  C   UNL A   1      35.604  23.402  25.298  1.00  0.00     0.003 A 
BRANCH  17  21
ATOM     21  N   UNL A   1      32.284  20.479  25.406  1.00  0.00    -0.379 N 
ATOM     22  H   UNL A   1      31.769  20.151  26.179  1.00  0.00     0.160 HD
BRANCH  21  23
ATOM     23  C   UNL A   1      32.327  19.693  24.179  1.00  0.00     0.169 C 
BRANCH  23  24
ATOM     24  C   UNL A   1      32.809  18.268  24.420  1.00  0.00     0.059 A 
ATOM     25  C   UNL A   1      33.625  17.606  23.500  1.00  0.00     0.026 A 
ATOM     26  N   UNL A   1      32.376  17.657  25.555  1.00  0.00    -0.259 NA
ATOM     27  C   UNL A   1      34.031  16.299  23.759  1.00  0.00     0.004 A 
ATOM     28  C   UNL A   1      32.769  16.380  25.771  1.00  0.00     0.111 A 
ATOM     29  C   UNL A   1      33.592  15.669  24.915  1.00  0.00     0.020 A 
ENDBRANCH  23  24
ENDBRANCH  21  23
ENDBRANCH  17  21
ENDBRANCH  12  14
ENDBRANCH   7  12
ENDBRANCH   5   6
ENDBRANCH   1   5
BRANCH   3  30
ATOM     30  C   UNL A   1      34.726  31.211  27.663  1.00  0.00     0.116 C 
BRANCH  30  31
ATOM     31  C   UNL A   1      34.676  32.675  28.112  1.00  0.00     0.023 C 
BRANCH  31  32
ATOM     32  C   UNL A   1      35.993  33.451  28.170  1.00  0.00     0.023 C 
BRANCH  32  33
ATOM     33  C   UNL A   1      36.515  33.549  29.750  1.00  0.00     0.116 C 
BRANCH  33  34
ATOM     34  N   UNL A   1      36.885  32.131  31.239  1.00  0.00    -0.352 N 
ATOM     35  C   UNL A   1      37.032  30.720  31.688  1.00  0.00     0.251 C 
ATOM     36  H   UNL A   1      37.040  32.664  32.052  1.00  0.00     0.163 HD
ATOM     37  O   UNL A   1      37.175  30.584  32.913  1.00  0.00    -0.269 OA
BRANCH  35  38
ATOM     38  C   UNL A   1      37.219  29.445  30.869  1.00  0.00     0.039 A 
ATOM     39  C   UNL A   1      37.833  28.381  31.524  1.00  0.00     0.014 A 
ATOM     40  C   UNL A   1      37.131  29.351  29.486  1.00  0.00     0.014 A 
ATOM     41  C   UNL A   1      38.781  27.617  30.840  1.00  0.00     0.010 A 
ATOM     42  C   UNL A   1      38.188  28.728  28.820  1.00  0.00     0.010 A 
ATOM     43  C   UNL A   1      39.135  28.001  29.553  1.00  0.00    -0.014 A 
BRANCH  43  44
ATOM     44  C   UNL A   1      40.553  28.015  29.110  1.00  0.00     0.031 A 
ATOM     45  C   UNL A   1      41.242  26.793  28.634  1.00  0.00     0.074 A 
ATOM     46  C   UNL A   1      41.237  29.192  29.028  1.00  0.00     0.049 A 
ATOM     47  N   UNL A   1      42.507  26.732  28.385  1.00  0.00    -0.248 NA
ATOM     48  C   UNL A   1      40.583  25.505  28.474  1.00  0.00     0.031 C 
ATOM     49  C   UNL A   1      42.499  29.475  28.334  1.00  0.00     0.029 A 
ATOM     50  N   UNL A   1      40.987  30.381  29.723  1.00  0.00    -0.354 N 
ATOM     51  C   UNL A   1      42.801  25.507  27.847  1.00  0.00     0.074 A 
ATOM     52  C   UNL A   1      41.579  24.756  27.990  1.00  0.00     0.031 C 
ATOM     53  C   UNL A   1      43.049  30.589  28.842  1.00  0.00     0.029 A 
ATOM     54  C   UNL A   1      42.226  31.019  29.950  1.00  0.00     0.049 A 
ATOM     55  H   UNL A   1      40.104  30.712  30.006  1.00  0.00     0.167 HD
ATOM     56  C   UNL A   1      44.038  25.312  27.305  1.00  0.00     0.037 A 
ATOM     57  C   UNL A   1      42.658  31.236  31.225  1.00  0.00     0.037 A 
ATOM     58  C   UNL A   1      44.968  26.354  27.764  1.00  0.00     0.049 A 
ATOM     59  C   UNL A   1      43.838  30.369  31.616  1.00  0.00     0.074 A 
ATOM     60  C   UNL A   1      45.562  27.483  27.225  1.00  0.00     0.029 A 
ATOM     61  N   UNL A   1      45.220  26.416  29.125  1.00  0.00    -0.354 N 
ATOM     62  N   UNL A   1      44.489  29.594  30.791  1.00  0.00    -0.248 NA
ATOM     63  C   UNL A   1      44.332  30.243  32.990  1.00  0.00     0.031 C 
ATOM     64  C   UNL A   1      46.110  28.251  28.304  1.00  0.00     0.029 A 
ATOM     65  C   UNL A   1      45.881  27.570  29.488  1.00  0.00     0.049 A 
ATOM     66  H   UNL A   1      44.958  25.713  29.762  1.00  0.00     0.167 HD
ATOM     67  C   UNL A   1      45.377  28.820  31.487  1.00  0.00     0.074 A 
ATOM     68  C   UNL A   1      45.259  29.277  32.860  1.00  0.00     0.031 C 
ATOM     69  C   UNL A   1      46.110  27.825  30.905  1.00  0.00     0.037 A 
BRANCH  56  70
ATOM     70  C   UNL A   1      44.425  24.222  26.321  1.00  0.00     0.057 A 
ATOM     71  C   UNL A   1      43.700  24.057  25.122  1.00  0.00     0.134 A 
ATOM     72  C   UNL A   1      45.413  23.236  26.522  1.00  0.00     0.134 A 
ATOM     73  F   UNL A   1      42.716  24.898  24.773  1.00  0.00    -0.206 F 
ATOM     74  C   UNL A   1      43.924  22.999  24.223  1.00  0.00     0.040 A 
ATOM     75  C   UNL A   1      45.668  22.193  25.618  1.00  0.00     0.040 A 
ATOM     76  F   UNL A   1      46.170  23.181  27.618  1.00  0.00    -0.206 F 
ATOM     77  C   UNL A   1      44.914  22.061  24.469  1.00  0.00     0.006 A 
ENDBRANCH  56  70
BRANCH  57  78
ATOM     78  C   UNL A   1      41.539  31.695  32.094  1.00  0.00     0.057 A 
ATOM     79  C   UNL A   1      40.952  30.721  32.929  1.00  0.00     0.134 A 
ATOM     80  C   UNL A   1      41.396  33.029  32.477  1.00  0.00     0.134 A 
ATOM     81  F   UNL A   1      41.028  29.422  32.599  1.00  0.00    -0.206 F 
ATOM     82  C   UNL A   1      40.434  31.042  34.183  1.00  0.00     0.040 A 
ATOM     83  C   UNL A   1      40.836  33.366  33.716  1.00  0.00     0.040 A 
ATOM     84  F   UNL A   1      41.950  34.012  31.751  1.00  0.00    -0.206 F 
ATOM     85  C   UNL A   1      40.414  32.368  34.598  1.00  0.00     0.006 A 
ENDBRANCH  57  78
BRANCH  69  86
ATOM     86  C   UNL A   1      47.095  26.988  31.676  1.00  0.00     0.057 A 
ATOM     87  C   UNL A   1      46.685  25.957  32.533  1.00  0.00     0.134 A 
ATOM     88  C   UNL A   1      48.476  27.265  31.673  1.00  0.00     0.134 A 
ATOM     89  F   UNL A   1      45.387  25.640  32.659  1.00  0.00    -0.206 F 
ATOM     90  C   UNL A   1      47.594  25.223  33.306  1.00  0.00     0.040 A 
ATOM     91  C   UNL A   1      49.385  26.576  32.481  1.00  0.00     0.040 A 
ATOM     92  F   UNL A   1      49.007  28.195  30.867  1.00  0.00    -0.206 F 
ATOM     93  C   UNL A   1      48.947  25.541  33.292  1.00  0.00     0.006 A 
ENDBRANCH  69  86
ENDBRANCH  43  44
ENDBRANCH  35  38
ENDBRANCH  33  34
ENDBRANCH  32  33
ENDBRANCH  31  32
ENDBRANCH  30  31
ENDBRANCH   3  30
TORSDOF 17
ENDMDL
MODEL 3
REMARK VINA RESULT:     -12.7      3.376      8.594
REMARK SMILES Cc1c(NCc2ccccn2)cccc1C(=O)N1CCOC[C@@H]1CC(=O)NCCCCNC(=O)c1ccc(-c2c3nc(c(-c4c(F)cccc4F)c4ccc([nH]4)c(-c4c(F)cccc4F)c4nc(c(-c5c(F)cccc5F)c5ccc2[nH]5)C=C4)C=C3)cc1
REMARK SMILES IDX 25 1 26 2 27 3 24 5 23 6 18 7 19 8 20 9 22 10 21 11 16 12
REMARK SMILES IDX 17 13 15 14 1 15 2 16 3 17 12 18 14 19 13 20 4 21 5 23 6 24
REMARK SMILES IDX 7 25 11 26 8 27 10 28 9 29 28 30 29 31 30 32 31 33 32 34
REMARK SMILES IDX 33 35 34 37 35 38 36 39 88 40 37 41 87 42 38 43 39 44 40 45
REMARK SMILES IDX 81 46 41 47 86 48 80 49 82 50 42 51 85 52 79 53 78 54 43 56
REMARK SMILES IDX 69 57 52 58 68 59 53 60 56 61 67 62 83 63 54 64 55 65 66 67
REMARK SMILES IDX 84 68 57 69 44 70 45 71 50 72 46 73 47 74 49 75 51 76 48 77
REMARK SMILES IDX 70 78 71 79 76 80 72 81 73 82 75 83 77 84 74 85 58 86 59 87
REMARK SMILES IDX 64 88 60 89 61 90 63 91 65 92 62 93
REMARK H PARENT 27 4 4 22 32 36 82 55 56 66
REMARK Flexibility Score: inf
ROOT
ATOM      1  C   UNL A   1      32.682  26.262  26.430  1.00  0.00     0.222 C 
ATOM      2  O   UNL A   1      31.665  25.897  27.020  1.00  0.00    -0.275 OA
ATOM      3  N   UNL A   1      33.226  27.468  26.769  1.00  0.00    -0.356 N 
ATOM      4  H   UNL A   1      33.093  27.794  27.688  1.00  0.00     0.163 HD
ENDROOT
BRANCH   1   5
ATOM      5  C   UNL A   1      33.381  25.383  25.395  1.00  0.00     0.127 C 
BRANCH   5   6
ATOM      6  C   UNL A   1      33.605  23.877  25.667  1.00  0.00     0.120 C 
ATOM      7  N   UNL A   1      32.438  22.933  25.932  1.00  0.00    -0.331 N 
ATOM      8  C   UNL A   1      32.934  21.550  25.906  1.00  0.00     0.148 C 
ATOM      9  C   UNL A   1      34.115  21.323  26.861  1.00  0.00     0.181 C 
ATOM     10  C   UNL A   1      34.693  23.619  26.739  1.00  0.00     0.185 C 
ATOM     11  O   UNL A   1      35.169  22.265  26.645  1.00  0.00    -0.377 OA
BRANCH   7  12
ATOM     12  C   UNL A   1      31.175  23.082  25.329  1.00  0.00     0.254 C 
ATOM     13  O   UNL A   1      30.164  22.613  25.847  1.00  0.00    -0.269 OA
BRANCH  12  14
ATOM     14  C   UNL A   1      31.064  23.599  23.873  1.00  0.00     0.045 A 
ATOM     15  C   UNL A   1      29.510  26.003  24.254  1.00  0.00     0.047 C 
ATOM     16  C   UNL A   1      30.541  25.285  23.450  1.00  0.00    -0.015 A 
ATOM     17  C   UNL A   1      31.294  26.181  22.053  1.00  0.00     0.038 A 
ATOM     18  C   UNL A   1      32.670  25.433  21.150  1.00  0.00     0.026 A 
ATOM     19  C   UNL A   1      32.333  22.795  22.849  1.00  0.00     0.014 A 
ATOM     20  C   UNL A   1      33.171  23.702  21.526  1.00  0.00     0.003 A 
BRANCH  17  21
ATOM     21  N   UNL A   1      30.858  27.467  21.750  1.00  0.00    -0.379 N 
ATOM     22  H   UNL A   1      30.421  27.643  20.886  1.00  0.00     0.160 HD
BRANCH  21  23
ATOM     23  C   UNL A   1      31.042  28.557  22.702  1.00  0.00     0.169 C 
BRANCH  23  24
ATOM     24  C   UNL A   1      29.916  29.581  22.637  1.00  0.00     0.059 A 
ATOM     25  C   UNL A   1      29.590  30.380  23.735  1.00  0.00     0.026 A 
ATOM     26  N   UNL A   1      29.219  29.654  21.472  1.00  0.00    -0.259 NA
ATOM     27  C   UNL A   1      28.544  31.294  23.630  1.00  0.00     0.004 A 
ATOM     28  C   UNL A   1      28.196  30.537  21.405  1.00  0.00     0.111 A 
ATOM     29  C   UNL A   1      27.828  31.374  22.444  1.00  0.00     0.020 A 
ENDBRANCH  23  24
ENDBRANCH  21  23
ENDBRANCH  17  21
ENDBRANCH  12  14
ENDBRANCH   7  12
ENDBRANCH   5   6
ENDBRANCH   1   5
BRANCH   3  30
ATOM     30  C   UNL A   1      33.983  28.289  25.865  1.00  0.00     0.116 C 
BRANCH  30  31
ATOM     31  C   UNL A   1      33.046  29.388  25.354  1.00  0.00     0.023 C 
BRANCH  31  32
ATOM     32  C   UNL A   1      31.985  29.927  26.315  1.00  0.00     0.023 C 
BRANCH  32  33
ATOM     33  C   UNL A   1      32.517  31.357  26.989  1.00  0.00     0.116 C 
BRANCH  33  34
ATOM     34  N   UNL A   1      34.115  31.858  28.237  1.00  0.00    -0.352 N 
ATOM     35  C   UNL A   1      35.342  31.491  28.995  1.00  0.00     0.251 C 
ATOM     36  H   UNL A   1      33.998  32.819  28.412  1.00  0.00     0.163 HD
ATOM     37  O   UNL A   1      35.796  32.401  29.707  1.00  0.00    -0.269 OA
BRANCH  35  38
ATOM     38  C   UNL A   1      36.222  30.248  28.893  1.00  0.00     0.039 A 
ATOM     39  C   UNL A   1      36.420  29.539  30.076  1.00  0.00     0.014 A 
ATOM     40  C   UNL A   1      37.079  29.946  27.843  1.00  0.00     0.014 A 
ATOM     41  C   UNL A   1      37.691  29.039  30.366  1.00  0.00     0.010 A 
ATOM     42  C   UNL A   1      38.396  29.616  28.167  1.00  0.00     0.010 A 
ATOM     43  C   UNL A   1      38.733  29.341  29.498  1.00  0.00    -0.014 A 
BRANCH  43  44
ATOM     44  C   UNL A   1      40.067  29.755  30.003  1.00  0.00     0.031 A 
ATOM     45  C   UNL A   1      40.382  31.166  30.332  1.00  0.00     0.074 A 
ATOM     46  C   UNL A   1      41.020  28.820  30.281  1.00  0.00     0.049 A 
ATOM     47  N   UNL A   1      41.565  31.588  30.626  1.00  0.00    -0.248 NA
ATOM     48  C   UNL A   1      39.406  32.244  30.279  1.00  0.00     0.031 C 
ATOM     49  C   UNL A   1      42.252  28.967  31.064  1.00  0.00     0.029 A 
ATOM     50  N   UNL A   1      41.137  27.530  29.750  1.00  0.00    -0.354 N 
ATOM     51  C   UNL A   1      41.493  32.904  30.999  1.00  0.00     0.074 A 
ATOM     52  C   UNL A   1      40.137  33.283  30.696  1.00  0.00     0.031 C 
ATOM     53  C   UNL A   1      43.106  27.984  30.744  1.00  0.00     0.029 A 
ATOM     54  C   UNL A   1      42.511  27.218  29.672  1.00  0.00     0.049 A 
ATOM     55  H   UNL A   1      40.393  26.946  29.477  1.00  0.00     0.167 HD
ATOM     56  C   UNL A   1      42.593  33.484  31.563  1.00  0.00     0.037 A 
ATOM     57  C   UNL A   1      43.086  26.964  28.461  1.00  0.00     0.037 A 
ATOM     58  C   UNL A   1      43.791  32.674  31.299  1.00  0.00     0.049 A 
ATOM     59  C   UNL A   1      44.034  28.055  28.005  1.00  0.00     0.074 A 
ATOM     60  C   UNL A   1      44.607  31.818  32.017  1.00  0.00     0.029 A 
ATOM     61  N   UNL A   1      44.159  32.512  29.973  1.00  0.00    -0.354 N 
ATOM     62  N   UNL A   1      44.397  29.071  28.742  1.00  0.00    -0.248 NA
ATOM     63  C   UNL A   1      44.588  28.135  26.651  1.00  0.00     0.031 C 
ATOM     64  C   UNL A   1      45.417  31.092  31.084  1.00  0.00     0.029 A 
ATOM     65  C   UNL A   1      45.119  31.536  29.807  1.00  0.00     0.049 A 
ATOM     66  H   UNL A   1      43.779  33.036  29.231  1.00  0.00     0.167 HD
ATOM     67  C   UNL A   1      45.113  29.958  27.984  1.00  0.00     0.074 A 
ATOM     68  C   UNL A   1      45.225  29.319  26.685  1.00  0.00     0.031 C 
ATOM     69  C   UNL A   1      45.518  31.176  28.451  1.00  0.00     0.037 A 
BRANCH  56  70
ATOM     70  C   UNL A   1      42.609  34.751  32.399  1.00  0.00     0.057 A 
ATOM     71  C   UNL A   1      43.440  35.832  32.035  1.00  0.00     0.134 A 
ATOM     72  C   UNL A   1      41.932  34.948  33.620  1.00  0.00     0.134 A 
ATOM     73  F   UNL A   1      44.167  35.813  30.908  1.00  0.00    -0.206 F 
ATOM     74  C   UNL A   1      43.595  36.986  32.823  1.00  0.00     0.040 A 
ATOM     75  C   UNL A   1      42.054  36.108  34.400  1.00  0.00     0.040 A 
ATOM     76  F   UNL A   1      41.141  34.025  34.167  1.00  0.00    -0.206 F 
ATOM     77  C   UNL A   1      42.898  37.129  34.012  1.00  0.00     0.006 A 
ENDBRANCH  56  70
BRANCH  57  78
ATOM     78  C   UNL A   1      42.194  26.122  27.616  1.00  0.00     0.057 A 
ATOM     79  C   UNL A   1      42.122  24.753  27.948  1.00  0.00     0.134 A 
ATOM     80  C   UNL A   1      41.122  26.661  26.904  1.00  0.00     0.134 A 
ATOM     81  F   UNL A   1      43.135  24.169  28.605  1.00  0.00    -0.206 F 
ATOM     82  C   UNL A   1      40.954  24.014  27.767  1.00  0.00     0.040 A 
ATOM     83  C   UNL A   1      39.960  25.912  26.677  1.00  0.00     0.040 A 
ATOM     84  F   UNL A   1      41.104  27.962  26.575  1.00  0.00    -0.206 F 
ATOM     85  C   UNL A   1      39.851  24.608  27.167  1.00  0.00     0.006 A 
ENDBRANCH  57  78
BRANCH  69  86
ATOM     86  C   UNL A   1      46.317  32.139  27.616  1.00  0.00     0.057 A 
ATOM     87  C   UNL A   1      47.700  32.298  27.781  1.00  0.00     0.134 A 
ATOM     88  C   UNL A   1      45.707  33.019  26.700  1.00  0.00     0.134 A 
ATOM     89  F   UNL A   1      48.379  31.552  28.665  1.00  0.00    -0.206 F 
ATOM     90  C   UNL A   1      48.434  33.244  27.054  1.00  0.00     0.040 A 
ATOM     91  C   UNL A   1      46.421  34.003  26.010  1.00  0.00     0.040 A 
ATOM     92  F   UNL A   1      44.399  32.945  26.415  1.00  0.00    -0.206 F 
ATOM     93  C   UNL A   1      47.793  34.110  26.175  1.00  0.00     0.006 A 
ENDBRANCH  69  86
ENDBRANCH  43  44
ENDBRANCH  35  38
ENDBRANCH  33  34
ENDBRANCH  32  33
ENDBRANCH  31  32
ENDBRANCH  30  31
ENDBRANCH   3  30
TORSDOF 17
ENDMDL
