MODEL 1
REMARK VINA RESULT:     -11.4      0.000      0.000
REMARK SMILES [NH3+][C@H]1CCCC[C@@H]1C(=O)N1CC(C(=O)NCCCCNC(=O)c2ccc(-c3c4nc(c(-c5c(F)cccc5F)c5ccc([nH]5)c(-c5c(F)cccc5F)c5nc(c(-c6c(F)cccc6F)c6ccc3[nH]6)C=C5)C=C4)cc2)C1
REMARK SMILES IDX 17 1 16 2 15 3 13 4 14 5 12 7 8 8 9 9 10 10 11 11 77 12 7 13
REMARK SMILES IDX 2 14 3 15 4 16 6 17 5 18 1 19 18 23 19 24 20 25 21 26 22 28
REMARK SMILES IDX 23 29 24 30 76 31 25 32 75 33 26 34 27 35 28 36 69 37 29 38
REMARK SMILES IDX 74 39 68 40 70 41 30 42 73 43 67 44 66 45 31 47 57 48 40 49
REMARK SMILES IDX 56 50 41 51 44 52 55 53 71 54 42 55 43 56 54 58 72 59 45 60
REMARK SMILES IDX 32 61 33 62 38 63 34 64 35 65 37 66 39 67 36 68 58 69 59 70
REMARK SMILES IDX 64 71 60 72 61 73 63 74 65 75 62 76 46 77 47 78 52 79 48 80
REMARK SMILES IDX 49 81 51 82 53 83 50 84
REMARK H PARENT 15 6 1 20 1 21 1 22 20 27 70 46 44 57
REMARK Flexibility Score: inf
ROOT
ATOM      1  C   UNL A   1      36.524  20.365  25.002  1.00  0.00     0.023 C 
ENDROOT
BRANCH   1   2
ATOM      2  C   UNL A   1      36.463  21.772  25.590  1.00  0.00     0.116 C 
BRANCH   2   3
ATOM      3  N   UNL A   1      35.450  21.880  26.620  1.00  0.00    -0.356 N 
ATOM      4  C   UNL A   1      34.272  22.587  26.658  1.00  0.00     0.226 C 
ATOM      5  O   UNL A   1      33.636  22.494  27.719  1.00  0.00    -0.275 OA
ATOM      6  H   UNL A   1      35.637  21.356  27.432  1.00  0.00     0.163 HD
BRANCH   4   7
ATOM      7  C   UNL A   1      33.755  23.418  25.479  1.00  0.00     0.117 C 
ATOM      8  C   UNL A   1      32.507  26.347  24.533  1.00  0.00     0.231 C 
ATOM      9  O   UNL A   1      32.438  26.209  23.313  1.00  0.00    -0.274 OA
ATOM     10  N   UNL A   1      32.972  25.359  25.373  1.00  0.00    -0.341 N 
ATOM     11  C   UNL A   1      34.327  24.803  25.220  1.00  0.00     0.134 C 
ATOM     12  C   UNL A   1      32.361  24.026  25.477  1.00  0.00     0.134 C 
BRANCH   8  13
ATOM     13  C   UNL A   1      31.950  27.581  25.244  1.00  0.00     0.136 C 
ATOM     14  C   UNL A   1      32.636  28.908  24.837  1.00  0.00     0.193 C 
ATOM     15  C   UNL A   1      32.169  30.087  25.701  1.00  0.00     0.066 C 
ATOM     16  C   UNL A   1      32.347  29.791  27.186  1.00  0.00     0.006 C 
ATOM     17  C   UNL A   1      32.052  27.330  26.757  1.00  0.00     0.020 C 
ATOM     18  C   UNL A   1      31.594  28.528  27.581  1.00  0.00     0.001 C 
BRANCH  14  19
ATOM     19  N   UNL A   1      32.408  29.229  23.423  1.00  0.00    -0.354 N 
ATOM     20  H   UNL A   1      33.220  29.725  23.051  1.00  0.00     0.344 HD
ATOM     21  H   UNL A   1      31.581  29.821  23.337  1.00  0.00     0.344 HD
ATOM     22  H   UNL A   1      32.267  28.367  22.896  1.00  0.00     0.344 HD
ENDBRANCH  14  19
ENDBRANCH   8  13
ENDBRANCH   4   7
ENDBRANCH   2   3
ENDBRANCH   1   2
BRANCH   1  23
ATOM     23  C   UNL A   1      37.940  19.839  24.756  1.00  0.00     0.023 C 
BRANCH  23  24
ATOM     24  C   UNL A   1      38.903  20.001  25.925  1.00  0.00     0.116 C 
BRANCH  24  25
ATOM     25  N   UNL A   1      40.104  19.192  25.789  1.00  0.00    -0.352 N 
ATOM     26  C   UNL A   1      41.414  19.546  25.993  1.00  0.00     0.251 C 
ATOM     27  H   UNL A   1      39.955  18.257  25.514  1.00  0.00     0.163 HD
ATOM     28  O   UNL A   1      42.315  18.764  25.695  1.00  0.00    -0.269 OA
BRANCH  26  29
ATOM     29  C   UNL A   1      41.744  20.878  26.544  1.00  0.00     0.039 A 
ATOM     30  C   UNL A   1      42.121  21.899  25.668  1.00  0.00     0.014 A 
ATOM     31  C   UNL A   1      41.687  21.121  27.919  1.00  0.00     0.014 A 
ATOM     32  C   UNL A   1      42.396  23.175  26.167  1.00  0.00     0.010 A 
ATOM     33  C   UNL A   1      41.878  22.411  28.404  1.00  0.00     0.010 A 
ATOM     34  C   UNL A   1      42.253  23.448  27.537  1.00  0.00    -0.014 A 
BRANCH  34  35
ATOM     35  C   UNL A   1      42.536  24.798  28.088  1.00  0.00     0.031 A 
ATOM     36  C   UNL A   1      43.934  25.154  28.520  1.00  0.00     0.074 A 
ATOM     37  C   UNL A   1      41.534  25.686  28.248  1.00  0.00     0.049 A 
ATOM     38  N   UNL A   1      44.374  26.255  29.074  1.00  0.00    -0.248 NA
ATOM     39  C   UNL A   1      44.967  24.125  28.329  1.00  0.00     0.031 C 
ATOM     40  C   UNL A   1      40.130  25.449  27.911  1.00  0.00     0.029 A 
ATOM     41  N   UNL A   1      41.547  26.966  28.741  1.00  0.00    -0.354 N 
ATOM     42  C   UNL A   1      45.727  26.042  29.310  1.00  0.00     0.074 A 
ATOM     43  C   UNL A   1      46.020  24.687  28.901  1.00  0.00     0.031 C 
ATOM     44  C   UNL A   1      39.421  26.558  28.180  1.00  0.00     0.029 A 
ATOM     45  C   UNL A   1      40.311  27.568  28.743  1.00  0.00     0.049 A 
ATOM     46  H   UNL A   1      42.363  27.412  29.064  1.00  0.00     0.167 HD
ATOM     47  C   UNL A   1      46.650  26.906  29.796  1.00  0.00     0.037 A 
ATOM     48  C   UNL A   1      39.940  28.795  29.154  1.00  0.00     0.037 A 
ATOM     49  C   UNL A   1      46.362  28.263  30.180  1.00  0.00     0.049 A 
ATOM     50  C   UNL A   1      40.982  29.735  29.700  1.00  0.00     0.074 A 
ATOM     51  C   UNL A   1      47.236  29.233  30.639  1.00  0.00     0.029 A 
ATOM     52  N   UNL A   1      45.102  28.840  30.150  1.00  0.00    -0.354 N 
ATOM     53  N   UNL A   1      42.269  29.542  29.858  1.00  0.00    -0.248 NA
ATOM     54  C   UNL A   1      40.520  31.067  30.112  1.00  0.00     0.031 C 
ATOM     55  C   UNL A   1      46.495  30.384  30.931  1.00  0.00     0.029 A 
ATOM     56  C   UNL A   1      45.171  30.149  30.597  1.00  0.00     0.049 A 
ATOM     57  H   UNL A   1      44.279  28.388  29.854  1.00  0.00     0.167 HD
ATOM     58  C   UNL A   1      42.776  30.739  30.348  1.00  0.00     0.074 A 
ATOM     59  C   UNL A   1      41.658  31.654  30.453  1.00  0.00     0.031 C 
ATOM     60  C   UNL A   1      44.053  31.054  30.679  1.00  0.00     0.037 A 
BRANCH  47  61
ATOM     61  C   UNL A   1      48.060  26.406  29.934  1.00  0.00     0.057 A 
ATOM     62  C   UNL A   1      48.523  25.812  31.116  1.00  0.00     0.134 A 
ATOM     63  C   UNL A   1      48.962  26.498  28.866  1.00  0.00     0.134 A 
ATOM     64  F   UNL A   1      47.716  25.703  32.183  1.00  0.00    -0.206 F 
ATOM     65  C   UNL A   1      49.837  25.359  31.243  1.00  0.00     0.040 A 
ATOM     66  C   UNL A   1      50.269  26.020  28.969  1.00  0.00     0.040 A 
ATOM     67  F   UNL A   1      48.585  27.049  27.702  1.00  0.00    -0.206 F 
ATOM     68  C   UNL A   1      50.713  25.456  30.164  1.00  0.00     0.006 A 
ENDBRANCH  47  61
BRANCH  48  69
ATOM     69  C   UNL A   1      38.522  29.226  29.038  1.00  0.00     0.057 A 
ATOM     70  C   UNL A   1      38.008  29.696  27.824  1.00  0.00     0.134 A 
ATOM     71  C   UNL A   1      37.655  29.195  30.137  1.00  0.00     0.134 A 
ATOM     72  F   UNL A   1      38.795  29.765  26.740  1.00  0.00    -0.206 F 
ATOM     73  C   UNL A   1      36.691  30.145  27.710  1.00  0.00     0.040 A 
ATOM     74  C   UNL A   1      36.328  29.615  30.031  1.00  0.00     0.040 A 
ATOM     75  F   UNL A   1      38.082  28.748  31.325  1.00  0.00    -0.206 F 
ATOM     76  C   UNL A   1      35.846  30.101  28.817  1.00  0.00     0.006 A 
ENDBRANCH  48  69
BRANCH  60  77
ATOM     77  C   UNL A   1      44.322  32.462  31.125  1.00  0.00     0.057 A 
ATOM     78  C   UNL A   1      44.592  33.495  30.220  1.00  0.00     0.134 A 
ATOM     79  C   UNL A   1      44.273  32.794  32.487  1.00  0.00     0.134 A 
ATOM     80  F   UNL A   1      44.665  33.243  28.904  1.00  0.00    -0.206 F 
ATOM     81  C   UNL A   1      44.833  34.801  30.652  1.00  0.00     0.040 A 
ATOM     82  C   UNL A   1      44.481  34.101  32.929  1.00  0.00     0.040 A 
ATOM     83  F   UNL A   1      44.008  31.855  33.408  1.00  0.00    -0.206 F 
ATOM     84  C   UNL A   1      44.770  35.107  32.011  1.00  0.00     0.006 A 
ENDBRANCH  60  77
ENDBRANCH  34  35
ENDBRANCH  26  29
ENDBRANCH  24  25
ENDBRANCH  23  24
ENDBRANCH   1  23
TORSDOF 13
ENDMDL
MODEL 2
REMARK VINA RESULT:     -11.3      0.455      6.496
REMARK SMILES [NH3+][C@H]1CCCC[C@@H]1C(=O)N1CC(C(=O)NCCCCNC(=O)c2ccc(-c3c4nc(c(-c5c(F)cccc5F)c5ccc([nH]5)c(-c5c(F)cccc5F)c5nc(c(-c6c(F)cccc6F)c6ccc3[nH]6)C=C5)C=C4)cc2)C1
REMARK SMILES IDX 17 1 16 2 15 3 13 4 14 5 12 7 8 8 9 9 10 10 11 11 77 12 7 13
REMARK SMILES IDX 2 14 3 15 4 16 6 17 5 18 1 19 18 23 19 24 20 25 21 26 22 28
REMARK SMILES IDX 23 29 24 30 76 31 25 32 75 33 26 34 27 35 28 36 69 37 29 38
REMARK SMILES IDX 74 39 68 40 70 41 30 42 73 43 67 44 66 45 31 47 57 48 40 49
REMARK SMILES IDX 56 50 41 51 44 52 55 53 71 54 42 55 43 56 54 58 72 59 45 60
REMARK SMILES IDX 32 61 33 62 38 63 34 64 35 65 37 66 39 67 36 68 58 69 59 70
REMARK SMILES IDX 64 71 60 72 61 73 63 74 65 75 62 76 46 77 47 78 52 79 48 80
REMARK SMILES IDX 49 81 51 82 53 83 50 84
REMARK H PARENT 15 6 1 20 1 21 1 22 20 27 70 46 44 57
REMARK Flexibility Score: inf
ROOT
ATOM      1  C   UNL A   1      36.414  20.322  24.979  1.00  0.00     0.023 C 
ENDROOT
BRANCH   1   2
ATOM      2  C   UNL A   1      36.490  21.689  25.652  1.00  0.00     0.116 C 
BRANCH   2   3
ATOM      3  N   UNL A   1      35.463  21.849  26.661  1.00  0.00    -0.356 N 
ATOM      4  C   UNL A   1      34.322  22.616  26.676  1.00  0.00     0.226 C 
ATOM      5  O   UNL A   1      33.660  22.555  27.723  1.00  0.00    -0.275 OA
ATOM      6  H   UNL A   1      35.606  21.317  27.476  1.00  0.00     0.163 HD
BRANCH   4   7
ATOM      7  C   UNL A   1      33.873  23.472  25.487  1.00  0.00     0.117 C 
ATOM      8  C   UNL A   1      32.652  26.412  24.538  1.00  0.00     0.231 C 
ATOM      9  O   UNL A   1      32.664  26.305  23.313  1.00  0.00    -0.274 OA
ATOM     10  N   UNL A   1      33.074  25.406  25.381  1.00  0.00    -0.341 N 
ATOM     11  C   UNL A   1      34.443  24.869  25.303  1.00  0.00     0.134 C 
ATOM     12  C   UNL A   1      32.473  24.065  25.411  1.00  0.00     0.134 C 
BRANCH   8  13
ATOM     13  C   UNL A   1      32.034  27.620  25.243  1.00  0.00     0.136 C 
ATOM     14  C   UNL A   1      32.661  28.976  24.837  1.00  0.00     0.193 C 
ATOM     15  C   UNL A   1      32.134  30.134  25.695  1.00  0.00     0.066 C 
ATOM     16  C   UNL A   1      32.317  29.850  27.182  1.00  0.00     0.006 C 
ATOM     17  C   UNL A   1      32.139  27.377  26.757  1.00  0.00     0.020 C 
ATOM     18  C   UNL A   1      31.621  28.554  27.575  1.00  0.00     0.001 C 
BRANCH  14  19
ATOM     19  N   UNL A   1      32.426  29.283  23.420  1.00  0.00    -0.354 N 
ATOM     20  H   UNL A   1      32.687  28.478  22.849  1.00  0.00     0.344 HD
ATOM     21  H   UNL A   1      32.991  30.089  23.149  1.00  0.00     0.344 HD
ATOM     22  H   UNL A   1      31.439  29.495  23.277  1.00  0.00     0.344 HD
ENDBRANCH  14  19
ENDBRANCH   8  13
ENDBRANCH   4   7
ENDBRANCH   2   3
ENDBRANCH   1   2
BRANCH   1  23
ATOM     23  C   UNL A   1      37.762  19.616  24.819  1.00  0.00     0.023 C 
BRANCH  23  24
ATOM     24  C   UNL A   1      38.888  20.165  25.687  1.00  0.00     0.116 C 
BRANCH  24  25
ATOM     25  N   UNL A   1      40.045  19.286  25.742  1.00  0.00    -0.352 N 
ATOM     26  C   UNL A   1      41.342  19.581  26.082  1.00  0.00     0.251 C 
ATOM     27  H   UNL A   1      39.873  18.346  25.502  1.00  0.00     0.163 HD
ATOM     28  O   UNL A   1      42.222  18.735  25.939  1.00  0.00    -0.269 OA
BRANCH  26  29
ATOM     29  C   UNL A   1      41.685  20.925  26.595  1.00  0.00     0.039 A 
ATOM     30  C   UNL A   1      41.648  21.153  27.973  1.00  0.00     0.014 A 
ATOM     31  C   UNL A   1      42.037  21.959  25.724  1.00  0.00     0.014 A 
ATOM     32  C   UNL A   1      42.008  22.405  28.479  1.00  0.00     0.010 A 
ATOM     33  C   UNL A   1      42.477  23.176  26.234  1.00  0.00     0.010 A 
ATOM     34  C   UNL A   1      42.450  23.420  27.615  1.00  0.00    -0.014 A 
BRANCH  34  35
ATOM     35  C   UNL A   1      42.843  24.755  28.132  1.00  0.00     0.031 A 
ATOM     36  C   UNL A   1      41.793  25.814  28.350  1.00  0.00     0.074 A 
ATOM     37  C   UNL A   1      44.141  25.037  28.359  1.00  0.00     0.049 A 
ATOM     38  N   UNL A   1      41.937  27.054  28.740  1.00  0.00    -0.248 NA
ATOM     39  C   UNL A   1      40.402  25.434  28.062  1.00  0.00     0.031 C 
ATOM     40  C   UNL A   1      45.257  24.116  28.147  1.00  0.00     0.029 A 
ATOM     41  N   UNL A   1      44.739  26.185  28.815  1.00  0.00    -0.354 N 
ATOM     42  C   UNL A   1      40.660  27.603  28.729  1.00  0.00     0.074 A 
ATOM     43  C   UNL A   1      39.766  26.583  28.231  1.00  0.00     0.031 C 
ATOM     44  C   UNL A   1      46.403  24.724  28.499  1.00  0.00     0.029 A 
ATOM     45  C   UNL A   1      46.105  26.088  28.925  1.00  0.00     0.049 A 
ATOM     46  H   UNL A   1      44.237  27.001  29.041  1.00  0.00     0.167 HD
ATOM     47  C   UNL A   1      40.262  28.835  29.125  1.00  0.00     0.037 A 
ATOM     48  C   UNL A   1      47.014  26.998  29.322  1.00  0.00     0.037 A 
ATOM     49  C   UNL A   1      41.150  29.843  29.644  1.00  0.00     0.049 A 
ATOM     50  C   UNL A   1      46.549  28.365  29.749  1.00  0.00     0.074 A 
ATOM     51  C   UNL A   1      40.840  31.105  30.117  1.00  0.00     0.029 A 
ATOM     52  N   UNL A   1      42.525  29.699  29.756  1.00  0.00    -0.354 N 
ATOM     53  N   UNL A   1      45.332  28.849  29.794  1.00  0.00    -0.248 NA
ATOM     54  C   UNL A   1      47.586  29.307  30.193  1.00  0.00     0.031 C 
ATOM     55  C   UNL A   1      42.033  31.744  30.472  1.00  0.00     0.029 A 
ATOM     56  C   UNL A   1      43.079  30.857  30.276  1.00  0.00     0.049 A 
ATOM     57  H   UNL A   1      43.032  28.894  29.504  1.00  0.00     0.167 HD
ATOM     58  C   UNL A   1      45.450  30.135  30.307  1.00  0.00     0.074 A 
ATOM     59  C   UNL A   1      46.859  30.351  30.567  1.00  0.00     0.031 C 
ATOM     60  C   UNL A   1      44.481  31.052  30.546  1.00  0.00     0.037 A 
BRANCH  47  61
ATOM     61  C   UNL A   1      38.798  29.157  29.016  1.00  0.00     0.057 A 
ATOM     62  C   UNL A   1      38.220  29.569  27.807  1.00  0.00     0.134 A 
ATOM     63  C   UNL A   1      37.952  29.035  30.125  1.00  0.00     0.134 A 
ATOM     64  F   UNL A   1      38.974  29.720  26.708  1.00  0.00    -0.206 F 
ATOM     65  C   UNL A   1      36.861  29.879  27.713  1.00  0.00     0.040 A 
ATOM     66  C   UNL A   1      36.586  29.310  30.036  1.00  0.00     0.040 A 
ATOM     67  F   UNL A   1      38.437  28.639  31.312  1.00  0.00    -0.206 F 
ATOM     68  C   UNL A   1      36.040  29.742  28.830  1.00  0.00     0.006 A 
ENDBRANCH  47  61
BRANCH  48  69
ATOM     69  C   UNL A   1      48.457  26.643  29.370  1.00  0.00     0.057 A 
ATOM     70  C   UNL A   1      49.017  26.049  30.507  1.00  0.00     0.134 A 
ATOM     71  C   UNL A   1      49.312  26.904  28.292  1.00  0.00     0.134 A 
ATOM     72  F   UNL A   1      48.252  25.791  31.578  1.00  0.00    -0.206 F 
ATOM     73  C   UNL A   1      50.378  25.750  30.582  1.00  0.00     0.040 A 
ATOM     74  C   UNL A   1      50.670  26.586  28.343  1.00  0.00     0.040 A 
ATOM     75  F   UNL A   1      48.837  27.463  27.170  1.00  0.00    -0.206 F 
ATOM     76  C   UNL A   1      51.208  26.015  29.495  1.00  0.00     0.006 A 
ENDBRANCH  48  69
BRANCH  60  77
ATOM     77  C   UNL A   1      44.900  32.350  31.174  1.00  0.00     0.057 A 
ATOM     78  C   UNL A   1      44.969  32.521  32.562  1.00  0.00     0.134 A 
ATOM     79  C   UNL A   1      45.276  33.436  30.370  1.00  0.00     0.134 A 
ATOM     80  F   UNL A   1      44.612  31.525  33.388  1.00  0.00    -0.206 F 
ATOM     81  C   UNL A   1      45.368  33.733  33.129  1.00  0.00     0.040 A 
ATOM     82  C   UNL A   1      45.705  34.642  30.925  1.00  0.00     0.040 A 
ATOM     83  F   UNL A   1      45.244  33.337  29.033  1.00  0.00    -0.206 F 
ATOM     84  C   UNL A   1      45.744  34.795  32.309  1.00  0.00     0.006 A 
ENDBRANCH  60  77
ENDBRANCH  34  35
ENDBRANCH  26  29
ENDBRANCH  24  25
ENDBRANCH  23  24
ENDBRANCH   1  23
TORSDOF 13
ENDMDL
MODEL 3
REMARK VINA RESULT:     -11.3      4.487      9.292
REMARK SMILES [NH3+][C@H]1CCCC[C@@H]1C(=O)N1CC(C(=O)NCCCCNC(=O)c2ccc(-c3c4nc(c(-c5c(F)cccc5F)c5ccc([nH]5)c(-c5c(F)cccc5F)c5nc(c(-c6c(F)cccc6F)c6ccc3[nH]6)C=C5)C=C4)cc2)C1
REMARK SMILES IDX 17 1 16 2 15 3 13 4 14 5 12 7 8 8 9 9 10 10 11 11 77 12 7 13
REMARK SMILES IDX 2 14 3 15 4 16 6 17 5 18 1 19 18 23 19 24 20 25 21 26 22 28
REMARK SMILES IDX 23 29 24 30 76 31 25 32 75 33 26 34 27 35 28 36 69 37 29 38
REMARK SMILES IDX 74 39 68 40 70 41 30 42 73 43 67 44 66 45 31 47 57 48 40 49
REMARK SMILES IDX 56 50 41 51 44 52 55 53 71 54 42 55 43 56 54 58 72 59 45 60
REMARK SMILES IDX 32 61 33 62 38 63 34 64 35 65 37 66 39 67 36 68 58 69 59 70
REMARK SMILES IDX 64 71 60 72 61 73 63 74 65 75 62 76 46 77 47 78 52 79 48 80
REMARK SMILES IDX 49 81 51 82 53 83 50 84
REMARK H PARENT 15 6 1 20 1 21 1 22 20 27 70 46 44 57
REMARK Flexibility Score: inf
ROOT
ATOM      1  C   UNL A   1      31.404  30.914  26.028  1.00  0.00     0.023 C 
ENDROOT
BRANCH   1   2
ATOM      2  C   UNL A   1      31.684  29.896  27.129  1.00  0.00     0.116 C 
BRANCH   2   3
ATOM      3  N   UNL A   1      33.092  29.561  27.205  1.00  0.00    -0.356 N 
ATOM      4  C   UNL A   1      33.827  28.599  26.554  1.00  0.00     0.226 C 
ATOM      5  O   UNL A   1      35.025  28.547  26.872  1.00  0.00    -0.275 OA
ATOM      6  H   UNL A   1      33.610  30.117  27.829  1.00  0.00     0.163 HD
BRANCH   4   7
ATOM      7  C   UNL A   1      33.234  27.665  25.494  1.00  0.00     0.117 C 
ATOM      8  C   UNL A   1      30.976  27.349  23.079  1.00  0.00     0.231 C 
ATOM      9  O   UNL A   1      31.233  26.230  22.639  1.00  0.00    -0.274 OA
ATOM     10  N   UNL A   1      31.668  27.920  24.125  1.00  0.00    -0.341 N 
ATOM     11  C   UNL A   1      33.124  28.132  24.051  1.00  0.00     0.134 C 
ATOM     12  C   UNL A   1      31.752  27.323  25.466  1.00  0.00     0.134 C 
BRANCH   8  13
ATOM     13  C   UNL A   1      29.769  28.155  22.596  1.00  0.00     0.136 C 
ATOM     14  C   UNL A   1      29.997  29.686  22.583  1.00  0.00     0.193 C 
ATOM     15  C   UNL A   1      28.710  30.458  22.264  1.00  0.00     0.066 C 
ATOM     16  C   UNL A   1      27.578  30.063  23.206  1.00  0.00     0.006 C 
ATOM     17  C   UNL A   1      28.570  27.767  23.475  1.00  0.00     0.020 C 
ATOM     18  C   UNL A   1      27.315  28.565  23.138  1.00  0.00     0.001 C 
BRANCH  14  19
ATOM     19  N   UNL A   1      31.040  30.076  21.626  1.00  0.00    -0.354 N 
ATOM     20  H   UNL A   1      30.609  30.310  20.730  1.00  0.00     0.344 HD
ATOM     21  H   UNL A   1      31.691  29.301  21.497  1.00  0.00     0.344 HD
ATOM     22  H   UNL A   1      31.543  30.888  21.983  1.00  0.00     0.344 HD
ENDBRANCH  14  19
ENDBRANCH   8  13
ENDBRANCH   4   7
ENDBRANCH   2   3
ENDBRANCH   1   2
BRANCH   1  23
ATOM     23  C   UNL A   1      31.317  32.365  26.510  1.00  0.00     0.023 C 
BRANCH  23  24
ATOM     24  C   UNL A   1      32.620  32.949  27.043  1.00  0.00     0.116 C 
BRANCH  24  25
ATOM     25  N   UNL A   1      32.449  34.259  27.651  1.00  0.00    -0.352 N 
ATOM     26  C   UNL A   1      33.120  34.815  28.711  1.00  0.00     0.251 C 
ATOM     27  H   UNL A   1      31.754  34.826  27.244  1.00  0.00     0.163 HD
ATOM     28  O   UNL A   1      32.746  35.888  29.179  1.00  0.00    -0.269 OA
BRANCH  26  29
ATOM     29  C   UNL A   1      34.278  34.112  29.306  1.00  0.00     0.039 A 
ATOM     30  C   UNL A   1      34.049  33.144  30.287  1.00  0.00     0.014 A 
ATOM     31  C   UNL A   1      35.582  34.408  28.904  1.00  0.00     0.014 A 
ATOM     32  C   UNL A   1      35.128  32.441  30.831  1.00  0.00     0.010 A 
ATOM     33  C   UNL A   1      36.645  33.648  29.383  1.00  0.00     0.010 A 
ATOM     34  C   UNL A   1      36.433  32.670  30.365  1.00  0.00    -0.014 A 
BRANCH  34  35
ATOM     35  C   UNL A   1      37.592  31.930  30.926  1.00  0.00     0.031 A 
ATOM     36  C   UNL A   1      38.090  32.253  32.310  1.00  0.00     0.074 A 
ATOM     37  C   UNL A   1      38.229  31.006  30.180  1.00  0.00     0.049 A 
ATOM     38  N   UNL A   1      39.116  31.762  32.957  1.00  0.00    -0.248 NA
ATOM     39  C   UNL A   1      37.352  33.286  33.054  1.00  0.00     0.031 C 
ATOM     40  C   UNL A   1      37.874  30.632  28.811  1.00  0.00     0.029 A 
ATOM     41  N   UNL A   1      39.314  30.218  30.470  1.00  0.00    -0.354 N 
ATOM     42  C   UNL A   1      39.154  32.437  34.171  1.00  0.00     0.074 A 
ATOM     43  C   UNL A   1      38.090  33.416  34.145  1.00  0.00     0.031 C 
ATOM     44  C   UNL A   1      38.707  29.665  28.389  1.00  0.00     0.029 A 
ATOM     45  C   UNL A   1      39.677  29.380  29.443  1.00  0.00     0.049 A 
ATOM     46  H   UNL A   1      39.788  30.248  31.332  1.00  0.00     0.167 HD
ATOM     47  C   UNL A   1      39.980  32.241  35.226  1.00  0.00     0.037 A 
ATOM     48  C   UNL A   1      40.679  28.485  29.360  1.00  0.00     0.037 A 
ATOM     49  C   UNL A   1      41.023  31.250  35.261  1.00  0.00     0.049 A 
ATOM     50  C   UNL A   1      41.591  28.291  30.542  1.00  0.00     0.074 A 
ATOM     51  C   UNL A   1      41.884  30.939  36.299  1.00  0.00     0.029 A 
ATOM     52  N   UNL A   1      41.347  30.409  34.207  1.00  0.00    -0.354 N 
ATOM     53  N   UNL A   1      41.575  28.891  31.707  1.00  0.00    -0.248 NA
ATOM     54  C   UNL A   1      42.652  27.285  30.400  1.00  0.00     0.031 C 
ATOM     55  C   UNL A   1      42.760  29.941  35.857  1.00  0.00     0.029 A 
ATOM     56  C   UNL A   1      42.405  29.590  34.564  1.00  0.00     0.049 A 
ATOM     57  H   UNL A   1      40.893  30.396  33.334  1.00  0.00     0.167 HD
ATOM     58  C   UNL A   1      42.595  28.308  32.451  1.00  0.00     0.074 A 
ATOM     59  C   UNL A   1      43.202  27.301  31.605  1.00  0.00     0.031 C 
ATOM     60  C   UNL A   1      42.989  28.579  33.719  1.00  0.00     0.037 A 
BRANCH  47  61
ATOM     61  C   UNL A   1      39.782  33.116  36.432  1.00  0.00     0.057 A 
ATOM     62  C   UNL A   1      40.490  34.313  36.601  1.00  0.00     0.134 A 
ATOM     63  C   UNL A   1      38.857  32.770  37.425  1.00  0.00     0.134 A 
ATOM     64  F   UNL A   1      41.402  34.699  35.695  1.00  0.00    -0.206 F 
ATOM     65  C   UNL A   1      40.312  35.117  37.729  1.00  0.00     0.040 A 
ATOM     66  C   UNL A   1      38.645  33.581  38.541  1.00  0.00     0.040 A 
ATOM     67  F   UNL A   1      38.139  31.641  37.324  1.00  0.00    -0.206 F 
ATOM     68  C   UNL A   1      39.380  34.754  38.700  1.00  0.00     0.006 A 
ENDBRANCH  47  61
BRANCH  48  69
ATOM     69  C   UNL A   1      40.859  27.676  28.127  1.00  0.00     0.057 A 
ATOM     70  C   UNL A   1      41.636  28.147  27.062  1.00  0.00     0.134 A 
ATOM     71  C   UNL A   1      40.248  26.425  27.975  1.00  0.00     0.134 A 
ATOM     72  F   UNL A   1      42.232  29.346  27.141  1.00  0.00    -0.206 F 
ATOM     73  C   UNL A   1      41.779  27.418  25.880  1.00  0.00     0.040 A 
ATOM     74  C   UNL A   1      40.405  25.672  26.809  1.00  0.00     0.040 A 
ATOM     75  F   UNL A   1      39.499  25.912  28.960  1.00  0.00    -0.206 F 
ATOM     76  C   UNL A   1      41.164  26.174  25.753  1.00  0.00     0.006 A 
ENDBRANCH  48  69
BRANCH  60  77
ATOM     77  C   UNL A   1      44.090  27.736  34.294  1.00  0.00     0.057 A 
ATOM     78  C   UNL A   1      45.435  28.121  34.236  1.00  0.00     0.134 A 
ATOM     79  C   UNL A   1      43.791  26.533  34.949  1.00  0.00     0.134 A 
ATOM     80  F   UNL A   1      45.791  29.255  33.613  1.00  0.00    -0.206 F 
ATOM     81  C   UNL A   1      46.446  27.327  34.783  1.00  0.00     0.040 A 
ATOM     82  C   UNL A   1      44.788  25.746  35.526  1.00  0.00     0.040 A 
ATOM     83  F   UNL A   1      42.522  26.109  35.050  1.00  0.00    -0.206 F 
ATOM     84  C   UNL A   1      46.122  26.140  35.436  1.00  0.00     0.006 A 
ENDBRANCH  60  77
ENDBRANCH  34  35
ENDBRANCH  26  29
ENDBRANCH  24  25
ENDBRANCH  23  24
ENDBRANCH   1  23
TORSDOF 13
ENDMDL
