MODEL 1
REMARK VINA RESULT:      -9.7      0.000      0.000
REMARK SMILES Cc1cc2c(c(C)c1Cl)C=C(C(=O)NCCCCNC(=O)c1ccc(-c3c4nc(c(-c5c(F)cccc5F)c5ccc([nH]5)c(-c5c(F)cccc5F)c5nc(c(-c6c(F)cccc6F)c6ccc3[nH]6)C=C5)C=C4)cc1)[C@@H](C(F)(F)F)O2
REMARK SMILES IDX 17 1 16 2 15 3 14 4 12 5 13 6 11 8 1 9 2 10 3 11 8 12 4 13
REMARK SMILES IDX 6 14 9 15 5 16 81 17 7 18 10 19 76 20 77 21 78 22 79 23
REMARK SMILES IDX 80 24 18 25 19 26 20 27 21 29 22 30 23 31 75 32 24 33 74 34
REMARK SMILES IDX 25 35 26 36 27 37 68 38 28 39 73 40 67 41 69 42 29 43 72 44
REMARK SMILES IDX 66 45 65 46 30 48 56 49 39 50 55 51 40 52 43 53 54 54 70 55
REMARK SMILES IDX 41 56 42 57 53 59 71 60 44 61 31 62 32 63 37 64 33 65 34 66
REMARK SMILES IDX 36 67 38 68 35 69 57 70 58 71 63 72 59 73 60 74 62 75 64 76
REMARK SMILES IDX 61 77 45 78 46 79 51 80 47 81 48 82 50 83 52 84 49 85
REMARK H PARENT 14 7 19 28 69 47 43 58
REMARK Flexibility Score: inf
ROOT
ATOM      1  C   UNL A   1      32.986  36.262  31.186  1.00  0.00     0.023 C 
ENDROOT
BRANCH   1   2
ATOM      2  C   UNL A   1      34.020  36.884  32.127  1.00  0.00     0.023 C 
BRANCH   2   3
ATOM      3  C   UNL A   1      35.052  35.896  32.662  1.00  0.00     0.116 C 
BRANCH   3   4
ATOM      4  N   UNL A   1      34.429  34.690  33.179  1.00  0.00    -0.352 N 
ATOM      5  C   UNL A   1      34.839  33.498  33.672  1.00  0.00     0.251 C 
ATOM      6  O   UNL A   1      33.929  32.729  33.999  1.00  0.00    -0.270 OA
ATOM      7  H   UNL A   1      33.447  34.757  33.166  1.00  0.00     0.163 HD
BRANCH   5   8
ATOM      8  C   UNL A   1      36.262  33.073  33.844  1.00  0.00     0.067 C 
ATOM      9  C   UNL A   1      42.119  30.222  33.770  1.00  0.00     0.046 C 
ATOM     10  C   UNL A   1      40.674  30.606  33.605  1.00  0.00    -0.028 A 
ATOM     11  C   UNL A   1      40.259  31.859  34.062  1.00  0.00     0.052 A 
ATOM     12  C   UNL A   1      39.727  29.754  33.001  1.00  0.00     0.047 A 
ATOM     13  C   UNL A   1      38.931  32.254  33.935  1.00  0.00     0.128 A 
ATOM     14  C   UNL A   1      38.373  30.147  32.857  1.00  0.00    -0.021 A 
ATOM     15  Cl  UNL A   1      40.267  28.205  32.423  1.00  0.00    -0.084 Cl
ATOM     16  C   UNL A   1      37.981  31.423  33.333  1.00  0.00     0.022 A 
ATOM     17  O   UNL A   1      38.648  33.509  34.392  1.00  0.00    -0.475 OA
ATOM     18  C   UNL A   1      37.346  29.247  32.210  1.00  0.00     0.047 C 
ATOM     19  C   UNL A   1      36.618  31.949  33.196  1.00  0.00     0.026 C 
ATOM     20  C   UNL A   1      37.260  33.789  34.703  1.00  0.00     0.314 C 
BRANCH  20  21
ATOM     21  C   UNL A   1      37.020  33.567  36.209  1.00  0.00     0.429 C 
ATOM     22  F   UNL A   1      37.287  32.280  36.544  1.00  0.00    -0.167 F 
ATOM     23  F   UNL A   1      37.823  34.336  36.982  1.00  0.00    -0.167 F 
ATOM     24  F   UNL A   1      35.747  33.828  36.578  1.00  0.00    -0.167 F 
ENDBRANCH  20  21
ENDBRANCH   5   8
ENDBRANCH   3   4
ENDBRANCH   2   3
ENDBRANCH   1   2
BRANCH   1  25
ATOM     25  C   UNL A   1      33.280  36.417  29.694  1.00  0.00     0.116 C 
BRANCH  25  26
ATOM     26  N   UNL A   1      32.604  35.438  28.856  1.00  0.00    -0.352 N 
ATOM     27  C   UNL A   1      33.089  34.239  28.394  1.00  0.00     0.251 C 
ATOM     28  H   UNL A   1      31.683  35.661  28.588  1.00  0.00     0.163 HD
ATOM     29  O   UNL A   1      32.432  33.546  27.626  1.00  0.00    -0.269 OA
BRANCH  27  30
ATOM     30  C   UNL A   1      34.442  33.817  28.803  1.00  0.00     0.039 A 
ATOM     31  C   UNL A   1      34.584  33.021  29.941  1.00  0.00     0.014 A 
ATOM     32  C   UNL A   1      35.551  34.155  28.024  1.00  0.00     0.014 A 
ATOM     33  C   UNL A   1      35.836  32.498  30.261  1.00  0.00     0.010 A 
ATOM     34  C   UNL A   1      36.787  33.588  28.310  1.00  0.00     0.010 A 
ATOM     35  C   UNL A   1      36.937  32.747  29.424  1.00  0.00    -0.014 A 
BRANCH  35  36
ATOM     36  C   UNL A   1      38.260  32.135  29.686  1.00  0.00     0.031 A 
ATOM     37  C   UNL A   1      39.332  32.939  30.360  1.00  0.00     0.074 A 
ATOM     38  C   UNL A   1      38.517  30.889  29.247  1.00  0.00     0.049 A 
ATOM     39  N   UNL A   1      40.587  32.635  30.564  1.00  0.00    -0.248 NA
ATOM     40  C   UNL A   1      38.946  34.274  30.844  1.00  0.00     0.031 C 
ATOM     41  C   UNL A   1      37.562  30.021  28.556  1.00  0.00     0.029 A 
ATOM     42  N   UNL A   1      39.665  30.143  29.305  1.00  0.00    -0.354 N 
ATOM     43  C   UNL A   1      41.144  33.745  31.186  1.00  0.00     0.074 A 
ATOM     44  C   UNL A   1      40.102  34.744  31.287  1.00  0.00     0.031 C 
ATOM     45  C   UNL A   1      38.160  28.852  28.270  1.00  0.00     0.029 A 
ATOM     46  C   UNL A   1      39.548  28.905  28.721  1.00  0.00     0.049 A 
ATOM     47  H   UNL A   1      40.496  30.463  29.725  1.00  0.00     0.167 HD
ATOM     48  C   UNL A   1      42.406  33.906  31.648  1.00  0.00     0.037 A 
ATOM     49  C   UNL A   1      40.459  27.927  28.563  1.00  0.00     0.037 A 
ATOM     50  C   UNL A   1      43.433  32.902  31.564  1.00  0.00     0.049 A 
ATOM     51  C   UNL A   1      41.856  28.133  29.075  1.00  0.00     0.074 A 
ATOM     52  C   UNL A   1      44.734  32.958  32.030  1.00  0.00     0.029 A 
ATOM     53  N   UNL A   1      43.270  31.655  30.978  1.00  0.00    -0.354 N 
ATOM     54  N   UNL A   1      42.365  29.178  29.680  1.00  0.00    -0.248 NA
ATOM     55  C   UNL A   1      42.803  27.026  28.884  1.00  0.00     0.031 C 
ATOM     56  C   UNL A   1      45.368  31.756  31.701  1.00  0.00     0.029 A 
ATOM     57  C   UNL A   1      44.450  30.936  31.064  1.00  0.00     0.049 A 
ATOM     58  H   UNL A   1      42.438  31.331  30.563  1.00  0.00     0.167 HD
ATOM     59  C   UNL A   1      43.685  28.849  29.961  1.00  0.00     0.074 A 
ATOM     60  C   UNL A   1      43.893  27.502  29.469  1.00  0.00     0.031 C 
ATOM     61  C   UNL A   1      44.637  29.595  30.572  1.00  0.00     0.037 A 
BRANCH  48  62
ATOM     62  C   UNL A   1      42.739  35.219  32.292  1.00  0.00     0.057 A 
ATOM     63  C   UNL A   1      42.415  35.484  33.629  1.00  0.00     0.134 A 
ATOM     64  C   UNL A   1      43.411  36.218  31.578  1.00  0.00     0.134 A 
ATOM     65  F   UNL A   1      41.756  34.574  34.362  1.00  0.00    -0.206 F 
ATOM     66  C   UNL A   1      42.731  36.703  34.228  1.00  0.00     0.040 A 
ATOM     67  C   UNL A   1      43.755  37.433  32.173  1.00  0.00     0.040 A 
ATOM     68  F   UNL A   1      43.752  36.027  30.294  1.00  0.00    -0.206 F 
ATOM     69  C   UNL A   1      43.409  37.680  33.501  1.00  0.00     0.006 A 
ENDBRANCH  48  62
BRANCH  49  70
ATOM     70  C   UNL A   1      40.064  26.652  27.916  1.00  0.00     0.057 A 
ATOM     71  C   UNL A   1      39.278  25.717  28.598  1.00  0.00     0.134 A 
ATOM     72  C   UNL A   1      40.437  26.348  26.602  1.00  0.00     0.134 A 
ATOM     73  F   UNL A   1      38.905  25.947  29.865  1.00  0.00    -0.206 F 
ATOM     74  C   UNL A   1      38.882  24.520  27.999  1.00  0.00     0.040 A 
ATOM     75  C   UNL A   1      40.032  25.164  25.984  1.00  0.00     0.040 A 
ATOM     76  F   UNL A   1      41.185  27.208  25.893  1.00  0.00    -0.206 F 
ATOM     77  C   UNL A   1      39.253  24.245  26.685  1.00  0.00     0.006 A 
ENDBRANCH  49  70
BRANCH  61  78
ATOM     78  C   UNL A   1      45.983  28.966  30.766  1.00  0.00     0.057 A 
ATOM     79  C   UNL A   1      47.003  29.099  29.816  1.00  0.00     0.134 A 
ATOM     80  C   UNL A   1      46.277  28.262  31.940  1.00  0.00     0.134 A 
ATOM     81  F   UNL A   1      46.779  29.751  28.666  1.00  0.00    -0.206 F 
ATOM     82  C   UNL A   1      48.266  28.542  30.022  1.00  0.00     0.040 A 
ATOM     83  C   UNL A   1      47.542  27.719  32.167  1.00  0.00     0.040 A 
ATOM     84  F   UNL A   1      45.345  28.105  32.893  1.00  0.00    -0.206 F 
ATOM     85  C   UNL A   1      48.541  27.856  31.204  1.00  0.00     0.006 A 
ENDBRANCH  61  78
ENDBRANCH  35  36
ENDBRANCH  27  30
ENDBRANCH  25  26
ENDBRANCH   1  25
TORSDOF 12
ENDMDL
MODEL 2
REMARK VINA RESULT:      -9.5      4.564      8.104
REMARK SMILES Cc1cc2c(c(C)c1Cl)C=C(C(=O)NCCCCNC(=O)c1ccc(-c3c4nc(c(-c5c(F)cccc5F)c5ccc([nH]5)c(-c5c(F)cccc5F)c5nc(c(-c6c(F)cccc6F)c6ccc3[nH]6)C=C5)C=C4)cc1)[C@@H](C(F)(F)F)O2
REMARK SMILES IDX 17 1 16 2 15 3 14 4 12 5 13 6 11 8 1 9 2 10 3 11 8 12 4 13
REMARK SMILES IDX 6 14 9 15 5 16 81 17 7 18 10 19 76 20 77 21 78 22 79 23
REMARK SMILES IDX 80 24 18 25 19 26 20 27 21 29 22 30 23 31 75 32 24 33 74 34
REMARK SMILES IDX 25 35 26 36 27 37 68 38 28 39 73 40 67 41 69 42 29 43 72 44
REMARK SMILES IDX 66 45 65 46 30 48 56 49 39 50 55 51 40 52 43 53 54 54 70 55
REMARK SMILES IDX 41 56 42 57 53 59 71 60 44 61 31 62 32 63 37 64 33 65 34 66
REMARK SMILES IDX 36 67 38 68 35 69 57 70 58 71 63 72 59 73 60 74 62 75 64 76
REMARK SMILES IDX 61 77 45 78 46 79 51 80 47 81 48 82 50 83 52 84 49 85
REMARK H PARENT 14 7 19 28 69 47 43 58
REMARK Flexibility Score: inf
ROOT
ATOM      1  C   UNL A   1      33.670  28.863  25.454  1.00  0.00     0.023 C 
ENDROOT
BRANCH   1   2
ATOM      2  C   UNL A   1      33.957  27.606  24.627  1.00  0.00     0.023 C 
BRANCH   2   3
ATOM      3  C   UNL A   1      32.708  26.856  24.178  1.00  0.00     0.116 C 
BRANCH   3   4
ATOM      4  N   UNL A   1      31.971  26.308  25.303  1.00  0.00    -0.352 N 
ATOM      5  C   UNL A   1      31.899  25.126  25.958  1.00  0.00     0.251 C 
ATOM      6  O   UNL A   1      31.093  25.098  26.895  1.00  0.00    -0.270 OA
ATOM      7  H   UNL A   1      31.359  26.975  25.693  1.00  0.00     0.163 HD
BRANCH   5   8
ATOM      8  C   UNL A   1      32.700  23.906  25.637  1.00  0.00     0.067 C 
ATOM      9  C   UNL A   1      37.198  19.270  24.790  1.00  0.00     0.046 C 
ATOM     10  C   UNL A   1      36.426  20.525  25.096  1.00  0.00    -0.028 A 
ATOM     11  C   UNL A   1      35.034  20.497  24.984  1.00  0.00     0.052 A 
ATOM     12  C   UNL A   1      37.052  21.722  25.497  1.00  0.00     0.047 A 
ATOM     13  C   UNL A   1      34.280  21.634  25.252  1.00  0.00     0.128 A 
ATOM     14  C   UNL A   1      36.296  22.887  25.781  1.00  0.00    -0.021 A 
ATOM     15  Cl  UNL A   1      38.785  21.732  25.647  1.00  0.00    -0.084 Cl
ATOM     16  C   UNL A   1      34.886  22.828  25.656  1.00  0.00     0.022 A 
ATOM     17  O   UNL A   1      32.928  21.481  25.136  1.00  0.00    -0.475 OA
ATOM     18  C   UNL A   1      36.952  24.177  26.215  1.00  0.00     0.047 C 
ATOM     19  C   UNL A   1      34.003  23.958  25.968  1.00  0.00     0.026 C 
ATOM     20  C   UNL A   1      32.151  22.691  24.952  1.00  0.00     0.314 C 
BRANCH  20  21
ATOM     21  C   UNL A   1      31.900  22.914  23.448  1.00  0.00     0.429 C 
ATOM     22  F   UNL A   1      31.893  21.727  22.791  1.00  0.00    -0.167 F 
ATOM     23  F   UNL A   1      30.701  23.493  23.202  1.00  0.00    -0.167 F 
ATOM     24  F   UNL A   1      32.842  23.692  22.872  1.00  0.00    -0.167 F 
ENDBRANCH  20  21
ENDBRANCH   5   8
ENDBRANCH   3   4
ENDBRANCH   2   3
ENDBRANCH   1   2
BRANCH   1  25
ATOM     25  C   UNL A   1      33.999  28.757  26.942  1.00  0.00     0.116 C 
BRANCH  25  26
ATOM     26  N   UNL A   1      33.903  30.021  27.657  1.00  0.00    -0.352 N 
ATOM     27  C   UNL A   1      34.863  30.640  28.419  1.00  0.00     0.251 C 
ATOM     28  H   UNL A   1      33.041  30.493  27.585  1.00  0.00     0.163 HD
ATOM     29  O   UNL A   1      34.615  31.672  29.032  1.00  0.00    -0.269 OA
BRANCH  27  30
ATOM     30  C   UNL A   1      36.195  30.014  28.525  1.00  0.00     0.039 A 
ATOM     31  C   UNL A   1      37.084  30.140  27.456  1.00  0.00     0.014 A 
ATOM     32  C   UNL A   1      36.578  29.367  29.701  1.00  0.00     0.014 A 
ATOM     33  C   UNL A   1      38.393  29.679  27.594  1.00  0.00     0.010 A 
ATOM     34  C   UNL A   1      37.896  28.959  29.860  1.00  0.00     0.010 A 
ATOM     35  C   UNL A   1      38.816  29.121  28.812  1.00  0.00    -0.014 A 
BRANCH  35  36
ATOM     36  C   UNL A   1      40.221  28.701  29.022  1.00  0.00     0.031 A 
ATOM     37  C   UNL A   1      41.208  29.666  29.609  1.00  0.00     0.074 A 
ATOM     38  C   UNL A   1      40.621  27.483  28.611  1.00  0.00     0.049 A 
ATOM     39  N   UNL A   1      42.501  29.539  29.754  1.00  0.00    -0.248 NA
ATOM     40  C   UNL A   1      40.670  30.956  30.070  1.00  0.00     0.031 C 
ATOM     41  C   UNL A   1      39.759  26.469  28.001  1.00  0.00     0.029 A 
ATOM     42  N   UNL A   1      41.861  26.898  28.630  1.00  0.00    -0.354 N 
ATOM     43  C   UNL A   1      42.934  30.736  30.308  1.00  0.00     0.074 A 
ATOM     44  C   UNL A   1      41.774  31.592  30.433  1.00  0.00     0.031 C 
ATOM     45  C   UNL A   1      40.494  25.380  27.722  1.00  0.00     0.029 A 
ATOM     46  C   UNL A   1      41.882  25.634  28.095  1.00  0.00     0.049 A 
ATOM     47  H   UNL A   1      42.661  27.342  28.993  1.00  0.00     0.167 HD
ATOM     48  C   UNL A   1      44.184  31.081  30.695  1.00  0.00     0.037 A 
ATOM     49  C   UNL A   1      42.907  24.779  27.919  1.00  0.00     0.037 A 
ATOM     50  C   UNL A   1      45.331  30.220  30.588  1.00  0.00     0.049 A 
ATOM     51  C   UNL A   1      44.287  25.189  28.348  1.00  0.00     0.074 A 
ATOM     52  C   UNL A   1      46.634  30.467  30.981  1.00  0.00     0.029 A 
ATOM     53  N   UNL A   1      45.308  28.940  30.053  1.00  0.00    -0.354 N 
ATOM     54  N   UNL A   1      44.682  26.315  28.889  1.00  0.00    -0.248 NA
ATOM     55  C   UNL A   1      45.364  24.211  28.142  1.00  0.00     0.031 C 
ATOM     56  C   UNL A   1      47.408  29.347  30.657  1.00  0.00     0.029 A 
ATOM     57  C   UNL A   1      46.577  28.388  30.098  1.00  0.00     0.049 A 
ATOM     58  H   UNL A   1      44.508  28.492  29.695  1.00  0.00     0.167 HD
ATOM     59  C   UNL A   1      46.046  26.175  29.109  1.00  0.00     0.074 A 
ATOM     60  C   UNL A   1      46.408  24.850  28.651  1.00  0.00     0.031 C 
ATOM     61  C   UNL A   1      46.918  27.065  29.641  1.00  0.00     0.037 A 
BRANCH  48  62
ATOM     62  C   UNL A   1      44.370  32.452  31.276  1.00  0.00     0.057 A 
ATOM     63  C   UNL A   1      44.643  33.561  30.466  1.00  0.00     0.134 A 
ATOM     64  C   UNL A   1      44.249  32.670  32.654  1.00  0.00     0.134 A 
ATOM     65  F   UNL A   1      44.788  33.416  29.140  1.00  0.00    -0.206 F 
ATOM     66  C   UNL A   1      44.810  34.836  31.007  1.00  0.00     0.040 A 
ATOM     67  C   UNL A   1      44.389  33.944  33.205  1.00  0.00     0.040 A 
ATOM     68  F   UNL A   1      43.986  31.650  33.485  1.00  0.00    -0.206 F 
ATOM     69  C   UNL A   1      44.676  35.032  32.381  1.00  0.00     0.006 A 
ENDBRANCH  48  62
BRANCH  49  70
ATOM     70  C   UNL A   1      42.655  23.438  27.337  1.00  0.00     0.057 A 
ATOM     71  C   UNL A   1      42.830  23.208  25.969  1.00  0.00     0.134 A 
ATOM     72  C   UNL A   1      42.259  22.356  28.131  1.00  0.00     0.134 A 
ATOM     73  F   UNL A   1      43.191  24.213  25.157  1.00  0.00    -0.206 F 
ATOM     74  C   UNL A   1      42.614  21.949  25.407  1.00  0.00     0.040 A 
ATOM     75  C   UNL A   1      42.059  21.087  27.585  1.00  0.00     0.040 A 
ATOM     76  F   UNL A   1      42.081  22.512  29.451  1.00  0.00    -0.206 F 
ATOM     77  C   UNL A   1      42.234  20.882  26.217  1.00  0.00     0.006 A 
ENDBRANCH  49  70
BRANCH  61  78
ATOM     78  C   UNL A   1      48.345  26.627  29.782  1.00  0.00     0.057 A 
ATOM     79  C   UNL A   1      49.308  26.933  28.814  1.00  0.00     0.134 A 
ATOM     80  C   UNL A   1      48.768  25.938  30.925  1.00  0.00     0.134 A 
ATOM     81  F   UNL A   1      48.962  27.581  27.692  1.00  0.00    -0.206 F 
ATOM     82  C   UNL A   1      50.642  26.555  28.971  1.00  0.00     0.040 A 
ATOM     83  C   UNL A   1      50.103  25.574  31.104  1.00  0.00     0.040 A 
ATOM     84  F   UNL A   1      47.894  25.622  31.893  1.00  0.00    -0.206 F 
ATOM     85  C   UNL A   1      51.044  25.880  30.123  1.00  0.00     0.006 A 
ENDBRANCH  61  78
ENDBRANCH  35  36
ENDBRANCH  27  30
ENDBRANCH  25  26
ENDBRANCH   1  25
TORSDOF 12
ENDMDL
MODEL 3
REMARK VINA RESULT:      -9.5      5.152     10.808
REMARK SMILES Cc1cc2c(c(C)c1Cl)C=C(C(=O)NCCCCNC(=O)c1ccc(-c3c4nc(c(-c5c(F)cccc5F)c5ccc([nH]5)c(-c5c(F)cccc5F)c5nc(c(-c6c(F)cccc6F)c6ccc3[nH]6)C=C5)C=C4)cc1)[C@@H](C(F)(F)F)O2
REMARK SMILES IDX 17 1 16 2 15 3 14 4 12 5 13 6 11 8 1 9 2 10 3 11 8 12 4 13
REMARK SMILES IDX 6 14 9 15 5 16 81 17 7 18 10 19 76 20 77 21 78 22 79 23
REMARK SMILES IDX 80 24 18 25 19 26 20 27 21 29 22 30 23 31 75 32 24 33 74 34
REMARK SMILES IDX 25 35 26 36 27 37 68 38 28 39 73 40 67 41 69 42 29 43 72 44
REMARK SMILES IDX 66 45 65 46 30 48 56 49 39 50 55 51 40 52 43 53 54 54 70 55
REMARK SMILES IDX 41 56 42 57 53 59 71 60 44 61 31 62 32 63 37 64 33 65 34 66
REMARK SMILES IDX 36 67 38 68 35 69 57 70 58 71 63 72 59 73 60 74 62 75 64 76
REMARK SMILES IDX 61 77 45 78 46 79 51 80 47 81 48 82 50 83 52 84 49 85
REMARK H PARENT 14 7 19 28 69 47 43 58
REMARK Flexibility Score: inf
ROOT
ATOM      1  C   UNL A   1      37.443  20.771  24.879  1.00  0.00     0.023 C 
ENDROOT
BRANCH   1   2
ATOM      2  C   UNL A   1      36.910  22.037  24.206  1.00  0.00     0.023 C 
BRANCH   2   3
ATOM      3  C   UNL A   1      36.755  23.227  25.147  1.00  0.00     0.116 C 
BRANCH   3   4
ATOM      4  N   UNL A   1      35.888  22.920  26.271  1.00  0.00    -0.352 N 
ATOM      5  C   UNL A   1      34.621  23.204  26.650  1.00  0.00     0.251 C 
ATOM      6  O   UNL A   1      34.281  22.722  27.736  1.00  0.00    -0.270 OA
ATOM      7  H   UNL A   1      36.345  22.355  26.935  1.00  0.00     0.163 HD
BRANCH   5   8
ATOM      8  C   UNL A   1      33.645  24.026  25.870  1.00  0.00     0.067 C 
ATOM      9  C   UNL A   1      29.959  28.634  23.111  1.00  0.00     0.046 C 
ATOM     10  C   UNL A   1      30.929  27.831  23.934  1.00  0.00    -0.028 A 
ATOM     11  C   UNL A   1      31.116  26.483  23.621  1.00  0.00     0.052 A 
ATOM     12  C   UNL A   1      31.660  28.389  25.003  1.00  0.00     0.047 A 
ATOM     13  C   UNL A   1      31.998  25.701  24.358  1.00  0.00     0.128 A 
ATOM     14  C   UNL A   1      32.569  27.606  25.758  1.00  0.00    -0.021 A 
ATOM     15  Cl  UNL A   1      31.426  30.073  25.367  1.00  0.00    -0.084 Cl
ATOM     16  C   UNL A   1      32.735  26.241  25.418  1.00  0.00     0.022 A 
ATOM     17  O   UNL A   1      32.119  24.406  23.944  1.00  0.00    -0.475 OA
ATOM     18  C   UNL A   1      33.362  28.189  26.904  1.00  0.00     0.047 C 
ATOM     19  C   UNL A   1      33.680  25.351  26.101  1.00  0.00     0.026 C 
ATOM     20  C   UNL A   1      32.641  23.461  24.911  1.00  0.00     0.314 C 
BRANCH  20  21
ATOM     21  C   UNL A   1      31.469  22.755  25.619  1.00  0.00     0.429 C 
ATOM     22  F   UNL A   1      30.313  22.967  24.942  1.00  0.00    -0.167 F 
ATOM     23  F   UNL A   1      31.633  21.412  25.682  1.00  0.00    -0.167 F 
ATOM     24  F   UNL A   1      31.286  23.190  26.885  1.00  0.00    -0.167 F 
ENDBRANCH  20  21
ENDBRANCH   5   8
ENDBRANCH   3   4
ENDBRANCH   2   3
ENDBRANCH   1   2
BRANCH   1  25
ATOM     25  C   UNL A   1      38.711  20.955  25.712  1.00  0.00     0.116 C 
BRANCH  25  26
ATOM     26  N   UNL A   1      39.640  19.839  25.624  1.00  0.00    -0.352 N 
ATOM     27  C   UNL A   1      40.967  19.810  25.980  1.00  0.00     0.251 C 
ATOM     28  H   UNL A   1      39.272  18.998  25.266  1.00  0.00     0.163 HD
ATOM     29  O   UNL A   1      41.653  18.815  25.776  1.00  0.00    -0.269 OA
BRANCH  27  30
ATOM     30  C   UNL A   1      41.567  21.019  26.575  1.00  0.00     0.039 A 
ATOM     31  C   UNL A   1      42.087  21.999  25.726  1.00  0.00     0.014 A 
ATOM     32  C   UNL A   1      41.552  21.205  27.958  1.00  0.00     0.014 A 
ATOM     33  C   UNL A   1      42.528  23.208  26.264  1.00  0.00     0.010 A 
ATOM     34  C   UNL A   1      41.939  22.430  28.488  1.00  0.00     0.010 A 
ATOM     35  C   UNL A   1      42.420  23.444  27.645  1.00  0.00    -0.014 A 
BRANCH  35  36
ATOM     36  C   UNL A   1      42.798  24.748  28.236  1.00  0.00     0.031 A 
ATOM     37  C   UNL A   1      41.752  25.802  28.447  1.00  0.00     0.074 A 
ATOM     38  C   UNL A   1      44.091  25.007  28.508  1.00  0.00     0.049 A 
ATOM     39  N   UNL A   1      41.896  27.044  28.829  1.00  0.00    -0.248 NA
ATOM     40  C   UNL A   1      40.361  25.413  28.165  1.00  0.00     0.031 C 
ATOM     41  C   UNL A   1      45.200  24.071  28.319  1.00  0.00     0.029 A 
ATOM     42  N   UNL A   1      44.691  26.143  28.985  1.00  0.00    -0.354 N 
ATOM     43  C   UNL A   1      40.619  27.589  28.818  1.00  0.00     0.074 A 
ATOM     44  C   UNL A   1      39.719  26.557  28.352  1.00  0.00     0.031 C 
ATOM     45  C   UNL A   1      46.344  24.666  28.695  1.00  0.00     0.029 A 
ATOM     46  C   UNL A   1      46.054  26.034  29.112  1.00  0.00     0.049 A 
ATOM     47  H   UNL A   1      44.193  26.960  29.216  1.00  0.00     0.167 HD
ATOM     48  C   UNL A   1      40.231  28.833  29.184  1.00  0.00     0.037 A 
ATOM     49  C   UNL A   1      46.966  26.939  29.514  1.00  0.00     0.037 A 
ATOM     50  C   UNL A   1      41.127  29.851  29.667  1.00  0.00     0.049 A 
ATOM     51  C   UNL A   1      46.513  28.316  29.905  1.00  0.00     0.074 A 
ATOM     52  C   UNL A   1      40.827  31.132  30.092  1.00  0.00     0.029 A 
ATOM     53  N   UNL A   1      42.499  29.696  29.795  1.00  0.00    -0.354 N 
ATOM     54  N   UNL A   1      45.301  28.814  29.911  1.00  0.00    -0.248 NA
ATOM     55  C   UNL A   1      47.552  29.257  30.346  1.00  0.00     0.031 C 
ATOM     56  C   UNL A   1      42.022  31.765  30.450  1.00  0.00     0.029 A 
ATOM     57  C   UNL A   1      43.062  30.863  30.285  1.00  0.00     0.049 A 
ATOM     58  H   UNL A   1      42.999  28.878  29.570  1.00  0.00     0.167 HD
ATOM     59  C   UNL A   1      45.426  30.117  30.374  1.00  0.00     0.074 A 
ATOM     60  C   UNL A   1      46.833  30.328  30.649  1.00  0.00     0.031 C 
ATOM     61  C   UNL A   1      44.463  31.053  30.555  1.00  0.00     0.037 A 
BRANCH  48  62
ATOM     62  C   UNL A   1      38.770  29.157  29.079  1.00  0.00     0.057 A 
ATOM     63  C   UNL A   1      37.920  29.081  30.189  1.00  0.00     0.134 A 
ATOM     64  C   UNL A   1      38.213  29.571  27.864  1.00  0.00     0.134 A 
ATOM     65  F   UNL A   1      38.390  28.673  31.379  1.00  0.00    -0.206 F 
ATOM     66  C   UNL A   1      36.563  29.387  30.092  1.00  0.00     0.040 A 
ATOM     67  C   UNL A   1      36.862  29.904  27.758  1.00  0.00     0.040 A 
ATOM     68  F   UNL A   1      38.973  29.666  26.762  1.00  0.00    -0.206 F 
ATOM     69  C   UNL A   1      36.031  29.807  28.874  1.00  0.00     0.006 A 
ENDBRANCH  48  62
BRANCH  49  70
ATOM     70  C   UNL A   1      48.397  26.554  29.594  1.00  0.00     0.057 A 
ATOM     71  C   UNL A   1      49.274  26.838  28.543  1.00  0.00     0.134 A 
ATOM     72  C   UNL A   1      48.924  25.920  30.725  1.00  0.00     0.134 A 
ATOM     73  F   UNL A   1      48.821  27.429  27.427  1.00  0.00    -0.206 F 
ATOM     74  C   UNL A   1      50.626  26.499  28.608  1.00  0.00     0.040 A 
ATOM     75  C   UNL A   1      50.279  25.593  30.812  1.00  0.00     0.040 A 
ATOM     76  F   UNL A   1      48.134  25.628  31.769  1.00  0.00    -0.206 F 
ATOM     77  C   UNL A   1      51.133  25.881  29.749  1.00  0.00     0.006 A 
ENDBRANCH  49  70
BRANCH  61  78
ATOM     78  C   UNL A   1      44.892  32.383  31.099  1.00  0.00     0.057 A 
ATOM     79  C   UNL A   1      45.238  33.446  30.256  1.00  0.00     0.134 A 
ATOM     80  C   UNL A   1      44.907  32.616  32.479  1.00  0.00     0.134 A 
ATOM     81  F   UNL A   1      45.254  33.281  28.926  1.00  0.00    -0.206 F 
ATOM     82  C   UNL A   1      45.599  34.692  30.770  1.00  0.00     0.040 A 
ATOM     83  C   UNL A   1      45.245  33.864  33.004  1.00  0.00     0.040 A 
ATOM     84  F   UNL A   1      44.578  31.640  33.339  1.00  0.00    -0.206 F 
ATOM     85  C   UNL A   1      45.595  34.906  32.148  1.00  0.00     0.006 A 
ENDBRANCH  61  78
ENDBRANCH  35  36
ENDBRANCH  27  30
ENDBRANCH  25  26
ENDBRANCH   1  25
TORSDOF 12
ENDMDL
