MODEL 1
REMARK VINA RESULT:     -10.4      0.000      0.000
REMARK SMILES O=C(CSc1ccc2ccccc2c1)NCCCCNC(=O)c1ccc(-c2c3nc(c(-c4c(F)cccc4F)c4ccc([nH]4)c(-c4c(F)cccc4F)c4nc(c(-c5c(F)cccc5F)c5ccc2[nH]5)C=C4)C=C3)cc1
REMARK SMILES IDX 17 1 16 2 15 3 1 4 2 5 3 7 4 8 5 9 6 10 14 11 7 12 13 13
REMARK SMILES IDX 8 14 12 15 9 16 11 17 10 18 18 19 19 20 20 21 21 22 22 24
REMARK SMILES IDX 23 25 24 26 76 27 25 28 75 29 26 30 27 31 28 32 69 33 29 34
REMARK SMILES IDX 74 35 68 36 70 37 30 38 73 39 67 40 66 41 31 43 57 44 40 45
REMARK SMILES IDX 56 46 41 47 44 48 55 49 71 50 42 51 43 52 54 54 72 55 45 56
REMARK SMILES IDX 32 57 33 58 38 59 34 60 35 61 37 62 39 63 36 64 58 65 59 66
REMARK SMILES IDX 64 67 60 68 61 69 63 70 65 71 62 72 46 73 47 74 52 75 48 76
REMARK SMILES IDX 49 77 51 78 53 79 50 80
REMARK H PARENT 15 6 20 23 70 42 44 53
REMARK Flexibility Score: inf
ROOT
ATOM      1  C   UNL A   1      41.834  19.383  26.272  1.00  0.00     0.023 C 
ENDROOT
BRANCH   1   2
ATOM      2  C   UNL A   1      43.089  18.829  25.602  1.00  0.00     0.116 C 
BRANCH   2   3
ATOM      3  N   UNL A   1      44.169  19.795  25.552  1.00  0.00    -0.355 N 
ATOM      4  O   UNL A   1      45.640  18.448  24.418  1.00  0.00    -0.274 OA
ATOM      5  C   UNL A   1      45.358  19.544  24.895  1.00  0.00     0.230 C 
ATOM      6  H   UNL A   1      44.050  20.662  26.003  1.00  0.00     0.163 HD
BRANCH   5   7
ATOM      7  C   UNL A   1      46.337  20.706  24.858  1.00  0.00     0.174 C 
BRANCH   7   8
ATOM      8  S   UNL A   1      45.549  22.283  24.369  1.00  0.00    -0.116 SA
BRANCH   8   9
ATOM      9  C   UNL A   1      45.693  23.213  25.887  1.00  0.00     0.008 A 
ATOM     10  C   UNL A   1      46.776  24.073  26.075  1.00  0.00     0.016 A 
ATOM     11  C   UNL A   1      44.780  23.031  26.930  1.00  0.00     0.023 A 
ATOM     12  C   UNL A   1      46.938  24.751  27.288  1.00  0.00     0.010 A 
ATOM     13  C   UNL A   1      44.922  23.710  28.149  1.00  0.00    -0.017 A 
ATOM     14  C   UNL A   1      46.020  24.577  28.337  1.00  0.00    -0.018 A 
ATOM     15  C   UNL A   1      43.994  23.534  29.189  1.00  0.00     0.009 A 
ATOM     16  C   UNL A   1      46.169  25.234  29.571  1.00  0.00     0.009 A 
ATOM     17  C   UNL A   1      44.155  24.195  30.407  1.00  0.00     0.001 A 
ATOM     18  C   UNL A   1      45.244  25.040  30.599  1.00  0.00     0.001 A 
ENDBRANCH   8   9
ENDBRANCH   7   8
ENDBRANCH   5   7
ENDBRANCH   2   3
ENDBRANCH   1   2
BRANCH   1  19
ATOM     19  C   UNL A   1      42.087  20.250  27.507  1.00  0.00     0.023 C 
BRANCH  19  20
ATOM     20  C   UNL A   1      41.237  21.513  27.613  1.00  0.00     0.116 C 
BRANCH  20  21
ATOM     21  N   UNL A   1      40.058  21.482  26.762  1.00  0.00    -0.352 N 
ATOM     22  C   UNL A   1      39.206  22.500  26.407  1.00  0.00     0.251 C 
ATOM     23  H   UNL A   1      39.836  20.600  26.384  1.00  0.00     0.163 HD
ATOM     24  O   UNL A   1      38.180  22.250  25.779  1.00  0.00    -0.269 OA
BRANCH  22  25
ATOM     25  C   UNL A   1      39.498  23.897  26.803  1.00  0.00     0.039 A 
ATOM     26  C   UNL A   1      39.262  24.285  28.126  1.00  0.00     0.014 A 
ATOM     27  C   UNL A   1      39.998  24.824  25.885  1.00  0.00     0.014 A 
ATOM     28  C   UNL A   1      39.599  25.574  28.544  1.00  0.00     0.010 A 
ATOM     29  C   UNL A   1      40.405  26.084  26.321  1.00  0.00     0.010 A 
ATOM     30  C   UNL A   1      40.213  26.472  27.656  1.00  0.00    -0.014 A 
BRANCH  30  31
ATOM     31  C   UNL A   1      40.674  27.812  28.111  1.00  0.00     0.031 A 
ATOM     32  C   UNL A   1      42.142  28.141  28.148  1.00  0.00     0.074 A 
ATOM     33  C   UNL A   1      39.776  28.712  28.555  1.00  0.00     0.049 A 
ATOM     34  N   UNL A   1      42.736  29.227  28.577  1.00  0.00    -0.248 NA
ATOM     35  C   UNL A   1      43.065  27.105  27.660  1.00  0.00     0.031 C 
ATOM     36  C   UNL A   1      38.327  28.504  28.617  1.00  0.00     0.029 A 
ATOM     37  N   UNL A   1      39.948  29.981  29.051  1.00  0.00    -0.354 N 
ATOM     38  C   UNL A   1      44.097  29.000  28.421  1.00  0.00     0.074 A 
ATOM     39  C   UNL A   1      44.244  27.653  27.912  1.00  0.00     0.031 C 
ATOM     40  C   UNL A   1      37.743  29.611  29.100  1.00  0.00     0.029 A 
ATOM     41  C   UNL A   1      38.773  30.591  29.425  1.00  0.00     0.049 A 
ATOM     42  H   UNL A   1      40.829  30.413  29.132  1.00  0.00     0.167 HD
ATOM     43  C   UNL A   1      45.131  29.844  28.656  1.00  0.00     0.037 A 
ATOM     44  C   UNL A   1      38.552  31.799  29.977  1.00  0.00     0.037 A 
ATOM     45  C   UNL A   1      44.984  31.189  29.151  1.00  0.00     0.049 A 
ATOM     46  C   UNL A   1      39.717  32.710  30.251  1.00  0.00     0.074 A 
ATOM     47  C   UNL A   1      45.967  32.137  29.375  1.00  0.00     0.029 A 
ATOM     48  N   UNL A   1      43.777  31.774  29.507  1.00  0.00    -0.354 N 
ATOM     49  N   UNL A   1      40.994  32.507  30.035  1.00  0.00    -0.248 NA
ATOM     50  C   UNL A   1      39.409  34.021  30.839  1.00  0.00     0.031 C 
ATOM     51  C   UNL A   1      45.361  33.277  29.915  1.00  0.00     0.029 A 
ATOM     52  C   UNL A   1      43.995  33.060  29.973  1.00  0.00     0.049 A 
ATOM     53  H   UNL A   1      42.897  31.338  29.439  1.00  0.00     0.167 HD
ATOM     54  C   UNL A   1      41.637  33.672  30.432  1.00  0.00     0.074 A 
ATOM     55  C   UNL A   1      40.608  34.583  30.888  1.00  0.00     0.031 C 
ATOM     56  C   UNL A   1      42.962  33.961  30.420  1.00  0.00     0.037 A 
BRANCH  43  57
ATOM     57  C   UNL A   1      46.517  29.335  28.378  1.00  0.00     0.057 A 
ATOM     58  C   UNL A   1      47.129  29.501  27.127  1.00  0.00     0.134 A 
ATOM     59  C   UNL A   1      47.263  28.699  29.380  1.00  0.00     0.134 A 
ATOM     60  F   UNL A   1      46.469  30.092  26.120  1.00  0.00    -0.206 F 
ATOM     61  C   UNL A   1      48.417  29.025  26.875  1.00  0.00     0.040 A 
ATOM     62  C   UNL A   1      48.562  28.247  29.147  1.00  0.00     0.040 A 
ATOM     63  F   UNL A   1      46.743  28.515  30.603  1.00  0.00    -0.206 F 
ATOM     64  C   UNL A   1      49.141  28.403  27.889  1.00  0.00     0.006 A 
ENDBRANCH  43  57
BRANCH  44  65
ATOM     65  C   UNL A   1      37.165  32.225  30.298  1.00  0.00     0.057 A 
ATOM     66  C   UNL A   1      36.397  32.946  29.375  1.00  0.00     0.134 A 
ATOM     67  C   UNL A   1      36.577  31.930  31.534  1.00  0.00     0.134 A 
ATOM     68  F   UNL A   1      36.912  33.276  28.182  1.00  0.00    -0.206 F 
ATOM     69  C   UNL A   1      35.104  33.377  29.677  1.00  0.00     0.040 A 
ATOM     70  C   UNL A   1      35.274  32.330  31.838  1.00  0.00     0.040 A 
ATOM     71  F   UNL A   1      37.256  31.236  32.459  1.00  0.00    -0.206 F 
ATOM     72  C   UNL A   1      34.537  33.063  30.910  1.00  0.00     0.006 A 
ENDBRANCH  44  65
BRANCH  56  73
ATOM     73  C   UNL A   1      43.374  35.331  30.877  1.00  0.00     0.057 A 
ATOM     74  C   UNL A   1      43.487  36.409  29.989  1.00  0.00     0.134 A 
ATOM     75  C   UNL A   1      43.622  35.584  32.233  1.00  0.00     0.134 A 
ATOM     76  F   UNL A   1      43.276  36.232  28.675  1.00  0.00    -0.206 F 
ATOM     77  C   UNL A   1      43.857  37.681  30.428  1.00  0.00     0.040 A 
ATOM     78  C   UNL A   1      43.963  36.858  32.688  1.00  0.00     0.040 A 
ATOM     79  F   UNL A   1      43.523  34.600  33.140  1.00  0.00    -0.206 F 
ATOM     80  C   UNL A   1      44.089  37.910  31.784  1.00  0.00     0.006 A 
ENDBRANCH  56  73
ENDBRANCH  30  31
ENDBRANCH  22  25
ENDBRANCH  20  21
ENDBRANCH  19  20
ENDBRANCH   1  19
TORSDOF 13
ENDMDL
MODEL 2
REMARK VINA RESULT:     -10.3      4.508     11.298
REMARK SMILES O=C(CSc1ccc2ccccc2c1)NCCCCNC(=O)c1ccc(-c2c3nc(c(-c4c(F)cccc4F)c4ccc([nH]4)c(-c4c(F)cccc4F)c4nc(c(-c5c(F)cccc5F)c5ccc2[nH]5)C=C4)C=C3)cc1
REMARK SMILES IDX 17 1 16 2 15 3 1 4 2 5 3 7 4 8 5 9 6 10 14 11 7 12 13 13
REMARK SMILES IDX 8 14 12 15 9 16 11 17 10 18 18 19 19 20 20 21 21 22 22 24
REMARK SMILES IDX 23 25 24 26 76 27 25 28 75 29 26 30 27 31 28 32 69 33 29 34
REMARK SMILES IDX 74 35 68 36 70 37 30 38 73 39 67 40 66 41 31 43 57 44 40 45
REMARK SMILES IDX 56 46 41 47 44 48 55 49 71 50 42 51 43 52 54 54 72 55 45 56
REMARK SMILES IDX 32 57 33 58 38 59 34 60 35 61 37 62 39 63 36 64 58 65 59 66
REMARK SMILES IDX 64 67 60 68 61 69 63 70 65 71 62 72 46 73 47 74 52 75 48 76
REMARK SMILES IDX 49 77 51 78 53 79 50 80
REMARK H PARENT 15 6 20 23 70 42 44 53
REMARK Flexibility Score: inf
ROOT
ATOM      1  C   UNL A   1      33.982  35.527  28.726  1.00  0.00     0.023 C 
ENDROOT
BRANCH   1   2
ATOM      2  C   UNL A   1      33.210  36.404  29.708  1.00  0.00     0.116 C 
BRANCH   2   3
ATOM      3  N   UNL A   1      33.869  36.518  30.993  1.00  0.00    -0.355 N 
ATOM      4  O   UNL A   1      32.488  35.056  32.098  1.00  0.00    -0.274 OA
ATOM      5  C   UNL A   1      33.486  35.772  32.091  1.00  0.00     0.230 C 
ATOM      6  H   UNL A   1      34.616  37.151  31.088  1.00  0.00     0.163 HD
BRANCH   5   7
ATOM      7  C   UNL A   1      34.352  35.946  33.328  1.00  0.00     0.174 C 
BRANCH   7   8
ATOM      8  S   UNL A   1      35.140  34.387  33.869  1.00  0.00    -0.116 SA
BRANCH   8   9
ATOM      9  C   UNL A   1      36.504  34.286  32.719  1.00  0.00     0.008 A 
ATOM     10  C   UNL A   1      36.272  33.903  31.397  1.00  0.00     0.016 A 
ATOM     11  C   UNL A   1      37.818  34.504  33.143  1.00  0.00     0.023 A 
ATOM     12  C   UNL A   1      37.341  33.750  30.507  1.00  0.00     0.010 A 
ATOM     13  C   UNL A   1      38.901  34.365  32.262  1.00  0.00    -0.017 A 
ATOM     14  C   UNL A   1      38.663  33.974  30.926  1.00  0.00    -0.018 A 
ATOM     15  C   UNL A   1      40.218  34.598  32.690  1.00  0.00     0.009 A 
ATOM     16  C   UNL A   1      39.755  33.811  30.057  1.00  0.00     0.009 A 
ATOM     17  C   UNL A   1      41.291  34.435  31.813  1.00  0.00     0.001 A 
ATOM     18  C   UNL A   1      41.060  34.037  30.500  1.00  0.00     0.001 A 
ENDBRANCH   8   9
ENDBRANCH   7   8
ENDBRANCH   5   7
ENDBRANCH   2   3
ENDBRANCH   1   2
BRANCH   1  19
ATOM     19  C   UNL A   1      33.353  34.160  28.444  1.00  0.00     0.023 C 
BRANCH  19  20
ATOM     20  C   UNL A   1      34.330  32.993  28.340  1.00  0.00     0.116 C 
BRANCH  20  21
ATOM     21  N   UNL A   1      33.749  31.816  27.712  1.00  0.00    -0.352 N 
ATOM     22  C   UNL A   1      34.282  30.561  27.541  1.00  0.00     0.251 C 
ATOM     23  H   UNL A   1      32.839  31.937  27.357  1.00  0.00     0.163 HD
ATOM     24  O   UNL A   1      33.684  29.728  26.863  1.00  0.00    -0.269 OA
BRANCH  22  25
ATOM     25  C   UNL A   1      35.590  30.211  28.140  1.00  0.00     0.039 A 
ATOM     26  C   UNL A   1      35.622  29.714  29.447  1.00  0.00     0.014 A 
ATOM     27  C   UNL A   1      36.782  30.371  27.428  1.00  0.00     0.014 A 
ATOM     28  C   UNL A   1      36.834  29.306  30.007  1.00  0.00     0.010 A 
ATOM     29  C   UNL A   1      37.978  29.892  27.958  1.00  0.00     0.010 A 
ATOM     30  C   UNL A   1      38.018  29.351  29.253  1.00  0.00    -0.014 A 
BRANCH  30  31
ATOM     31  C   UNL A   1      39.299  28.824  29.796  1.00  0.00     0.031 A 
ATOM     32  C   UNL A   1      39.931  29.454  31.007  1.00  0.00     0.074 A 
ATOM     33  C   UNL A   1      39.929  27.817  29.160  1.00  0.00     0.049 A 
ATOM     34  N   UNL A   1      41.075  29.177  31.582  1.00  0.00    -0.248 NA
ATOM     35  C   UNL A   1      39.192  30.557  31.641  1.00  0.00     0.031 C 
ATOM     36  C   UNL A   1      39.449  27.147  27.950  1.00  0.00     0.029 A 
ATOM     37  N   UNL A   1      41.118  27.187  29.436  1.00  0.00    -0.354 N 
ATOM     38  C   UNL A   1      41.196  30.075  32.635  1.00  0.00     0.074 A 
ATOM     39  C   UNL A   1      40.038  30.942  32.584  1.00  0.00     0.031 C 
ATOM     40  C   UNL A   1      40.321  26.189  27.601  1.00  0.00     0.029 A 
ATOM     41  C   UNL A   1      41.443  26.203  28.533  1.00  0.00     0.049 A 
ATOM     42  H   UNL A   1      41.684  27.419  30.208  1.00  0.00     0.167 HD
ATOM     43  C   UNL A   1      42.169  30.156  33.574  1.00  0.00     0.037 A 
ATOM     44  C   UNL A   1      42.528  25.409  28.456  1.00  0.00     0.037 A 
ATOM     45  C   UNL A   1      43.316  29.285  33.631  1.00  0.00     0.049 A 
ATOM     46  C   UNL A   1      43.608  25.532  29.497  1.00  0.00     0.074 A 
ATOM     47  C   UNL A   1      44.330  29.257  34.572  1.00  0.00     0.029 A 
ATOM     48  N   UNL A   1      43.604  28.294  32.704  1.00  0.00    -0.354 N 
ATOM     49  N   UNL A   1      43.676  26.341  30.525  1.00  0.00    -0.248 NA
ATOM     50  C   UNL A   1      44.758  24.627  29.368  1.00  0.00     0.031 C 
ATOM     51  C   UNL A   1      45.259  28.284  34.186  1.00  0.00     0.029 A 
ATOM     52  C   UNL A   1      44.794  27.666  33.037  1.00  0.00     0.049 A 
ATOM     53  H   UNL A   1      43.045  28.071  31.925  1.00  0.00     0.167 HD
ATOM     54  C   UNL A   1      44.857  26.024  31.182  1.00  0.00     0.074 A 
ATOM     55  C   UNL A   1      45.467  24.938  30.444  1.00  0.00     0.031 C 
ATOM     56  C   UNL A   1      45.390  26.583  32.298  1.00  0.00     0.037 A 
BRANCH  43  57
ATOM     57  C   UNL A   1      42.035  31.227  34.620  1.00  0.00     0.057 A 
ATOM     58  C   UNL A   1      41.258  31.041  35.772  1.00  0.00     0.134 A 
ATOM     59  C   UNL A   1      42.715  32.445  34.491  1.00  0.00     0.134 A 
ATOM     60  F   UNL A   1      40.573  29.902  35.955  1.00  0.00    -0.206 F 
ATOM     61  C   UNL A   1      41.136  32.040  36.740  1.00  0.00     0.040 A 
ATOM     62  C   UNL A   1      42.625  33.438  35.467  1.00  0.00     0.040 A 
ATOM     63  F   UNL A   1      43.483  32.686  33.419  1.00  0.00    -0.206 F 
ATOM     64  C   UNL A   1      41.827  33.240  36.593  1.00  0.00     0.006 A 
ENDBRANCH  43  57
BRANCH  44  65
ATOM     65  C   UNL A   1      42.644  24.414  27.358  1.00  0.00     0.057 A 
ATOM     66  C   UNL A   1      42.224  23.090  27.534  1.00  0.00     0.134 A 
ATOM     67  C   UNL A   1      43.183  24.759  26.113  1.00  0.00     0.134 A 
ATOM     68  F   UNL A   1      41.718  22.693  28.712  1.00  0.00    -0.206 F 
ATOM     69  C   UNL A   1      42.355  22.140  26.520  1.00  0.00     0.040 A 
ATOM     70  C   UNL A   1      43.292  23.826  25.080  1.00  0.00     0.040 A 
ATOM     71  F   UNL A   1      43.596  26.013  25.877  1.00  0.00    -0.206 F 
ATOM     72  C   UNL A   1      42.886  22.509  25.286  1.00  0.00     0.006 A 
ENDBRANCH  44  65
BRANCH  56  73
ATOM     73  C   UNL A   1      46.677  26.004  32.812  1.00  0.00     0.057 A 
ATOM     74  C   UNL A   1      46.703  24.954  33.739  1.00  0.00     0.134 A 
ATOM     75  C   UNL A   1      47.908  26.481  32.342  1.00  0.00     0.134 A 
ATOM     76  F   UNL A   1      45.560  24.460  34.239  1.00  0.00    -0.206 F 
ATOM     77  C   UNL A   1      47.906  24.416  34.198  1.00  0.00     0.040 A 
ATOM     78  C   UNL A   1      49.117  25.931  32.772  1.00  0.00     0.040 A 
ATOM     79  F   UNL A   1      47.957  27.479  31.447  1.00  0.00    -0.206 F 
ATOM     80  C   UNL A   1      49.118  24.900  33.708  1.00  0.00     0.006 A 
ENDBRANCH  56  73
ENDBRANCH  30  31
ENDBRANCH  22  25
ENDBRANCH  20  21
ENDBRANCH  19  20
ENDBRANCH   1  19
TORSDOF 13
ENDMDL
MODEL 3
REMARK VINA RESULT:     -10.2      6.186     10.927
REMARK SMILES O=C(CSc1ccc2ccccc2c1)NCCCCNC(=O)c1ccc(-c2c3nc(c(-c4c(F)cccc4F)c4ccc([nH]4)c(-c4c(F)cccc4F)c4nc(c(-c5c(F)cccc5F)c5ccc2[nH]5)C=C4)C=C3)cc1
REMARK SMILES IDX 17 1 16 2 15 3 1 4 2 5 3 7 4 8 5 9 6 10 14 11 7 12 13 13
REMARK SMILES IDX 8 14 12 15 9 16 11 17 10 18 18 19 19 20 20 21 21 22 22 24
REMARK SMILES IDX 23 25 24 26 76 27 25 28 75 29 26 30 27 31 28 32 69 33 29 34
REMARK SMILES IDX 74 35 68 36 70 37 30 38 73 39 67 40 66 41 31 43 57 44 40 45
REMARK SMILES IDX 56 46 41 47 44 48 55 49 71 50 42 51 43 52 54 54 72 55 45 56
REMARK SMILES IDX 32 57 33 58 38 59 34 60 35 61 37 62 39 63 36 64 58 65 59 66
REMARK SMILES IDX 64 67 60 68 61 69 63 70 65 71 62 72 46 73 47 74 52 75 48 76
REMARK SMILES IDX 49 77 51 78 53 79 50 80
REMARK H PARENT 15 6 20 23 70 42 44 53
REMARK Flexibility Score: inf
ROOT
ATOM      1  C   UNL A   1      31.672  30.685  26.164  1.00  0.00     0.023 C 
ENDROOT
BRANCH   1   2
ATOM      2  C   UNL A   1      33.071  30.127  26.411  1.00  0.00     0.116 C 
BRANCH   2   3
ATOM      3  N   UNL A   1      33.548  29.306  25.316  1.00  0.00    -0.355 N 
ATOM      4  O   UNL A   1      33.289  27.298  26.395  1.00  0.00    -0.274 OA
ATOM      5  C   UNL A   1      33.559  27.926  25.374  1.00  0.00     0.230 C 
ATOM      6  H   UNL A   1      33.875  29.748  24.500  1.00  0.00     0.163 HD
BRANCH   5   7
ATOM      7  C   UNL A   1      33.996  27.226  24.098  1.00  0.00     0.174 C 
BRANCH   7   8
ATOM      8  S   UNL A   1      32.832  25.917  23.571  1.00  0.00    -0.116 SA
BRANCH   8   9
ATOM      9  C   UNL A   1      31.314  26.851  23.448  1.00  0.00     0.008 A 
ATOM     10  C   UNL A   1      30.133  26.330  23.978  1.00  0.00     0.016 A 
ATOM     11  C   UNL A   1      31.271  28.063  22.753  1.00  0.00     0.023 A 
ATOM     12  C   UNL A   1      28.924  27.018  23.824  1.00  0.00     0.010 A 
ATOM     13  C   UNL A   1      30.070  28.771  22.598  1.00  0.00    -0.017 A 
ATOM     14  C   UNL A   1      28.876  28.240  23.132  1.00  0.00    -0.018 A 
ATOM     15  C   UNL A   1      30.035  29.995  21.911  1.00  0.00     0.009 A 
ATOM     16  C   UNL A   1      27.673  28.942  22.949  1.00  0.00     0.009 A 
ATOM     17  C   UNL A   1      28.832  30.682  21.740  1.00  0.00     0.001 A 
ATOM     18  C   UNL A   1      27.653  30.154  22.255  1.00  0.00     0.001 A 
ENDBRANCH   8   9
ENDBRANCH   7   8
ENDBRANCH   5   7
ENDBRANCH   2   3
ENDBRANCH   1   2
BRANCH   1  19
ATOM     19  C   UNL A   1      31.423  32.086  26.727  1.00  0.00     0.023 C 
BRANCH  19  20
ATOM     20  C   UNL A   1      32.657  32.817  27.249  1.00  0.00     0.116 C 
BRANCH  20  21
ATOM     21  N   UNL A   1      32.388  34.195  27.626  1.00  0.00    -0.352 N 
ATOM     22  C   UNL A   1      32.986  34.973  28.589  1.00  0.00     0.251 C 
ATOM     23  H   UNL A   1      31.670  34.637  27.117  1.00  0.00     0.163 HD
ATOM     24  O   UNL A   1      32.527  36.083  28.851  1.00  0.00    -0.269 OA
BRANCH  22  25
ATOM     25  C   UNL A   1      34.160  34.472  29.338  1.00  0.00     0.039 A 
ATOM     26  C   UNL A   1      33.962  33.907  30.601  1.00  0.00     0.014 A 
ATOM     27  C   UNL A   1      35.450  34.557  28.809  1.00  0.00     0.014 A 
ATOM     28  C   UNL A   1      35.043  33.359  31.297  1.00  0.00     0.010 A 
ATOM     29  C   UNL A   1      36.514  33.941  29.467  1.00  0.00     0.010 A 
ATOM     30  C   UNL A   1      36.322  33.333  30.717  1.00  0.00    -0.014 A 
BRANCH  30  31
ATOM     31  C   UNL A   1      37.462  32.660  31.396  1.00  0.00     0.031 A 
ATOM     32  C   UNL A   1      38.157  31.496  30.746  1.00  0.00     0.074 A 
ATOM     33  C   UNL A   1      37.831  33.055  32.631  1.00  0.00     0.049 A 
ATOM     34  N   UNL A   1      39.122  30.743  31.213  1.00  0.00    -0.248 NA
ATOM     35  C   UNL A   1      37.692  31.113  29.404  1.00  0.00     0.031 C 
ATOM     36  C   UNL A   1      37.210  34.141  33.394  1.00  0.00     0.029 A 
ATOM     37  N   UNL A   1      38.811  32.582  33.468  1.00  0.00    -0.354 N 
ATOM     38  C   UNL A   1      39.370  29.794  30.229  1.00  0.00     0.074 A 
ATOM     39  C   UNL A   1      38.417  30.030  29.166  1.00  0.00     0.031 C 
ATOM     40  C   UNL A   1      37.836  34.263  34.574  1.00  0.00     0.029 A 
ATOM     41  C   UNL A   1      38.872  33.240  34.674  1.00  0.00     0.049 A 
ATOM     42  H   UNL A   1      39.412  31.840  33.228  1.00  0.00     0.167 HD
ATOM     43  C   UNL A   1      40.320  28.828  30.201  1.00  0.00     0.037 A 
ATOM     44  C   UNL A   1      39.664  33.037  35.743  1.00  0.00     0.037 A 
ATOM     45  C   UNL A   1      41.276  28.600  31.255  1.00  0.00     0.049 A 
ATOM     46  C   UNL A   1      40.697  31.944  35.699  1.00  0.00     0.074 A 
ATOM     47  C   UNL A   1      42.308  27.679  31.298  1.00  0.00     0.029 A 
ATOM     48  N   UNL A   1      41.312  29.295  32.455  1.00  0.00    -0.354 N 
ATOM     49  N   UNL A   1      40.964  31.098  34.734  1.00  0.00    -0.248 NA
ATOM     50  C   UNL A   1      41.542  31.782  36.891  1.00  0.00     0.031 C 
ATOM     51  C   UNL A   1      42.935  27.781  32.544  1.00  0.00     0.029 A 
ATOM     52  C   UNL A   1      42.332  28.805  33.255  1.00  0.00     0.049 A 
ATOM     53  H   UNL A   1      40.702  30.028  32.701  1.00  0.00     0.167 HD
ATOM     54  C   UNL A   1      42.024  30.324  35.189  1.00  0.00     0.074 A 
ATOM     55  C   UNL A   1      42.361  30.812  36.510  1.00  0.00     0.031 C 
ATOM     56  C   UNL A   1      42.662  29.301  34.567  1.00  0.00     0.037 A 
BRANCH  43  57
ATOM     57  C   UNL A   1      40.373  27.942  28.988  1.00  0.00     0.057 A 
ATOM     58  C   UNL A   1      39.645  26.745  28.916  1.00  0.00     0.134 A 
ATOM     59  C   UNL A   1      41.133  28.303  27.868  1.00  0.00     0.134 A 
ATOM     60  F   UNL A   1      38.905  26.335  29.956  1.00  0.00    -0.206 F 
ATOM     61  C   UNL A   1      39.698  25.925  27.787  1.00  0.00     0.040 A 
ATOM     62  C   UNL A   1      41.169  27.506  26.723  1.00  0.00     0.040 A 
ATOM     63  F   UNL A   1      41.846  29.439  27.866  1.00  0.00    -0.206 F 
ATOM     64  C   UNL A   1      40.456  26.309  26.683  1.00  0.00     0.006 A 
ENDBRANCH  43  57
BRANCH  44  65
ATOM     65  C   UNL A   1      39.522  33.897  36.947  1.00  0.00     0.057 A 
ATOM     66  C   UNL A   1      40.174  35.133  37.034  1.00  0.00     0.134 A 
ATOM     67  C   UNL A   1      38.739  33.503  38.039  1.00  0.00     0.134 A 
ATOM     68  F   UNL A   1      40.955  35.556  36.029  1.00  0.00    -0.206 F 
ATOM     69  C   UNL A   1      40.072  35.935  38.172  1.00  0.00     0.040 A 
ATOM     70  C   UNL A   1      38.605  34.309  39.171  1.00  0.00     0.040 A 
ATOM     71  F   UNL A   1      38.082  32.334  38.014  1.00  0.00    -0.206 F 
ATOM     72  C   UNL A   1      39.280  35.526  39.242  1.00  0.00     0.006 A 
ENDBRANCH  44  65
BRANCH  56  73
ATOM     73  C   UNL A   1      43.815  28.666  35.291  1.00  0.00     0.057 A 
ATOM     74  C   UNL A   1      43.637  27.597  36.178  1.00  0.00     0.134 A 
ATOM     75  C   UNL A   1      45.126  29.106  35.065  1.00  0.00     0.134 A 
ATOM     76  F   UNL A   1      42.406  27.135  36.450  1.00  0.00    -0.206 F 
ATOM     77  C   UNL A   1      44.718  27.005  36.834  1.00  0.00     0.040 A 
ATOM     78  C   UNL A   1      46.217  28.503  35.692  1.00  0.00     0.040 A 
ATOM     79  F   UNL A   1      45.369  30.119  34.220  1.00  0.00    -0.206 F 
ATOM     80  C   UNL A   1      46.014  27.454  36.586  1.00  0.00     0.006 A 
ENDBRANCH  56  73
ENDBRANCH  30  31
ENDBRANCH  22  25
ENDBRANCH  20  21
ENDBRANCH  19  20
ENDBRANCH   1  19
TORSDOF 13
ENDMDL
