MODEL 1
REMARK VINA RESULT:     -12.4      0.000      0.000
REMARK SMILES Cc1cc(C)n(CC(=O)N[C@H]2C=C[C@@H](C(=O)NCCCCNC(=O)c3ccc(-c4c5nc(c(-c6c(F)cccc6F)c6ccc([nH]6)c(-c6c(F)cccc6F)c6nc(c(-c7c(F)cccc7F)c7ccc4[nH]7)C=C6)C=C5)cc3)C2)n1
REMARK SMILES IDX 19 1 18 2 17 3 15 4 16 5 14 7 11 8 12 9 79 10 13 11 10 12
REMARK SMILES IDX 8 13 9 14 7 16 6 17 1 18 2 19 3 20 80 21 4 22 5 23 20 24
REMARK SMILES IDX 21 25 22 26 23 27 24 29 25 30 26 31 78 32 27 33 77 34 28 35
REMARK SMILES IDX 29 36 30 37 71 38 31 39 76 40 70 41 72 42 32 43 75 44 69 45
REMARK SMILES IDX 68 46 33 48 59 49 42 50 58 51 43 52 46 53 57 54 73 55 44 56
REMARK SMILES IDX 45 57 56 59 74 60 47 61 34 62 35 63 40 64 36 65 37 66 39 67
REMARK SMILES IDX 41 68 38 69 60 70 61 71 66 72 62 73 63 74 65 75 67 76 64 77
REMARK SMILES IDX 48 78 49 79 54 80 50 81 51 82 53 83 55 84 52 85
REMARK H PARENT 17 6 10 15 22 28 72 47 46 58
REMARK Flexibility Score: inf
ROOT
ATOM      1  C   UNL A   1      41.549  20.458  26.311  1.00  0.00     0.023 C 
ENDROOT
BRANCH   1   2
ATOM      2  C   UNL A   1      40.035  20.746  26.285  1.00  0.00     0.116 C 
BRANCH   2   3
ATOM      3  N   UNL A   1      39.641  22.118  26.021  1.00  0.00    -0.356 N 
ATOM      4  C   UNL A   1      38.398  22.607  25.731  1.00  0.00     0.227 C 
ATOM      5  O   UNL A   1      38.117  23.693  26.263  1.00  0.00    -0.274 OA
ATOM      6  H   UNL A   1      40.364  22.785  26.057  1.00  0.00     0.163 HD
BRANCH   4   7
ATOM      7  C   UNL A   1      37.368  21.969  24.771  1.00  0.00     0.103 C 
ATOM      8  C   UNL A   1      34.897  21.877  24.640  1.00  0.00     0.106 C 
ATOM      9  C   UNL A   1      35.475  22.796  23.641  1.00  0.00    -0.006 C 
ATOM     10  C   UNL A   1      36.138  21.217  25.287  1.00  0.00     0.047 C 
ATOM     11  C   UNL A   1      36.807  22.871  23.722  1.00  0.00    -0.016 C 
BRANCH   8  12
ATOM     12  N   UNL A   1      34.044  22.499  25.638  1.00  0.00    -0.348 N 
ATOM     13  C   UNL A   1      32.800  22.255  26.118  1.00  0.00     0.242 C 
ATOM     14  O   UNL A   1      32.591  22.661  27.270  1.00  0.00    -0.273 OA
ATOM     15  H   UNL A   1      34.468  23.279  26.064  1.00  0.00     0.164 HD
BRANCH  13  16
ATOM     16  C   UNL A   1      31.684  21.576  25.347  1.00  0.00     0.244 C 
BRANCH  16  17
ATOM     17  N   UNL A   1      32.085  20.335  24.702  1.00  0.00    -0.260 N 
ATOM     18  C   UNL A   1      33.507  17.094  25.011  1.00  0.00     0.069 C 
ATOM     19  C   UNL A   1      32.823  18.342  24.592  1.00  0.00     0.060 A 
ATOM     20  C   UNL A   1      32.666  18.794  23.275  1.00  0.00     0.048 A 
ATOM     21  N   UNL A   1      32.328  19.233  25.455  1.00  0.00    -0.178 NA
ATOM     22  C   UNL A   1      32.224  20.100  23.357  1.00  0.00     0.036 A 
ATOM     23  C   UNL A   1      32.028  21.137  22.307  1.00  0.00     0.066 C 
ENDBRANCH  16  17
ENDBRANCH  13  16
ENDBRANCH   8  12
ENDBRANCH   4   7
ENDBRANCH   2   3
ENDBRANCH   1   2
BRANCH   1  24
ATOM     24  C   UNL A   1      42.048  19.108  25.731  1.00  0.00     0.023 C 
BRANCH  24  25
ATOM     25  C   UNL A   1      43.469  18.635  26.084  1.00  0.00     0.116 C 
BRANCH  25  26
ATOM     26  N   UNL A   1      44.453  18.572  24.987  1.00  0.00    -0.352 N 
ATOM     27  C   UNL A   1      44.970  19.608  24.191  1.00  0.00     0.251 C 
ATOM     28  H   UNL A   1      44.799  17.673  24.783  1.00  0.00     0.163 HD
ATOM     29  O   UNL A   1      45.571  19.359  23.157  1.00  0.00    -0.269 OA
BRANCH  27  30
ATOM     30  C   UNL A   1      44.824  21.022  24.629  1.00  0.00     0.039 A 
ATOM     31  C   UNL A   1      44.007  21.983  24.034  1.00  0.00     0.014 A 
ATOM     32  C   UNL A   1      45.593  21.399  25.707  1.00  0.00     0.014 A 
ATOM     33  C   UNL A   1      43.908  23.252  24.631  1.00  0.00     0.010 A 
ATOM     34  C   UNL A   1      45.380  22.553  26.400  1.00  0.00     0.010 A 
ATOM     35  C   UNL A   1      44.584  23.515  25.836  1.00  0.00    -0.014 A 
BRANCH  35  36
ATOM     36  C   UNL A   1      44.356  24.690  26.661  1.00  0.00     0.031 A 
ATOM     37  C   UNL A   1      45.375  25.746  26.444  1.00  0.00     0.074 A 
ATOM     38  C   UNL A   1      43.204  24.966  27.314  1.00  0.00     0.049 A 
ATOM     39  N   UNL A   1      46.349  26.040  27.234  1.00  0.00    -0.248 NA
ATOM     40  C   UNL A   1      45.445  26.415  25.133  1.00  0.00     0.031 C 
ATOM     41  C   UNL A   1      41.928  24.241  27.317  1.00  0.00     0.029 A 
ATOM     42  N   UNL A   1      42.922  26.054  28.080  1.00  0.00    -0.354 N 
ATOM     43  C   UNL A   1      47.030  27.087  26.627  1.00  0.00     0.074 A 
ATOM     44  C   UNL A   1      46.567  27.127  25.265  1.00  0.00     0.031 C 
ATOM     45  C   UNL A   1      40.965  25.013  27.875  1.00  0.00     0.029 A 
ATOM     46  C   UNL A   1      41.581  26.213  28.411  1.00  0.00     0.049 A 
ATOM     47  H   UNL A   1      43.618  26.685  28.377  1.00  0.00     0.167 HD
ATOM     48  C   UNL A   1      47.736  27.975  27.379  1.00  0.00     0.037 A 
ATOM     49  C   UNL A   1      41.041  27.279  29.057  1.00  0.00     0.037 A 
ATOM     50  C   UNL A   1      47.871  27.501  28.737  1.00  0.00     0.049 A 
ATOM     51  C   UNL A   1      42.157  27.976  29.753  1.00  0.00     0.074 A 
ATOM     52  C   UNL A   1      48.412  26.369  29.320  1.00  0.00     0.029 A 
ATOM     53  N   UNL A   1      47.019  28.032  29.677  1.00  0.00    -0.354 N 
ATOM     54  N   UNL A   1      42.814  27.465  30.757  1.00  0.00    -0.248 NA
ATOM     55  C   UNL A   1      42.855  29.021  29.017  1.00  0.00     0.031 C 
ATOM     56  C   UNL A   1      47.489  26.011  30.348  1.00  0.00     0.029 A 
ATOM     57  C   UNL A   1      46.491  26.986  30.391  1.00  0.00     0.049 A 
ATOM     58  H   UNL A   1      46.824  28.987  29.813  1.00  0.00     0.167 HD
ATOM     59  C   UNL A   1      44.142  27.789  30.511  1.00  0.00     0.074 A 
ATOM     60  C   UNL A   1      44.097  28.810  29.464  1.00  0.00     0.031 C 
ATOM     61  C   UNL A   1      45.159  26.989  30.950  1.00  0.00     0.037 A 
BRANCH  48  62
ATOM     62  C   UNL A   1      47.969  29.421  27.026  1.00  0.00     0.057 A 
ATOM     63  C   UNL A   1      49.270  29.942  27.151  1.00  0.00     0.134 A 
ATOM     64  C   UNL A   1      46.952  30.381  26.861  1.00  0.00     0.134 A 
ATOM     65  F   UNL A   1      50.327  29.129  27.310  1.00  0.00    -0.206 F 
ATOM     66  C   UNL A   1      49.526  31.316  27.209  1.00  0.00     0.040 A 
ATOM     67  C   UNL A   1      47.204  31.755  26.865  1.00  0.00     0.040 A 
ATOM     68  F   UNL A   1      45.657  30.057  26.792  1.00  0.00    -0.206 F 
ATOM     69  C   UNL A   1      48.489  32.229  27.077  1.00  0.00     0.006 A 
ENDBRANCH  48  62
BRANCH  49  70
ATOM     70  C   UNL A   1      39.718  27.922  28.860  1.00  0.00     0.057 A 
ATOM     71  C   UNL A   1      38.774  27.969  29.898  1.00  0.00     0.134 A 
ATOM     72  C   UNL A   1      39.465  28.762  27.763  1.00  0.00     0.134 A 
ATOM     73  F   UNL A   1      38.940  27.231  31.005  1.00  0.00    -0.206 F 
ATOM     74  C   UNL A   1      37.669  28.833  29.867  1.00  0.00     0.040 A 
ATOM     75  C   UNL A   1      38.363  29.626  27.716  1.00  0.00     0.040 A 
ATOM     76  F   UNL A   1      40.329  28.848  26.740  1.00  0.00    -0.206 F 
ATOM     77  C   UNL A   1      37.470  29.677  28.779  1.00  0.00     0.006 A 
ENDBRANCH  49  70
BRANCH  61  78
ATOM     78  C   UNL A   1      44.829  25.881  31.914  1.00  0.00     0.057 A 
ATOM     79  C   UNL A   1      44.517  24.565  31.536  1.00  0.00     0.134 A 
ATOM     80  C   UNL A   1      44.990  26.119  33.282  1.00  0.00     0.134 A 
ATOM     81  F   UNL A   1      44.440  24.210  30.248  1.00  0.00    -0.206 F 
ATOM     82  C   UNL A   1      44.336  23.548  32.478  1.00  0.00     0.040 A 
ATOM     83  C   UNL A   1      44.846  25.106  34.232  1.00  0.00     0.040 A 
ATOM     84  F   UNL A   1      45.342  27.339  33.718  1.00  0.00    -0.206 F 
ATOM     85  C   UNL A   1      44.507  23.816  33.832  1.00  0.00     0.006 A 
ENDBRANCH  61  78
ENDBRANCH  35  36
ENDBRANCH  27  30
ENDBRANCH  25  26
ENDBRANCH  24  25
ENDBRANCH   1  24
TORSDOF 14
ENDMDL
MODEL 2
REMARK VINA RESULT:     -12.2      1.053      1.730
REMARK SMILES Cc1cc(C)n(CC(=O)N[C@H]2C=C[C@@H](C(=O)NCCCCNC(=O)c3ccc(-c4c5nc(c(-c6c(F)cccc6F)c6ccc([nH]6)c(-c6c(F)cccc6F)c6nc(c(-c7c(F)cccc7F)c7ccc4[nH]7)C=C6)C=C5)cc3)C2)n1
REMARK SMILES IDX 19 1 18 2 17 3 15 4 16 5 14 7 11 8 12 9 79 10 13 11 10 12
REMARK SMILES IDX 8 13 9 14 7 16 6 17 1 18 2 19 3 20 80 21 4 22 5 23 20 24
REMARK SMILES IDX 21 25 22 26 23 27 24 29 25 30 26 31 78 32 27 33 77 34 28 35
REMARK SMILES IDX 29 36 30 37 71 38 31 39 76 40 70 41 72 42 32 43 75 44 69 45
REMARK SMILES IDX 68 46 33 48 59 49 42 50 58 51 43 52 46 53 57 54 73 55 44 56
REMARK SMILES IDX 45 57 56 59 74 60 47 61 34 62 35 63 40 64 36 65 37 66 39 67
REMARK SMILES IDX 41 68 38 69 60 70 61 71 66 72 62 73 63 74 65 75 67 76 64 77
REMARK SMILES IDX 48 78 49 79 54 80 50 81 51 82 53 83 55 84 52 85
REMARK H PARENT 17 6 10 15 22 28 72 47 46 58
REMARK Flexibility Score: inf
ROOT
ATOM      1  C   UNL A   1      41.507  20.247  26.380  1.00  0.00     0.023 C 
ENDROOT
BRANCH   1   2
ATOM      2  C   UNL A   1      40.014  20.537  26.132  1.00  0.00     0.116 C 
BRANCH   2   3
ATOM      3  N   UNL A   1      39.650  21.925  25.917  1.00  0.00    -0.356 N 
ATOM      4  C   UNL A   1      38.404  22.467  25.763  1.00  0.00     0.227 C 
ATOM      5  O   UNL A   1      38.227  23.559  26.326  1.00  0.00    -0.274 OA
ATOM      6  H   UNL A   1      40.399  22.562  25.876  1.00  0.00     0.163 HD
BRANCH   4   7
ATOM      7  C   UNL A   1      37.251  21.878  24.918  1.00  0.00     0.103 C 
ATOM      8  C   UNL A   1      34.782  21.833  25.087  1.00  0.00     0.106 C 
ATOM      9  C   UNL A   1      35.253  22.774  24.053  1.00  0.00    -0.006 C 
ATOM     10  C   UNL A   1      36.077  21.131  25.558  1.00  0.00     0.047 C 
ATOM     11  C   UNL A   1      36.586  22.823  23.973  1.00  0.00    -0.016 C 
BRANCH   8  12
ATOM     12  N   UNL A   1      34.070  22.437  26.200  1.00  0.00    -0.348 N 
ATOM     13  C   UNL A   1      32.791  22.400  26.650  1.00  0.00     0.242 C 
ATOM     14  O   UNL A   1      32.653  22.620  27.862  1.00  0.00    -0.273 OA
ATOM     15  H   UNL A   1      34.650  23.005  26.757  1.00  0.00     0.164 HD
BRANCH  13  16
ATOM     16  C   UNL A   1      31.569  22.153  25.787  1.00  0.00     0.244 C 
BRANCH  16  17
ATOM     17  N   UNL A   1      31.278  23.231  24.855  1.00  0.00    -0.260 N 
ATOM     18  C   UNL A   1      29.671  26.340  24.239  1.00  0.00     0.069 C 
ATOM     19  C   UNL A   1      30.495  25.105  24.220  1.00  0.00     0.060 A 
ATOM     20  C   UNL A   1      30.987  24.460  23.079  1.00  0.00     0.048 A 
ATOM     21  N   UNL A   1      30.808  24.416  25.321  1.00  0.00    -0.178 NA
ATOM     22  C   UNL A   1      31.457  23.229  23.494  1.00  0.00     0.036 A 
ATOM     23  C   UNL A   1      31.950  22.056  22.722  1.00  0.00     0.066 C 
ENDBRANCH  16  17
ENDBRANCH  13  16
ENDBRANCH   8  12
ENDBRANCH   4   7
ENDBRANCH   2   3
ENDBRANCH   1   2
BRANCH   1  24
ATOM     24  C   UNL A   1      42.096  18.919  25.836  1.00  0.00     0.023 C 
BRANCH  24  25
ATOM     25  C   UNL A   1      43.562  18.578  26.154  1.00  0.00     0.116 C 
BRANCH  25  26
ATOM     26  N   UNL A   1      44.508  18.535  25.023  1.00  0.00    -0.352 N 
ATOM     27  C   UNL A   1      44.968  19.580  24.204  1.00  0.00     0.251 C 
ATOM     28  H   UNL A   1      44.870  17.644  24.811  1.00  0.00     0.163 HD
ATOM     29  O   UNL A   1      45.538  19.342  23.151  1.00  0.00    -0.269 OA
BRANCH  27  30
ATOM     30  C   UNL A   1      44.799  20.992  24.640  1.00  0.00     0.039 A 
ATOM     31  C   UNL A   1      43.918  21.920  24.086  1.00  0.00     0.014 A 
ATOM     32  C   UNL A   1      45.615  21.404  25.670  1.00  0.00     0.014 A 
ATOM     33  C   UNL A   1      43.810  23.190  24.679  1.00  0.00     0.010 A 
ATOM     34  C   UNL A   1      45.403  22.556  26.365  1.00  0.00     0.010 A 
ATOM     35  C   UNL A   1      44.543  23.487  25.841  1.00  0.00    -0.014 A 
BRANCH  35  36
ATOM     36  C   UNL A   1      44.323  24.661  26.670  1.00  0.00     0.031 A 
ATOM     37  C   UNL A   1      45.344  25.713  26.450  1.00  0.00     0.074 A 
ATOM     38  C   UNL A   1      43.175  24.938  27.329  1.00  0.00     0.049 A 
ATOM     39  N   UNL A   1      46.322  26.004  27.235  1.00  0.00    -0.248 NA
ATOM     40  C   UNL A   1      45.409  26.385  25.140  1.00  0.00     0.031 C 
ATOM     41  C   UNL A   1      41.897  24.216  27.337  1.00  0.00     0.029 A 
ATOM     42  N   UNL A   1      42.900  26.026  28.098  1.00  0.00    -0.354 N 
ATOM     43  C   UNL A   1      47.003  27.050  26.628  1.00  0.00     0.074 A 
ATOM     44  C   UNL A   1      46.533  27.094  25.267  1.00  0.00     0.031 C 
ATOM     45  C   UNL A   1      40.938  24.990  27.901  1.00  0.00     0.029 A 
ATOM     46  C   UNL A   1      41.560  26.187  28.437  1.00  0.00     0.049 A 
ATOM     47  H   UNL A   1      43.599  26.654  28.394  1.00  0.00     0.167 HD
ATOM     48  C   UNL A   1      47.716  27.935  27.377  1.00  0.00     0.037 A 
ATOM     49  C   UNL A   1      41.026  27.254  29.087  1.00  0.00     0.037 A 
ATOM     50  C   UNL A   1      47.855  27.457  28.734  1.00  0.00     0.049 A 
ATOM     51  C   UNL A   1      42.148  27.947  29.779  1.00  0.00     0.074 A 
ATOM     52  C   UNL A   1      48.396  26.323  29.312  1.00  0.00     0.029 A 
ATOM     53  N   UNL A   1      47.010  27.989  29.679  1.00  0.00    -0.354 N 
ATOM     54  N   UNL A   1      42.809  27.431  30.779  1.00  0.00    -0.248 NA
ATOM     55  C   UNL A   1      42.845  28.991  29.042  1.00  0.00     0.031 C 
ATOM     56  C   UNL A   1      47.478  25.966  30.343  1.00  0.00     0.029 A 
ATOM     57  C   UNL A   1      46.482  26.943  30.394  1.00  0.00     0.049 A 
ATOM     58  H   UNL A   1      46.818  28.944  29.818  1.00  0.00     0.167 HD
ATOM     59  C   UNL A   1      44.136  27.752  30.527  1.00  0.00     0.074 A 
ATOM     60  C   UNL A   1      44.089  28.775  29.482  1.00  0.00     0.031 C 
ATOM     61  C   UNL A   1      45.154  26.948  30.959  1.00  0.00     0.037 A 
BRANCH  48  62
ATOM     62  C   UNL A   1      47.951  29.381  27.026  1.00  0.00     0.057 A 
ATOM     63  C   UNL A   1      49.256  29.895  27.135  1.00  0.00     0.134 A 
ATOM     64  C   UNL A   1      46.936  30.346  26.878  1.00  0.00     0.134 A 
ATOM     65  F   UNL A   1      50.310  29.077  27.277  1.00  0.00    -0.206 F 
ATOM     66  C   UNL A   1      49.519  31.267  27.195  1.00  0.00     0.040 A 
ATOM     67  C   UNL A   1      47.195  31.719  26.883  1.00  0.00     0.040 A 
ATOM     68  F   UNL A   1      45.639  30.028  26.826  1.00  0.00    -0.206 F 
ATOM     69  C   UNL A   1      48.484  32.186  27.080  1.00  0.00     0.006 A 
ENDBRANCH  48  62
BRANCH  49  70
ATOM     70  C   UNL A   1      39.705  27.901  28.898  1.00  0.00     0.057 A 
ATOM     71  C   UNL A   1      38.773  27.966  29.947  1.00  0.00     0.134 A 
ATOM     72  C   UNL A   1      39.442  28.728  27.793  1.00  0.00     0.134 A 
ATOM     73  F   UNL A   1      38.950  27.240  31.061  1.00  0.00    -0.206 F 
ATOM     74  C   UNL A   1      37.672  28.834  29.918  1.00  0.00     0.040 A 
ATOM     75  C   UNL A   1      38.344  29.597  27.750  1.00  0.00     0.040 A 
ATOM     76  F   UNL A   1      40.294  28.797  26.760  1.00  0.00    -0.206 F 
ATOM     77  C   UNL A   1      37.464  29.666  28.822  1.00  0.00     0.006 A 
ENDBRANCH  49  70
BRANCH  61  78
ATOM     78  C   UNL A   1      44.825  25.839  31.922  1.00  0.00     0.057 A 
ATOM     79  C   UNL A   1      44.509  24.525  31.544  1.00  0.00     0.134 A 
ATOM     80  C   UNL A   1      44.992  26.075  33.290  1.00  0.00     0.134 A 
ATOM     81  F   UNL A   1      44.426  24.172  30.256  1.00  0.00    -0.206 F 
ATOM     82  C   UNL A   1      44.330  23.506  32.485  1.00  0.00     0.040 A 
ATOM     83  C   UNL A   1      44.850  25.060  34.239  1.00  0.00     0.040 A 
ATOM     84  F   UNL A   1      45.348  27.293  33.727  1.00  0.00    -0.206 F 
ATOM     85  C   UNL A   1      44.507  23.772  33.839  1.00  0.00     0.006 A 
ENDBRANCH  61  78
ENDBRANCH  35  36
ENDBRANCH  27  30
ENDBRANCH  25  26
ENDBRANCH  24  25
ENDBRANCH   1  24
TORSDOF 14
ENDMDL
MODEL 3
REMARK VINA RESULT:     -12.1      1.689      2.487
REMARK SMILES Cc1cc(C)n(CC(=O)N[C@H]2C=C[C@@H](C(=O)NCCCCNC(=O)c3ccc(-c4c5nc(c(-c6c(F)cccc6F)c6ccc([nH]6)c(-c6c(F)cccc6F)c6nc(c(-c7c(F)cccc7F)c7ccc4[nH]7)C=C6)C=C5)cc3)C2)n1
REMARK SMILES IDX 19 1 18 2 17 3 15 4 16 5 14 7 11 8 12 9 79 10 13 11 10 12
REMARK SMILES IDX 8 13 9 14 7 16 6 17 1 18 2 19 3 20 80 21 4 22 5 23 20 24
REMARK SMILES IDX 21 25 22 26 23 27 24 29 25 30 26 31 78 32 27 33 77 34 28 35
REMARK SMILES IDX 29 36 30 37 71 38 31 39 76 40 70 41 72 42 32 43 75 44 69 45
REMARK SMILES IDX 68 46 33 48 59 49 42 50 58 51 43 52 46 53 57 54 73 55 44 56
REMARK SMILES IDX 45 57 56 59 74 60 47 61 34 62 35 63 40 64 36 65 37 66 39 67
REMARK SMILES IDX 41 68 38 69 60 70 61 71 66 72 62 73 63 74 65 75 67 76 64 77
REMARK SMILES IDX 48 78 49 79 54 80 50 81 51 82 53 83 55 84 52 85
REMARK H PARENT 17 6 10 15 22 28 72 47 46 58
REMARK Flexibility Score: inf
ROOT
ATOM      1  C   UNL A   1      41.473  20.638  26.660  1.00  0.00     0.023 C 
ENDROOT
BRANCH   1   2
ATOM      2  C   UNL A   1      40.340  21.539  26.129  1.00  0.00     0.116 C 
BRANCH   2   3
ATOM      3  N   UNL A   1      39.021  20.940  26.042  1.00  0.00    -0.356 N 
ATOM      4  C   UNL A   1      37.998  21.246  25.188  1.00  0.00     0.227 C 
ATOM      5  O   UNL A   1      37.363  20.275  24.750  1.00  0.00    -0.274 OA
ATOM      6  H   UNL A   1      38.838  20.215  26.683  1.00  0.00     0.163 HD
BRANCH   4   7
ATOM      7  C   UNL A   1      37.543  22.668  24.784  1.00  0.00     0.103 C 
ATOM      8  C   UNL A   1      35.389  23.724  24.172  1.00  0.00     0.106 C 
ATOM      9  C   UNL A   1      35.824  24.092  25.533  1.00  0.00    -0.006 C 
ATOM     10  C   UNL A   1      36.581  22.908  23.617  1.00  0.00     0.047 C 
ATOM     11  C   UNL A   1      36.974  23.506  25.881  1.00  0.00    -0.016 C 
BRANCH   8  12
ATOM     12  N   UNL A   1      34.149  22.970  24.098  1.00  0.00    -0.348 N 
ATOM     13  C   UNL A   1      33.285  22.646  23.105  1.00  0.00     0.242 C 
ATOM     14  O   UNL A   1      32.627  21.613  23.296  1.00  0.00    -0.273 OA
ATOM     15  H   UNL A   1      33.872  22.611  24.972  1.00  0.00     0.164 HD
BRANCH  13  16
ATOM     16  C   UNL A   1      33.060  23.458  21.845  1.00  0.00     0.244 C 
BRANCH  16  17
ATOM     17  N   UNL A   1      32.757  24.860  22.093  1.00  0.00    -0.260 N 
ATOM     18  C   UNL A   1      33.906  28.218  22.244  1.00  0.00     0.069 C 
ATOM     19  C   UNL A   1      33.135  26.951  22.193  1.00  0.00     0.060 A 
ATOM     20  C   UNL A   1      31.860  26.739  22.734  1.00  0.00     0.048 A 
ATOM     21  N   UNL A   1      33.616  25.820  21.669  1.00  0.00    -0.178 NA
ATOM     22  C   UNL A   1      31.639  25.376  22.701  1.00  0.00     0.036 A 
ATOM     23  C   UNL A   1      30.543  24.546  23.270  1.00  0.00     0.066 C 
ENDBRANCH  16  17
ENDBRANCH  13  16
ENDBRANCH   8  12
ENDBRANCH   4   7
ENDBRANCH   2   3
ENDBRANCH   1   2
BRANCH   1  24
ATOM     24  C   UNL A   1      41.912  19.429  25.794  1.00  0.00     0.023 C 
BRANCH  24  25
ATOM     25  C   UNL A   1      43.226  18.710  26.147  1.00  0.00     0.116 C 
BRANCH  25  26
ATOM     26  N   UNL A   1      44.257  18.628  25.094  1.00  0.00    -0.352 N 
ATOM     27  C   UNL A   1      44.824  19.654  24.320  1.00  0.00     0.251 C 
ATOM     28  H   UNL A   1      44.598  17.724  24.908  1.00  0.00     0.163 HD
ATOM     29  O   UNL A   1      45.466  19.393  23.314  1.00  0.00    -0.269 OA
BRANCH  27  30
ATOM     30  C   UNL A   1      44.680  21.072  24.747  1.00  0.00     0.039 A 
ATOM     31  C   UNL A   1      43.852  22.025  24.155  1.00  0.00     0.014 A 
ATOM     32  C   UNL A   1      45.463  21.461  25.811  1.00  0.00     0.014 A 
ATOM     33  C   UNL A   1      43.758  23.299  24.742  1.00  0.00     0.010 A 
ATOM     34  C   UNL A   1      45.257  22.620  26.496  1.00  0.00     0.010 A 
ATOM     35  C   UNL A   1      44.450  23.575  25.935  1.00  0.00    -0.014 A 
BRANCH  35  36
ATOM     36  C   UNL A   1      44.231  24.757  26.753  1.00  0.00     0.031 A 
ATOM     37  C   UNL A   1      45.243  25.813  26.511  1.00  0.00     0.074 A 
ATOM     38  C   UNL A   1      43.088  25.035  27.420  1.00  0.00     0.049 A 
ATOM     39  N   UNL A   1      46.227  26.118  27.283  1.00  0.00    -0.248 NA
ATOM     40  C   UNL A   1      45.291  26.471  25.194  1.00  0.00     0.031 C 
ATOM     41  C   UNL A   1      41.814  24.305  27.449  1.00  0.00     0.029 A 
ATOM     42  N   UNL A   1      42.813  26.129  28.180  1.00  0.00    -0.354 N 
ATOM     43  C   UNL A   1      46.896  27.161  26.658  1.00  0.00     0.074 A 
ATOM     44  C   UNL A   1      46.412  27.188  25.302  1.00  0.00     0.031 C 
ATOM     45  C   UNL A   1      40.856  25.079  28.014  1.00  0.00     0.029 A 
ATOM     46  C   UNL A   1      41.476  26.286  28.530  1.00  0.00     0.049 A 
ATOM     47  H   UNL A   1      43.511  26.764  28.462  1.00  0.00     0.167 HD
ATOM     48  C   UNL A   1      47.610  28.059  27.391  1.00  0.00     0.037 A 
ATOM     49  C   UNL A   1      40.942  27.357  29.174  1.00  0.00     0.037 A 
ATOM     50  C   UNL A   1      47.766  27.597  28.751  1.00  0.00     0.049 A 
ATOM     51  C   UNL A   1      42.066  28.064  29.847  1.00  0.00     0.074 A 
ATOM     52  C   UNL A   1      48.320  26.473  29.336  1.00  0.00     0.029 A 
ATOM     53  N   UNL A   1      46.927  28.134  29.699  1.00  0.00    -0.354 N 
ATOM     54  N   UNL A   1      42.740  27.564  30.846  1.00  0.00    -0.248 NA
ATOM     55  C   UNL A   1      42.750  29.104  29.092  1.00  0.00     0.031 C 
ATOM     56  C   UNL A   1      47.413  26.121  30.380  1.00  0.00     0.029 A 
ATOM     57  C   UNL A   1      46.413  27.093  30.430  1.00  0.00     0.049 A 
ATOM     58  H   UNL A   1      46.730  29.090  29.829  1.00  0.00     0.167 HD
ATOM     59  C   UNL A   1      44.063  27.889  30.577  1.00  0.00     0.074 A 
ATOM     60  C   UNL A   1      43.999  28.900  29.522  1.00  0.00     0.031 C 
ATOM     61  C   UNL A   1      45.089  27.097  31.008  1.00  0.00     0.037 A 
BRANCH  48  62
ATOM     62  C   UNL A   1      47.833  29.503  27.021  1.00  0.00     0.057 A 
ATOM     63  C   UNL A   1      49.131  30.033  27.138  1.00  0.00     0.134 A 
ATOM     64  C   UNL A   1      46.809  30.454  26.849  1.00  0.00     0.134 A 
ATOM     65  F   UNL A   1      50.193  29.228  27.303  1.00  0.00    -0.206 F 
ATOM     66  C   UNL A   1      49.378  31.409  27.180  1.00  0.00     0.040 A 
ATOM     67  C   UNL A   1      47.052  31.830  26.837  1.00  0.00     0.040 A 
ATOM     68  F   UNL A   1      45.516  30.120  26.786  1.00  0.00    -0.206 F 
ATOM     69  C   UNL A   1      48.334  32.313  27.040  1.00  0.00     0.006 A 
ENDBRANCH  48  62
BRANCH  49  70
ATOM     70  C   UNL A   1      39.615  27.994  28.990  1.00  0.00     0.057 A 
ATOM     71  C   UNL A   1      38.692  28.062  30.047  1.00  0.00     0.134 A 
ATOM     72  C   UNL A   1      39.337  28.809  27.881  1.00  0.00     0.134 A 
ATOM     73  F   UNL A   1      38.883  27.348  31.167  1.00  0.00    -0.206 F 
ATOM     74  C   UNL A   1      37.586  28.923  30.020  1.00  0.00     0.040 A 
ATOM     75  C   UNL A   1      38.233  29.670  27.839  1.00  0.00     0.040 A 
ATOM     76  F   UNL A   1      40.180  28.874  26.839  1.00  0.00    -0.206 F 
ATOM     77  C   UNL A   1      37.363  29.744  28.919  1.00  0.00     0.006 A 
ENDBRANCH  49  70
BRANCH  61  78
ATOM     78  C   UNL A   1      44.777  25.996  31.987  1.00  0.00     0.057 A 
ATOM     79  C   UNL A   1      44.480  24.672  31.627  1.00  0.00     0.134 A 
ATOM     80  C   UNL A   1      44.940  26.254  33.351  1.00  0.00     0.134 A 
ATOM     81  F   UNL A   1      44.403  24.301  30.343  1.00  0.00    -0.206 F 
ATOM     82  C   UNL A   1      44.317  23.664  32.582  1.00  0.00     0.040 A 
ATOM     83  C   UNL A   1      44.813  25.250  34.314  1.00  0.00     0.040 A 
ATOM     84  F   UNL A   1      45.278  27.482  33.771  1.00  0.00    -0.206 F 
ATOM     85  C   UNL A   1      44.490  23.951  33.932  1.00  0.00     0.006 A 
ENDBRANCH  61  78
ENDBRANCH  35  36
ENDBRANCH  27  30
ENDBRANCH  25  26
ENDBRANCH  24  25
ENDBRANCH   1  24
TORSDOF 14
ENDMDL
