MODEL 1
REMARK VINA RESULT:     -11.9      0.000      0.000
REMARK SMILES O=C(NCCCCNC(=O)c1cn(-c2ccccc2)c2c1N=C(O)C[C@@H]2c1cccs1)c1ccc(-c2c3nc(c(-c4c(F)cccc4F)c4ccc([nH]4)c(-c4c(F)cccc4F)c4nc(c(-c5c(F)cccc5F)c5ccc2[nH]5)C=C4)C=C3)cc1
REMARK SMILES IDX 5 1 4 2 3 3 1 4 2 5 32 7 33 8 85 9 34 10 84 11 35 12 36 13
REMARK SMILES IDX 37 14 78 15 38 16 83 17 77 18 79 19 39 20 82 21 76 22 75 23
REMARK SMILES IDX 40 25 66 26 49 27 65 28 50 29 53 30 64 31 80 32 51 33 52 34
REMARK SMILES IDX 63 36 81 37 54 38 41 39 42 40 47 41 43 42 44 43 46 44 48 45
REMARK SMILES IDX 45 46 67 47 68 48 73 49 69 50 70 51 72 52 74 53 71 54 55 55
REMARK SMILES IDX 56 56 61 57 57 58 58 59 60 60 62 61 59 62 6 63 7 64 8 65
REMARK SMILES IDX 9 66 10 68 11 69 12 70 21 71 13 72 20 73 22 74 26 75 23 76
REMARK SMILES IDX 25 77 14 78 15 79 19 80 16 81 18 82 17 83 27 84 28 85 31 86
REMARK SMILES IDX 29 87 30 88 24 89
REMARK H PARENT 3 6 79 24 53 35 8 67 24 90
REMARK Flexibility Score: inf
ROOT
ATOM      1  C   UNL A   1      38.178  32.956  34.357  1.00  0.00     0.023 C 
ENDROOT
BRANCH   1   2
ATOM      2  C   UNL A   1      39.445  33.692  33.917  1.00  0.00     0.116 C 
BRANCH   2   3
ATOM      3  N   UNL A   1      39.428  34.148  32.540  1.00  0.00    -0.352 N 
ATOM      4  O   UNL A   1      39.345  34.224  30.333  1.00  0.00    -0.269 OA
ATOM      5  C   UNL A   1      39.620  33.546  31.327  1.00  0.00     0.251 C 
ATOM      6  H   UNL A   1      39.234  35.109  32.461  1.00  0.00     0.163 HD
BRANCH   5   7
ATOM      7  C   UNL A   1      40.182  32.180  31.121  1.00  0.00     0.039 A 
ATOM      8  C   UNL A   1      39.749  31.016  31.755  1.00  0.00     0.014 A 
ATOM      9  C   UNL A   1      41.281  32.091  30.245  1.00  0.00     0.014 A 
ATOM     10  C   UNL A   1      40.443  29.820  31.598  1.00  0.00     0.010 A 
ATOM     11  C   UNL A   1      41.966  30.893  30.062  1.00  0.00     0.010 A 
ATOM     12  C   UNL A   1      41.566  29.765  30.771  1.00  0.00    -0.014 A 
BRANCH  12  13
ATOM     13  C   UNL A   1      42.216  28.468  30.592  1.00  0.00     0.031 A 
ATOM     14  C   UNL A   1      42.839  27.886  31.819  1.00  0.00     0.074 A 
ATOM     15  C   UNL A   1      42.144  27.752  29.454  1.00  0.00     0.049 A 
ATOM     16  N   UNL A   1      44.060  27.499  32.002  1.00  0.00    -0.248 NA
ATOM     17  C   UNL A   1      41.993  27.782  33.019  1.00  0.00     0.031 C 
ATOM     18  C   UNL A   1      41.321  28.019  28.272  1.00  0.00     0.029 A 
ATOM     19  N   UNL A   1      42.728  26.555  29.161  1.00  0.00    -0.354 N 
ATOM     20  C   UNL A   1      44.104  26.947  33.284  1.00  0.00     0.074 A 
ATOM     21  C   UNL A   1      42.840  27.253  33.901  1.00  0.00     0.031 C 
ATOM     22  C   UNL A   1      41.292  26.915  27.493  1.00  0.00     0.029 A 
ATOM     23  C   UNL A   1      42.190  25.918  28.053  1.00  0.00     0.049 A 
ATOM     24  H   UNL A   1      43.466  26.176  29.691  1.00  0.00     0.167 HD
ATOM     25  C   UNL A   1      45.104  26.111  33.679  1.00  0.00     0.037 A 
ATOM     26  C   UNL A   1      42.413  24.638  27.663  1.00  0.00     0.037 A 
ATOM     27  C   UNL A   1      46.282  26.276  32.869  1.00  0.00     0.049 A 
ATOM     28  C   UNL A   1      43.650  24.163  28.326  1.00  0.00     0.074 A 
ATOM     29  C   UNL A   1      47.136  27.325  32.586  1.00  0.00     0.029 A 
ATOM     30  N   UNL A   1      46.585  25.304  31.950  1.00  0.00    -0.354 N 
ATOM     31  N   UNL A   1      44.849  24.580  28.036  1.00  0.00    -0.248 NA
ATOM     32  C   UNL A   1      43.516  23.488  29.607  1.00  0.00     0.031 C 
ATOM     33  C   UNL A   1      47.529  27.125  31.229  1.00  0.00     0.029 A 
ATOM     34  C   UNL A   1      46.915  25.952  30.790  1.00  0.00     0.049 A 
ATOM     35  H   UNL A   1      46.569  24.331  32.096  1.00  0.00     0.167 HD
ATOM     36  C   UNL A   1      45.516  24.606  29.250  1.00  0.00     0.074 A 
ATOM     37  C   UNL A   1      44.684  23.824  30.159  1.00  0.00     0.031 C 
ATOM     38  C   UNL A   1      46.534  25.487  29.479  1.00  0.00     0.037 A 
BRANCH  25  39
ATOM     39  C   UNL A   1      44.899  24.894  34.559  1.00  0.00     0.057 A 
ATOM     40  C   UNL A   1      45.697  24.736  35.709  1.00  0.00     0.134 A 
ATOM     41  C   UNL A   1      44.195  23.739  34.163  1.00  0.00     0.134 A 
ATOM     42  F   UNL A   1      46.415  25.758  36.199  1.00  0.00    -0.206 F 
ATOM     43  C   UNL A   1      45.868  23.499  36.344  1.00  0.00     0.040 A 
ATOM     44  C   UNL A   1      44.319  22.511  34.821  1.00  0.00     0.040 A 
ATOM     45  F   UNL A   1      43.427  23.703  33.068  1.00  0.00    -0.206 F 
ATOM     46  C   UNL A   1      45.189  22.377  35.891  1.00  0.00     0.006 A 
ENDBRANCH  25  39
BRANCH  26  47
ATOM     47  C   UNL A   1      41.484  23.710  26.981  1.00  0.00     0.057 A 
ATOM     48  C   UNL A   1      41.957  22.659  26.183  1.00  0.00     0.134 A 
ATOM     49  C   UNL A   1      40.118  23.668  27.312  1.00  0.00     0.134 A 
ATOM     50  F   UNL A   1      43.255  22.585  25.854  1.00  0.00    -0.206 F 
ATOM     51  C   UNL A   1      41.124  21.619  25.752  1.00  0.00     0.040 A 
ATOM     52  C   UNL A   1      39.274  22.641  26.879  1.00  0.00     0.040 A 
ATOM     53  F   UNL A   1      39.576  24.574  28.138  1.00  0.00    -0.206 F 
ATOM     54  C   UNL A   1      39.778  21.604  26.107  1.00  0.00     0.006 A 
ENDBRANCH  26  47
BRANCH  38  55
ATOM     55  C   UNL A   1      47.097  26.235  28.307  1.00  0.00     0.057 A 
ATOM     56  C   UNL A   1      46.558  27.434  27.817  1.00  0.00     0.134 A 
ATOM     57  C   UNL A   1      48.312  25.813  27.757  1.00  0.00     0.134 A 
ATOM     58  F   UNL A   1      45.455  27.970  28.354  1.00  0.00    -0.206 F 
ATOM     59  C   UNL A   1      47.178  28.154  26.792  1.00  0.00     0.040 A 
ATOM     60  C   UNL A   1      48.959  26.541  26.757  1.00  0.00     0.040 A 
ATOM     61  F   UNL A   1      48.916  24.707  28.219  1.00  0.00    -0.206 F 
ATOM     62  C   UNL A   1      48.387  27.711  26.263  1.00  0.00     0.006 A 
ENDBRANCH  38  55
ENDBRANCH  12  13
ENDBRANCH   5   7
ENDBRANCH   2   3
ENDBRANCH   1   2
BRANCH   1  63
ATOM     63  C   UNL A   1      37.110  33.832  35.009  1.00  0.00     0.023 C 
BRANCH  63  64
ATOM     64  C   UNL A   1      36.139  34.498  34.044  1.00  0.00     0.116 C 
BRANCH  64  65
ATOM     65  N   UNL A   1      34.781  34.002  34.183  1.00  0.00    -0.352 N 
ATOM     66  C   UNL A   1      34.020  33.327  33.251  1.00  0.00     0.255 C 
ATOM     67  H   UNL A   1      34.348  34.168  35.052  1.00  0.00     0.163 HD
ATOM     68  O   UNL A   1      32.851  33.078  33.496  1.00  0.00    -0.269 OA
BRANCH  66  69
ATOM     69  C   UNL A   1      34.634  33.013  31.972  1.00  0.00     0.084 A 
ATOM     70  C   UNL A   1      35.523  31.973  31.765  1.00  0.00     0.107 A 
ATOM     71  C   UNL A   1      34.447  33.602  30.706  1.00  0.00     0.101 A 
ATOM     72  N   UNL A   1      35.829  31.888  30.419  1.00  0.00    -0.317 N 
ATOM     73  C   UNL A   1      35.089  32.852  29.753  1.00  0.00     0.058 A 
ATOM     74  N   UNL A   1      33.566  34.646  30.433  1.00  0.00    -0.215 NA
ATOM     75  C   UNL A   1      34.806  32.946  28.291  1.00  0.00     0.088 C 
ATOM     76  C   UNL A   1      33.398  34.899  29.180  1.00  0.00     0.187 C 
ATOM     77  C   UNL A   1      34.099  34.285  27.993  1.00  0.00     0.112 C 
BRANCH  72  78
ATOM     78  C   UNL A   1      36.679  30.904  29.858  1.00  0.00     0.045 A 
ATOM     79  C   UNL A   1      37.560  31.237  28.826  1.00  0.00     0.026 A 
ATOM     80  C   UNL A   1      36.650  29.599  30.369  1.00  0.00     0.026 A 
ATOM     81  C   UNL A   1      38.411  30.260  28.306  1.00  0.00     0.002 A 
ATOM     82  C   UNL A   1      37.479  28.621  29.821  1.00  0.00     0.002 A 
ATOM     83  C   UNL A   1      38.364  28.953  28.796  1.00  0.00     0.000 A 
ENDBRANCH  72  78
BRANCH  75  84
ATOM     84  C   UNL A   1      33.991  31.789  27.710  1.00  0.00     0.014 A 
ATOM     85  C   UNL A   1      34.452  30.505  27.461  1.00  0.00     0.016 A 
ATOM     86  S   UNL A   1      32.342  31.933  27.240  1.00  0.00    -0.148 S 
ATOM     87  C   UNL A   1      33.448  29.645  26.930  1.00  0.00     0.012 A 
ATOM     88  C   UNL A   1      32.241  30.288  26.798  1.00  0.00     0.065 A 
ENDBRANCH  75  84
BRANCH  76  89
ATOM     89  O   UNL A   1      32.528  35.878  28.855  1.00  0.00    -0.496 OA
ATOM     90  H   UNL A   1      32.664  36.388  28.082  1.00  0.00     0.294 HD
ENDBRANCH  76  89
ENDBRANCH  66  69
ENDBRANCH  64  65
ENDBRANCH  63  64
ENDBRANCH   1  63
TORSDOF 14
ENDMDL
MODEL 2
REMARK VINA RESULT:     -11.7      4.755     11.580
REMARK SMILES O=C(NCCCCNC(=O)c1cn(-c2ccccc2)c2c1N=C(O)C[C@@H]2c1cccs1)c1ccc(-c2c3nc(c(-c4c(F)cccc4F)c4ccc([nH]4)c(-c4c(F)cccc4F)c4nc(c(-c5c(F)cccc5F)c5ccc2[nH]5)C=C4)C=C3)cc1
REMARK SMILES IDX 5 1 4 2 3 3 1 4 2 5 32 7 33 8 85 9 34 10 84 11 35 12 36 13
REMARK SMILES IDX 37 14 78 15 38 16 83 17 77 18 79 19 39 20 82 21 76 22 75 23
REMARK SMILES IDX 40 25 66 26 49 27 65 28 50 29 53 30 64 31 80 32 51 33 52 34
REMARK SMILES IDX 63 36 81 37 54 38 41 39 42 40 47 41 43 42 44 43 46 44 48 45
REMARK SMILES IDX 45 46 67 47 68 48 73 49 69 50 70 51 72 52 74 53 71 54 55 55
REMARK SMILES IDX 56 56 61 57 57 58 58 59 60 60 62 61 59 62 6 63 7 64 8 65
REMARK SMILES IDX 9 66 10 68 11 69 12 70 21 71 13 72 20 73 22 74 26 75 23 76
REMARK SMILES IDX 25 77 14 78 15 79 19 80 16 81 18 82 17 83 27 84 28 85 31 86
REMARK SMILES IDX 29 87 30 88 24 89
REMARK H PARENT 3 6 79 24 53 35 8 67 24 90
REMARK Flexibility Score: inf
ROOT
ATOM      1  C   UNL A   1      46.718  25.875  25.741  1.00  0.00     0.023 C 
ENDROOT
BRANCH   1   2
ATOM      2  C   UNL A   1      47.082  25.867  27.227  1.00  0.00     0.116 C 
BRANCH   2   3
ATOM      3  N   UNL A   1      46.238  25.020  28.047  1.00  0.00    -0.352 N 
ATOM      4  O   UNL A   1      44.533  24.183  29.177  1.00  0.00    -0.269 OA
ATOM      5  C   UNL A   1      45.064  25.202  28.726  1.00  0.00     0.251 C 
ATOM      6  H   UNL A   1      46.590  24.105  28.136  1.00  0.00     0.163 HD
BRANCH   5   7
ATOM      7  C   UNL A   1      44.425  26.519  29.004  1.00  0.00     0.039 A 
ATOM      8  C   UNL A   1      44.177  27.054  30.268  1.00  0.00     0.014 A 
ATOM      9  C   UNL A   1      43.994  27.247  27.878  1.00  0.00     0.014 A 
ATOM     10  C   UNL A   1      43.442  28.228  30.412  1.00  0.00     0.010 A 
ATOM     11  C   UNL A   1      43.280  28.433  28.012  1.00  0.00     0.010 A 
ATOM     12  C   UNL A   1      42.971  28.903  29.285  1.00  0.00    -0.014 A 
BRANCH  12  13
ATOM     13  C   UNL A   1      42.262  30.163  29.494  1.00  0.00     0.031 A 
ATOM     14  C   UNL A   1      43.004  31.394  29.086  1.00  0.00     0.074 A 
ATOM     15  C   UNL A   1      40.974  30.235  29.882  1.00  0.00     0.049 A 
ATOM     16  N   UNL A   1      43.290  32.440  29.793  1.00  0.00    -0.248 NA
ATOM     17  C   UNL A   1      43.550  31.428  27.720  1.00  0.00     0.031 C 
ATOM     18  C   UNL A   1      40.011  29.140  30.019  1.00  0.00     0.029 A 
ATOM     19  N   UNL A   1      40.221  31.344  30.136  1.00  0.00    -0.354 N 
ATOM     20  C   UNL A   1      43.907  33.339  28.921  1.00  0.00     0.074 A 
ATOM     21  C   UNL A   1      44.143  32.621  27.696  1.00  0.00     0.031 C 
ATOM     22  C   UNL A   1      38.765  29.655  30.116  1.00  0.00     0.029 A 
ATOM     23  C   UNL A   1      38.856  31.105  30.177  1.00  0.00     0.049 A 
ATOM     24  H   UNL A   1      40.613  32.236  30.279  1.00  0.00     0.167 HD
ATOM     25  C   UNL A   1      44.007  34.668  29.203  1.00  0.00     0.037 A 
ATOM     26  C   UNL A   1      37.868  32.033  30.187  1.00  0.00     0.037 A 
ATOM     27  C   UNL A   1      43.888  34.920  30.615  1.00  0.00     0.049 A 
ATOM     28  C   UNL A   1      38.457  33.328  30.603  1.00  0.00     0.074 A 
ATOM     29  C   UNL A   1      44.586  34.526  31.741  1.00  0.00     0.029 A 
ATOM     30  N   UNL A   1      42.724  35.474  31.086  1.00  0.00    -0.354 N 
ATOM     31  N   UNL A   1      38.876  33.595  31.807  1.00  0.00    -0.248 NA
ATOM     32  C   UNL A   1      38.942  34.218  29.561  1.00  0.00     0.031 C 
ATOM     33  C   UNL A   1      43.598  34.402  32.763  1.00  0.00     0.029 A 
ATOM     34  C   UNL A   1      42.373  34.759  32.199  1.00  0.00     0.049 A 
ATOM     35  H   UNL A   1      42.238  36.236  30.698  1.00  0.00     0.167 HD
ATOM     36  C   UNL A   1      39.991  34.397  31.621  1.00  0.00     0.074 A 
ATOM     37  C   UNL A   1      39.919  34.834  30.231  1.00  0.00     0.031 C 
ATOM     38  C   UNL A   1      41.013  34.408  32.526  1.00  0.00     0.037 A 
BRANCH  25  39
ATOM     39  C   UNL A   1      43.849  35.771  28.176  1.00  0.00     0.057 A 
ATOM     40  C   UNL A   1      44.856  36.751  28.060  1.00  0.00     0.134 A 
ATOM     41  C   UNL A   1      42.635  36.091  27.536  1.00  0.00     0.134 A 
ATOM     42  F   UNL A   1      46.063  36.571  28.616  1.00  0.00    -0.206 F 
ATOM     43  C   UNL A   1      44.632  37.993  27.453  1.00  0.00     0.040 A 
ATOM     44  C   UNL A   1      42.418  37.309  26.883  1.00  0.00     0.040 A 
ATOM     45  F   UNL A   1      41.562  35.293  27.585  1.00  0.00    -0.206 F 
ATOM     46  C   UNL A   1      43.403  38.282  26.876  1.00  0.00     0.006 A 
ENDBRANCH  25  39
BRANCH  26  47
ATOM     47  C   UNL A   1      36.514  31.942  29.597  1.00  0.00     0.057 A 
ATOM     48  C   UNL A   1      35.422  32.612  30.168  1.00  0.00     0.134 A 
ATOM     49  C   UNL A   1      36.312  31.416  28.310  1.00  0.00     0.134 A 
ATOM     50  F   UNL A   1      35.532  33.189  31.373  1.00  0.00    -0.206 F 
ATOM     51  C   UNL A   1      34.206  32.763  29.491  1.00  0.00     0.040 A 
ATOM     52  C   UNL A   1      35.099  31.551  27.627  1.00  0.00     0.040 A 
ATOM     53  F   UNL A   1      37.311  30.831  27.634  1.00  0.00    -0.206 F 
ATOM     54  C   UNL A   1      34.044  32.238  28.212  1.00  0.00     0.006 A 
ENDBRANCH  26  47
BRANCH  38  55
ATOM     55  C   UNL A   1      40.787  33.748  33.854  1.00  0.00     0.057 A 
ATOM     56  C   UNL A   1      40.213  34.394  34.958  1.00  0.00     0.134 A 
ATOM     57  C   UNL A   1      41.014  32.372  33.971  1.00  0.00     0.134 A 
ATOM     58  F   UNL A   1      39.864  35.686  34.902  1.00  0.00    -0.206 F 
ATOM     59  C   UNL A   1      39.921  33.711  36.142  1.00  0.00     0.040 A 
ATOM     60  C   UNL A   1      40.696  31.670  35.135  1.00  0.00     0.040 A 
ATOM     61  F   UNL A   1      41.506  31.677  32.934  1.00  0.00    -0.206 F 
ATOM     62  C   UNL A   1      40.157  32.341  36.230  1.00  0.00     0.006 A 
ENDBRANCH  38  55
ENDBRANCH  12  13
ENDBRANCH   5   7
ENDBRANCH   2   3
ENDBRANCH   1   2
BRANCH   1  63
ATOM     63  C   UNL A   1      47.224  24.676  24.940  1.00  0.00     0.023 C 
BRANCH  63  64
ATOM     64  C   UNL A   1      46.451  23.382  25.151  1.00  0.00     0.116 C 
BRANCH  64  65
ATOM     65  N   UNL A   1      45.848  22.883  23.927  1.00  0.00    -0.352 N 
ATOM     66  C   UNL A   1      44.529  22.546  23.704  1.00  0.00     0.255 C 
ATOM     67  H   UNL A   1      46.456  22.772  23.161  1.00  0.00     0.163 HD
ATOM     68  O   UNL A   1      44.211  22.035  22.641  1.00  0.00    -0.269 OA
BRANCH  66  69
ATOM     69  C   UNL A   1      43.583  22.742  24.790  1.00  0.00     0.084 A 
ATOM     70  C   UNL A   1      43.130  23.977  25.218  1.00  0.00     0.107 A 
ATOM     71  C   UNL A   1      42.896  21.798  25.577  1.00  0.00     0.101 A 
ATOM     72  N   UNL A   1      42.162  23.802  26.190  1.00  0.00    -0.317 N 
ATOM     73  C   UNL A   1      41.961  22.439  26.348  1.00  0.00     0.058 A 
ATOM     74  N   UNL A   1      42.990  20.416  25.430  1.00  0.00    -0.215 NA
ATOM     75  C   UNL A   1      40.813  21.751  27.009  1.00  0.00     0.088 C 
ATOM     76  C   UNL A   1      42.129  19.740  26.111  1.00  0.00     0.187 C 
ATOM     77  C   UNL A   1      41.113  20.240  27.107  1.00  0.00     0.112 C 
BRANCH  72  78
ATOM     78  C   UNL A   1      41.459  24.862  26.812  1.00  0.00     0.045 A 
ATOM     79  C   UNL A   1      40.982  25.934  26.053  1.00  0.00     0.026 A 
ATOM     80  C   UNL A   1      41.220  24.813  28.192  1.00  0.00     0.026 A 
ATOM     81  C   UNL A   1      40.266  26.955  26.679  1.00  0.00     0.002 A 
ATOM     82  C   UNL A   1      40.534  25.854  28.815  1.00  0.00     0.002 A 
ATOM     83  C   UNL A   1      40.051  26.921  28.058  1.00  0.00     0.000 A 
ENDBRANCH  72  78
BRANCH  75  84
ATOM     84  C   UNL A   1      39.453  21.967  26.344  1.00  0.00     0.014 A 
ATOM     85  C   UNL A   1      38.666  23.106  26.437  1.00  0.00     0.016 A 
ATOM     86  S   UNL A   1      38.669  20.778  25.378  1.00  0.00    -0.148 S 
ATOM     87  C   UNL A   1      37.457  23.011  25.691  1.00  0.00     0.012 A 
ATOM     88  C   UNL A   1      37.354  21.808  25.034  1.00  0.00     0.065 A 
ENDBRANCH  75  84
BRANCH  76  89
ATOM     89  O   UNL A   1      42.152  18.396  25.981  1.00  0.00    -0.496 OA
ATOM     90  H   UNL A   1      42.004  18.003  25.143  1.00  0.00     0.294 HD
ENDBRANCH  76  89
ENDBRANCH  66  69
ENDBRANCH  64  65
ENDBRANCH  63  64
ENDBRANCH   1  63
TORSDOF 14
ENDMDL
MODEL 3
REMARK VINA RESULT:     -11.6      2.942      5.797
REMARK SMILES O=C(NCCCCNC(=O)c1cn(-c2ccccc2)c2c1N=C(O)C[C@@H]2c1cccs1)c1ccc(-c2c3nc(c(-c4c(F)cccc4F)c4ccc([nH]4)c(-c4c(F)cccc4F)c4nc(c(-c5c(F)cccc5F)c5ccc2[nH]5)C=C4)C=C3)cc1
REMARK SMILES IDX 5 1 4 2 3 3 1 4 2 5 32 7 33 8 85 9 34 10 84 11 35 12 36 13
REMARK SMILES IDX 37 14 78 15 38 16 83 17 77 18 79 19 39 20 82 21 76 22 75 23
REMARK SMILES IDX 40 25 66 26 49 27 65 28 50 29 53 30 64 31 80 32 51 33 52 34
REMARK SMILES IDX 63 36 81 37 54 38 41 39 42 40 47 41 43 42 44 43 46 44 48 45
REMARK SMILES IDX 45 46 67 47 68 48 73 49 69 50 70 51 72 52 74 53 71 54 55 55
REMARK SMILES IDX 56 56 61 57 57 58 58 59 60 60 62 61 59 62 6 63 7 64 8 65
REMARK SMILES IDX 9 66 10 68 11 69 12 70 21 71 13 72 20 73 22 74 26 75 23 76
REMARK SMILES IDX 25 77 14 78 15 79 19 80 16 81 18 82 17 83 27 84 28 85 31 86
REMARK SMILES IDX 29 87 30 88 24 89
REMARK H PARENT 3 6 79 24 53 35 8 67 24 90
REMARK Flexibility Score: inf
ROOT
ATOM      1  C   UNL A   1      34.998  34.208  30.006  1.00  0.00     0.023 C 
ENDROOT
BRANCH   1   2
ATOM      2  C   UNL A   1      35.227  34.028  28.505  1.00  0.00     0.116 C 
BRANCH   2   3
ATOM      3  N   UNL A   1      34.641  32.824  27.947  1.00  0.00    -0.352 N 
ATOM      4  O   UNL A   1      34.139  30.717  27.509  1.00  0.00    -0.269 OA
ATOM      5  C   UNL A   1      34.990  31.501  27.938  1.00  0.00     0.251 C 
ATOM      6  H   UNL A   1      33.801  32.999  27.466  1.00  0.00     0.163 HD
BRANCH   5   7
ATOM      7  C   UNL A   1      36.317  30.957  28.343  1.00  0.00     0.039 A 
ATOM      8  C   UNL A   1      37.378  31.698  28.864  1.00  0.00     0.014 A 
ATOM      9  C   UNL A   1      36.513  29.580  28.122  1.00  0.00     0.014 A 
ATOM     10  C   UNL A   1      38.623  31.110  29.070  1.00  0.00     0.010 A 
ATOM     11  C   UNL A   1      37.748  28.979  28.348  1.00  0.00     0.010 A 
ATOM     12  C   UNL A   1      38.814  29.757  28.788  1.00  0.00    -0.014 A 
BRANCH  12  13
ATOM     13  C   UNL A   1      40.122  29.179  29.086  1.00  0.00     0.031 A 
ATOM     14  C   UNL A   1      40.487  29.124  30.533  1.00  0.00     0.074 A 
ATOM     15  C   UNL A   1      40.902  28.589  28.159  1.00  0.00     0.049 A 
ATOM     16  N   UNL A   1      41.532  29.608  31.125  1.00  0.00    -0.248 NA
ATOM     17  C   UNL A   1      39.521  28.496  31.448  1.00  0.00     0.031 C 
ATOM     18  C   UNL A   1      40.568  28.273  26.769  1.00  0.00     0.029 A 
ATOM     19  N   UNL A   1      42.144  28.045  28.311  1.00  0.00    -0.354 N 
ATOM     20  C   UNL A   1      41.443  29.206  32.459  1.00  0.00     0.074 A 
ATOM     21  C   UNL A   1      40.135  28.627  32.623  1.00  0.00     0.031 C 
ATOM     22  C   UNL A   1      41.486  27.411  26.277  1.00  0.00     0.029 A 
ATOM     23  C   UNL A   1      42.532  27.218  27.268  1.00  0.00     0.049 A 
ATOM     24  H   UNL A   1      42.715  28.224  29.093  1.00  0.00     0.167 HD
ATOM     25  C   UNL A   1      42.524  29.202  33.288  1.00  0.00     0.037 A 
ATOM     26  C   UNL A   1      43.598  26.380  27.248  1.00  0.00     0.037 A 
ATOM     27  C   UNL A   1      43.555  30.088  32.816  1.00  0.00     0.049 A 
ATOM     28  C   UNL A   1      44.537  26.804  28.312  1.00  0.00     0.074 A 
ATOM     29  C   UNL A   1      43.636  31.442  32.552  1.00  0.00     0.029 A 
ATOM     30  N   UNL A   1      44.681  29.541  32.254  1.00  0.00    -0.354 N 
ATOM     31  N   UNL A   1      45.250  27.894  28.277  1.00  0.00    -0.248 NA
ATOM     32  C   UNL A   1      44.396  26.193  29.625  1.00  0.00     0.031 C 
ATOM     33  C   UNL A   1      44.517  31.547  31.434  1.00  0.00     0.029 A 
ATOM     34  C   UNL A   1      44.936  30.256  31.115  1.00  0.00     0.049 A 
ATOM     35  H   UNL A   1      45.202  28.783  32.603  1.00  0.00     0.167 HD
ATOM     36  C   UNL A   1      45.284  28.335  29.590  1.00  0.00     0.074 A 
ATOM     37  C   UNL A   1      44.838  27.196  30.386  1.00  0.00     0.031 C 
ATOM     38  C   UNL A   1      45.404  29.662  29.888  1.00  0.00     0.037 A 
BRANCH  25  39
ATOM     39  C   UNL A   1      42.799  28.132  34.325  1.00  0.00     0.057 A 
ATOM     40  C   UNL A   1      42.970  26.797  33.907  1.00  0.00     0.134 A 
ATOM     41  C   UNL A   1      42.587  28.296  35.709  1.00  0.00     0.134 A 
ATOM     42  F   UNL A   1      43.186  26.499  32.618  1.00  0.00    -0.206 F 
ATOM     43  C   UNL A   1      42.829  25.710  34.779  1.00  0.00     0.040 A 
ATOM     44  C   UNL A   1      42.496  27.219  36.597  1.00  0.00     0.040 A 
ATOM     45  F   UNL A   1      42.362  29.492  36.267  1.00  0.00    -0.206 F 
ATOM     46  C   UNL A   1      42.575  25.919  36.127  1.00  0.00     0.006 A 
ENDBRANCH  25  39
BRANCH  26  47
ATOM     47  C   UNL A   1      43.730  25.076  26.562  1.00  0.00     0.057 A 
ATOM     48  C   UNL A   1      42.929  23.980  26.915  1.00  0.00     0.134 A 
ATOM     49  C   UNL A   1      44.455  24.950  25.364  1.00  0.00     0.134 A 
ATOM     50  F   UNL A   1      42.164  24.023  28.016  1.00  0.00    -0.206 F 
ATOM     51  C   UNL A   1      42.843  22.833  26.116  1.00  0.00     0.040 A 
ATOM     52  C   UNL A   1      44.386  23.806  24.563  1.00  0.00     0.040 A 
ATOM     53  F   UNL A   1      45.186  25.967  24.885  1.00  0.00    -0.206 F 
ATOM     54  C   UNL A   1      43.567  22.747  24.931  1.00  0.00     0.006 A 
ENDBRANCH  26  47
BRANCH  38  55
ATOM     55  C   UNL A   1      45.771  30.604  28.779  1.00  0.00     0.057 A 
ATOM     56  C   UNL A   1      47.091  30.862  28.381  1.00  0.00     0.134 A 
ATOM     57  C   UNL A   1      44.752  31.145  27.988  1.00  0.00     0.134 A 
ATOM     58  F   UNL A   1      48.129  30.302  29.014  1.00  0.00    -0.206 F 
ATOM     59  C   UNL A   1      47.382  31.662  27.272  1.00  0.00     0.040 A 
ATOM     60  C   UNL A   1      45.029  31.917  26.858  1.00  0.00     0.040 A 
ATOM     61  F   UNL A   1      43.465  30.890  28.274  1.00  0.00    -0.206 F 
ATOM     62  C   UNL A   1      46.348  32.188  26.503  1.00  0.00     0.006 A 
ENDBRANCH  38  55
ENDBRANCH  12  13
ENDBRANCH   5   7
ENDBRANCH   2   3
ENDBRANCH   1   2
BRANCH   1  63
ATOM     63  C   UNL A   1      34.318  33.032  30.707  1.00  0.00     0.023 C 
BRANCH  63  64
ATOM     64  C   UNL A   1      34.938  32.621  32.035  1.00  0.00     0.116 C 
BRANCH  64  65
ATOM     65  N   UNL A   1      34.831  33.656  33.048  1.00  0.00    -0.352 N 
ATOM     66  C   UNL A   1      35.831  34.177  33.843  1.00  0.00     0.255 C 
ATOM     67  H   UNL A   1      33.932  34.034  33.186  1.00  0.00     0.163 HD
ATOM     68  O   UNL A   1      35.545  34.970  34.726  1.00  0.00    -0.269 OA
BRANCH  66  69
ATOM     69  C   UNL A   1      37.184  33.687  33.641  1.00  0.00     0.084 A 
ATOM     70  C   UNL A   1      38.104  34.262  32.782  1.00  0.00     0.107 A 
ATOM     71  C   UNL A   1      37.868  32.626  34.265  1.00  0.00     0.101 A 
ATOM     72  N   UNL A   1      39.322  33.619  32.911  1.00  0.00    -0.317 N 
ATOM     73  C   UNL A   1      39.190  32.656  33.898  1.00  0.00     0.058 A 
ATOM     74  N   UNL A   1      37.342  31.817  35.269  1.00  0.00    -0.215 NA
ATOM     75  C   UNL A   1      40.274  31.942  34.635  1.00  0.00     0.088 C 
ATOM     76  C   UNL A   1      38.197  31.042  35.843  1.00  0.00     0.187 C 
ATOM     77  C   UNL A   1      39.652  30.830  35.506  1.00  0.00     0.112 C 
BRANCH  72  78
ATOM     78  C   UNL A   1      40.492  33.987  32.204  1.00  0.00     0.045 A 
ATOM     79  C   UNL A   1      41.430  34.842  32.789  1.00  0.00     0.026 A 
ATOM     80  C   UNL A   1      40.717  33.460  30.925  1.00  0.00     0.026 A 
ATOM     81  C   UNL A   1      42.593  35.169  32.089  1.00  0.00     0.002 A 
ATOM     82  C   UNL A   1      41.865  33.819  30.219  1.00  0.00     0.002 A 
ATOM     83  C   UNL A   1      42.804  34.667  30.803  1.00  0.00     0.000 A 
ENDBRANCH  72  78
BRANCH  75  84
ATOM     84  C   UNL A   1      41.173  32.832  35.495  1.00  0.00     0.014 A 
ATOM     85  C   UNL A   1      42.545  32.704  35.653  1.00  0.00     0.016 A 
ATOM     86  S   UNL A   1      40.583  34.143  36.442  1.00  0.00    -0.148 S 
ATOM     87  C   UNL A   1      43.103  33.696  36.509  1.00  0.00     0.012 A 
ATOM     88  C   UNL A   1      42.147  34.567  36.974  1.00  0.00     0.065 A 
ENDBRANCH  75  84
BRANCH  76  89
ATOM     89  O   UNL A   1      37.749  30.259  36.848  1.00  0.00    -0.496 OA
ATOM     90  H   UNL A   1      37.491  29.375  36.674  1.00  0.00     0.294 HD
ENDBRANCH  76  89
ENDBRANCH  66  69
ENDBRANCH  64  65
ENDBRANCH  63  64
ENDBRANCH   1  63
TORSDOF 14
ENDMDL
