MODEL 1
REMARK VINA RESULT:     -11.6      0.000      0.000
REMARK SMILES CC(C)C(=O)Nc1ccc(C(=O)NCCCCNC(=O)c2ccc(-c3c4nc(c(-c5c(F)cccc5F)c5ccc([nH]5)c(-c5c(F)cccc5F)c5nc(c(-c6c(F)cccc6F)c6ccc3[nH]6)C=C5)C=C4)cc2)cc1NC(=O)C(C)C
REMARK SMILES IDX 15 1 14 2 13 3 11 4 12 5 10 7 7 8 8 9 76 10 9 11 75 12 6 13
REMARK SMILES IDX 4 14 5 15 2 17 1 18 3 19 77 20 78 21 79 23 80 24 81 25 82 26
REMARK SMILES IDX 16 27 17 28 18 29 19 30 20 32 21 33 22 34 74 35 23 36 73 37
REMARK SMILES IDX 24 38 25 39 26 40 67 41 27 42 72 43 66 44 68 45 28 46 71 47
REMARK SMILES IDX 65 48 64 49 29 51 55 52 38 53 54 54 39 55 42 56 53 57 69 58
REMARK SMILES IDX 40 59 41 60 52 62 70 63 43 64 30 65 31 66 36 67 32 68 33 69
REMARK SMILES IDX 35 70 37 71 34 72 56 73 57 74 62 75 58 76 59 77 61 78 63 79
REMARK SMILES IDX 60 80 44 81 45 82 50 83 46 84 47 85 49 86 51 87 48 88
REMARK H PARENT 13 6 6 16 77 22 18 31 68 50 42 61
REMARK Flexibility Score: inf
ROOT
ATOM      1  C   UNL A   1      37.035  22.039  24.301  1.00  0.00     0.023 C 
ENDROOT
BRANCH   1   2
ATOM      2  C   UNL A   1      36.118  22.792  25.263  1.00  0.00     0.116 C 
BRANCH   2   3
ATOM      3  N   UNL A   1      35.341  21.857  26.048  1.00  0.00    -0.352 N 
ATOM      4  C   UNL A   1      34.012  21.799  26.371  1.00  0.00     0.251 C 
ATOM      5  O   UNL A   1      33.633  20.816  27.010  1.00  0.00    -0.269 OA
ATOM      6  H   UNL A   1      35.872  21.119  26.424  1.00  0.00     0.163 HD
BRANCH   4   7
ATOM      7  C   UNL A   1      32.998  22.817  25.961  1.00  0.00     0.042 A 
ATOM      8  C   UNL A   1      30.951  24.519  25.073  1.00  0.00     0.065 A 
ATOM      9  C   UNL A   1      31.143  23.280  24.461  1.00  0.00     0.029 A 
ATOM     10  C   UNL A   1      31.720  24.890  26.204  1.00  0.00     0.065 A 
ATOM     11  C   UNL A   1      32.175  22.451  24.884  1.00  0.00     0.016 A 
ATOM     12  C   UNL A   1      32.734  24.022  26.639  1.00  0.00     0.042 A 
BRANCH   8  13
ATOM     13  N   UNL A   1      29.870  25.288  24.614  1.00  0.00    -0.324 N 
ATOM     14  C   UNL A   1      29.821  26.416  23.849  1.00  0.00     0.226 C 
ATOM     15  O   UNL A   1      28.729  26.993  23.785  1.00  0.00    -0.274 OA
ATOM     16  H   UNL A   1      28.989  24.952  24.896  1.00  0.00     0.170 HD
BRANCH  14  17
ATOM     17  C   UNL A   1      30.999  26.946  23.028  1.00  0.00     0.072 C 
ATOM     18  C   UNL A   1      31.490  26.018  21.929  1.00  0.00     0.018 C 
ATOM     19  C   UNL A   1      30.831  28.379  22.537  1.00  0.00     0.018 C 
ENDBRANCH  14  17
ENDBRANCH   8  13
BRANCH  10  20
ATOM     20  N   UNL A   1      31.288  26.052  26.875  1.00  0.00    -0.324 N 
ATOM     21  C   UNL A   1      31.550  27.379  26.903  1.00  0.00     0.226 C 
ATOM     22  H   UNL A   1      30.579  25.829  27.521  1.00  0.00     0.170 HD
ATOM     23  O   UNL A   1      30.895  28.036  27.724  1.00  0.00    -0.274 OA
BRANCH  21  24
ATOM     24  C   UNL A   1      32.545  28.114  26.034  1.00  0.00     0.072 C 
ATOM     25  C   UNL A   1      32.148  29.579  25.911  1.00  0.00     0.018 C 
ATOM     26  C   UNL A   1      34.004  27.802  26.348  1.00  0.00     0.018 C 
ENDBRANCH  21  24
ENDBRANCH  10  20
ENDBRANCH   4   7
ENDBRANCH   2   3
ENDBRANCH   1   2
BRANCH   1  27
ATOM     27  C   UNL A   1      37.598  20.727  24.836  1.00  0.00     0.023 C 
BRANCH  27  28
ATOM     28  C   UNL A   1      38.840  20.898  25.706  1.00  0.00     0.116 C 
BRANCH  28  29
ATOM     29  N   UNL A   1      39.766  19.768  25.651  1.00  0.00    -0.352 N 
ATOM     30  C   UNL A   1      41.089  19.716  26.024  1.00  0.00     0.251 C 
ATOM     31  H   UNL A   1      39.390  18.929  25.299  1.00  0.00     0.163 HD
ATOM     32  O   UNL A   1      41.744  18.691  25.861  1.00  0.00    -0.269 OA
BRANCH  30  33
ATOM     33  C   UNL A   1      41.726  20.930  26.569  1.00  0.00     0.039 A 
ATOM     34  C   UNL A   1      42.282  21.856  25.685  1.00  0.00     0.014 A 
ATOM     35  C   UNL A   1      41.672  21.196  27.938  1.00  0.00     0.014 A 
ATOM     36  C   UNL A   1      42.682  23.104  26.163  1.00  0.00     0.010 A 
ATOM     37  C   UNL A   1      41.979  22.470  28.395  1.00  0.00     0.010 A 
ATOM     38  C   UNL A   1      42.473  23.442  27.510  1.00  0.00    -0.014 A 
BRANCH  38  39
ATOM     39  C   UNL A   1      42.737  24.810  28.020  1.00  0.00     0.031 A 
ATOM     40  C   UNL A   1      44.126  25.196  28.443  1.00  0.00     0.074 A 
ATOM     41  C   UNL A   1      41.712  25.665  28.201  1.00  0.00     0.049 A 
ATOM     42  N   UNL A   1      44.539  26.292  29.025  1.00  0.00    -0.248 NA
ATOM     43  C   UNL A   1      45.185  24.199  28.217  1.00  0.00     0.031 C 
ATOM     44  C   UNL A   1      40.307  25.388  27.894  1.00  0.00     0.029 A 
ATOM     45  N   UNL A   1      41.694  26.944  28.699  1.00  0.00    -0.354 N 
ATOM     46  C   UNL A   1      45.893  26.103  29.263  1.00  0.00     0.074 A 
ATOM     47  C   UNL A   1      46.221  24.768  28.814  1.00  0.00     0.031 C 
ATOM     48  C   UNL A   1      39.571  26.474  28.178  1.00  0.00     0.029 A 
ATOM     49  C   UNL A   1      40.443  27.509  28.722  1.00  0.00     0.049 A 
ATOM     50  H   UNL A   1      42.502  27.411  29.011  1.00  0.00     0.167 HD
ATOM     51  C   UNL A   1      46.791  26.973  29.782  1.00  0.00     0.037 A 
ATOM     52  C   UNL A   1      40.044  28.727  29.136  1.00  0.00     0.037 A 
ATOM     53  C   UNL A   1      46.474  28.317  30.183  1.00  0.00     0.049 A 
ATOM     54  C   UNL A   1      41.064  29.688  29.679  1.00  0.00     0.074 A 
ATOM     55  C   UNL A   1      47.325  29.303  30.650  1.00  0.00     0.029 A 
ATOM     56  N   UNL A   1      45.201  28.867  30.153  1.00  0.00    -0.354 N 
ATOM     57  N   UNL A   1      42.354  29.518  29.841  1.00  0.00    -0.248 NA
ATOM     58  C   UNL A   1      40.573  31.009  30.094  1.00  0.00     0.031 C 
ATOM     59  C   UNL A   1      46.561  30.441  30.930  1.00  0.00     0.029 A 
ATOM     60  C   UNL A   1      45.241  30.175  30.604  1.00  0.00     0.049 A 
ATOM     61  H   UNL A   1      44.388  28.396  29.855  1.00  0.00     0.167 HD
ATOM     62  C   UNL A   1      42.833  30.717  30.352  1.00  0.00     0.074 A 
ATOM     63  C   UNL A   1      41.697  31.608  30.462  1.00  0.00     0.031 C 
ATOM     64  C   UNL A   1      44.100  31.048  30.698  1.00  0.00     0.037 A 
BRANCH  51  65
ATOM     65  C   UNL A   1      48.204  26.492  29.928  1.00  0.00     0.057 A 
ATOM     66  C   UNL A   1      49.148  26.658  28.906  1.00  0.00     0.134 A 
ATOM     67  C   UNL A   1      48.627  25.856  31.102  1.00  0.00     0.134 A 
ATOM     68  F   UNL A   1      48.801  27.243  27.749  1.00  0.00    -0.206 F 
ATOM     69  C   UNL A   1      50.453  26.178  29.031  1.00  0.00     0.040 A 
ATOM     70  C   UNL A   1      49.937  25.396  31.249  1.00  0.00     0.040 A 
ATOM     71  F   UNL A   1      47.775  25.668  32.120  1.00  0.00    -0.206 F 
ATOM     72  C   UNL A   1      50.850  25.548  30.208  1.00  0.00     0.006 A 
ENDBRANCH  51  65
BRANCH  52  73
ATOM     73  C   UNL A   1      38.620  29.124  29.012  1.00  0.00     0.057 A 
ATOM     74  C   UNL A   1      38.113  29.593  27.795  1.00  0.00     0.134 A 
ATOM     75  C   UNL A   1      37.736  29.047  30.094  1.00  0.00     0.134 A 
ATOM     76  F   UNL A   1      38.917  29.706  26.727  1.00  0.00    -0.206 F 
ATOM     77  C   UNL A   1      36.780  29.987  27.661  1.00  0.00     0.040 A 
ATOM     78  C   UNL A   1      36.396  29.419  29.970  1.00  0.00     0.040 A 
ATOM     79  F   UNL A   1      38.161  28.597  31.284  1.00  0.00    -0.206 F 
ATOM     80  C   UNL A   1      35.916  29.895  28.751  1.00  0.00     0.006 A 
ENDBRANCH  52  73
BRANCH  64  81
ATOM     81  C   UNL A   1      44.328  32.443  31.200  1.00  0.00     0.057 A 
ATOM     82  C   UNL A   1      44.602  33.503  30.327  1.00  0.00     0.134 A 
ATOM     83  C   UNL A   1      44.233  32.733  32.566  1.00  0.00     0.134 A 
ATOM     84  F   UNL A   1      44.720  33.285  29.009  1.00  0.00    -0.206 F 
ATOM     85  C   UNL A   1      44.790  34.802  30.799  1.00  0.00     0.040 A 
ATOM     86  C   UNL A   1      44.396  34.032  33.048  1.00  0.00     0.040 A 
ATOM     87  F   UNL A   1      43.966  31.761  33.452  1.00  0.00    -0.206 F 
ATOM     88  C   UNL A   1      44.680  35.070  32.163  1.00  0.00     0.006 A 
ENDBRANCH  64  81
ENDBRANCH  38  39
ENDBRANCH  30  33
ENDBRANCH  28  29
ENDBRANCH  27  28
ENDBRANCH   1  27
TORSDOF 15
ENDMDL
MODEL 2
REMARK VINA RESULT:     -11.5      1.124      1.804
REMARK SMILES CC(C)C(=O)Nc1ccc(C(=O)NCCCCNC(=O)c2ccc(-c3c4nc(c(-c5c(F)cccc5F)c5ccc([nH]5)c(-c5c(F)cccc5F)c5nc(c(-c6c(F)cccc6F)c6ccc3[nH]6)C=C5)C=C4)cc2)cc1NC(=O)C(C)C
REMARK SMILES IDX 15 1 14 2 13 3 11 4 12 5 10 7 7 8 8 9 76 10 9 11 75 12 6 13
REMARK SMILES IDX 4 14 5 15 2 17 1 18 3 19 77 20 78 21 79 23 80 24 81 25 82 26
REMARK SMILES IDX 16 27 17 28 18 29 19 30 20 32 21 33 22 34 74 35 23 36 73 37
REMARK SMILES IDX 24 38 25 39 26 40 67 41 27 42 72 43 66 44 68 45 28 46 71 47
REMARK SMILES IDX 65 48 64 49 29 51 55 52 38 53 54 54 39 55 42 56 53 57 69 58
REMARK SMILES IDX 40 59 41 60 52 62 70 63 43 64 30 65 31 66 36 67 32 68 33 69
REMARK SMILES IDX 35 70 37 71 34 72 56 73 57 74 62 75 58 76 59 77 61 78 63 79
REMARK SMILES IDX 60 80 44 81 45 82 50 83 46 84 47 85 49 86 51 87 48 88
REMARK H PARENT 13 6 6 16 77 22 18 31 68 50 42 61
REMARK Flexibility Score: inf
ROOT
ATOM      1  C   UNL A   1      36.523  21.964  24.944  1.00  0.00     0.023 C 
ENDROOT
BRANCH   1   2
ATOM      2  C   UNL A   1      35.549  21.875  26.116  1.00  0.00     0.116 C 
BRANCH   2   3
ATOM      3  N   UNL A   1      34.723  20.693  25.992  1.00  0.00    -0.352 N 
ATOM      4  C   UNL A   1      33.494  20.477  25.429  1.00  0.00     0.251 C 
ATOM      5  O   UNL A   1      33.079  19.316  25.418  1.00  0.00    -0.269 OA
ATOM      6  H   UNL A   1      35.124  19.887  26.389  1.00  0.00     0.163 HD
BRANCH   4   7
ATOM      7  C   UNL A   1      32.657  21.539  24.795  1.00  0.00     0.042 A 
ATOM      8  C   UNL A   1      30.993  23.596  23.860  1.00  0.00     0.065 A 
ATOM      9  C   UNL A   1      30.741  23.004  25.098  1.00  0.00     0.029 A 
ATOM     10  C   UNL A   1      32.138  23.235  23.108  1.00  0.00     0.065 A 
ATOM     11  C   UNL A   1      31.551  21.966  25.546  1.00  0.00     0.016 A 
ATOM     12  C   UNL A   1      32.964  22.209  23.596  1.00  0.00     0.042 A 
BRANCH   8  13
ATOM     13  N   UNL A   1      30.153  24.658  23.488  1.00  0.00    -0.324 N 
ATOM     14  C   UNL A   1      29.968  25.898  24.026  1.00  0.00     0.226 C 
ATOM     15  O   UNL A   1      29.000  26.543  23.607  1.00  0.00    -0.274 OA
ATOM     16  H   UNL A   1      29.598  24.474  22.696  1.00  0.00     0.170 HD
BRANCH  14  17
ATOM     17  C   UNL A   1      30.919  26.542  25.039  1.00  0.00     0.072 C 
ATOM     18  C   UNL A   1      31.175  28.025  24.832  1.00  0.00     0.018 C 
ATOM     19  C   UNL A   1      30.607  26.209  26.493  1.00  0.00     0.018 C 
ENDBRANCH  14  17
ENDBRANCH   8  13
BRANCH  10  20
ATOM     20  N   UNL A   1      32.413  24.053  21.994  1.00  0.00    -0.324 N 
ATOM     21  C   UNL A   1      32.897  25.287  21.719  1.00  0.00     0.226 C 
ATOM     22  H   UNL A   1      32.182  23.583  21.161  1.00  0.00     0.170 HD
ATOM     23  O   UNL A   1      32.929  25.594  20.520  1.00  0.00    -0.274 OA
BRANCH  21  24
ATOM     24  C   UNL A   1      33.393  26.298  22.727  1.00  0.00     0.072 C 
ATOM     25  C   UNL A   1      34.347  25.630  23.710  1.00  0.00     0.018 C 
ATOM     26  C   UNL A   1      33.822  27.630  22.124  1.00  0.00     0.018 C 
ENDBRANCH  21  24
ENDBRANCH  10  20
ENDBRANCH   4   7
ENDBRANCH   2   3
ENDBRANCH   1   2
BRANCH   1  27
ATOM     27  C   UNL A   1      37.508  20.805  24.830  1.00  0.00     0.023 C 
BRANCH  27  28
ATOM     28  C   UNL A   1      38.754  20.968  25.694  1.00  0.00     0.116 C 
BRANCH  28  29
ATOM     29  N   UNL A   1      39.669  19.828  25.642  1.00  0.00    -0.352 N 
ATOM     30  C   UNL A   1      40.989  19.760  26.023  1.00  0.00     0.251 C 
ATOM     31  H   UNL A   1      39.286  18.994  25.284  1.00  0.00     0.163 HD
ATOM     32  O   UNL A   1      41.633  18.729  25.861  1.00  0.00    -0.269 OA
BRANCH  30  33
ATOM     33  C   UNL A   1      41.635  20.965  26.576  1.00  0.00     0.039 A 
ATOM     34  C   UNL A   1      42.198  21.893  25.698  1.00  0.00     0.014 A 
ATOM     35  C   UNL A   1      41.584  21.222  27.947  1.00  0.00     0.014 A 
ATOM     36  C   UNL A   1      42.607  23.135  26.185  1.00  0.00     0.010 A 
ATOM     37  C   UNL A   1      41.901  22.490  28.412  1.00  0.00     0.010 A 
ATOM     38  C   UNL A   1      42.402  23.464  27.535  1.00  0.00    -0.014 A 
BRANCH  38  39
ATOM     39  C   UNL A   1      42.677  24.827  28.054  1.00  0.00     0.031 A 
ATOM     40  C   UNL A   1      44.067  25.197  28.487  1.00  0.00     0.074 A 
ATOM     41  C   UNL A   1      41.659  25.692  28.233  1.00  0.00     0.049 A 
ATOM     42  N   UNL A   1      44.487  26.285  29.079  1.00  0.00    -0.248 NA
ATOM     43  C   UNL A   1      45.117  24.190  28.263  1.00  0.00     0.031 C 
ATOM     44  C   UNL A   1      40.253  25.431  27.916  1.00  0.00     0.029 A 
ATOM     45  N   UNL A   1      41.651  26.968  28.739  1.00  0.00    -0.354 N 
ATOM     46  C   UNL A   1      45.838  26.081  29.324  1.00  0.00     0.074 A 
ATOM     47  C   UNL A   1      46.155  24.745  28.870  1.00  0.00     0.031 C 
ATOM     48  C   UNL A   1      39.527  26.523  28.202  1.00  0.00     0.029 A 
ATOM     49  C   UNL A   1      40.406  27.546  28.757  1.00  0.00     0.049 A 
ATOM     50  H   UNL A   1      42.462  27.425  29.058  1.00  0.00     0.167 HD
ATOM     51  C   UNL A   1      46.742  26.939  29.853  1.00  0.00     0.037 A 
ATOM     52  C   UNL A   1      40.016  28.765  29.175  1.00  0.00     0.037 A 
ATOM     53  C   UNL A   1      46.435  28.283  30.260  1.00  0.00     0.049 A 
ATOM     54  C   UNL A   1      41.043  29.712  29.730  1.00  0.00     0.074 A 
ATOM     55  C   UNL A   1      47.293  29.258  30.738  1.00  0.00     0.029 A 
ATOM     56  N   UNL A   1      45.168  28.846  30.226  1.00  0.00    -0.354 N 
ATOM     57  N   UNL A   1      42.330  29.528  29.899  1.00  0.00    -0.248 NA
ATOM     58  C   UNL A   1      40.563  31.037  30.150  1.00  0.00     0.031 C 
ATOM     59  C   UNL A   1      46.539  30.403  31.020  1.00  0.00     0.029 A 
ATOM     60  C   UNL A   1      45.219  30.152  30.684  1.00  0.00     0.049 A 
ATOM     61  H   UNL A   1      44.353  28.386  29.919  1.00  0.00     0.167 HD
ATOM     62  C   UNL A   1      42.818  30.719  30.420  1.00  0.00     0.074 A 
ATOM     63  C   UNL A   1      41.690  31.622  30.528  1.00  0.00     0.031 C 
ATOM     64  C   UNL A   1      44.086  31.036  30.776  1.00  0.00     0.037 A 
BRANCH  51  65
ATOM     65  C   UNL A   1      48.148  26.442  30.005  1.00  0.00     0.057 A 
ATOM     66  C   UNL A   1      49.102  26.609  28.992  1.00  0.00     0.134 A 
ATOM     67  C   UNL A   1      48.556  25.791  31.176  1.00  0.00     0.134 A 
ATOM     68  F   UNL A   1      48.770  27.210  27.839  1.00  0.00    -0.206 F 
ATOM     69  C   UNL A   1      50.401  26.115  29.122  1.00  0.00     0.040 A 
ATOM     70  C   UNL A   1      49.860  25.316  31.328  1.00  0.00     0.040 A 
ATOM     71  F   UNL A   1      47.694  25.601  32.186  1.00  0.00    -0.206 F 
ATOM     72  C   UNL A   1      50.783  25.470  30.296  1.00  0.00     0.006 A 
ENDBRANCH  51  65
BRANCH  52  73
ATOM     73  C   UNL A   1      38.598  29.177  29.045  1.00  0.00     0.057 A 
ATOM     74  C   UNL A   1      38.095  29.628  27.819  1.00  0.00     0.134 A 
ATOM     75  C   UNL A   1      37.714  29.133  30.130  1.00  0.00     0.134 A 
ATOM     76  F   UNL A   1      38.899  29.709  26.749  1.00  0.00    -0.206 F 
ATOM     77  C   UNL A   1      36.767  30.036  27.679  1.00  0.00     0.040 A 
ATOM     78  C   UNL A   1      36.379  29.519  29.999  1.00  0.00     0.040 A 
ATOM     79  F   UNL A   1      38.135  28.702  31.328  1.00  0.00    -0.206 F 
ATOM     80  C   UNL A   1      35.903  29.977  28.771  1.00  0.00     0.006 A 
ENDBRANCH  52  73
BRANCH  64  81
ATOM     81  C   UNL A   1      44.325  32.425  31.287  1.00  0.00     0.057 A 
ATOM     82  C   UNL A   1      44.584  33.494  30.420  1.00  0.00     0.134 A 
ATOM     83  C   UNL A   1      44.257  32.702  32.658  1.00  0.00     0.134 A 
ATOM     84  F   UNL A   1      44.677  33.289  29.098  1.00  0.00    -0.206 F 
ATOM     85  C   UNL A   1      44.782  34.788  30.901  1.00  0.00     0.040 A 
ATOM     86  C   UNL A   1      44.430  33.996  33.149  1.00  0.00     0.040 A 
ATOM     87  F   UNL A   1      44.005  31.721  33.539  1.00  0.00    -0.206 F 
ATOM     88  C   UNL A   1      44.698  35.042  32.269  1.00  0.00     0.006 A 
ENDBRANCH  64  81
ENDBRANCH  38  39
ENDBRANCH  30  33
ENDBRANCH  28  29
ENDBRANCH  27  28
ENDBRANCH   1  27
TORSDOF 15
ENDMDL
MODEL 3
REMARK VINA RESULT:     -11.5      1.144      6.377
REMARK SMILES CC(C)C(=O)Nc1ccc(C(=O)NCCCCNC(=O)c2ccc(-c3c4nc(c(-c5c(F)cccc5F)c5ccc([nH]5)c(-c5c(F)cccc5F)c5nc(c(-c6c(F)cccc6F)c6ccc3[nH]6)C=C5)C=C4)cc2)cc1NC(=O)C(C)C
REMARK SMILES IDX 15 1 14 2 13 3 11 4 12 5 10 7 7 8 8 9 76 10 9 11 75 12 6 13
REMARK SMILES IDX 4 14 5 15 2 17 1 18 3 19 77 20 78 21 79 23 80 24 81 25 82 26
REMARK SMILES IDX 16 27 17 28 18 29 19 30 20 32 21 33 22 34 74 35 23 36 73 37
REMARK SMILES IDX 24 38 25 39 26 40 67 41 27 42 72 43 66 44 68 45 28 46 71 47
REMARK SMILES IDX 65 48 64 49 29 51 55 52 38 53 54 54 39 55 42 56 53 57 69 58
REMARK SMILES IDX 40 59 41 60 52 62 70 63 43 64 30 65 31 66 36 67 32 68 33 69
REMARK SMILES IDX 35 70 37 71 34 72 56 73 57 74 62 75 58 76 59 77 61 78 63 79
REMARK SMILES IDX 60 80 44 81 45 82 50 83 46 84 47 85 49 86 51 87 48 88
REMARK H PARENT 13 6 6 16 77 22 18 31 68 50 42 61
REMARK Flexibility Score: inf
ROOT
ATOM      1  C   UNL A   1      36.293  22.510  24.926  1.00  0.00     0.023 C 
ENDROOT
BRANCH   1   2
ATOM      2  C   UNL A   1      35.538  22.197  26.216  1.00  0.00     0.116 C 
BRANCH   2   3
ATOM      3  N   UNL A   1      34.786  20.970  26.071  1.00  0.00    -0.352 N 
ATOM      4  C   UNL A   1      33.578  20.687  25.492  1.00  0.00     0.251 C 
ATOM      5  O   UNL A   1      33.233  19.504  25.464  1.00  0.00    -0.269 OA
ATOM      6  H   UNL A   1      35.230  20.185  26.464  1.00  0.00     0.163 HD
BRANCH   4   7
ATOM      7  C   UNL A   1      32.685  21.705  24.860  1.00  0.00     0.042 A 
ATOM      8  C   UNL A   1      30.923  23.680  23.929  1.00  0.00     0.065 A 
ATOM      9  C   UNL A   1      30.731  23.111  25.188  1.00  0.00     0.029 A 
ATOM     10  C   UNL A   1      32.057  23.340  23.150  1.00  0.00     0.065 A 
ATOM     11  C   UNL A   1      31.589  22.112  25.635  1.00  0.00     0.016 A 
ATOM     12  C   UNL A   1      32.932  22.354  23.636  1.00  0.00     0.042 A 
BRANCH   8  13
ATOM     13  N   UNL A   1      30.037  24.704  23.558  1.00  0.00    -0.324 N 
ATOM     14  C   UNL A   1      29.903  25.989  23.996  1.00  0.00     0.226 C 
ATOM     15  O   UNL A   1      28.887  26.593  23.633  1.00  0.00    -0.274 OA
ATOM     16  H   UNL A   1      29.396  24.447  22.856  1.00  0.00     0.170 HD
BRANCH  14  17
ATOM     17  C   UNL A   1      30.957  26.724  24.828  1.00  0.00     0.072 C 
ATOM     18  C   UNL A   1      31.055  28.218  24.573  1.00  0.00     0.018 C 
ATOM     19  C   UNL A   1      30.926  26.395  26.315  1.00  0.00     0.018 C 
ENDBRANCH  14  17
ENDBRANCH   8  13
BRANCH  10  20
ATOM     20  N   UNL A   1      32.270  24.139  22.009  1.00  0.00    -0.324 N 
ATOM     21  C   UNL A   1      32.963  25.240  21.640  1.00  0.00     0.226 C 
ATOM     22  H   UNL A   1      31.754  23.788  21.247  1.00  0.00     0.170 HD
ATOM     23  O   UNL A   1      32.804  25.605  20.467  1.00  0.00    -0.274 OA
BRANCH  21  24
ATOM     24  C   UNL A   1      33.898  26.043  22.515  1.00  0.00     0.072 C 
ATOM     25  C   UNL A   1      33.658  27.533  22.306  1.00  0.00     0.018 C 
ATOM     26  C   UNL A   1      34.005  25.540  23.951  1.00  0.00     0.018 C 
ENDBRANCH  21  24
ENDBRANCH  10  20
ENDBRANCH   4   7
ENDBRANCH   2   3
ENDBRANCH   1   2
BRANCH   1  27
ATOM     27  C   UNL A   1      37.426  21.547  24.588  1.00  0.00     0.023 C 
BRANCH  27  28
ATOM     28  C   UNL A   1      38.438  21.365  25.715  1.00  0.00     0.116 C 
BRANCH  28  29
ATOM     29  N   UNL A   1      39.251  20.156  25.596  1.00  0.00    -0.352 N 
ATOM     30  C   UNL A   1      40.563  19.956  25.961  1.00  0.00     0.251 C 
ATOM     31  H   UNL A   1      38.797  19.377  25.201  1.00  0.00     0.163 HD
ATOM     32  O   UNL A   1      41.116  18.884  25.740  1.00  0.00    -0.269 OA
BRANCH  30  33
ATOM     33  C   UNL A   1      41.313  21.073  26.567  1.00  0.00     0.039 A 
ATOM     34  C   UNL A   1      41.932  22.004  25.731  1.00  0.00     0.014 A 
ATOM     35  C   UNL A   1      41.307  21.251  27.951  1.00  0.00     0.014 A 
ATOM     36  C   UNL A   1      42.447  23.179  26.279  1.00  0.00     0.010 A 
ATOM     37  C   UNL A   1      41.732  22.461  28.481  1.00  0.00     0.010 A 
ATOM     38  C   UNL A   1      42.293  23.443  27.650  1.00  0.00    -0.014 A 
BRANCH  38  39
ATOM     39  C   UNL A   1      42.685  24.747  28.240  1.00  0.00     0.031 A 
ATOM     40  C   UNL A   1      41.647  25.812  28.459  1.00  0.00     0.074 A 
ATOM     41  C   UNL A   1      43.984  25.009  28.481  1.00  0.00     0.049 A 
ATOM     42  N   UNL A   1      41.803  27.052  28.845  1.00  0.00    -0.248 NA
ATOM     43  C   UNL A   1      40.253  25.443  28.163  1.00  0.00     0.031 C 
ATOM     44  C   UNL A   1      45.097  24.085  28.248  1.00  0.00     0.029 A 
ATOM     45  N   UNL A   1      44.592  26.140  28.966  1.00  0.00    -0.354 N 
ATOM     46  C   UNL A   1      40.536  27.618  28.808  1.00  0.00     0.074 A 
ATOM     47  C   UNL A   1      39.633  26.604  28.308  1.00  0.00     0.031 C 
ATOM     48  C   UNL A   1      46.244  24.673  28.623  1.00  0.00     0.029 A 
ATOM     49  C   UNL A   1      45.955  26.026  29.084  1.00  0.00     0.049 A 
ATOM     50  H   UNL A   1      44.096  26.956  29.207  1.00  0.00     0.167 HD
ATOM     51  C   UNL A   1      40.152  28.860  29.183  1.00  0.00     0.037 A 
ATOM     52  C   UNL A   1      46.870  26.914  29.517  1.00  0.00     0.037 A 
ATOM     53  C   UNL A   1      41.043  29.850  29.724  1.00  0.00     0.049 A 
ATOM     54  C   UNL A   1      46.417  28.277  29.958  1.00  0.00     0.074 A 
ATOM     55  C   UNL A   1      40.743  31.113  30.205  1.00  0.00     0.029 A 
ATOM     56  N   UNL A   1      42.413  29.683  29.866  1.00  0.00    -0.354 N 
ATOM     57  N   UNL A   1      45.206  28.779  29.977  1.00  0.00    -0.248 NA
ATOM     58  C   UNL A   1      47.457  29.197  30.442  1.00  0.00     0.031 C 
ATOM     59  C   UNL A   1      41.936  31.720  30.612  1.00  0.00     0.029 A 
ATOM     60  C   UNL A   1      42.973  30.822  30.417  1.00  0.00     0.049 A 
ATOM     61  H   UNL A   1      42.913  28.872  29.613  1.00  0.00     0.167 HD
ATOM     62  C   UNL A   1      45.334  30.061  30.495  1.00  0.00     0.074 A 
ATOM     63  C   UNL A   1      46.739  30.255  30.789  1.00  0.00     0.031 C 
ATOM     64  C   UNL A   1      44.374  30.992  30.709  1.00  0.00     0.037 A 
BRANCH  51  65
ATOM     65  C   UNL A   1      38.701  29.203  29.029  1.00  0.00     0.057 A 
ATOM     66  C   UNL A   1      37.809  29.135  30.109  1.00  0.00     0.134 A 
ATOM     67  C   UNL A   1      38.187  29.607  27.791  1.00  0.00     0.134 A 
ATOM     68  F   UNL A   1      38.236  28.739  31.318  1.00  0.00    -0.206 F 
ATOM     69  C   UNL A   1      36.452  29.422  29.955  1.00  0.00     0.040 A 
ATOM     70  C   UNL A   1      36.836  29.922  27.631  1.00  0.00     0.040 A 
ATOM     71  F   UNL A   1      38.986  29.696  26.718  1.00  0.00    -0.206 F 
ATOM     72  C   UNL A   1      35.964  29.821  28.713  1.00  0.00     0.006 A 
ENDBRANCH  51  65
BRANCH  52  73
ATOM     73  C   UNL A   1      48.300  26.530  29.596  1.00  0.00     0.057 A 
ATOM     74  C   UNL A   1      49.177  26.823  28.544  1.00  0.00     0.134 A 
ATOM     75  C   UNL A   1      48.825  25.865  30.710  1.00  0.00     0.134 A 
ATOM     76  F   UNL A   1      48.727  27.443  27.443  1.00  0.00    -0.206 F 
ATOM     77  C   UNL A   1      50.523  26.456  28.591  1.00  0.00     0.040 A 
ATOM     78  C   UNL A   1      50.174  25.509  30.778  1.00  0.00     0.040 A 
ATOM     79  F   UNL A   1      48.037  25.564  31.751  1.00  0.00    -0.206 F 
ATOM     80  C   UNL A   1      51.026  25.801  29.714  1.00  0.00     0.006 A 
ENDBRANCH  52  73
BRANCH  64  81
ATOM     81  C   UNL A   1      44.807  32.293  31.316  1.00  0.00     0.057 A 
ATOM     82  C   UNL A   1      45.176  33.388  30.525  1.00  0.00     0.134 A 
ATOM     83  C   UNL A   1      44.816  32.462  32.706  1.00  0.00     0.134 A 
ATOM     84  F   UNL A   1      45.201  33.282  29.188  1.00  0.00    -0.206 F 
ATOM     85  C   UNL A   1      45.554  34.602  31.097  1.00  0.00     0.040 A 
ATOM     86  C   UNL A   1      45.171  33.678  33.289  1.00  0.00     0.040 A 
ATOM     87  F   UNL A   1      44.466  31.452  33.518  1.00  0.00    -0.206 F 
ATOM     88  C   UNL A   1      45.546  34.751  32.483  1.00  0.00     0.006 A 
ENDBRANCH  64  81
ENDBRANCH  38  39
ENDBRANCH  30  33
ENDBRANCH  28  29
ENDBRANCH  27  28
ENDBRANCH   1  27
TORSDOF 15
ENDMDL
