MODEL 1
REMARK VINA RESULT:     -13.4      0.000      0.000
REMARK SMILES Cc1ccc(S(=O)(=O)n2cc(C(=O)C(=O)N[C@@H](Cc3cnc[nH]3)C(=O)NCCCCNC(=O)c3ccc(-c4c5nc(c(-c6c(F)cccc6F)c6ccc([nH]6)c(-c6c(F)cccc6F)c6nc(c(-c7c(F)cccc7F)c7ccc4[nH]7)C=C6)C=C5)cc3)c3ccccc32)cc1
REMARK SMILES IDX 27 1 26 2 24 3 25 4 17 6 16 7 14 8 15 9 12 11 13 12 11 13
REMARK SMILES IDX 9 14 10 15 93 16 88 17 92 18 89 19 91 20 90 21 6 22 7 23
REMARK SMILES IDX 8 24 5 25 1 26 2 27 3 28 95 29 4 30 94 31 18 32 19 33 20 34
REMARK SMILES IDX 23 35 21 36 22 37 28 39 29 40 30 41 31 42 32 43 33 45 34 46
REMARK SMILES IDX 35 47 87 48 36 49 86 50 37 51 38 52 39 53 80 54 40 55 85 56
REMARK SMILES IDX 79 57 81 58 41 59 84 60 78 61 77 62 42 64 68 65 51 66 67 67
REMARK SMILES IDX 52 68 55 69 66 70 82 71 53 72 54 73 65 75 83 76 56 77 43 78
REMARK SMILES IDX 44 79 49 80 45 81 46 82 48 83 50 84 47 85 69 86 70 87 75 88
REMARK SMILES IDX 71 89 72 90 74 91 76 92 73 93 57 94 58 95 63 96 59 97 60 98
REMARK SMILES IDX 62 99 64 100 61 101
REMARK H PARENT 26 5 16 10 23 38 31 44 81 63 55 74
REMARK Flexibility Score: inf
ROOT
ATOM      1  C   UNL A   1      38.202  22.024  25.395  1.00  0.00     0.116 C 
ENDROOT
BRANCH   1   2
ATOM      2  N   UNL A   1      37.560  20.730  25.466  1.00  0.00    -0.354 N 
ATOM      3  C   UNL A   1      36.246  20.430  25.217  1.00  0.00     0.242 C 
ATOM      4  O   UNL A   1      36.021  19.321  24.719  1.00  0.00    -0.273 OA
ATOM      5  H   UNL A   1      38.137  19.974  25.723  1.00  0.00     0.163 HD
BRANCH   3   6
ATOM      6  C   UNL A   1      35.085  21.439  25.435  1.00  0.00     0.177 C 
BRANCH   6   7
ATOM      7  N   UNL A   1      34.626  22.053  24.178  1.00  0.00    -0.337 N 
ATOM      8  C   UNL A   1      34.614  23.360  23.752  1.00  0.00     0.293 C 
ATOM      9  O   UNL A   1      34.375  23.569  22.567  1.00  0.00    -0.265 OA
ATOM     10  H   UNL A   1      34.263  21.413  23.525  1.00  0.00     0.164 HD
BRANCH   8  11
ATOM     11  C   UNL A   1      34.845  24.531  24.734  1.00  0.00     0.252 C 
ATOM     12  O   UNL A   1      35.935  24.622  25.288  1.00  0.00    -0.283 OA
BRANCH  11  13
ATOM     13  C   UNL A   1      33.789  25.498  25.054  1.00  0.00     0.054 A 
ATOM     14  N   UNL A   1      32.602  27.370  25.301  1.00  0.00    -0.240 N 
ATOM     15  C   UNL A   1      33.839  26.877  24.973  1.00  0.00     0.117 A 
ATOM     16  C   UNL A   1      31.727  26.354  25.619  1.00  0.00     0.065 A 
ATOM     17  C   UNL A   1      32.463  25.168  25.509  1.00  0.00     0.012 A 
ATOM     18  C   UNL A   1      30.377  26.352  26.015  1.00  0.00     0.028 A 
ATOM     19  C   UNL A   1      31.825  23.948  25.824  1.00  0.00     0.011 A 
ATOM     20  C   UNL A   1      29.781  25.127  26.332  1.00  0.00     0.002 A 
ATOM     21  C   UNL A   1      30.494  23.939  26.243  1.00  0.00     0.001 A 
BRANCH  14  22
ATOM     22  S   UNL A   1      32.235  29.031  25.347  1.00  0.00     0.268 S 
ATOM     23  O   UNL A   1      33.444  29.699  24.920  1.00  0.00    -0.201 OA
ATOM     24  O   UNL A   1      31.641  29.270  26.654  1.00  0.00    -0.201 OA
BRANCH  22  25
ATOM     25  C   UNL A   1      30.979  29.350  24.139  1.00  0.00     0.088 A 
ATOM     26  C   UNL A   1      28.040  30.528  21.231  1.00  0.00     0.044 C 
ATOM     27  C   UNL A   1      29.049  30.094  22.252  1.00  0.00    -0.051 A 
ATOM     28  C   UNL A   1      29.135  30.767  23.476  1.00  0.00     0.005 A 
ATOM     29  C   UNL A   1      29.913  29.021  21.999  1.00  0.00     0.005 A 
ATOM     30  C   UNL A   1      30.099  30.402  24.415  1.00  0.00     0.022 A 
ATOM     31  C   UNL A   1      30.869  28.637  22.944  1.00  0.00     0.022 A 
ENDBRANCH  22  25
ENDBRANCH  14  22
ENDBRANCH  11  13
ENDBRANCH   8  11
ENDBRANCH   6   7
BRANCH   6  32
ATOM     32  C   UNL A   1      33.931  20.932  26.330  1.00  0.00     0.090 C 
BRANCH  32  33
ATOM     33  C   UNL A   1      33.148  19.812  25.741  1.00  0.00     0.037 A 
ATOM     34  C   UNL A   1      32.553  19.654  24.506  1.00  0.00     0.134 A 
ATOM     35  N   UNL A   1      32.943  18.614  26.383  1.00  0.00    -0.348 N 
ATOM     36  N   UNL A   1      32.222  18.344  24.302  1.00  0.00    -0.245 NA
ATOM     37  C   UNL A   1      32.505  17.739  25.430  1.00  0.00     0.196 A 
ATOM     38  H   UNL A   1      33.083  18.424  27.339  1.00  0.00     0.167 HD
ENDBRANCH  32  33
ENDBRANCH   6  32
ENDBRANCH   3   6
ENDBRANCH   1   2
BRANCH   1  39
ATOM     39  C   UNL A   1      39.240  22.331  26.465  1.00  0.00     0.023 C 
BRANCH  39  40
ATOM     40  C   UNL A   1      40.454  21.415  26.478  1.00  0.00     0.023 C 
BRANCH  40  41
ATOM     41  C   UNL A   1      41.767  22.067  26.076  1.00  0.00     0.116 C 
BRANCH  41  42
ATOM     42  N   UNL A   1      42.716  21.243  25.350  1.00  0.00    -0.352 N 
ATOM     43  C   UNL A   1      43.982  21.564  24.878  1.00  0.00     0.251 C 
ATOM     44  H   UNL A   1      42.420  20.323  25.164  1.00  0.00     0.163 HD
ATOM     45  O   UNL A   1      44.560  20.768  24.140  1.00  0.00    -0.269 OA
BRANCH  43  46
ATOM     46  C   UNL A   1      44.735  22.742  25.406  1.00  0.00     0.039 A 
ATOM     47  C   UNL A   1      45.206  22.662  26.728  1.00  0.00     0.014 A 
ATOM     48  C   UNL A   1      44.644  23.985  24.800  1.00  0.00     0.014 A 
ATOM     49  C   UNL A   1      45.240  23.809  27.512  1.00  0.00     0.010 A 
ATOM     50  C   UNL A   1      44.486  25.084  25.595  1.00  0.00     0.010 A 
ATOM     51  C   UNL A   1      44.736  24.975  26.957  1.00  0.00    -0.014 A 
BRANCH  51  52
ATOM     52  C   UNL A   1      44.456  26.190  27.680  1.00  0.00     0.031 A 
ATOM     53  C   UNL A   1      43.065  26.633  27.723  1.00  0.00     0.074 A 
ATOM     54  C   UNL A   1      45.446  26.731  28.418  1.00  0.00     0.049 A 
ATOM     55  N   UNL A   1      42.719  27.864  27.794  1.00  0.00    -0.248 NA
ATOM     56  C   UNL A   1      41.933  25.711  27.619  1.00  0.00     0.031 C 
ATOM     57  C   UNL A   1      45.386  27.696  29.504  1.00  0.00     0.029 A 
ATOM     58  N   UNL A   1      46.805  26.548  28.210  1.00  0.00    -0.354 N 
ATOM     59  C   UNL A   1      41.380  27.870  28.102  1.00  0.00     0.074 A 
ATOM     60  C   UNL A   1      40.905  26.536  27.832  1.00  0.00     0.031 C 
ATOM     61  C   UNL A   1      46.618  28.208  29.703  1.00  0.00     0.029 A 
ATOM     62  C   UNL A   1      47.483  27.689  28.651  1.00  0.00     0.049 A 
ATOM     63  H   UNL A   1      47.223  25.748  27.818  1.00  0.00     0.167 HD
ATOM     64  C   UNL A   1      40.873  28.940  28.770  1.00  0.00     0.037 A 
ATOM     65  C   UNL A   1      48.165  28.456  27.745  1.00  0.00     0.037 A 
ATOM     66  C   UNL A   1      41.948  29.871  29.100  1.00  0.00     0.049 A 
ATOM     67  C   UNL A   1      47.499  29.794  27.547  1.00  0.00     0.074 A 
ATOM     68  C   UNL A   1      42.727  29.993  30.239  1.00  0.00     0.029 A 
ATOM     69  N   UNL A   1      42.629  30.528  28.083  1.00  0.00    -0.354 N 
ATOM     70  N   UNL A   1      46.225  30.002  27.741  1.00  0.00    -0.248 NA
ATOM     71  C   UNL A   1      48.218  31.005  27.166  1.00  0.00     0.031 C 
ATOM     72  C   UNL A   1      43.890  30.724  29.899  1.00  0.00     0.029 A 
ATOM     73  C   UNL A   1      43.819  31.045  28.556  1.00  0.00     0.049 A 
ATOM     74  H   UNL A   1      42.308  30.613  27.157  1.00  0.00     0.167 HD
ATOM     75  C   UNL A   1      45.946  31.328  27.538  1.00  0.00     0.074 A 
ATOM     76  C   UNL A   1      47.226  31.913  27.183  1.00  0.00     0.031 C 
ATOM     77  C   UNL A   1      44.687  31.833  27.694  1.00  0.00     0.037 A 
BRANCH  64  78
ATOM     78  C   UNL A   1      39.516  28.958  29.414  1.00  0.00     0.057 A 
ATOM     79  C   UNL A   1      38.387  29.402  28.701  1.00  0.00     0.134 A 
ATOM     80  C   UNL A   1      39.257  28.542  30.731  1.00  0.00     0.134 A 
ATOM     81  F   UNL A   1      38.463  29.780  27.419  1.00  0.00    -0.206 F 
ATOM     82  C   UNL A   1      37.113  29.486  29.269  1.00  0.00     0.040 A 
ATOM     83  C   UNL A   1      37.992  28.657  31.326  1.00  0.00     0.040 A 
ATOM     84  F   UNL A   1      40.208  27.972  31.485  1.00  0.00    -0.206 F 
ATOM     85  C   UNL A   1      36.913  29.132  30.593  1.00  0.00     0.006 A 
ENDBRANCH  64  78
BRANCH  65  86
ATOM     86  C   UNL A   1      48.782  27.634  26.659  1.00  0.00     0.057 A 
ATOM     87  C   UNL A   1      48.121  27.596  25.419  1.00  0.00     0.134 A 
ATOM     88  C   UNL A   1      50.152  27.346  26.656  1.00  0.00     0.134 A 
ATOM     89  F   UNL A   1      46.801  27.833  25.360  1.00  0.00    -0.206 F 
ATOM     90  C   UNL A   1      48.821  27.473  24.214  1.00  0.00     0.040 A 
ATOM     91  C   UNL A   1      50.858  27.204  25.455  1.00  0.00     0.040 A 
ATOM     92  F   UNL A   1      50.853  27.350  27.798  1.00  0.00    -0.206 F 
ATOM     93  C   UNL A   1      50.204  27.332  24.230  1.00  0.00     0.006 A 
ENDBRANCH  65  86
BRANCH  77  94
ATOM     94  C   UNL A   1      44.174  33.150  27.161  1.00  0.00     0.057 A 
ATOM     95  C   UNL A   1      43.957  33.421  25.804  1.00  0.00     0.134 A 
ATOM     96  C   UNL A   1      43.721  34.162  28.044  1.00  0.00     0.134 A 
ATOM     97  F   UNL A   1      44.206  32.514  24.852  1.00  0.00    -0.206 F 
ATOM     98  C   UNL A   1      43.407  34.628  25.355  1.00  0.00     0.040 A 
ATOM     99  C   UNL A   1      43.101  35.335  27.611  1.00  0.00     0.040 A 
ATOM    100  F   UNL A   1      43.826  34.052  29.376  1.00  0.00    -0.206 F 
ATOM    101  C   UNL A   1      42.964  35.584  26.258  1.00  0.00     0.006 A 
ENDBRANCH  77  94
ENDBRANCH  51  52
ENDBRANCH  43  46
ENDBRANCH  41  42
ENDBRANCH  40  41
ENDBRANCH  39  40
ENDBRANCH   1  39
TORSDOF 18
ENDMDL
MODEL 2
REMARK VINA RESULT:     -13.0      3.550      9.336
REMARK SMILES Cc1ccc(S(=O)(=O)n2cc(C(=O)C(=O)N[C@@H](Cc3cnc[nH]3)C(=O)NCCCCNC(=O)c3ccc(-c4c5nc(c(-c6c(F)cccc6F)c6ccc([nH]6)c(-c6c(F)cccc6F)c6nc(c(-c7c(F)cccc7F)c7ccc4[nH]7)C=C6)C=C5)cc3)c3ccccc32)cc1
REMARK SMILES IDX 27 1 26 2 24 3 25 4 17 6 16 7 14 8 15 9 12 11 13 12 11 13
REMARK SMILES IDX 9 14 10 15 93 16 88 17 92 18 89 19 91 20 90 21 6 22 7 23
REMARK SMILES IDX 8 24 5 25 1 26 2 27 3 28 95 29 4 30 94 31 18 32 19 33 20 34
REMARK SMILES IDX 23 35 21 36 22 37 28 39 29 40 30 41 31 42 32 43 33 45 34 46
REMARK SMILES IDX 35 47 87 48 36 49 86 50 37 51 38 52 39 53 80 54 40 55 85 56
REMARK SMILES IDX 79 57 81 58 41 59 84 60 78 61 77 62 42 64 68 65 51 66 67 67
REMARK SMILES IDX 52 68 55 69 66 70 82 71 53 72 54 73 65 75 83 76 56 77 43 78
REMARK SMILES IDX 44 79 49 80 45 81 46 82 48 83 50 84 47 85 69 86 70 87 75 88
REMARK SMILES IDX 71 89 72 90 74 91 76 92 73 93 57 94 58 95 63 96 59 97 60 98
REMARK SMILES IDX 62 99 64 100 61 101
REMARK H PARENT 26 5 16 10 23 38 31 44 81 63 55 74
REMARK Flexibility Score: inf
ROOT
ATOM      1  C   UNL A   1      33.328  27.617  25.335  1.00  0.00     0.116 C 
ENDROOT
BRANCH   1   2
ATOM      2  N   UNL A   1      31.889  27.660  25.474  1.00  0.00    -0.354 N 
ATOM      3  C   UNL A   1      30.952  27.752  24.478  1.00  0.00     0.242 C 
ATOM      4  O   UNL A   1      29.880  27.168  24.677  1.00  0.00    -0.273 OA
ATOM      5  H   UNL A   1      31.541  27.619  26.394  1.00  0.00     0.163 HD
BRANCH   3   6
ATOM      6  C   UNL A   1      31.221  28.449  23.115  1.00  0.00     0.177 C 
BRANCH   6   7
ATOM      7  N   UNL A   1      32.392  27.894  22.417  1.00  0.00    -0.337 N 
ATOM      8  C   UNL A   1      32.707  26.610  22.043  1.00  0.00     0.293 C 
ATOM      9  O   UNL A   1      33.651  26.457  21.275  1.00  0.00    -0.265 OA
ATOM     10  H   UNL A   1      33.071  28.563  22.174  1.00  0.00     0.164 HD
BRANCH   8  11
ATOM     11  C   UNL A   1      31.932  25.394  22.601  1.00  0.00     0.252 C 
ATOM     12  O   UNL A   1      30.776  25.219  22.234  1.00  0.00    -0.283 OA
BRANCH  11  13
ATOM     13  C   UNL A   1      32.524  24.480  23.585  1.00  0.00     0.054 A 
ATOM     14  N   UNL A   1      33.928  23.172  24.720  1.00  0.00    -0.240 N 
ATOM     15  C   UNL A   1      33.775  23.893  23.565  1.00  0.00     0.117 A 
ATOM     16  C   UNL A   1      32.799  23.243  25.509  1.00  0.00     0.065 A 
ATOM     17  C   UNL A   1      31.886  24.029  24.795  1.00  0.00     0.012 A 
ATOM     18  C   UNL A   1      32.475  22.682  26.757  1.00  0.00     0.028 A 
ATOM     19  C   UNL A   1      30.604  24.241  25.349  1.00  0.00     0.011 A 
ATOM     20  C   UNL A   1      31.192  22.901  27.269  1.00  0.00     0.002 A 
ATOM     21  C   UNL A   1      30.265  23.666  26.575  1.00  0.00     0.001 A 
BRANCH  14  22
ATOM     22  S   UNL A   1      35.325  22.273  25.088  1.00  0.00     0.268 S 
ATOM     23  O   UNL A   1      35.554  22.489  26.500  1.00  0.00    -0.201 OA
ATOM     24  O   UNL A   1      36.309  22.640  24.081  1.00  0.00    -0.201 OA
BRANCH  22  25
ATOM     25  C   UNL A   1      34.954  20.557  24.852  1.00  0.00     0.088 A 
ATOM     26  C   UNL A   1      33.859  16.505  23.924  1.00  0.00     0.044 C 
ATOM     27  C   UNL A   1      34.242  17.911  24.275  1.00  0.00    -0.051 A 
ATOM     28  C   UNL A   1      33.273  18.922  24.260  1.00  0.00     0.005 A 
ATOM     29  C   UNL A   1      35.562  18.233  24.620  1.00  0.00     0.005 A 
ATOM     30  C   UNL A   1      33.627  20.241  24.541  1.00  0.00     0.022 A 
ATOM     31  C   UNL A   1      35.918  19.550  24.921  1.00  0.00     0.022 A 
ENDBRANCH  22  25
ENDBRANCH  14  22
ENDBRANCH  11  13
ENDBRANCH   8  11
ENDBRANCH   6   7
BRANCH   6  32
ATOM     32  C   UNL A   1      29.982  28.614  22.205  1.00  0.00     0.090 C 
BRANCH  32  33
ATOM     33  C   UNL A   1      29.069  29.717  22.609  1.00  0.00     0.037 A 
ATOM     34  C   UNL A   1      27.711  29.746  22.853  1.00  0.00     0.134 A 
ATOM     35  N   UNL A   1      29.503  30.989  22.900  1.00  0.00    -0.348 N 
ATOM     36  N   UNL A   1      27.369  30.899  23.502  1.00  0.00    -0.245 NA
ATOM     37  C   UNL A   1      28.472  31.604  23.551  1.00  0.00     0.196 A 
ATOM     38  H   UNL A   1      30.381  31.378  22.684  1.00  0.00     0.167 HD
ENDBRANCH  32  33
ENDBRANCH   6  32
ENDBRANCH   3   6
ENDBRANCH   1   2
BRANCH   1  39
ATOM     39  C   UNL A   1      34.119  28.663  26.106  1.00  0.00     0.023 C 
BRANCH  39  40
ATOM     40  C   UNL A   1      33.464  30.031  26.212  1.00  0.00     0.023 C 
BRANCH  40  41
ATOM     41  C   UNL A   1      33.280  30.559  27.624  1.00  0.00     0.116 C 
BRANCH  41  42
ATOM     42  N   UNL A   1      34.178  31.617  28.055  1.00  0.00    -0.352 N 
ATOM     43  C   UNL A   1      35.418  31.523  28.671  1.00  0.00     0.251 C 
ATOM     44  H   UNL A   1      33.862  32.532  27.886  1.00  0.00     0.163 HD
ATOM     45  O   UNL A   1      35.945  32.546  29.105  1.00  0.00    -0.269 OA
BRANCH  43  46
ATOM     46  C   UNL A   1      36.213  30.258  28.635  1.00  0.00     0.039 A 
ATOM     47  C   UNL A   1      36.451  29.614  29.862  1.00  0.00     0.014 A 
ATOM     48  C   UNL A   1      37.005  29.936  27.544  1.00  0.00     0.014 A 
ATOM     49  C   UNL A   1      37.654  28.949  30.063  1.00  0.00     0.010 A 
ATOM     50  C   UNL A   1      38.264  29.460  27.775  1.00  0.00     0.010 A 
ATOM     51  C   UNL A   1      38.597  29.016  29.048  1.00  0.00    -0.014 A 
BRANCH  51  52
ATOM     52  C   UNL A   1      39.976  28.613  29.163  1.00  0.00     0.031 A 
ATOM     53  C   UNL A   1      40.328  27.294  28.643  1.00  0.00     0.074 A 
ATOM     54  C   UNL A   1      40.874  29.534  29.562  1.00  0.00     0.049 A 
ATOM     55  N   UNL A   1      41.269  26.574  29.128  1.00  0.00    -0.248 NA
ATOM     56  C   UNL A   1      39.591  26.643  27.559  1.00  0.00     0.031 C 
ATOM     57  C   UNL A   1      42.322  29.550  29.429  1.00  0.00     0.029 A 
ATOM     58  N   UNL A   1      40.596  30.665  30.316  1.00  0.00    -0.354 N 
ATOM     59  C   UNL A   1      41.488  25.565  28.221  1.00  0.00     0.074 A 
ATOM     60  C   UNL A   1      40.336  25.554  27.354  1.00  0.00     0.031 C 
ATOM     61  C   UNL A   1      42.828  30.475  30.271  1.00  0.00     0.029 A 
ATOM     62  C   UNL A   1      41.726  30.984  31.077  1.00  0.00     0.049 A 
ATOM     63  H   UNL A   1      39.746  31.160  30.315  1.00  0.00     0.167 HD
ATOM     64  C   UNL A   1      42.724  25.003  28.163  1.00  0.00     0.037 A 
ATOM     65  C   UNL A   1      41.655  30.918  32.443  1.00  0.00     0.037 A 
ATOM     66  C   UNL A   1      43.623  25.691  29.083  1.00  0.00     0.049 A 
ATOM     67  C   UNL A   1      42.488  29.783  32.982  1.00  0.00     0.074 A 
ATOM     68  C   UNL A   1      44.497  26.747  28.881  1.00  0.00     0.029 A 
ATOM     69  N   UNL A   1      43.398  25.622  30.452  1.00  0.00    -0.354 N 
ATOM     70  N   UNL A   1      42.775  28.710  32.296  1.00  0.00    -0.248 NA
ATOM     71  C   UNL A   1      43.101  29.789  34.305  1.00  0.00     0.031 C 
ATOM     72  C   UNL A   1      44.790  27.322  30.141  1.00  0.00     0.029 A 
ATOM     73  C   UNL A   1      44.096  26.616  31.107  1.00  0.00     0.049 A 
ATOM     74  H   UNL A   1      42.820  24.957  30.892  1.00  0.00     0.167 HD
ATOM     75  C   UNL A   1      43.596  27.903  33.040  1.00  0.00     0.074 A 
ATOM     76  C   UNL A   1      43.772  28.623  34.287  1.00  0.00     0.031 C 
ATOM     77  C   UNL A   1      44.070  26.716  32.558  1.00  0.00     0.037 A 
BRANCH  64  78
ATOM     78  C   UNL A   1      43.184  24.106  27.048  1.00  0.00     0.057 A 
ATOM     79  C   UNL A   1      43.716  24.646  25.863  1.00  0.00     0.134 A 
ATOM     80  C   UNL A   1      43.136  22.702  27.088  1.00  0.00     0.134 A 
ATOM     81  F   UNL A   1      43.876  25.966  25.695  1.00  0.00    -0.206 F 
ATOM     82  C   UNL A   1      44.111  23.859  24.778  1.00  0.00     0.040 A 
ATOM     83  C   UNL A   1      43.493  21.902  25.993  1.00  0.00     0.040 A 
ATOM     84  F   UNL A   1      42.778  22.046  28.201  1.00  0.00    -0.206 F 
ATOM     85  C   UNL A   1      43.982  22.481  24.830  1.00  0.00     0.006 A 
ENDBRANCH  64  78
BRANCH  65  86
ATOM     86  C   UNL A   1      40.310  31.318  32.959  1.00  0.00     0.057 A 
ATOM     87  C   UNL A   1      39.437  30.290  33.359  1.00  0.00     0.134 A 
ATOM     88  C   UNL A   1      40.091  32.586  33.511  1.00  0.00     0.134 A 
ATOM     89  F   UNL A   1      39.576  29.059  32.843  1.00  0.00    -0.206 F 
ATOM     90  C   UNL A   1      38.521  30.466  34.401  1.00  0.00     0.040 A 
ATOM     91  C   UNL A   1      39.163  32.774  34.543  1.00  0.00     0.040 A 
ATOM     92  F   UNL A   1      40.872  33.621  33.173  1.00  0.00    -0.206 F 
ATOM     93  C   UNL A   1      38.422  31.700  35.034  1.00  0.00     0.006 A 
ENDBRANCH  65  86
BRANCH  77  94
ATOM     94  C   UNL A   1      44.657  25.587  33.372  1.00  0.00     0.057 A 
ATOM     95  C   UNL A   1      46.009  25.220  33.351  1.00  0.00     0.134 A 
ATOM     96  C   UNL A   1      43.880  24.918  34.350  1.00  0.00     0.134 A 
ATOM     97  F   UNL A   1      46.902  25.850  32.579  1.00  0.00    -0.206 F 
ATOM     98  C   UNL A   1      46.531  24.217  34.177  1.00  0.00     0.040 A 
ATOM     99  C   UNL A   1      44.406  23.972  35.232  1.00  0.00     0.040 A 
ATOM    100  F   UNL A   1      42.574  25.168  34.524  1.00  0.00    -0.206 F 
ATOM    101  C   UNL A   1      45.734  23.600  35.132  1.00  0.00     0.006 A 
ENDBRANCH  77  94
ENDBRANCH  51  52
ENDBRANCH  43  46
ENDBRANCH  41  42
ENDBRANCH  40  41
ENDBRANCH  39  40
ENDBRANCH   1  39
TORSDOF 18
ENDMDL
MODEL 3
REMARK VINA RESULT:     -12.3      5.939     11.070
REMARK SMILES Cc1ccc(S(=O)(=O)n2cc(C(=O)C(=O)N[C@@H](Cc3cnc[nH]3)C(=O)NCCCCNC(=O)c3ccc(-c4c5nc(c(-c6c(F)cccc6F)c6ccc([nH]6)c(-c6c(F)cccc6F)c6nc(c(-c7c(F)cccc7F)c7ccc4[nH]7)C=C6)C=C5)cc3)c3ccccc32)cc1
REMARK SMILES IDX 27 1 26 2 24 3 25 4 17 6 16 7 14 8 15 9 12 11 13 12 11 13
REMARK SMILES IDX 9 14 10 15 93 16 88 17 92 18 89 19 91 20 90 21 6 22 7 23
REMARK SMILES IDX 8 24 5 25 1 26 2 27 3 28 95 29 4 30 94 31 18 32 19 33 20 34
REMARK SMILES IDX 23 35 21 36 22 37 28 39 29 40 30 41 31 42 32 43 33 45 34 46
REMARK SMILES IDX 35 47 87 48 36 49 86 50 37 51 38 52 39 53 80 54 40 55 85 56
REMARK SMILES IDX 79 57 81 58 41 59 84 60 78 61 77 62 42 64 68 65 51 66 67 67
REMARK SMILES IDX 52 68 55 69 66 70 82 71 53 72 54 73 65 75 83 76 56 77 43 78
REMARK SMILES IDX 44 79 49 80 45 81 46 82 48 83 50 84 47 85 69 86 70 87 75 88
REMARK SMILES IDX 71 89 72 90 74 91 76 92 73 93 57 94 58 95 63 96 59 97 60 98
REMARK SMILES IDX 62 99 64 100 61 101
REMARK H PARENT 26 5 16 10 23 38 31 44 81 63 55 74
REMARK Flexibility Score: inf
ROOT
ATOM      1  C   UNL A   1      39.696  34.040  32.750  1.00  0.00     0.116 C 
ENDROOT
BRANCH   1   2
ATOM      2  N   UNL A   1      40.106  34.197  31.373  1.00  0.00    -0.354 N 
ATOM      3  C   UNL A   1      39.306  34.344  30.269  1.00  0.00     0.242 C 
ATOM      4  O   UNL A   1      39.748  35.058  29.362  1.00  0.00    -0.273 OA
ATOM      5  H   UNL A   1      41.077  34.199  31.207  1.00  0.00     0.163 HD
BRANCH   3   6
ATOM      6  C   UNL A   1      37.873  33.751  30.171  1.00  0.00     0.177 C 
BRANCH   6   7
ATOM      7  N   UNL A   1      36.873  34.566  30.882  1.00  0.00    -0.337 N 
ATOM      8  C   UNL A   1      35.933  34.235  31.826  1.00  0.00     0.293 C 
ATOM      9  O   UNL A   1      35.372  35.153  32.415  1.00  0.00    -0.265 OA
ATOM     10  H   UNL A   1      36.881  35.518  30.636  1.00  0.00     0.164 HD
BRANCH   8  11
ATOM     11  C   UNL A   1      35.556  32.762  32.110  1.00  0.00     0.252 C 
ATOM     12  O   UNL A   1      34.410  32.397  31.874  1.00  0.00    -0.283 OA
BRANCH  11  13
ATOM     13  C   UNL A   1      36.512  31.814  32.693  1.00  0.00     0.054 A 
ATOM     14  N   UNL A   1      37.929  30.121  33.007  1.00  0.00    -0.240 N 
ATOM     15  C   UNL A   1      37.014  30.653  32.136  1.00  0.00     0.117 A 
ATOM     16  C   UNL A   1      38.040  30.888  34.147  1.00  0.00     0.065 A 
ATOM     17  C   UNL A   1      37.127  31.938  33.989  1.00  0.00     0.012 A 
ATOM     18  C   UNL A   1      38.825  30.758  35.307  1.00  0.00     0.028 A 
ATOM     19  C   UNL A   1      36.989  32.873  35.040  1.00  0.00     0.011 A 
ATOM     20  C   UNL A   1      38.653  31.693  36.332  1.00  0.00     0.002 A 
ATOM     21  C   UNL A   1      37.745  32.736  36.204  1.00  0.00     0.001 A 
BRANCH  14  22
ATOM     22  S   UNL A   1      38.773  28.673  32.713  1.00  0.00     0.268 S 
ATOM     23  O   UNL A   1      37.780  27.627  32.820  1.00  0.00    -0.201 OA
ATOM     24  O   UNL A   1      39.946  28.716  33.575  1.00  0.00    -0.201 OA
BRANCH  22  25
ATOM     25  C   UNL A   1      39.356  28.704  31.041  1.00  0.00     0.088 A 
ATOM     26  C   UNL A   1      40.383  28.889  26.871  1.00  0.00     0.044 C 
ATOM     27  C   UNL A   1      40.046  28.806  28.329  1.00  0.00    -0.051 A 
ATOM     28  C   UNL A   1      38.928  28.073  28.746  1.00  0.00     0.005 A 
ATOM     29  C   UNL A   1      40.836  29.454  29.288  1.00  0.00     0.005 A 
ATOM     30  C   UNL A   1      38.579  28.026  30.095  1.00  0.00     0.022 A 
ATOM     31  C   UNL A   1      40.503  29.394  30.644  1.00  0.00     0.022 A 
ENDBRANCH  22  25
ENDBRANCH  14  22
ENDBRANCH  11  13
ENDBRANCH   8  11
ENDBRANCH   6   7
BRANCH   6  32
ATOM     32  C   UNL A   1      37.430  33.334  28.749  1.00  0.00     0.090 C 
BRANCH  32  33
ATOM     33  C   UNL A   1      35.976  33.049  28.622  1.00  0.00     0.037 A 
ATOM     34  C   UNL A   1      34.915  33.833  28.216  1.00  0.00     0.134 A 
ATOM     35  N   UNL A   1      35.427  31.808  28.843  1.00  0.00    -0.348 N 
ATOM     36  N   UNL A   1      33.821  33.056  27.957  1.00  0.00    -0.245 NA
ATOM     37  C   UNL A   1      34.172  31.843  28.304  1.00  0.00     0.196 A 
ATOM     38  H   UNL A   1      35.853  31.046  29.299  1.00  0.00     0.167 HD
ENDBRANCH  32  33
ENDBRANCH   6  32
ENDBRANCH   3   6
ENDBRANCH   1   2
BRANCH   1  39
ATOM     39  C   UNL A   1      40.725  34.392  33.814  1.00  0.00     0.023 C 
BRANCH  39  40
ATOM     40  C   UNL A   1      41.360  33.208  34.526  1.00  0.00     0.023 C 
BRANCH  40  41
ATOM     41  C   UNL A   1      42.405  33.559  35.571  1.00  0.00     0.116 C 
BRANCH  41  42
ATOM     42  N   UNL A   1      42.102  33.214  36.949  1.00  0.00    -0.352 N 
ATOM     43  C   UNL A   1      42.132  31.976  37.574  1.00  0.00     0.251 C 
ATOM     44  H   UNL A   1      41.836  33.968  37.522  1.00  0.00     0.163 HD
ATOM     45  O   UNL A   1      41.678  31.874  38.712  1.00  0.00    -0.269 OA
BRANCH  43  46
ATOM     46  C   UNL A   1      42.881  30.824  36.986  1.00  0.00     0.039 A 
ATOM     47  C   UNL A   1      44.281  30.937  36.918  1.00  0.00     0.014 A 
ATOM     48  C   UNL A   1      42.245  29.877  36.199  1.00  0.00     0.014 A 
ATOM     49  C   UNL A   1      44.961  30.371  35.846  1.00  0.00     0.010 A 
ATOM     50  C   UNL A   1      42.856  29.478  35.044  1.00  0.00     0.010 A 
ATOM     51  C   UNL A   1      44.200  29.774  34.853  1.00  0.00    -0.014 A 
BRANCH  51  52
ATOM     52  C   UNL A   1      44.690  29.359  33.562  1.00  0.00     0.031 A 
ATOM     53  C   UNL A   1      44.410  30.240  32.431  1.00  0.00     0.074 A 
ATOM     54  C   UNL A   1      45.522  28.301  33.510  1.00  0.00     0.049 A 
ATOM     55  N   UNL A   1      44.252  29.819  31.233  1.00  0.00    -0.248 NA
ATOM     56  C   UNL A   1      44.218  31.683  32.576  1.00  0.00     0.031 C 
ATOM     57  C   UNL A   1      46.440  27.880  32.463  1.00  0.00     0.029 A 
ATOM     58  N   UNL A   1      45.601  27.284  34.450  1.00  0.00    -0.354 N 
ATOM     59  C   UNL A   1      44.298  30.930  30.425  1.00  0.00     0.074 A 
ATOM     60  C   UNL A   1      44.122  32.063  31.298  1.00  0.00     0.031 C 
ATOM     61  C   UNL A   1      46.798  26.599  32.685  1.00  0.00     0.029 A 
ATOM     62  C   UNL A   1      46.006  26.110  33.806  1.00  0.00     0.049 A 
ATOM     63  H   UNL A   1      45.404  27.373  35.410  1.00  0.00     0.167 HD
ATOM     64  C   UNL A   1      44.711  30.779  29.138  1.00  0.00     0.037 A 
ATOM     65  C   UNL A   1      45.151  25.042  33.758  1.00  0.00     0.037 A 
ATOM     66  C   UNL A   1      45.110  29.395  28.907  1.00  0.00     0.049 A 
ATOM     67  C   UNL A   1      44.656  24.798  32.355  1.00  0.00     0.074 A 
ATOM     68  C   UNL A   1      46.350  28.781  28.990  1.00  0.00     0.029 A 
ATOM     69  N   UNL A   1      44.162  28.381  28.970  1.00  0.00    -0.354 N 
ATOM     70  N   UNL A   1      44.577  25.730  31.445  1.00  0.00    -0.248 NA
ATOM     71  C   UNL A   1      44.260  23.485  31.856  1.00  0.00     0.031 C 
ATOM     72  C   UNL A   1      46.141  27.386  29.113  1.00  0.00     0.029 A 
ATOM     73  C   UNL A   1      44.778  27.153  29.105  1.00  0.00     0.049 A 
ATOM     74  H   UNL A   1      43.189  28.520  28.926  1.00  0.00     0.167 HD
ATOM     75  C   UNL A   1      44.152  25.178  30.266  1.00  0.00     0.074 A 
ATOM     76  C   UNL A   1      43.969  23.772  30.574  1.00  0.00     0.031 C 
ATOM     77  C   UNL A   1      43.998  25.925  29.133  1.00  0.00     0.037 A 
BRANCH  64  78
ATOM     78  C   UNL A   1      45.079  31.924  28.238  1.00  0.00     0.057 A 
ATOM     79  C   UNL A   1      46.170  32.758  28.545  1.00  0.00     0.134 A 
ATOM     80  C   UNL A   1      44.403  32.250  27.051  1.00  0.00     0.134 A 
ATOM     81  F   UNL A   1      46.947  32.543  29.616  1.00  0.00    -0.206 F 
ATOM     82  C   UNL A   1      46.524  33.866  27.769  1.00  0.00     0.040 A 
ATOM     83  C   UNL A   1      44.722  33.380  26.283  1.00  0.00     0.040 A 
ATOM     84  F   UNL A   1      43.429  31.467  26.563  1.00  0.00    -0.206 F 
ATOM     85  C   UNL A   1      45.787  34.194  26.643  1.00  0.00     0.006 A 
ENDBRANCH  64  78
BRANCH  65  86
ATOM     86  C   UNL A   1      44.320  24.927  34.996  1.00  0.00     0.057 A 
ATOM     87  C   UNL A   1      44.937  24.398  36.143  1.00  0.00     0.134 A 
ATOM     88  C   UNL A   1      43.200  25.742  35.198  1.00  0.00     0.134 A 
ATOM     89  F   UNL A   1      45.997  23.585  36.015  1.00  0.00    -0.206 F 
ATOM     90  C   UNL A   1      44.581  24.815  37.430  1.00  0.00     0.040 A 
ATOM     91  C   UNL A   1      42.826  26.151  36.484  1.00  0.00     0.040 A 
ATOM     92  F   UNL A   1      42.549  26.277  34.155  1.00  0.00    -0.206 F 
ATOM     93  C   UNL A   1      43.556  25.740  37.598  1.00  0.00     0.006 A 
ENDBRANCH  65  86
BRANCH  77  94
ATOM     94  C   UNL A   1      43.209  25.542  27.904  1.00  0.00     0.057 A 
ATOM     95  C   UNL A   1      41.811  25.473  27.854  1.00  0.00     0.134 A 
ATOM     96  C   UNL A   1      43.852  25.379  26.651  1.00  0.00     0.134 A 
ATOM     97  F   UNL A   1      41.050  25.735  28.924  1.00  0.00    -0.206 F 
ATOM     98  C   UNL A   1      41.111  25.189  26.675  1.00  0.00     0.040 A 
ATOM     99  C   UNL A   1      43.160  25.173  25.456  1.00  0.00     0.040 A 
ATOM    100  F   UNL A   1      45.184  25.443  26.514  1.00  0.00    -0.206 F 
ATOM    101  C   UNL A   1      41.783  25.052  25.468  1.00  0.00     0.006 A 
ENDBRANCH  77  94
ENDBRANCH  51  52
ENDBRANCH  43  46
ENDBRANCH  41  42
ENDBRANCH  40  41
ENDBRANCH  39  40
ENDBRANCH   1  39
TORSDOF 18
ENDMDL
