MODEL 1
REMARK VINA RESULT:     -13.4      0.000      0.000
REMARK SMILES CC[C@@]1(C)NC(=O)N(/N=C/c2ccccc2C(=O)NCCCCNC(=O)c2ccc(-c3c4nc(c(-c5c(F)cccc5F)c5ccc([nH]5)c(-c5c(F)cccc5F)c5nc(c(-c6c(F)cccc6F)c6ccc3[nH]6)C=C5)C=C4)cc2)C1=O
REMARK SMILES IDX 21 1 20 2 19 3 17 4 18 5 16 7 11 8 12 9 13 10 15 11 14 12
REMARK SMILES IDX 10 13 9 14 8 15 3 16 4 17 5 18 81 19 6 20 82 22 7 23 2 24
REMARK SMILES IDX 1 25 22 26 23 27 24 28 25 29 26 31 27 32 28 33 80 34 29 35
REMARK SMILES IDX 79 36 30 37 31 38 32 39 73 40 33 41 78 42 72 43 74 44 34 45
REMARK SMILES IDX 77 46 71 47 70 48 35 50 61 51 44 52 60 53 45 54 48 55 59 56
REMARK SMILES IDX 75 57 46 58 47 59 58 61 76 62 49 63 36 64 37 65 42 66 38 67
REMARK SMILES IDX 39 68 41 69 43 70 40 71 62 72 63 73 68 74 64 75 65 76 67 77
REMARK SMILES IDX 69 78 66 79 50 80 51 81 56 82 52 83 53 84 55 85 57 86 54 87
REMARK H PARENT 19 6 5 21 24 30 74 49 48 60
REMARK Flexibility Score: inf
ROOT
ATOM      1  C   UNL A   1      33.089  28.127  25.292  1.00  0.00     0.023 C 
ENDROOT
BRANCH   1   2
ATOM      2  C   UNL A   1      33.308  28.517  23.803  1.00  0.00     0.116 C 
BRANCH   2   3
ATOM      3  N   UNL A   1      33.060  27.473  22.810  1.00  0.00    -0.352 N 
ATOM      4  C   UNL A   1      31.841  27.091  22.268  1.00  0.00     0.251 C 
ATOM      5  O   UNL A   1      31.750  26.096  21.557  1.00  0.00    -0.269 OA
ATOM      6  H   UNL A   1      33.851  26.984  22.488  1.00  0.00     0.163 HD
BRANCH   4   7
ATOM      7  C   UNL A   1      30.611  27.784  22.703  1.00  0.00     0.048 A 
ATOM      8  C   UNL A   1      29.622  27.203  23.510  1.00  0.00     0.007 A 
ATOM      9  C   UNL A   1      28.344  27.795  23.509  1.00  0.00     0.010 A 
ATOM     10  C   UNL A   1      28.096  28.983  22.804  1.00  0.00     0.001 A 
ATOM     11  C   UNL A   1      30.386  29.025  22.074  1.00  0.00     0.014 A 
ATOM     12  C   UNL A   1      29.127  29.622  22.123  1.00  0.00     0.001 A 
BRANCH   8  13
ATOM     13  C   UNL A   1      29.755  25.878  24.190  1.00  0.00     0.143 C 
ATOM     14  N   UNL A   1      30.521  25.645  25.215  1.00  0.00    -0.169 NA
BRANCH  14  15
ATOM     15  N   UNL A   1      31.055  24.316  25.287  1.00  0.00    -0.146 N 
ATOM     16  C   UNL A   1      33.475  22.550  25.854  1.00  0.00     0.120 C 
ATOM     17  C   UNL A   1      33.580  21.556  24.517  1.00  0.00     0.045 C 
ATOM     18  N   UNL A   1      32.043  22.280  27.175  1.00  0.00    -0.322 N 
ATOM     19  C   UNL A   1      32.807  24.095  24.797  1.00  0.00     0.276 C 
ATOM     20  C   UNL A   1      30.450  23.247  26.707  1.00  0.00     0.346 C 
ATOM     21  H   UNL A   1      32.131  21.717  27.978  1.00  0.00     0.166 HD
ATOM     22  O   UNL A   1      33.482  24.840  24.098  1.00  0.00    -0.270 OA
ATOM     23  O   UNL A   1      29.445  23.354  27.393  1.00  0.00    -0.246 OA
BRANCH  16  24
ATOM     24  C   UNL A   1      34.892  22.267  26.488  1.00  0.00     0.035 C 
ATOM     25  C   UNL A   1      35.988  21.516  25.702  1.00  0.00     0.007 C 
ENDBRANCH  16  24
ENDBRANCH  14  15
ENDBRANCH   8  13
ENDBRANCH   4   7
ENDBRANCH   2   3
ENDBRANCH   1   2
BRANCH   1  26
ATOM     26  C   UNL A   1      31.856  28.693  26.072  1.00  0.00     0.023 C 
BRANCH  26  27
ATOM     27  C   UNL A   1      31.535  30.249  25.790  1.00  0.00     0.116 C 
BRANCH  27  28
ATOM     28  N   UNL A   1      31.642  32.160  26.718  1.00  0.00    -0.352 N 
ATOM     29  C   UNL A   1      32.617  33.111  27.470  1.00  0.00     0.251 C 
ATOM     30  H   UNL A   1      30.763  32.598  26.647  1.00  0.00     0.163 HD
ATOM     31  O   UNL A   1      32.236  34.272  27.633  1.00  0.00    -0.269 OA
BRANCH  29  32
ATOM     32  C   UNL A   1      34.014  32.744  27.977  1.00  0.00     0.039 A 
ATOM     33  C   UNL A   1      35.059  33.675  28.133  1.00  0.00     0.014 A 
ATOM     34  C   UNL A   1      34.198  31.460  28.496  1.00  0.00     0.014 A 
ATOM     35  C   UNL A   1      36.222  33.346  28.881  1.00  0.00     0.010 A 
ATOM     36  C   UNL A   1      35.314  31.165  29.296  1.00  0.00     0.010 A 
ATOM     37  C   UNL A   1      36.354  32.092  29.500  1.00  0.00    -0.014 A 
BRANCH  37  38
ATOM     38  C   UNL A   1      37.578  31.632  30.254  1.00  0.00     0.031 A 
ATOM     39  C   UNL A   1      38.492  30.621  29.590  1.00  0.00     0.074 A 
ATOM     40  C   UNL A   1      37.857  31.985  31.530  1.00  0.00     0.049 A 
ATOM     41  N   UNL A   1      39.470  29.906  30.095  1.00  0.00    -0.248 NA
ATOM     42  C   UNL A   1      38.240  30.366  28.164  1.00  0.00     0.031 C 
ATOM     43  C   UNL A   1      37.110  32.945  32.340  1.00  0.00     0.029 A 
ATOM     44  N   UNL A   1      38.846  31.537  32.389  1.00  0.00    -0.354 N 
ATOM     45  C   UNL A   1      39.912  29.087  29.059  1.00  0.00     0.074 A 
ATOM     46  C   UNL A   1      39.068  29.363  27.918  1.00  0.00     0.031 C 
ATOM     47  C   UNL A   1      37.656  33.007  33.569  1.00  0.00     0.029 A 
ATOM     48  C   UNL A   1      38.769  32.060  33.662  1.00  0.00     0.049 A 
ATOM     49  H   UNL A   1      39.543  30.899  32.115  1.00  0.00     0.167 HD
ATOM     50  C   UNL A   1      40.935  28.197  29.039  1.00  0.00     0.037 A 
ATOM     51  C   UNL A   1      39.484  31.798  34.781  1.00  0.00     0.037 A 
ATOM     52  C   UNL A   1      41.810  27.924  30.149  1.00  0.00     0.049 A 
ATOM     53  C   UNL A   1      40.588  30.761  34.758  1.00  0.00     0.074 A 
ATOM     54  C   UNL A   1      42.905  27.078  30.193  1.00  0.00     0.029 A 
ATOM     55  N   UNL A   1      41.688  28.484  31.409  1.00  0.00    -0.354 N 
ATOM     56  N   UNL A   1      41.021  30.032  33.759  1.00  0.00    -0.248 NA
ATOM     57  C   UNL A   1      41.298  30.507  36.026  1.00  0.00     0.031 C 
ATOM     58  C   UNL A   1      43.411  27.081  31.496  1.00  0.00     0.029 A 
ATOM     59  C   UNL A   1      42.668  27.976  32.247  1.00  0.00     0.049 A 
ATOM     60  H   UNL A   1      41.006  29.143  31.672  1.00  0.00     0.167 HD
ATOM     61  C   UNL A   1      42.064  29.261  34.267  1.00  0.00     0.074 A 
ATOM     62  C   UNL A   1      42.212  29.619  35.660  1.00  0.00     0.031 C 
ATOM     63  C   UNL A   1      42.828  28.339  33.632  1.00  0.00     0.037 A 
BRANCH  50  64
ATOM     64  C   UNL A   1      41.161  27.437  27.761  1.00  0.00     0.057 A 
ATOM     65  C   UNL A   1      41.964  27.941  26.729  1.00  0.00     0.134 A 
ATOM     66  C   UNL A   1      40.586  26.173  27.571  1.00  0.00     0.134 A 
ATOM     67  F   UNL A   1      42.538  29.148  26.843  1.00  0.00    -0.206 F 
ATOM     68  C   UNL A   1      42.151  27.238  25.538  1.00  0.00     0.040 A 
ATOM     69  C   UNL A   1      40.795  25.445  26.399  1.00  0.00     0.040 A 
ATOM     70  F   UNL A   1      39.819  25.621  28.524  1.00  0.00    -0.206 F 
ATOM     71  C   UNL A   1      41.570  25.982  25.374  1.00  0.00     0.006 A 
ENDBRANCH  50  64
BRANCH  51  72
ATOM     72  C   UNL A   1      39.190  32.516  36.056  1.00  0.00     0.057 A 
ATOM     73  C   UNL A   1      38.308  31.978  37.004  1.00  0.00     0.134 A 
ATOM     74  C   UNL A   1      39.732  33.776  36.335  1.00  0.00     0.134 A 
ATOM     75  F   UNL A   1      37.719  30.794  36.783  1.00  0.00    -0.206 F 
ATOM     76  C   UNL A   1      37.971  32.668  38.173  1.00  0.00     0.040 A 
ATOM     77  C   UNL A   1      39.425  34.465  37.512  1.00  0.00     0.040 A 
ATOM     78  F   UNL A   1      40.571  34.360  35.466  1.00  0.00    -0.206 F 
ATOM     79  C   UNL A   1      38.537  33.913  38.432  1.00  0.00     0.006 A 
ENDBRANCH  51  72
BRANCH  63  80
ATOM     80  C   UNL A   1      43.925  27.663  34.411  1.00  0.00     0.057 A 
ATOM     81  C   UNL A   1      43.738  26.424  35.035  1.00  0.00     0.134 A 
ATOM     82  C   UNL A   1      45.207  28.227  34.472  1.00  0.00     0.134 A 
ATOM     83  F   UNL A   1      42.534  25.831  35.023  1.00  0.00    -0.206 F 
ATOM     84  C   UNL A   1      44.781  25.774  35.701  1.00  0.00     0.040 A 
ATOM     85  C   UNL A   1      46.264  27.575  35.111  1.00  0.00     0.040 A 
ATOM     86  F   UNL A   1      45.462  29.406  33.888  1.00  0.00    -0.206 F 
ATOM     87  C   UNL A   1      46.052  26.346  35.731  1.00  0.00     0.006 A 
ENDBRANCH  63  80
ENDBRANCH  37  38
ENDBRANCH  29  32
ENDBRANCH  27  28
ENDBRANCH  26  27
ENDBRANCH   1  26
TORSDOF 14
ENDMDL
MODEL 2
REMARK VINA RESULT:     -13.0      0.769      6.267
REMARK SMILES CC[C@@]1(C)NC(=O)N(/N=C/c2ccccc2C(=O)NCCCCNC(=O)c2ccc(-c3c4nc(c(-c5c(F)cccc5F)c5ccc([nH]5)c(-c5c(F)cccc5F)c5nc(c(-c6c(F)cccc6F)c6ccc3[nH]6)C=C5)C=C4)cc2)C1=O
REMARK SMILES IDX 21 1 20 2 19 3 17 4 18 5 16 7 11 8 12 9 13 10 15 11 14 12
REMARK SMILES IDX 10 13 9 14 8 15 3 16 4 17 5 18 81 19 6 20 82 22 7 23 2 24
REMARK SMILES IDX 1 25 22 26 23 27 24 28 25 29 26 31 27 32 28 33 80 34 29 35
REMARK SMILES IDX 79 36 30 37 31 38 32 39 73 40 33 41 78 42 72 43 74 44 34 45
REMARK SMILES IDX 77 46 71 47 70 48 35 50 61 51 44 52 60 53 45 54 48 55 59 56
REMARK SMILES IDX 75 57 46 58 47 59 58 61 76 62 49 63 36 64 37 65 42 66 38 67
REMARK SMILES IDX 39 68 41 69 43 70 40 71 62 72 63 73 68 74 64 75 65 76 67 77
REMARK SMILES IDX 69 78 66 79 50 80 51 81 56 82 52 83 53 84 55 85 57 86 54 87
REMARK H PARENT 19 6 5 21 24 30 74 49 48 60
REMARK Flexibility Score: inf
ROOT
ATOM      1  C   UNL A   1      33.268  28.825  24.641  1.00  0.00     0.023 C 
ENDROOT
BRANCH   1   2
ATOM      2  C   UNL A   1      33.060  29.027  23.114  1.00  0.00     0.116 C 
BRANCH   2   3
ATOM      3  N   UNL A   1      32.778  27.828  22.327  1.00  0.00    -0.352 N 
ATOM      4  C   UNL A   1      31.540  27.264  22.056  1.00  0.00     0.251 C 
ATOM      5  O   UNL A   1      31.450  26.169  21.512  1.00  0.00    -0.269 OA
ATOM      6  H   UNL A   1      33.558  27.367  21.945  1.00  0.00     0.163 HD
BRANCH   4   7
ATOM      7  C   UNL A   1      30.323  27.905  22.597  1.00  0.00     0.048 A 
ATOM      8  C   UNL A   1      29.422  27.277  23.470  1.00  0.00     0.007 A 
ATOM      9  C   UNL A   1      28.128  27.821  23.577  1.00  0.00     0.010 A 
ATOM     10  C   UNL A   1      27.782  29.008  22.912  1.00  0.00     0.001 A 
ATOM     11  C   UNL A   1      30.004  29.144  22.006  1.00  0.00     0.014 A 
ATOM     12  C   UNL A   1      28.732  29.693  22.163  1.00  0.00     0.001 A 
BRANCH   8  13
ATOM     13  C   UNL A   1      29.657  25.949  24.117  1.00  0.00     0.143 C 
ATOM     14  N   UNL A   1      30.322  25.770  25.220  1.00  0.00    -0.169 NA
BRANCH  14  15
ATOM     15  N   UNL A   1      31.022  24.522  25.313  1.00  0.00    -0.146 N 
ATOM     16  C   UNL A   1      33.642  23.089  25.933  1.00  0.00     0.120 C 
ATOM     17  C   UNL A   1      33.895  22.106  24.608  1.00  0.00     0.045 C 
ATOM     18  N   UNL A   1      32.236  22.646  27.236  1.00  0.00    -0.322 N 
ATOM     19  C   UNL A   1      32.795  24.526  24.851  1.00  0.00     0.276 C 
ATOM     20  C   UNL A   1      30.538  23.396  26.735  1.00  0.00     0.346 C 
ATOM     21  H   UNL A   1      32.383  22.106  28.046  1.00  0.00     0.166 HD
ATOM     22  O   UNL A   1      33.380  25.347  24.154  1.00  0.00    -0.270 OA
ATOM     23  O   UNL A   1      29.517  23.377  27.405  1.00  0.00    -0.246 OA
BRANCH  16  24
ATOM     24  C   UNL A   1      35.073  22.997  26.590  1.00  0.00     0.035 C 
ATOM     25  C   UNL A   1      36.325  23.542  25.869  1.00  0.00     0.007 C 
ENDBRANCH  16  24
ENDBRANCH  14  15
ENDBRANCH   8  13
ENDBRANCH   4   7
ENDBRANCH   2   3
ENDBRANCH   1   2
BRANCH   1  26
ATOM     26  C   UNL A   1      32.038  28.871  25.608  1.00  0.00     0.023 C 
BRANCH  26  27
ATOM     27  C   UNL A   1      31.357  30.326  25.766  1.00  0.00     0.116 C 
BRANCH  27  28
ATOM     28  N   UNL A   1      31.651  32.200  26.729  1.00  0.00    -0.352 N 
ATOM     29  C   UNL A   1      32.721  33.046  27.476  1.00  0.00     0.251 C 
ATOM     30  H   UNL A   1      30.812  32.713  26.689  1.00  0.00     0.163 HD
ATOM     31  O   UNL A   1      32.446  34.231  27.672  1.00  0.00    -0.269 OA
BRANCH  29  32
ATOM     32  C   UNL A   1      34.093  32.548  27.941  1.00  0.00     0.039 A 
ATOM     33  C   UNL A   1      35.072  33.381  28.518  1.00  0.00     0.014 A 
ATOM     34  C   UNL A   1      34.304  31.168  27.975  1.00  0.00     0.014 A 
ATOM     35  C   UNL A   1      36.190  32.826  29.199  1.00  0.00     0.010 A 
ATOM     36  C   UNL A   1      35.368  30.625  28.712  1.00  0.00     0.010 A 
ATOM     37  C   UNL A   1      36.340  31.436  29.331  1.00  0.00    -0.014 A 
BRANCH  37  38
ATOM     38  C   UNL A   1      37.525  30.759  29.976  1.00  0.00     0.031 A 
ATOM     39  C   UNL A   1      37.836  31.084  31.424  1.00  0.00     0.074 A 
ATOM     40  C   UNL A   1      38.391  29.959  29.314  1.00  0.00     0.049 A 
ATOM     41  N   UNL A   1      38.904  30.820  32.139  1.00  0.00    -0.248 NA
ATOM     42  C   UNL A   1      36.805  31.842  32.149  1.00  0.00     0.031 C 
ATOM     43  C   UNL A   1      38.267  29.520  27.926  1.00  0.00     0.029 A 
ATOM     44  N   UNL A   1      39.585  29.393  29.727  1.00  0.00    -0.354 N 
ATOM     45  C   UNL A   1      38.688  31.418  33.377  1.00  0.00     0.074 A 
ATOM     46  C   UNL A   1      37.413  32.095  33.297  1.00  0.00     0.031 C 
ATOM     47  C   UNL A   1      39.336  28.769  27.602  1.00  0.00     0.029 A 
ATOM     48  C   UNL A   1      40.254  28.701  28.741  1.00  0.00     0.049 A 
ATOM     49  H   UNL A   1      39.928  29.479  30.646  1.00  0.00     0.167 HD
ATOM     50  C   UNL A   1      39.461  31.401  34.491  1.00  0.00     0.037 A 
ATOM     51  C   UNL A   1      41.469  28.103  28.736  1.00  0.00     0.037 A 
ATOM     52  C   UNL A   1      40.718  30.711  34.609  1.00  0.00     0.049 A 
ATOM     53  C   UNL A   1      42.345  28.139  29.970  1.00  0.00     0.074 A 
ATOM     54  C   UNL A   1      41.536  30.597  35.721  1.00  0.00     0.029 A 
ATOM     55  N   UNL A   1      41.345  30.025  33.582  1.00  0.00    -0.354 N 
ATOM     56  N   UNL A   1      42.104  28.670  31.144  1.00  0.00    -0.248 NA
ATOM     57  C   UNL A   1      43.669  27.496  29.874  1.00  0.00     0.031 C 
ATOM     58  C   UNL A   1      42.685  29.892  35.352  1.00  0.00     0.029 A 
ATOM     59  C   UNL A   1      42.554  29.514  34.026  1.00  0.00     0.049 A 
ATOM     60  H   UNL A   1      40.986  29.918  32.672  1.00  0.00     0.167 HD
ATOM     61  C   UNL A   1      43.225  28.401  31.927  1.00  0.00     0.074 A 
ATOM     62  C   UNL A   1      44.143  27.647  31.103  1.00  0.00     0.031 C 
ATOM     63  C   UNL A   1      43.467  28.751  33.213  1.00  0.00     0.037 A 
BRANCH  50  64
ATOM     64  C   UNL A   1      38.964  32.168  35.686  1.00  0.00     0.057 A 
ATOM     65  C   UNL A   1      38.206  31.560  36.696  1.00  0.00     0.134 A 
ATOM     66  C   UNL A   1      39.268  33.527  35.839  1.00  0.00     0.134 A 
ATOM     67  F   UNL A   1      37.873  30.263  36.608  1.00  0.00    -0.206 F 
ATOM     68  C   UNL A   1      37.731  32.284  37.790  1.00  0.00     0.040 A 
ATOM     69  C   UNL A   1      38.829  34.253  36.946  1.00  0.00     0.040 A 
ATOM     70  F   UNL A   1      40.004  34.170  34.919  1.00  0.00    -0.206 F 
ATOM     71  C   UNL A   1      38.048  33.635  37.920  1.00  0.00     0.006 A 
ENDBRANCH  50  64
BRANCH  51  72
ATOM     72  C   UNL A   1      41.968  27.411  27.511  1.00  0.00     0.057 A 
ATOM     73  C   UNL A   1      42.598  28.124  26.480  1.00  0.00     0.134 A 
ATOM     74  C   UNL A   1      41.781  26.038  27.311  1.00  0.00     0.134 A 
ATOM     75  F   UNL A   1      42.772  29.449  26.586  1.00  0.00    -0.206 F 
ATOM     76  C   UNL A   1      43.013  27.501  25.299  1.00  0.00     0.040 A 
ATOM     77  C   UNL A   1      42.216  25.398  26.147  1.00  0.00     0.040 A 
ATOM     78  F   UNL A   1      41.173  25.294  28.247  1.00  0.00    -0.206 F 
ATOM     79  C   UNL A   1      42.828  26.131  25.134  1.00  0.00     0.006 A 
ENDBRANCH  51  72
BRANCH  63  80
ATOM     80  C   UNL A   1      44.757  28.302  33.843  1.00  0.00     0.057 A 
ATOM     81  C   UNL A   1      45.897  29.115  33.864  1.00  0.00     0.134 A 
ATOM     82  C   UNL A   1      44.836  27.068  34.505  1.00  0.00     0.134 A 
ATOM     83  F   UNL A   1      45.895  30.304  33.243  1.00  0.00    -0.206 F 
ATOM     84  C   UNL A   1      47.071  28.714  34.508  1.00  0.00     0.040 A 
ATOM     85  C   UNL A   1      45.995  26.669  35.175  1.00  0.00     0.040 A 
ATOM     86  F   UNL A   1      43.781  26.242  34.536  1.00  0.00    -0.206 F 
ATOM     87  C   UNL A   1      47.118  27.492  35.175  1.00  0.00     0.006 A 
ENDBRANCH  63  80
ENDBRANCH  37  38
ENDBRANCH  29  32
ENDBRANCH  27  28
ENDBRANCH  26  27
ENDBRANCH   1  26
TORSDOF 14
ENDMDL
MODEL 3
REMARK VINA RESULT:     -12.9      2.348      8.157
REMARK SMILES CC[C@@]1(C)NC(=O)N(/N=C/c2ccccc2C(=O)NCCCCNC(=O)c2ccc(-c3c4nc(c(-c5c(F)cccc5F)c5ccc([nH]5)c(-c5c(F)cccc5F)c5nc(c(-c6c(F)cccc6F)c6ccc3[nH]6)C=C5)C=C4)cc2)C1=O
REMARK SMILES IDX 21 1 20 2 19 3 17 4 18 5 16 7 11 8 12 9 13 10 15 11 14 12
REMARK SMILES IDX 10 13 9 14 8 15 3 16 4 17 5 18 81 19 6 20 82 22 7 23 2 24
REMARK SMILES IDX 1 25 22 26 23 27 24 28 25 29 26 31 27 32 28 33 80 34 29 35
REMARK SMILES IDX 79 36 30 37 31 38 32 39 73 40 33 41 78 42 72 43 74 44 34 45
REMARK SMILES IDX 77 46 71 47 70 48 35 50 61 51 44 52 60 53 45 54 48 55 59 56
REMARK SMILES IDX 75 57 46 58 47 59 58 61 76 62 49 63 36 64 37 65 42 66 38 67
REMARK SMILES IDX 39 68 41 69 43 70 40 71 62 72 63 73 68 74 64 75 65 76 67 77
REMARK SMILES IDX 69 78 66 79 50 80 51 81 56 82 52 83 53 84 55 85 57 86 54 87
REMARK H PARENT 19 6 5 21 24 30 74 49 48 60
REMARK Flexibility Score: inf
ROOT
ATOM      1  C   UNL A   1      37.039  22.238  25.701  1.00  0.00     0.023 C 
ENDROOT
BRANCH   1   2
ATOM      2  C   UNL A   1      35.692  22.212  24.925  1.00  0.00     0.116 C 
BRANCH   2   3
ATOM      3  N   UNL A   1      34.478  22.410  25.714  1.00  0.00    -0.352 N 
ATOM      4  C   UNL A   1      33.266  21.749  25.586  1.00  0.00     0.251 C 
ATOM      5  O   UNL A   1      32.276  22.116  26.209  1.00  0.00    -0.269 OA
ATOM      6  H   UNL A   1      34.527  23.093  26.421  1.00  0.00     0.163 HD
BRANCH   4   7
ATOM      7  C   UNL A   1      33.120  20.708  24.546  1.00  0.00     0.048 A 
ATOM      8  C   UNL A   1      32.673  20.954  23.241  1.00  0.00     0.007 A 
ATOM      9  C   UNL A   1      32.191  19.861  22.496  1.00  0.00     0.010 A 
ATOM     10  C   UNL A   1      32.249  18.554  23.006  1.00  0.00     0.001 A 
ATOM     11  C   UNL A   1      33.265  19.388  25.018  1.00  0.00     0.014 A 
ATOM     12  C   UNL A   1      32.827  18.312  24.248  1.00  0.00     0.001 A 
BRANCH   8  13
ATOM     13  C   UNL A   1      32.456  22.317  22.663  1.00  0.00     0.143 C 
ATOM     14  N   UNL A   1      33.279  23.315  22.792  1.00  0.00    -0.169 NA
BRANCH  14  15
ATOM     15  N   UNL A   1      32.666  24.611  22.821  1.00  0.00    -0.146 N 
ATOM     16  C   UNL A   1      32.738  27.461  23.903  1.00  0.00     0.120 C 
ATOM     17  C   UNL A   1      31.202  27.709  24.508  1.00  0.00     0.045 C 
ATOM     18  N   UNL A   1      33.035  27.406  21.959  1.00  0.00    -0.322 N 
ATOM     19  C   UNL A   1      32.749  25.536  24.400  1.00  0.00     0.276 C 
ATOM     20  C   UNL A   1      32.798  25.634  21.252  1.00  0.00     0.346 C 
ATOM     21  H   UNL A   1      33.275  28.190  21.414  1.00  0.00     0.166 HD
ATOM     22  O   UNL A   1      32.945  25.080  25.519  1.00  0.00    -0.270 OA
ATOM     23  O   UNL A   1      33.023  25.281  20.105  1.00  0.00    -0.246 OA
BRANCH  16  24
ATOM     24  C   UNL A   1      33.466  28.701  24.552  1.00  0.00     0.035 C 
ATOM     25  C   UNL A   1      34.081  28.621  25.966  1.00  0.00     0.007 C 
ENDBRANCH  16  24
ENDBRANCH  14  15
ENDBRANCH   8  13
ENDBRANCH   4   7
ENDBRANCH   2   3
ENDBRANCH   1   2
BRANCH   1  26
ATOM     26  C   UNL A   1      38.139  21.170  25.389  1.00  0.00     0.023 C 
BRANCH  26  27
ATOM     27  C   UNL A   1      39.602  21.514  25.978  1.00  0.00     0.116 C 
BRANCH  27  28
ATOM     28  N   UNL A   1      41.560  22.053  25.346  1.00  0.00    -0.352 N 
ATOM     29  C   UNL A   1      42.747  22.998  25.687  1.00  0.00     0.251 C 
ATOM     30  H   UNL A   1      41.799  21.514  24.558  1.00  0.00     0.163 HD
ATOM     31  O   UNL A   1      43.814  22.771  25.112  1.00  0.00    -0.269 OA
BRANCH  29  32
ATOM     32  C   UNL A   1      42.718  24.144  26.702  1.00  0.00     0.039 A 
ATOM     33  C   UNL A   1      43.252  25.424  26.452  1.00  0.00     0.014 A 
ATOM     34  C   UNL A   1      41.949  23.970  27.854  1.00  0.00     0.014 A 
ATOM     35  C   UNL A   1      42.935  26.523  27.296  1.00  0.00     0.010 A 
ATOM     36  C   UNL A   1      41.578  25.072  28.642  1.00  0.00     0.010 A 
ATOM     37  C   UNL A   1      42.068  26.368  28.390  1.00  0.00    -0.014 A 
BRANCH  37  38
ATOM     38  C   UNL A   1      41.729  27.460  29.377  1.00  0.00     0.031 A 
ATOM     39  C   UNL A   1      42.480  27.494  30.694  1.00  0.00     0.074 A 
ATOM     40  C   UNL A   1      40.724  28.348  29.206  1.00  0.00     0.049 A 
ATOM     41  N   UNL A   1      42.235  28.175  31.789  1.00  0.00    -0.248 NA
ATOM     42  C   UNL A   1      43.650  26.608  30.791  1.00  0.00     0.031 C 
ATOM     43  C   UNL A   1      39.891  28.485  28.013  1.00  0.00     0.029 A 
ATOM     44  N   UNL A   1      40.208  29.297  30.072  1.00  0.00    -0.354 N 
ATOM     45  C   UNL A   1      43.192  27.763  32.712  1.00  0.00     0.074 A 
ATOM     46  C   UNL A   1      43.987  26.743  32.063  1.00  0.00     0.031 C 
ATOM     47  C   UNL A   1      38.971  29.445  28.224  1.00  0.00     0.029 A 
ATOM     48  C   UNL A   1      39.110  29.971  29.583  1.00  0.00     0.049 A 
ATOM     49  H   UNL A   1      40.591  29.474  30.961  1.00  0.00     0.167 HD
ATOM     50  C   UNL A   1      43.412  28.195  33.978  1.00  0.00     0.037 A 
ATOM     51  C   UNL A   1      38.292  30.883  30.159  1.00  0.00     0.037 A 
ATOM     52  C   UNL A   1      42.658  29.227  34.638  1.00  0.00     0.049 A 
ATOM     53  C   UNL A   1      38.516  31.316  31.593  1.00  0.00     0.074 A 
ATOM     54  C   UNL A   1      42.853  29.763  35.900  1.00  0.00     0.029 A 
ATOM     55  N   UNL A   1      41.562  29.876  34.096  1.00  0.00    -0.354 N 
ATOM     56  N   UNL A   1      39.454  30.950  32.433  1.00  0.00    -0.248 NA
ATOM     57  C   UNL A   1      37.562  32.287  32.160  1.00  0.00     0.031 C 
ATOM     58  C   UNL A   1      41.840  30.694  36.145  1.00  0.00     0.029 A 
ATOM     59  C   UNL A   1      41.051  30.783  35.011  1.00  0.00     0.049 A 
ATOM     60  H   UNL A   1      41.198  29.717  33.195  1.00  0.00     0.167 HD
ATOM     61  C   UNL A   1      39.219  31.661  33.607  1.00  0.00     0.074 A 
ATOM     62  C   UNL A   1      38.061  32.494  33.371  1.00  0.00     0.031 C 
ATOM     63  C   UNL A   1      39.905  31.624  34.775  1.00  0.00     0.037 A 
BRANCH  50  64
ATOM     64  C   UNL A   1      44.526  27.536  34.746  1.00  0.00     0.057 A 
ATOM     65  C   UNL A   1      44.314  26.389  35.523  1.00  0.00     0.134 A 
ATOM     66  C   UNL A   1      45.830  28.045  34.690  1.00  0.00     0.134 A 
ATOM     67  F   UNL A   1      43.088  25.855  35.626  1.00  0.00    -0.206 F 
ATOM     68  C   UNL A   1      45.349  25.797  36.249  1.00  0.00     0.040 A 
ATOM     69  C   UNL A   1      46.880  27.441  35.383  1.00  0.00     0.040 A 
ATOM     70  F   UNL A   1      46.109  29.131  33.953  1.00  0.00    -0.206 F 
ATOM     71  C   UNL A   1      46.638  26.320  36.175  1.00  0.00     0.006 A 
ENDBRANCH  50  64
BRANCH  51  72
ATOM     72  C   UNL A   1      37.150  31.467  29.396  1.00  0.00     0.057 A 
ATOM     73  C   UNL A   1      35.975  30.734  29.173  1.00  0.00     0.134 A 
ATOM     74  C   UNL A   1      37.221  32.742  28.822  1.00  0.00     0.134 A 
ATOM     75  F   UNL A   1      35.855  29.489  29.657  1.00  0.00    -0.206 F 
ATOM     76  C   UNL A   1      34.923  31.241  28.406  1.00  0.00     0.040 A 
ATOM     77  C   UNL A   1      36.165  33.273  28.075  1.00  0.00     0.040 A 
ATOM     78  F   UNL A   1      38.319  33.495  28.980  1.00  0.00    -0.206 F 
ATOM     79  C   UNL A   1      35.014  32.519  27.860  1.00  0.00     0.006 A 
ENDBRANCH  51  72
BRANCH  63  80
ATOM     80  C   UNL A   1      39.459  32.529  35.893  1.00  0.00     0.057 A 
ATOM     81  C   UNL A   1      39.933  33.840  36.021  1.00  0.00     0.134 A 
ATOM     82  C   UNL A   1      38.485  32.105  36.808  1.00  0.00     0.134 A 
ATOM     83  F   UNL A   1      40.872  34.308  35.185  1.00  0.00    -0.206 F 
ATOM     84  C   UNL A   1      39.465  34.693  37.024  1.00  0.00     0.040 A 
ATOM     85  C   UNL A   1      37.990  32.957  37.798  1.00  0.00     0.040 A 
ATOM     86  F   UNL A   1      37.978  30.866  36.739  1.00  0.00    -0.206 F 
ATOM     87  C   UNL A   1      38.482  34.255  37.910  1.00  0.00     0.006 A 
ENDBRANCH  63  80
ENDBRANCH  37  38
ENDBRANCH  29  32
ENDBRANCH  27  28
ENDBRANCH  26  27
ENDBRANCH   1  26
TORSDOF 14
ENDMDL
