MODEL 1
REMARK VINA RESULT:     -11.3      0.000      0.000
REMARK SMILES CC1=NN(c2ccc(Cl)c(C(=O)NCCCCNC(=O)c3ccc(-c4c5nc(c(-c6c(F)cccc6F)c6ccc([nH]6)c(-c6c(F)cccc6F)c6nc(c(-c7c(F)cccc7F)c7ccc4[nH]7)C=C6)C=C5)cc3)c2)C(=O)/C1=C\c1ccc(N(C)C)c(Br)c1
REMARK SMILES IDX 15 1 14 2 13 3 11 4 12 5 10 7 5 8 6 9 75 10 7 11 8 12 9 13
REMARK SMILES IDX 4 14 1 15 2 16 3 17 78 18 76 19 79 20 77 21 80 22 81 23
REMARK SMILES IDX 89 24 82 25 87 26 83 27 88 28 84 29 85 30 86 31 16 32 17 33
REMARK SMILES IDX 18 34 19 35 20 37 21 38 22 39 74 40 23 41 73 42 24 43 25 44
REMARK SMILES IDX 26 45 67 46 27 47 72 48 66 49 68 50 28 51 71 52 65 53 64 54
REMARK SMILES IDX 29 56 55 57 38 58 54 59 39 60 42 61 53 62 69 63 40 64 41 65
REMARK SMILES IDX 52 67 70 68 43 69 30 70 31 71 36 72 32 73 33 74 35 75 37 76
REMARK SMILES IDX 34 77 56 78 57 79 62 80 58 81 59 82 61 83 63 84 60 85 44 86
REMARK SMILES IDX 45 87 50 88 46 89 47 90 49 91 51 92 48 93
REMARK H PARENT 13 6 18 36 68 55 42 66
REMARK Flexibility Score: inf
ROOT
ATOM      1  C   UNL A   1      40.191  27.064  27.325  1.00  0.00     0.023 C 
ENDROOT
BRANCH   1   2
ATOM      2  C   UNL A   1      40.998  27.329  28.588  1.00  0.00     0.116 C 
BRANCH   2   3
ATOM      3  N   UNL A   1      41.402  28.711  28.783  1.00  0.00    -0.352 N 
ATOM      4  C   UNL A   1      40.748  29.744  29.422  1.00  0.00     0.252 C 
ATOM      5  O   UNL A   1      41.310  30.836  29.501  1.00  0.00    -0.269 OA
ATOM      6  H   UNL A   1      42.277  28.947  28.399  1.00  0.00     0.163 HD
BRANCH   4   7
ATOM      7  C   UNL A   1      39.365  29.608  29.952  1.00  0.00     0.060 A 
ATOM      8  C   UNL A   1      36.985  29.926  29.544  1.00  0.00     0.070 A 
ATOM      9  C   UNL A   1      36.719  29.376  30.803  1.00  0.00     0.030 A 
ATOM     10  C   UNL A   1      38.303  29.941  29.073  1.00  0.00     0.044 A 
ATOM     11  C   UNL A   1      37.751  29.069  31.676  1.00  0.00     0.023 A 
ATOM     12  C   UNL A   1      39.068  29.301  31.289  1.00  0.00     0.053 A 
ATOM     13  Cl  UNL A   1      40.209  29.389  32.585  1.00  0.00    -0.083 Cl
BRANCH   8  14
ATOM     14  N   UNL A   1      35.948  30.640  28.909  1.00  0.00    -0.196 N 
ATOM     15  C   UNL A   1      33.996  33.618  28.376  1.00  0.00     0.069 C 
ATOM     16  C   UNL A   1      34.611  32.260  28.463  1.00  0.00     0.071 C 
ATOM     17  N   UNL A   1      35.630  31.950  29.233  1.00  0.00    -0.169 NA
ATOM     18  C   UNL A   1      34.125  31.108  27.676  1.00  0.00     0.065 C 
ATOM     19  C   UNL A   1      35.115  30.049  27.947  1.00  0.00     0.280 C 
ATOM     20  C   UNL A   1      32.994  30.988  26.966  1.00  0.00     0.024 C 
ATOM     21  O   UNL A   1      35.149  28.934  27.456  1.00  0.00    -0.267 OA
BRANCH  20  22
ATOM     22  C   UNL A   1      32.520  29.687  26.468  1.00  0.00    -0.024 A 
ATOM     23  C   UNL A   1      31.778  28.821  27.250  1.00  0.00     0.010 A 
ATOM     24  C   UNL A   1      32.754  29.328  25.140  1.00  0.00     0.026 A 
ATOM     25  C   UNL A   1      31.254  27.637  26.691  1.00  0.00     0.028 A 
ATOM     26  C   UNL A   1      32.235  28.136  24.582  1.00  0.00     0.041 A 
ATOM     27  C   UNL A   1      31.447  27.232  25.342  1.00  0.00     0.051 A 
ATOM     28  Br  UNL A   1      32.756  27.935  22.751  1.00  0.00    -0.049 Br
BRANCH  27  29
ATOM     29  N   UNL A   1      30.884  26.032  24.897  1.00  0.00    -0.377 N 
ATOM     30  C   UNL A   1      31.209  24.731  25.487  1.00  0.00     0.143 C 
ATOM     31  C   UNL A   1      29.764  25.973  23.962  1.00  0.00     0.143 C 
ENDBRANCH  27  29
ENDBRANCH  20  22
ENDBRANCH   8  14
ENDBRANCH   4   7
ENDBRANCH   2   3
ENDBRANCH   1   2
BRANCH   1  32
ATOM     32  C   UNL A   1      39.560  25.680  27.203  1.00  0.00     0.023 C 
BRANCH  32  33
ATOM     33  C   UNL A   1      40.209  24.553  28.001  1.00  0.00     0.116 C 
BRANCH  33  34
ATOM     34  N   UNL A   1      40.801  23.503  27.185  1.00  0.00    -0.352 N 
ATOM     35  C   UNL A   1      41.983  23.493  26.479  1.00  0.00     0.251 C 
ATOM     36  H   UNL A   1      40.275  22.673  27.127  1.00  0.00     0.163 HD
ATOM     37  O   UNL A   1      42.278  22.521  25.790  1.00  0.00    -0.269 OA
BRANCH  35  38
ATOM     38  C   UNL A   1      42.881  24.669  26.508  1.00  0.00     0.039 A 
ATOM     39  C   UNL A   1      43.595  24.942  27.678  1.00  0.00     0.014 A 
ATOM     40  C   UNL A   1      43.039  25.487  25.387  1.00  0.00     0.014 A 
ATOM     41  C   UNL A   1      44.531  25.979  27.694  1.00  0.00     0.010 A 
ATOM     42  C   UNL A   1      44.037  26.459  25.375  1.00  0.00     0.010 A 
ATOM     43  C   UNL A   1      44.793  26.717  26.528  1.00  0.00    -0.014 A 
BRANCH  43  44
ATOM     44  C   UNL A   1      45.850  27.763  26.497  1.00  0.00     0.031 A 
ATOM     45  C   UNL A   1      45.481  29.216  26.633  1.00  0.00     0.074 A 
ATOM     46  C   UNL A   1      47.134  27.413  26.281  1.00  0.00     0.049 A 
ATOM     47  N   UNL A   1      46.249  30.274  26.573  1.00  0.00    -0.248 NA
ATOM     48  C   UNL A   1      44.055  29.521  26.830  1.00  0.00     0.031 C 
ATOM     49  C   UNL A   1      47.618  26.046  26.077  1.00  0.00     0.029 A 
ATOM     50  N   UNL A   1      48.268  28.182  26.192  1.00  0.00    -0.354 N 
ATOM     51  C   UNL A   1      45.400  31.365  26.709  1.00  0.00     0.074 A 
ATOM     52  C   UNL A   1      44.053  30.845  26.791  1.00  0.00     0.031 C 
ATOM     53  C   UNL A   1      48.951  26.070  25.919  1.00  0.00     0.029 A 
ATOM     54  C   UNL A   1      49.413  27.453  25.973  1.00  0.00     0.049 A 
ATOM     55  H   UNL A   1      48.262  29.163  26.276  1.00  0.00     0.167 HD
ATOM     56  C   UNL A   1      45.714  32.680  26.790  1.00  0.00     0.037 A 
ATOM     57  C   UNL A   1      50.691  27.855  25.832  1.00  0.00     0.037 A 
ATOM     58  C   UNL A   1      47.056  33.195  26.737  1.00  0.00     0.049 A 
ATOM     59  C   UNL A   1      51.014  29.321  25.926  1.00  0.00     0.074 A 
ATOM     60  C   UNL A   1      47.483  34.505  26.869  1.00  0.00     0.029 A 
ATOM     61  N   UNL A   1      48.189  32.422  26.535  1.00  0.00    -0.354 N 
ATOM     62  N   UNL A   1      50.208  30.335  26.127  1.00  0.00    -0.248 NA
ATOM     63  C   UNL A   1      52.428  29.697  25.780  1.00  0.00     0.031 C 
ATOM     64  C   UNL A   1      48.872  34.530  26.703  1.00  0.00     0.029 A 
ATOM     65  C   UNL A   1      49.315  33.231  26.519  1.00  0.00     0.049 A 
ATOM     66  H   UNL A   1      48.195  31.445  26.419  1.00  0.00     0.167 HD
ATOM     67  C   UNL A   1      51.018  31.464  26.165  1.00  0.00     0.074 A 
ATOM     68  C   UNL A   1      52.379  31.007  25.976  1.00  0.00     0.031 C 
ATOM     69  C   UNL A   1      50.665  32.760  26.341  1.00  0.00     0.037 A 
BRANCH  56  70
ATOM     70  C   UNL A   1      44.579  33.650  26.954  1.00  0.00     0.057 A 
ATOM     71  C   UNL A   1      43.955  34.252  25.852  1.00  0.00     0.134 A 
ATOM     72  C   UNL A   1      44.089  33.972  28.226  1.00  0.00     0.134 A 
ATOM     73  F   UNL A   1      44.383  33.996  24.607  1.00  0.00    -0.206 F 
ATOM     74  C   UNL A   1      42.910  35.163  26.010  1.00  0.00     0.040 A 
ATOM     75  C   UNL A   1      43.025  34.859  28.396  1.00  0.00     0.040 A 
ATOM     76  F   UNL A   1      44.634  33.428  29.325  1.00  0.00    -0.206 F 
ATOM     77  C   UNL A   1      42.438  35.464  27.286  1.00  0.00     0.006 A 
ENDBRANCH  56  70
BRANCH  57  78
ATOM     78  C   UNL A   1      51.768  26.854  25.625  1.00  0.00     0.057 A 
ATOM     79  C   UNL A   1      52.216  26.536  24.337  1.00  0.00     0.134 A 
ATOM     80  C   UNL A   1      52.367  26.187  26.699  1.00  0.00     0.134 A 
ATOM     81  F   UNL A   1      51.667  27.128  23.267  1.00  0.00    -0.206 F 
ATOM     82  C   UNL A   1      53.209  25.578  24.123  1.00  0.00     0.040 A 
ATOM     83  C   UNL A   1      53.378  25.244  26.501  1.00  0.00     0.040 A 
ATOM     84  F   UNL A   1      51.988  26.450  27.958  1.00  0.00    -0.206 F 
ATOM     85  C   UNL A   1      53.797  24.933  25.209  1.00  0.00     0.006 A 
ENDBRANCH  57  78
BRANCH  69  86
ATOM     86  C   UNL A   1      51.770  33.775  26.382  1.00  0.00     0.057 A 
ATOM     87  C   UNL A   1      52.413  34.122  27.576  1.00  0.00     0.134 A 
ATOM     88  C   UNL A   1      52.223  34.380  25.203  1.00  0.00     0.134 A 
ATOM     89  F   UNL A   1      52.019  33.587  28.742  1.00  0.00    -0.206 F 
ATOM     90  C   UNL A   1      53.455  35.052  27.600  1.00  0.00     0.040 A 
ATOM     91  C   UNL A   1      53.280  35.290  25.210  1.00  0.00     0.040 A 
ATOM     92  F   UNL A   1      51.655  34.085  24.024  1.00  0.00    -0.206 F 
ATOM     93  C   UNL A   1      53.895  35.633  26.412  1.00  0.00     0.006 A 
ENDBRANCH  69  86
ENDBRANCH  43  44
ENDBRANCH  35  38
ENDBRANCH  33  34
ENDBRANCH  32  33
ENDBRANCH   1  32
TORSDOF 14
ENDMDL
MODEL 2
REMARK VINA RESULT:     -11.2      0.308      5.889
REMARK SMILES CC1=NN(c2ccc(Cl)c(C(=O)NCCCCNC(=O)c3ccc(-c4c5nc(c(-c6c(F)cccc6F)c6ccc([nH]6)c(-c6c(F)cccc6F)c6nc(c(-c7c(F)cccc7F)c7ccc4[nH]7)C=C6)C=C5)cc3)c2)C(=O)/C1=C\c1ccc(N(C)C)c(Br)c1
REMARK SMILES IDX 15 1 14 2 13 3 11 4 12 5 10 7 5 8 6 9 75 10 7 11 8 12 9 13
REMARK SMILES IDX 4 14 1 15 2 16 3 17 78 18 76 19 79 20 77 21 80 22 81 23
REMARK SMILES IDX 89 24 82 25 87 26 83 27 88 28 84 29 85 30 86 31 16 32 17 33
REMARK SMILES IDX 18 34 19 35 20 37 21 38 22 39 74 40 23 41 73 42 24 43 25 44
REMARK SMILES IDX 26 45 67 46 27 47 72 48 66 49 68 50 28 51 71 52 65 53 64 54
REMARK SMILES IDX 29 56 55 57 38 58 54 59 39 60 42 61 53 62 69 63 40 64 41 65
REMARK SMILES IDX 52 67 70 68 43 69 30 70 31 71 36 72 32 73 33 74 35 75 37 76
REMARK SMILES IDX 34 77 56 78 57 79 62 80 58 81 59 82 61 83 63 84 60 85 44 86
REMARK SMILES IDX 45 87 50 88 46 89 47 90 49 91 51 92 48 93
REMARK H PARENT 13 6 18 36 68 55 42 66
REMARK Flexibility Score: inf
ROOT
ATOM      1  C   UNL A   1      40.300  26.687  27.207  1.00  0.00     0.023 C 
ENDROOT
BRANCH   1   2
ATOM      2  C   UNL A   1      40.918  27.009  28.560  1.00  0.00     0.116 C 
BRANCH   2   3
ATOM      3  N   UNL A   1      41.389  28.375  28.714  1.00  0.00    -0.352 N 
ATOM      4  C   UNL A   1      40.803  29.447  29.354  1.00  0.00     0.252 C 
ATOM      5  O   UNL A   1      41.414  30.514  29.392  1.00  0.00    -0.269 OA
ATOM      6  H   UNL A   1      42.259  28.565  28.296  1.00  0.00     0.163 HD
BRANCH   4   7
ATOM      7  C   UNL A   1      39.434  29.382  29.932  1.00  0.00     0.060 A 
ATOM      8  C   UNL A   1      37.060  29.817  29.606  1.00  0.00     0.070 A 
ATOM      9  C   UNL A   1      36.811  29.286  30.876  1.00  0.00     0.030 A 
ATOM     10  C   UNL A   1      38.360  29.764  29.089  1.00  0.00     0.044 A 
ATOM     11  C   UNL A   1      37.857  28.932  31.714  1.00  0.00     0.023 A 
ATOM     12  C   UNL A   1      39.169  29.096  31.280  1.00  0.00     0.053 A 
ATOM     13  Cl  UNL A   1      40.358  29.133  32.536  1.00  0.00    -0.083 Cl
BRANCH   8  14
ATOM     14  N   UNL A   1      36.038  30.578  29.002  1.00  0.00    -0.196 N 
ATOM     15  C   UNL A   1      34.160  33.621  28.586  1.00  0.00     0.069 C 
ATOM     16  C   UNL A   1      34.741  32.246  28.622  1.00  0.00     0.071 C 
ATOM     17  N   UNL A   1      35.755  31.884  29.374  1.00  0.00    -0.169 NA
ATOM     18  C   UNL A   1      34.220  31.135  27.799  1.00  0.00     0.065 C 
ATOM     19  C   UNL A   1      35.184  30.042  28.026  1.00  0.00     0.280 C 
ATOM     20  C   UNL A   1      33.082  31.069  27.093  1.00  0.00     0.024 C 
ATOM     21  O   UNL A   1      35.187  28.945  27.497  1.00  0.00    -0.267 OA
BRANCH  20  22
ATOM     22  C   UNL A   1      32.572  29.798  26.553  1.00  0.00    -0.024 A 
ATOM     23  C   UNL A   1      31.799  28.932  27.306  1.00  0.00     0.010 A 
ATOM     24  C   UNL A   1      32.803  29.472  25.217  1.00  0.00     0.026 A 
ATOM     25  C   UNL A   1      31.243  27.782  26.709  1.00  0.00     0.028 A 
ATOM     26  C   UNL A   1      32.251  28.314  24.621  1.00  0.00     0.041 A 
ATOM     27  C   UNL A   1      31.431  27.412  25.349  1.00  0.00     0.051 A 
ATOM     28  Br  UNL A   1      32.777  28.151  22.787  1.00  0.00    -0.049 Br
BRANCH  27  29
ATOM     29  N   UNL A   1      30.835  26.243  24.865  1.00  0.00    -0.377 N 
ATOM     30  C   UNL A   1      31.326  24.903  25.193  1.00  0.00     0.143 C 
ATOM     31  C   UNL A   1      29.547  26.229  24.177  1.00  0.00     0.143 C 
ENDBRANCH  27  29
ENDBRANCH  20  22
ENDBRANCH   8  14
ENDBRANCH   4   7
ENDBRANCH   2   3
ENDBRANCH   1   2
BRANCH   1  32
ATOM     32  C   UNL A   1      39.738  25.278  27.037  1.00  0.00     0.023 C 
BRANCH  32  33
ATOM     33  C   UNL A   1      40.470  24.151  27.761  1.00  0.00     0.116 C 
BRANCH  33  34
ATOM     34  N   UNL A   1      41.112  23.188  26.878  1.00  0.00    -0.352 N 
ATOM     35  C   UNL A   1      42.273  23.296  26.148  1.00  0.00     0.251 C 
ATOM     36  H   UNL A   1      40.641  22.328  26.787  1.00  0.00     0.163 HD
ATOM     37  O   UNL A   1      42.616  22.382  25.402  1.00  0.00    -0.269 OA
BRANCH  35  38
ATOM     38  C   UNL A   1      43.091  24.526  26.221  1.00  0.00     0.039 A 
ATOM     39  C   UNL A   1      43.791  24.802  27.399  1.00  0.00     0.014 A 
ATOM     40  C   UNL A   1      43.188  25.396  25.132  1.00  0.00     0.014 A 
ATOM     41  C   UNL A   1      44.655  25.898  27.453  1.00  0.00     0.010 A 
ATOM     42  C   UNL A   1      44.118  26.433  25.156  1.00  0.00     0.010 A 
ATOM     43  C   UNL A   1      44.862  26.696  26.316  1.00  0.00    -0.014 A 
BRANCH  43  44
ATOM     44  C   UNL A   1      45.846  27.811  26.323  1.00  0.00     0.031 A 
ATOM     45  C   UNL A   1      47.317  27.521  26.188  1.00  0.00     0.074 A 
ATOM     46  C   UNL A   1      45.425  29.076  26.517  1.00  0.00     0.049 A 
ATOM     47  N   UNL A   1      48.331  28.349  26.229  1.00  0.00    -0.248 NA
ATOM     48  C   UNL A   1      47.702  26.111  26.015  1.00  0.00     0.031 C 
ATOM     49  C   UNL A   1      44.034  29.487  26.718  1.00  0.00     0.029 A 
ATOM     50  N   UNL A   1      46.129  30.253  26.582  1.00  0.00    -0.354 N 
ATOM     51  C   UNL A   1      49.467  27.559  26.103  1.00  0.00     0.074 A 
ATOM     52  C   UNL A   1      49.024  26.184  26.049  1.00  0.00     0.031 C 
ATOM     53  C   UNL A   1      43.984  30.822  26.851  1.00  0.00     0.029 A 
ATOM     54  C   UNL A   1      45.338  31.359  26.784  1.00  0.00     0.049 A 
ATOM     55  H   UNL A   1      47.109  30.301  26.494  1.00  0.00     0.167 HD
ATOM     56  C   UNL A   1      50.762  27.945  26.012  1.00  0.00     0.037 A 
ATOM     57  C   UNL A   1      45.668  32.660  26.899  1.00  0.00     0.037 A 
ATOM     58  C   UNL A   1      51.202  29.315  26.038  1.00  0.00     0.049 A 
ATOM     59  C   UNL A   1      47.113  33.064  26.794  1.00  0.00     0.074 A 
ATOM     60  C   UNL A   1      52.485  29.813  25.893  1.00  0.00     0.029 A 
ATOM     61  N   UNL A   1      50.367  30.407  26.223  1.00  0.00    -0.354 N 
ATOM     62  N   UNL A   1      48.171  32.313  26.603  1.00  0.00    -0.248 NA
ATOM     63  C   UNL A   1      47.410  34.499  26.913  1.00  0.00     0.031 C 
ATOM     64  C   UNL A   1      52.432  31.204  26.033  1.00  0.00     0.029 A 
ATOM     65  C   UNL A   1      51.110  31.577  26.215  1.00  0.00     0.049 A 
ATOM     66  H   UNL A   1      49.391  30.360  26.343  1.00  0.00     0.167 HD
ATOM     67  C   UNL A   1      49.252  33.183  26.546  1.00  0.00     0.074 A 
ATOM     68  C   UNL A   1      48.719  34.520  26.712  1.00  0.00     0.031 C 
ATOM     69  C   UNL A   1      50.565  32.901  26.371  1.00  0.00     0.037 A 
BRANCH  56  70
ATOM     70  C   UNL A   1      51.795  26.864  25.864  1.00  0.00     0.057 A 
ATOM     71  C   UNL A   1      52.192  26.388  24.607  1.00  0.00     0.134 A 
ATOM     72  C   UNL A   1      52.414  26.306  26.989  1.00  0.00     0.134 A 
ATOM     73  F   UNL A   1      51.630  26.872  23.489  1.00  0.00    -0.206 F 
ATOM     74  C   UNL A   1      53.142  25.375  24.474  1.00  0.00     0.040 A 
ATOM     75  C   UNL A   1      53.387  25.312  26.869  1.00  0.00     0.040 A 
ATOM     76  F   UNL A   1      52.087  26.718  28.223  1.00  0.00    -0.206 F 
ATOM     77  C   UNL A   1      53.747  24.837  25.609  1.00  0.00     0.006 A 
ENDBRANCH  56  70
BRANCH  57  78
ATOM     78  C   UNL A   1      44.609  33.683  27.091  1.00  0.00     0.057 A 
ATOM     79  C   UNL A   1      44.177  34.039  28.375  1.00  0.00     0.134 A 
ATOM     80  C   UNL A   1      43.997  34.320  26.006  1.00  0.00     0.134 A 
ATOM     81  F   UNL A   1      44.712  33.449  29.454  1.00  0.00    -0.206 F 
ATOM     82  C   UNL A   1      43.164  34.979  28.572  1.00  0.00     0.040 A 
ATOM     83  C   UNL A   1      43.000  35.280  26.190  1.00  0.00     0.040 A 
ATOM     84  F   UNL A   1      44.369  34.029  24.751  1.00  0.00    -0.206 F 
ATOM     85  C   UNL A   1      42.576  35.606  27.476  1.00  0.00     0.006 A 
ENDBRANCH  57  78
BRANCH  69  86
ATOM     86  C   UNL A   1      51.516  34.060  26.305  1.00  0.00     0.057 A 
ATOM     87  C   UNL A   1      52.087  34.617  27.456  1.00  0.00     0.134 A 
ATOM     88  C   UNL A   1      51.897  34.598  25.068  1.00  0.00     0.134 A 
ATOM     89  F   UNL A   1      51.755  34.156  28.671  1.00  0.00    -0.206 F 
ATOM     90  C   UNL A   1      52.987  35.682  27.381  1.00  0.00     0.040 A 
ATOM     91  C   UNL A   1      52.815  35.644  24.979  1.00  0.00     0.040 A 
ATOM     92  F   UNL A   1      51.393  34.105  23.927  1.00  0.00    -0.206 F 
ATOM     93  C   UNL A   1      53.359  36.193  26.138  1.00  0.00     0.006 A 
ENDBRANCH  69  86
ENDBRANCH  43  44
ENDBRANCH  35  38
ENDBRANCH  33  34
ENDBRANCH  32  33
ENDBRANCH   1  32
TORSDOF 14
ENDMDL
MODEL 3
REMARK VINA RESULT:     -11.0      6.661     10.662
REMARK SMILES CC1=NN(c2ccc(Cl)c(C(=O)NCCCCNC(=O)c3ccc(-c4c5nc(c(-c6c(F)cccc6F)c6ccc([nH]6)c(-c6c(F)cccc6F)c6nc(c(-c7c(F)cccc7F)c7ccc4[nH]7)C=C6)C=C5)cc3)c2)C(=O)/C1=C\c1ccc(N(C)C)c(Br)c1
REMARK SMILES IDX 15 1 14 2 13 3 11 4 12 5 10 7 5 8 6 9 75 10 7 11 8 12 9 13
REMARK SMILES IDX 4 14 1 15 2 16 3 17 78 18 76 19 79 20 77 21 80 22 81 23
REMARK SMILES IDX 89 24 82 25 87 26 83 27 88 28 84 29 85 30 86 31 16 32 17 33
REMARK SMILES IDX 18 34 19 35 20 37 21 38 22 39 74 40 23 41 73 42 24 43 25 44
REMARK SMILES IDX 26 45 67 46 27 47 72 48 66 49 68 50 28 51 71 52 65 53 64 54
REMARK SMILES IDX 29 56 55 57 38 58 54 59 39 60 42 61 53 62 69 63 40 64 41 65
REMARK SMILES IDX 52 67 70 68 43 69 30 70 31 71 36 72 32 73 33 74 35 75 37 76
REMARK SMILES IDX 34 77 56 78 57 79 62 80 58 81 59 82 61 83 63 84 60 85 44 86
REMARK SMILES IDX 45 87 50 88 46 89 47 90 49 91 51 92 48 93
REMARK H PARENT 13 6 18 36 68 55 42 66
REMARK Flexibility Score: inf
ROOT
ATOM      1  C   UNL A   1      38.814  23.427  26.499  1.00  0.00     0.023 C 
ENDROOT
BRANCH   1   2
ATOM      2  C   UNL A   1      37.449  23.670  25.870  1.00  0.00     0.116 C 
BRANCH   2   3
ATOM      3  N   UNL A   1      37.409  23.565  24.422  1.00  0.00    -0.352 N 
ATOM      4  C   UNL A   1      36.511  22.909  23.606  1.00  0.00     0.252 C 
ATOM      5  O   UNL A   1      36.655  22.993  22.387  1.00  0.00    -0.269 OA
ATOM      6  H   UNL A   1      38.136  24.032  23.951  1.00  0.00     0.163 HD
BRANCH   4   7
ATOM      7  C   UNL A   1      35.424  22.047  24.143  1.00  0.00     0.060 A 
ATOM      8  C   UNL A   1      33.127  21.925  24.941  1.00  0.00     0.070 A 
ATOM      9  C   UNL A   1      33.287  20.546  25.121  1.00  0.00     0.030 A 
ATOM     10  C   UNL A   1      34.161  22.658  24.348  1.00  0.00     0.044 A 
ATOM     11  C   UNL A   1      34.524  19.947  24.944  1.00  0.00     0.023 A 
ATOM     12  C   UNL A   1      35.616  20.725  24.572  1.00  0.00     0.053 A 
ATOM     13  Cl  UNL A   1      37.163  20.017  24.884  1.00  0.00    -0.083 Cl
BRANCH   8  14
ATOM     14  N   UNL A   1      32.026  22.543  25.569  1.00  0.00    -0.196 N 
ATOM     15  C   UNL A   1      29.142  22.483  27.723  1.00  0.00     0.069 C 
ATOM     16  C   UNL A   1      30.242  22.742  26.747  1.00  0.00     0.071 C 
ATOM     17  N   UNL A   1      31.131  21.851  26.371  1.00  0.00    -0.169 NA
ATOM     18  C   UNL A   1      30.443  24.053  26.097  1.00  0.00     0.065 C 
ATOM     19  C   UNL A   1      31.716  23.898  25.368  1.00  0.00     0.280 C 
ATOM     20  C   UNL A   1      29.623  25.114  26.065  1.00  0.00     0.024 C 
ATOM     21  O   UNL A   1      32.308  24.753  24.734  1.00  0.00    -0.267 OA
BRANCH  20  22
ATOM     22  C   UNL A   1      29.844  26.242  25.146  1.00  0.00    -0.024 A 
ATOM     23  C   UNL A   1      29.172  26.358  23.942  1.00  0.00     0.010 A 
ATOM     24  C   UNL A   1      30.701  27.279  25.516  1.00  0.00     0.026 A 
ATOM     25  C   UNL A   1      29.337  27.513  23.150  1.00  0.00     0.028 A 
ATOM     26  C   UNL A   1      30.871  28.434  24.717  1.00  0.00     0.041 A 
ATOM     27  C   UNL A   1      30.182  28.605  23.487  1.00  0.00     0.051 A 
ATOM     28  Br  UNL A   1      32.128  29.648  25.500  1.00  0.00    -0.049 Br
BRANCH  27  29
ATOM     29  N   UNL A   1      30.272  29.699  22.622  1.00  0.00    -0.377 N 
ATOM     30  C   UNL A   1      31.405  29.909  21.717  1.00  0.00     0.143 C 
ATOM     31  C   UNL A   1      29.161  30.612  22.369  1.00  0.00     0.143 C 
ENDBRANCH  27  29
ENDBRANCH  20  22
ENDBRANCH   8  14
ENDBRANCH   4   7
ENDBRANCH   2   3
ENDBRANCH   1   2
BRANCH   1  32
ATOM     32  C   UNL A   1      39.496  22.108  26.148  1.00  0.00     0.023 C 
BRANCH  32  33
ATOM     33  C   UNL A   1      40.952  21.948  26.577  1.00  0.00     0.116 C 
BRANCH  33  34
ATOM     34  N   UNL A   1      41.922  22.372  25.578  1.00  0.00    -0.352 N 
ATOM     35  C   UNL A   1      42.664  23.529  25.502  1.00  0.00     0.251 C 
ATOM     36  H   UNL A   1      42.068  21.734  24.843  1.00  0.00     0.163 HD
ATOM     37  O   UNL A   1      43.389  23.730  24.532  1.00  0.00    -0.269 OA
BRANCH  35  38
ATOM     38  C   UNL A   1      42.559  24.556  26.562  1.00  0.00     0.039 A 
ATOM     39  C   UNL A   1      42.931  25.870  26.266  1.00  0.00     0.014 A 
ATOM     40  C   UNL A   1      42.080  24.236  27.834  1.00  0.00     0.014 A 
ATOM     41  C   UNL A   1      42.738  26.877  27.215  1.00  0.00     0.010 A 
ATOM     42  C   UNL A   1      41.802  25.253  28.744  1.00  0.00     0.010 A 
ATOM     43  C   UNL A   1      42.127  26.585  28.446  1.00  0.00    -0.014 A 
BRANCH  43  44
ATOM     44  C   UNL A   1      41.827  27.656  29.433  1.00  0.00     0.031 A 
ATOM     45  C   UNL A   1      42.703  27.834  30.644  1.00  0.00     0.074 A 
ATOM     46  C   UNL A   1      40.732  28.425  29.276  1.00  0.00     0.049 A 
ATOM     47  N   UNL A   1      42.572  28.670  31.644  1.00  0.00    -0.248 NA
ATOM     48  C   UNL A   1      43.860  26.933  30.764  1.00  0.00     0.031 C 
ATOM     49  C   UNL A   1      39.770  28.318  28.177  1.00  0.00     0.029 A 
ATOM     50  N   UNL A   1      40.239  29.448  30.047  1.00  0.00    -0.354 N 
ATOM     51  C   UNL A   1      43.617  28.384  32.513  1.00  0.00     0.074 A 
ATOM     52  C   UNL A   1      44.334  27.258  31.957  1.00  0.00     0.031 C 
ATOM     53  C   UNL A   1      38.823  29.257  28.327  1.00  0.00     0.029 A 
ATOM     54  C   UNL A   1      39.087  30.009  29.549  1.00  0.00     0.049 A 
ATOM     55  H   UNL A   1      40.669  29.752  30.879  1.00  0.00     0.167 HD
ATOM     56  C   UNL A   1      43.967  29.020  33.657  1.00  0.00     0.037 A 
ATOM     57  C   UNL A   1      38.329  31.016  30.025  1.00  0.00     0.037 A 
ATOM     58  C   UNL A   1      43.271  30.158  34.195  1.00  0.00     0.049 A 
ATOM     59  C   UNL A   1      38.739  31.707  31.296  1.00  0.00     0.074 A 
ATOM     60  C   UNL A   1      43.581  30.909  35.315  1.00  0.00     0.029 A 
ATOM     61  N   UNL A   1      42.120  30.708  33.650  1.00  0.00    -0.354 N 
ATOM     62  N   UNL A   1      39.771  31.472  32.070  1.00  0.00    -0.248 NA
ATOM     63  C   UNL A   1      37.881  32.808  31.757  1.00  0.00     0.031 C 
ATOM     64  C   UNL A   1      42.594  31.888  35.472  1.00  0.00     0.029 A 
ATOM     65  C   UNL A   1      41.697  31.778  34.422  1.00  0.00     0.049 A 
ATOM     66  H   UNL A   1      41.670  30.386  32.836  1.00  0.00     0.167 HD
ATOM     67  C   UNL A   1      39.706  32.415  33.089  1.00  0.00     0.074 A 
ATOM     68  C   UNL A   1      38.538  33.231  32.827  1.00  0.00     0.031 C 
ATOM     69  C   UNL A   1      40.539  32.588  34.143  1.00  0.00     0.037 A 
BRANCH  56  70
ATOM     70  C   UNL A   1      45.168  28.499  34.395  1.00  0.00     0.057 A 
ATOM     71  C   UNL A   1      46.460  28.971  34.130  1.00  0.00     0.134 A 
ATOM     72  C   UNL A   1      45.029  27.530  35.396  1.00  0.00     0.134 A 
ATOM     73  F   UNL A   1      46.665  29.892  33.175  1.00  0.00    -0.206 F 
ATOM     74  C   UNL A   1      47.574  28.476  34.809  1.00  0.00     0.040 A 
ATOM     75  C   UNL A   1      46.132  27.047  36.102  1.00  0.00     0.040 A 
ATOM     76  F   UNL A   1      43.820  27.037  35.706  1.00  0.00    -0.206 F 
ATOM     77  C   UNL A   1      47.410  27.513  35.803  1.00  0.00     0.006 A 
ENDBRANCH  56  70
BRANCH  57  78
ATOM     78  C   UNL A   1      37.126  31.459  29.276  1.00  0.00     0.057 A 
ATOM     79  C   UNL A   1      35.972  30.667  29.236  1.00  0.00     0.134 A 
ATOM     80  C   UNL A   1      37.098  32.673  28.581  1.00  0.00     0.134 A 
ATOM     81  F   UNL A   1      35.944  29.484  29.867  1.00  0.00    -0.206 F 
ATOM     82  C   UNL A   1      34.841  31.056  28.515  1.00  0.00     0.040 A 
ATOM     83  C   UNL A   1      35.965  33.086  27.877  1.00  0.00     0.040 A 
ATOM     84  F   UNL A   1      38.167  33.482  28.586  1.00  0.00    -0.206 F 
ATOM     85  C   UNL A   1      34.834  32.272  27.837  1.00  0.00     0.006 A 
ENDBRANCH  57  78
BRANCH  69  86
ATOM     86  C   UNL A   1      40.245  33.730  35.072  1.00  0.00     0.057 A 
ATOM     87  C   UNL A   1      39.526  33.554  36.259  1.00  0.00     0.134 A 
ATOM     88  C   UNL A   1      40.727  35.016  34.792  1.00  0.00     0.134 A 
ATOM     89  F   UNL A   1      39.026  32.351  36.580  1.00  0.00    -0.206 F 
ATOM     90  C   UNL A   1      39.276  34.620  37.126  1.00  0.00     0.040 A 
ATOM     91  C   UNL A   1      40.507  36.083  35.663  1.00  0.00     0.040 A 
ATOM     92  F   UNL A   1      41.431  35.251  33.675  1.00  0.00    -0.206 F 
ATOM     93  C   UNL A   1      39.775  35.888  36.831  1.00  0.00     0.006 A 
ENDBRANCH  69  86
ENDBRANCH  43  44
ENDBRANCH  35  38
ENDBRANCH  33  34
ENDBRANCH  32  33
ENDBRANCH   1  32
TORSDOF 14
ENDMDL
