MODEL 1
REMARK VINA RESULT:     -11.5      0.000      0.000
REMARK SMILES COc1cc(OC(F)(F)F)cc2c1O[C@@H](C(F)(F)F)C(C(=O)NCCCCNC(=O)c1ccc(-c3c4nc(c(-c5c(F)cccc5F)c5ccc([nH]5)c(-c5c(F)cccc5F)c5nc(c(-c6c(F)cccc6F)c6ccc3[nH]6)C=C5)C=C4)cc1)=C2
REMARK SMILES IDX 25 1 24 2 23 3 21 4 22 5 20 7 3 8 4 9 13 10 5 11 12 12 14 13
REMARK SMILES IDX 11 14 85 15 15 16 2 17 1 18 6 19 7 20 8 21 9 22 10 23 16 24
REMARK SMILES IDX 17 25 18 26 19 27 26 28 27 29 28 30 29 31 30 33 31 34 32 35
REMARK SMILES IDX 84 36 33 37 83 38 34 39 35 40 36 41 77 42 37 43 82 44 76 45
REMARK SMILES IDX 78 46 38 47 81 48 75 49 74 50 39 52 65 53 48 54 64 55 49 56
REMARK SMILES IDX 52 57 63 58 79 59 50 60 51 61 62 63 80 64 53 65 40 66 41 67
REMARK SMILES IDX 46 68 42 69 43 70 45 71 47 72 44 73 66 74 67 75 72 76 68 77
REMARK SMILES IDX 69 78 71 79 73 80 70 81 54 82 55 83 60 84 56 85 57 86 59 87
REMARK SMILES IDX 61 88 58 89
REMARK H PARENT 23 6 28 32 78 51 52 62
REMARK Flexibility Score: inf
ROOT
ATOM      1  C   UNL A   1      34.535  31.020  27.846  1.00  0.00     0.023 C 
ENDROOT
BRANCH   1   2
ATOM      2  C   UNL A   1      34.425  29.569  27.363  1.00  0.00     0.116 C 
BRANCH   2   3
ATOM      3  N   UNL A   1      33.152  29.005  27.772  1.00  0.00    -0.352 N 
ATOM      4  C   UNL A   1      32.338  28.077  27.203  1.00  0.00     0.251 C 
ATOM      5  O   UNL A   1      31.219  27.922  27.685  1.00  0.00    -0.270 OA
ATOM      6  H   UNL A   1      32.813  29.361  28.624  1.00  0.00     0.163 HD
BRANCH   4   7
ATOM      7  C   UNL A   1      32.765  27.204  26.075  1.00  0.00     0.067 C 
ATOM      8  C   UNL A   1      33.707  24.884  22.692  1.00  0.00     0.165 A 
ATOM      9  C   UNL A   1      34.012  23.525  22.854  1.00  0.00     0.097 A 
ATOM     10  C   UNL A   1      33.413  25.682  23.804  1.00  0.00     0.170 A 
ATOM     11  C   UNL A   1      34.073  22.964  24.127  1.00  0.00     0.134 A 
ATOM     12  C   UNL A   1      33.486  25.126  25.079  1.00  0.00     0.025 A 
ATOM     13  O   UNL A   1      32.963  26.954  23.601  1.00  0.00    -0.471 OA
ATOM     14  C   UNL A   1      33.822  23.776  25.236  1.00  0.00     0.059 A 
ATOM     15  C   UNL A   1      33.119  25.922  26.239  1.00  0.00     0.026 C 
ATOM     16  C   UNL A   1      32.943  27.883  24.722  1.00  0.00     0.314 C 
BRANCH   8  17
ATOM     17  O   UNL A   1      33.652  25.312  21.389  1.00  0.00    -0.493 OA
ATOM     18  C   UNL A   1      32.327  25.574  20.928  1.00  0.00     0.278 C 
ENDBRANCH   8  17
BRANCH  11  19
ATOM     19  O   UNL A   1      34.342  21.662  24.435  1.00  0.00    -0.406 OA
BRANCH  19  20
ATOM     20  C   UNL A   1      35.665  21.329  24.818  1.00  0.00     0.573 C 
ATOM     21  F   UNL A   1      36.572  21.989  24.067  1.00  0.00    -0.132 F 
ATOM     22  F   UNL A   1      35.873  21.599  26.123  1.00  0.00    -0.132 F 
ATOM     23  F   UNL A   1      35.848  20.004  24.628  1.00  0.00    -0.132 F 
ENDBRANCH  19  20
ENDBRANCH  11  19
BRANCH  16  24
ATOM     24  C   UNL A   1      31.929  28.996  24.363  1.00  0.00     0.429 C 
ATOM     25  F   UNL A   1      32.180  30.159  25.004  1.00  0.00    -0.167 F 
ATOM     26  F   UNL A   1      31.992  29.296  23.037  1.00  0.00    -0.167 F 
ATOM     27  F   UNL A   1      30.652  28.633  24.622  1.00  0.00    -0.167 F 
ENDBRANCH  16  24
ENDBRANCH   4   7
ENDBRANCH   2   3
ENDBRANCH   1   2
BRANCH   1  28
ATOM     28  C   UNL A   1      33.259  31.845  27.658  1.00  0.00     0.023 C 
BRANCH  28  29
ATOM     29  C   UNL A   1      33.492  33.294  27.251  1.00  0.00     0.116 C 
BRANCH  29  30
ATOM     30  N   UNL A   1      32.883  34.249  28.164  1.00  0.00    -0.352 N 
ATOM     31  C   UNL A   1      33.280  34.585  29.436  1.00  0.00     0.251 C 
ATOM     32  H   UNL A   1      32.084  34.714  27.828  1.00  0.00     0.163 HD
ATOM     33  O   UNL A   1      32.600  35.335  30.122  1.00  0.00    -0.269 OA
BRANCH  31  34
ATOM     34  C   UNL A   1      34.517  33.992  29.982  1.00  0.00     0.039 A 
ATOM     35  C   UNL A   1      34.412  33.047  31.004  1.00  0.00     0.014 A 
ATOM     36  C   UNL A   1      35.766  34.340  29.462  1.00  0.00     0.014 A 
ATOM     37  C   UNL A   1      35.560  32.398  31.461  1.00  0.00     0.010 A 
ATOM     38  C   UNL A   1      36.899  33.645  29.871  1.00  0.00     0.010 A 
ATOM     39  C   UNL A   1      36.806  32.668  30.872  1.00  0.00    -0.014 A 
BRANCH  39  40
ATOM     40  C   UNL A   1      38.025  31.934  31.289  1.00  0.00     0.031 A 
ATOM     41  C   UNL A   1      38.791  32.377  32.502  1.00  0.00     0.074 A 
ATOM     42  C   UNL A   1      38.478  30.916  30.534  1.00  0.00     0.049 A 
ATOM     43  N   UNL A   1      39.915  31.912  32.984  1.00  0.00    -0.248 NA
ATOM     44  C   UNL A   1      38.236  33.511  33.256  1.00  0.00     0.031 C 
ATOM     45  C   UNL A   1      37.848  30.425  29.305  1.00  0.00     0.029 A 
ATOM     46  N   UNL A   1      39.581  30.116  30.682  1.00  0.00    -0.354 N 
ATOM     47  C   UNL A   1      40.208  32.705  34.086  1.00  0.00     0.074 A 
ATOM     48  C   UNL A   1      39.172  33.712  34.172  1.00  0.00     0.031 C 
ATOM     49  C   UNL A   1      38.564  29.395  28.826  1.00  0.00     0.029 A 
ATOM     50  C   UNL A   1      39.718  29.174  29.691  1.00  0.00     0.049 A 
ATOM     51  H   UNL A   1      40.217  30.208  31.429  1.00  0.00     0.167 HD
ATOM     52  C   UNL A   1      41.235  32.590  34.960  1.00  0.00     0.037 A 
ATOM     53  C   UNL A   1      40.668  28.241  29.502  1.00  0.00     0.037 A 
ATOM     54  C   UNL A   1      42.248  31.570  34.888  1.00  0.00     0.049 A 
ATOM     55  C   UNL A   1      41.796  28.131  30.489  1.00  0.00     0.074 A 
ATOM     56  C   UNL A   1      43.294  31.329  35.761  1.00  0.00     0.029 A 
ATOM     57  N   UNL A   1      42.339  30.620  33.882  1.00  0.00    -0.354 N 
ATOM     58  N   UNL A   1      42.024  28.843  31.566  1.00  0.00    -0.248 NA
ATOM     59  C   UNL A   1      42.795  27.084  30.238  1.00  0.00     0.031 C 
ATOM     60  C   UNL A   1      44.040  30.255  35.264  1.00  0.00     0.029 A 
ATOM     61  C   UNL A   1      43.434  29.801  34.103  1.00  0.00     0.049 A 
ATOM     62  H   UNL A   1      41.717  30.539  33.123  1.00  0.00     0.167 HD
ATOM     63  C   UNL A   1      43.175  28.315  32.135  1.00  0.00     0.074 A 
ATOM     64  C   UNL A   1      43.591  27.214  31.291  1.00  0.00     0.031 C 
ATOM     65  C   UNL A   1      43.827  28.705  33.256  1.00  0.00     0.037 A 
BRANCH  52  66
ATOM     66  C   UNL A   1      41.309  33.594  36.073  1.00  0.00     0.057 A 
ATOM     67  C   UNL A   1      40.615  33.409  37.277  1.00  0.00     0.134 A 
ATOM     68  C   UNL A   1      42.097  34.744  35.951  1.00  0.00     0.134 A 
ATOM     69  F   UNL A   1      39.831  32.335  37.453  1.00  0.00    -0.206 F 
ATOM     70  C   UNL A   1      40.682  34.347  38.309  1.00  0.00     0.040 A 
ATOM     71  C   UNL A   1      42.193  35.676  36.985  1.00  0.00     0.040 A 
ATOM     72  F   UNL A   1      42.790  34.979  34.826  1.00  0.00    -0.206 F 
ATOM     73  C   UNL A   1      41.478  35.482  38.166  1.00  0.00     0.006 A 
ENDBRANCH  52  66
BRANCH  53  74
ATOM     74  C   UNL A   1      40.579  27.313  28.348  1.00  0.00     0.057 A 
ATOM     75  C   UNL A   1      41.288  27.564  27.167  1.00  0.00     0.134 A 
ATOM     76  C   UNL A   1      39.783  26.161  28.391  1.00  0.00     0.134 A 
ATOM     77  F   UNL A   1      42.053  28.660  27.062  1.00  0.00    -0.206 F 
ATOM     78  C   UNL A   1      41.196  26.714  26.064  1.00  0.00     0.040 A 
ATOM     79  C   UNL A   1      39.700  25.292  27.303  1.00  0.00     0.040 A 
ATOM     80  F   UNL A   1      39.086  25.862  29.496  1.00  0.00    -0.206 F 
ATOM     81  C   UNL A   1      40.402  25.572  26.133  1.00  0.00     0.006 A 
ENDBRANCH  53  74
BRANCH  65  82
ATOM     82  C   UNL A   1      45.039  27.915  33.653  1.00  0.00     0.057 A 
ATOM     83  C   UNL A   1      44.944  26.770  34.453  1.00  0.00     0.134 A 
ATOM     84  C   UNL A   1      46.309  28.284  33.195  1.00  0.00     0.134 A 
ATOM     85  F   UNL A   1      43.756  26.373  34.935  1.00  0.00    -0.206 F 
ATOM     86  C   UNL A   1      46.075  26.030  34.802  1.00  0.00     0.040 A 
ATOM     87  C   UNL A   1      47.444  27.538  33.516  1.00  0.00     0.040 A 
ATOM     88  F   UNL A   1      46.467  29.366  32.418  1.00  0.00    -0.206 F 
ATOM     89  C   UNL A   1      47.329  26.410  34.326  1.00  0.00     0.006 A 
ENDBRANCH  65  82
ENDBRANCH  39  40
ENDBRANCH  31  34
ENDBRANCH  29  30
ENDBRANCH  28  29
ENDBRANCH   1  28
TORSDOF 15
ENDMDL
MODEL 2
REMARK VINA RESULT:     -11.5      0.725      6.051
REMARK SMILES COc1cc(OC(F)(F)F)cc2c1O[C@@H](C(F)(F)F)C(C(=O)NCCCCNC(=O)c1ccc(-c3c4nc(c(-c5c(F)cccc5F)c5ccc([nH]5)c(-c5c(F)cccc5F)c5nc(c(-c6c(F)cccc6F)c6ccc3[nH]6)C=C5)C=C4)cc1)=C2
REMARK SMILES IDX 25 1 24 2 23 3 21 4 22 5 20 7 3 8 4 9 13 10 5 11 12 12 14 13
REMARK SMILES IDX 11 14 85 15 15 16 2 17 1 18 6 19 7 20 8 21 9 22 10 23 16 24
REMARK SMILES IDX 17 25 18 26 19 27 26 28 27 29 28 30 29 31 30 33 31 34 32 35
REMARK SMILES IDX 84 36 33 37 83 38 34 39 35 40 36 41 77 42 37 43 82 44 76 45
REMARK SMILES IDX 78 46 38 47 81 48 75 49 74 50 39 52 65 53 48 54 64 55 49 56
REMARK SMILES IDX 52 57 63 58 79 59 50 60 51 61 62 63 80 64 53 65 40 66 41 67
REMARK SMILES IDX 46 68 42 69 43 70 45 71 47 72 44 73 66 74 67 75 72 76 68 77
REMARK SMILES IDX 69 78 71 79 73 80 70 81 54 82 55 83 60 84 56 85 57 86 59 87
REMARK SMILES IDX 61 88 58 89
REMARK H PARENT 23 6 28 32 78 51 52 62
REMARK Flexibility Score: inf
ROOT
ATOM      1  C   UNL A   1      34.693  30.771  27.869  1.00  0.00     0.023 C 
ENDROOT
BRANCH   1   2
ATOM      2  C   UNL A   1      34.556  29.297  27.468  1.00  0.00     0.116 C 
BRANCH   2   3
ATOM      3  N   UNL A   1      33.244  28.801  27.841  1.00  0.00    -0.352 N 
ATOM      4  C   UNL A   1      32.385  27.942  27.233  1.00  0.00     0.251 C 
ATOM      5  O   UNL A   1      31.250  27.842  27.694  1.00  0.00    -0.270 OA
ATOM      6  H   UNL A   1      32.914  29.154  28.698  1.00  0.00     0.163 HD
BRANCH   4   7
ATOM      7  C   UNL A   1      32.776  27.076  26.088  1.00  0.00     0.067 C 
ATOM      8  C   UNL A   1      33.630  24.795  22.654  1.00  0.00     0.165 A 
ATOM      9  C   UNL A   1      33.857  23.417  22.784  1.00  0.00     0.097 A 
ATOM     10  C   UNL A   1      33.367  25.579  23.784  1.00  0.00     0.170 A 
ATOM     11  C   UNL A   1      33.869  22.821  24.042  1.00  0.00     0.134 A 
ATOM     12  C   UNL A   1      33.392  24.987  25.045  1.00  0.00     0.025 A 
ATOM     13  O   UNL A   1      32.992  26.879  23.610  1.00  0.00    -0.471 OA
ATOM     14  C   UNL A   1      33.650  23.616  25.169  1.00  0.00     0.059 A 
ATOM     15  C   UNL A   1      33.056  25.772  26.221  1.00  0.00     0.026 C 
ATOM     16  C   UNL A   1      33.009  27.779  24.756  1.00  0.00     0.314 C 
BRANCH   8  17
ATOM     17  O   UNL A   1      33.616  25.259  21.363  1.00  0.00    -0.493 OA
ATOM     18  C   UNL A   1      32.308  25.554  20.875  1.00  0.00     0.278 C 
ENDBRANCH   8  17
BRANCH  11  19
ATOM     19  O   UNL A   1      34.060  21.498  24.318  1.00  0.00    -0.406 OA
BRANCH  19  20
ATOM     20  C   UNL A   1      35.310  21.106  24.860  1.00  0.00     0.573 C 
ATOM     21  F   UNL A   1      35.388  21.401  26.174  1.00  0.00    -0.132 F 
ATOM     22  F   UNL A   1      35.523  19.786  24.676  1.00  0.00    -0.132 F 
ATOM     23  F   UNL A   1      36.288  21.784  24.219  1.00  0.00    -0.132 F 
ENDBRANCH  19  20
ENDBRANCH  11  19
BRANCH  16  24
ATOM     24  C   UNL A   1      32.065  28.955  24.415  1.00  0.00     0.429 C 
ATOM     25  F   UNL A   1      32.379  30.089  25.081  1.00  0.00    -0.167 F 
ATOM     26  F   UNL A   1      32.152  29.278  23.096  1.00  0.00    -0.167 F 
ATOM     27  F   UNL A   1      30.767  28.664  24.661  1.00  0.00    -0.167 F 
ENDBRANCH  16  24
ENDBRANCH   4   7
ENDBRANCH   2   3
ENDBRANCH   1   2
BRANCH   1  28
ATOM     28  C   UNL A   1      33.364  31.527  27.954  1.00  0.00     0.023 C 
BRANCH  28  29
ATOM     29  C   UNL A   1      33.273  32.755  27.058  1.00  0.00     0.116 C 
BRANCH  29  30
ATOM     30  N   UNL A   1      32.737  33.922  27.741  1.00  0.00    -0.352 N 
ATOM     31  C   UNL A   1      33.247  34.582  28.834  1.00  0.00     0.251 C 
ATOM     32  H   UNL A   1      31.900  34.286  27.373  1.00  0.00     0.163 HD
ATOM     33  O   UNL A   1      32.622  35.491  29.360  1.00  0.00    -0.269 OA
BRANCH  31  34
ATOM     34  C   UNL A   1      34.543  34.146  29.392  1.00  0.00     0.039 A 
ATOM     35  C   UNL A   1      34.549  33.443  30.599  1.00  0.00     0.014 A 
ATOM     36  C   UNL A   1      35.737  34.399  28.712  1.00  0.00     0.014 A 
ATOM     37  C   UNL A   1      35.751  32.932  31.091  1.00  0.00     0.010 A 
ATOM     38  C   UNL A   1      36.922  33.833  29.168  1.00  0.00     0.010 A 
ATOM     39  C   UNL A   1      36.939  33.094  30.360  1.00  0.00    -0.014 A 
BRANCH  39  40
ATOM     40  C   UNL A   1      38.212  32.492  30.825  1.00  0.00     0.031 A 
ATOM     41  C   UNL A   1      38.711  31.217  30.208  1.00  0.00     0.074 A 
ATOM     42  C   UNL A   1      38.878  33.057  31.850  1.00  0.00     0.049 A 
ATOM     43  N   UNL A   1      39.758  30.501  30.524  1.00  0.00    -0.248 NA
ATOM     44  C   UNL A   1      37.909  30.658  29.108  1.00  0.00     0.031 C 
ATOM     45  C   UNL A   1      38.467  34.268  32.564  1.00  0.00     0.029 A 
ATOM     46  N   UNL A   1      40.037  32.680  32.477  1.00  0.00    -0.354 N 
ATOM     47  C   UNL A   1      39.733  29.402  29.676  1.00  0.00     0.074 A 
ATOM     48  C   UNL A   1      38.540  29.519  28.866  1.00  0.00     0.031 C 
ATOM     49  C   UNL A   1      39.373  34.546  33.516  1.00  0.00     0.029 A 
ATOM     50  C   UNL A   1      40.408  33.517  33.501  1.00  0.00     0.049 A 
ATOM     51  H   UNL A   1      40.556  31.884  32.218  1.00  0.00     0.167 HD
ATOM     52  C   UNL A   1      40.635  28.399  29.567  1.00  0.00     0.037 A 
ATOM     53  C   UNL A   1      41.462  33.458  34.336  1.00  0.00     0.037 A 
ATOM     54  C   UNL A   1      41.835  28.300  30.355  1.00  0.00     0.049 A 
ATOM     55  C   UNL A   1      42.450  32.336  34.192  1.00  0.00     0.074 A 
ATOM     56  C   UNL A   1      42.845  27.358  30.276  1.00  0.00     0.029 A 
ATOM     57  N   UNL A   1      42.187  29.180  31.367  1.00  0.00    -0.354 N 
ATOM     58  N   UNL A   1      42.452  31.340  33.339  1.00  0.00    -0.248 NA
ATOM     59  C   UNL A   1      43.588  32.333  35.121  1.00  0.00     0.031 C 
ATOM     60  C   UNL A   1      43.790  27.646  31.266  1.00  0.00     0.029 A 
ATOM     61  C   UNL A   1      43.390  28.792  31.934  1.00  0.00     0.049 A 
ATOM     62  H   UNL A   1      41.660  29.965  31.643  1.00  0.00     0.167 HD
ATOM     63  C   UNL A   1      43.600  30.608  33.610  1.00  0.00     0.074 A 
ATOM     64  C   UNL A   1      44.278  31.282  34.698  1.00  0.00     0.031 C 
ATOM     65  C   UNL A   1      44.053  29.481  33.011  1.00  0.00     0.037 A 
BRANCH  52  66
ATOM     66  C   UNL A   1      40.357  27.329  28.552  1.00  0.00     0.057 A 
ATOM     67  C   UNL A   1      39.504  26.252  28.832  1.00  0.00     0.134 A 
ATOM     68  C   UNL A   1      40.928  27.386  27.275  1.00  0.00     0.134 A 
ATOM     69  F   UNL A   1      38.936  26.132  30.042  1.00  0.00    -0.206 F 
ATOM     70  C   UNL A   1      39.251  25.257  27.887  1.00  0.00     0.040 A 
ATOM     71  C   UNL A   1      40.662  26.410  26.313  1.00  0.00     0.040 A 
ATOM     72  F   UNL A   1      41.750  28.391  26.941  1.00  0.00    -0.206 F 
ATOM     73  C   UNL A   1      39.826  25.338  26.621  1.00  0.00     0.006 A 
ENDBRANCH  52  66
BRANCH  53  74
ATOM     74  C   UNL A   1      41.655  34.510  35.364  1.00  0.00     0.057 A 
ATOM     75  C   UNL A   1      41.152  34.351  36.660  1.00  0.00     0.134 A 
ATOM     76  C   UNL A   1      42.338  35.699  35.077  1.00  0.00     0.134 A 
ATOM     77  F   UNL A   1      40.475  33.241  36.988  1.00  0.00    -0.206 F 
ATOM     78  C   UNL A   1      41.305  35.342  37.631  1.00  0.00     0.040 A 
ATOM     79  C   UNL A   1      42.517  36.688  36.045  1.00  0.00     0.040 A 
ATOM     80  F   UNL A   1      42.850  35.908  33.856  1.00  0.00    -0.206 F 
ATOM     81  C   UNL A   1      41.993  36.513  37.324  1.00  0.00     0.006 A 
ENDBRANCH  53  74
BRANCH  65  82
ATOM     82  C   UNL A   1      45.359  28.925  33.496  1.00  0.00     0.057 A 
ATOM     83  C   UNL A   1      45.419  27.962  34.510  1.00  0.00     0.134 A 
ATOM     84  C   UNL A   1      46.565  29.333  32.915  1.00  0.00     0.134 A 
ATOM     85  F   UNL A   1      44.298  27.540  35.117  1.00  0.00    -0.206 F 
ATOM     86  C   UNL A   1      46.638  27.435  34.943  1.00  0.00     0.040 A 
ATOM     87  C   UNL A   1      47.788  28.797  33.322  1.00  0.00     0.040 A 
ATOM     88  F   UNL A   1      46.575  30.248  31.934  1.00  0.00    -0.206 F 
ATOM     89  C   UNL A   1      47.826  27.849  34.343  1.00  0.00     0.006 A 
ENDBRANCH  65  82
ENDBRANCH  39  40
ENDBRANCH  31  34
ENDBRANCH  29  30
ENDBRANCH  28  29
ENDBRANCH   1  28
TORSDOF 15
ENDMDL
MODEL 3
REMARK VINA RESULT:     -11.2      3.774      8.401
REMARK SMILES COc1cc(OC(F)(F)F)cc2c1O[C@@H](C(F)(F)F)C(C(=O)NCCCCNC(=O)c1ccc(-c3c4nc(c(-c5c(F)cccc5F)c5ccc([nH]5)c(-c5c(F)cccc5F)c5nc(c(-c6c(F)cccc6F)c6ccc3[nH]6)C=C5)C=C4)cc1)=C2
REMARK SMILES IDX 25 1 24 2 23 3 21 4 22 5 20 7 3 8 4 9 13 10 5 11 12 12 14 13
REMARK SMILES IDX 11 14 85 15 15 16 2 17 1 18 6 19 7 20 8 21 9 22 10 23 16 24
REMARK SMILES IDX 17 25 18 26 19 27 26 28 27 29 28 30 29 31 30 33 31 34 32 35
REMARK SMILES IDX 84 36 33 37 83 38 34 39 35 40 36 41 77 42 37 43 82 44 76 45
REMARK SMILES IDX 78 46 38 47 81 48 75 49 74 50 39 52 65 53 48 54 64 55 49 56
REMARK SMILES IDX 52 57 63 58 79 59 50 60 51 61 62 63 80 64 53 65 40 66 41 67
REMARK SMILES IDX 46 68 42 69 43 70 45 71 47 72 44 73 66 74 67 75 72 76 68 77
REMARK SMILES IDX 69 78 71 79 73 80 70 81 54 82 55 83 60 84 56 85 57 86 59 87
REMARK SMILES IDX 61 88 58 89
REMARK H PARENT 23 6 28 32 78 51 52 62
REMARK Flexibility Score: inf
ROOT
ATOM      1  C   UNL A   1      35.115  23.000  26.458  1.00  0.00     0.023 C 
ENDROOT
BRANCH   1   2
ATOM      2  C   UNL A   1      33.975  22.971  25.433  1.00  0.00     0.116 C 
BRANCH   2   3
ATOM      3  N   UNL A   1      32.715  22.698  26.100  1.00  0.00    -0.352 N 
ATOM      4  C   UNL A   1      31.712  23.509  26.528  1.00  0.00     0.251 C 
ATOM      5  O   UNL A   1      30.834  23.015  27.232  1.00  0.00    -0.270 OA
ATOM      6  H   UNL A   1      32.555  21.743  26.274  1.00  0.00     0.163 HD
BRANCH   4   7
ATOM      7  C   UNL A   1      31.597  24.939  26.131  1.00  0.00     0.067 C 
ATOM      8  C   UNL A   1      31.358  28.880  24.671  1.00  0.00     0.165 A 
ATOM      9  C   UNL A   1      31.899  29.927  25.430  1.00  0.00     0.097 A 
ATOM     10  C   UNL A   1      31.403  27.564  25.146  1.00  0.00     0.170 A 
ATOM     11  C   UNL A   1      32.448  29.677  26.685  1.00  0.00     0.134 A 
ATOM     12  C   UNL A   1      31.940  27.313  26.407  1.00  0.00     0.025 A 
ATOM     13  O   UNL A   1      31.016  26.551  24.318  1.00  0.00    -0.471 OA
ATOM     14  C   UNL A   1      32.452  28.368  27.172  1.00  0.00     0.059 A 
ATOM     15  C   UNL A   1      32.057  25.945  26.886  1.00  0.00     0.026 C 
ATOM     16  C   UNL A   1      30.773  25.231  24.882  1.00  0.00     0.314 C 
BRANCH   8  17
ATOM     17  O   UNL A   1      30.871  29.249  23.443  1.00  0.00    -0.493 OA
ATOM     18  C   UNL A   1      29.593  29.881  23.499  1.00  0.00     0.278 C 
ENDBRANCH   8  17
BRANCH  11  19
ATOM     19  O   UNL A   1      33.022  30.589  27.524  1.00  0.00    -0.406 OA
BRANCH  19  20
ATOM     20  C   UNL A   1      34.437  30.630  27.592  1.00  0.00     0.573 C 
ATOM     21  F   UNL A   1      34.993  29.693  26.796  1.00  0.00    -0.132 F 
ATOM     22  F   UNL A   1      34.901  31.850  27.251  1.00  0.00    -0.132 F 
ATOM     23  F   UNL A   1      34.814  30.376  28.865  1.00  0.00    -0.132 F 
ENDBRANCH  19  20
ENDBRANCH  11  19
BRANCH  16  24
ATOM     24  C   UNL A   1      30.890  24.218  23.719  1.00  0.00     0.429 C 
ATOM     25  F   UNL A   1      30.642  22.946  24.104  1.00  0.00    -0.167 F 
ATOM     26  F   UNL A   1      29.971  24.486  22.751  1.00  0.00    -0.167 F 
ATOM     27  F   UNL A   1      32.105  24.254  23.124  1.00  0.00    -0.167 F 
ENDBRANCH  16  24
ENDBRANCH   4   7
ENDBRANCH   2   3
ENDBRANCH   1   2
BRANCH   1  28
ATOM     28  C   UNL A   1      36.271  23.933  26.089  1.00  0.00     0.023 C 
BRANCH  28  29
ATOM     29  C   UNL A   1      37.266  23.350  25.095  1.00  0.00     0.116 C 
BRANCH  29  30
ATOM     30  N   UNL A   1      38.192  22.406  25.701  1.00  0.00    -0.352 N 
ATOM     31  C   UNL A   1      39.279  22.668  26.500  1.00  0.00     0.251 C 
ATOM     32  H   UNL A   1      38.017  21.455  25.515  1.00  0.00     0.163 HD
ATOM     33  O   UNL A   1      40.025  21.766  26.851  1.00  0.00    -0.269 OA
BRANCH  31  34
ATOM     34  C   UNL A   1      39.559  24.064  26.893  1.00  0.00     0.039 A 
ATOM     35  C   UNL A   1      39.298  24.455  28.208  1.00  0.00     0.014 A 
ATOM     36  C   UNL A   1      40.109  24.967  25.980  1.00  0.00     0.014 A 
ATOM     37  C   UNL A   1      39.652  25.737  28.628  1.00  0.00     0.010 A 
ATOM     38  C   UNL A   1      40.522  26.221  26.417  1.00  0.00     0.010 A 
ATOM     39  C   UNL A   1      40.299  26.616  27.744  1.00  0.00    -0.014 A 
BRANCH  39  40
ATOM     40  C   UNL A   1      40.754  27.954  28.191  1.00  0.00     0.031 A 
ATOM     41  C   UNL A   1      42.219  28.286  28.200  1.00  0.00     0.074 A 
ATOM     42  C   UNL A   1      39.854  28.842  28.654  1.00  0.00     0.049 A 
ATOM     43  N   UNL A   1      42.817  29.370  28.621  1.00  0.00    -0.248 NA
ATOM     44  C   UNL A   1      43.133  27.250  27.696  1.00  0.00     0.031 C 
ATOM     45  C   UNL A   1      38.409  28.617  28.742  1.00  0.00     0.029 A 
ATOM     46  N   UNL A   1      40.023  30.109  29.150  1.00  0.00    -0.354 N 
ATOM     47  C   UNL A   1      44.176  29.141  28.447  1.00  0.00     0.074 A 
ATOM     48  C   UNL A   1      44.317  27.797  27.931  1.00  0.00     0.031 C 
ATOM     49  C   UNL A   1      37.822  29.718  29.239  1.00  0.00     0.029 A 
ATOM     50  C   UNL A   1      38.850  30.711  29.536  1.00  0.00     0.049 A 
ATOM     51  H   UNL A   1      40.902  30.546  29.223  1.00  0.00     0.167 HD
ATOM     52  C   UNL A   1      45.210  29.984  28.677  1.00  0.00     0.037 A 
ATOM     53  C   UNL A   1      38.630  31.926  30.071  1.00  0.00     0.037 A 
ATOM     54  C   UNL A   1      45.065  31.330  29.163  1.00  0.00     0.049 A 
ATOM     55  C   UNL A   1      39.795  32.844  30.312  1.00  0.00     0.074 A 
ATOM     56  C   UNL A   1      46.045  32.285  29.368  1.00  0.00     0.029 A 
ATOM     57  N   UNL A   1      43.858  31.912  29.522  1.00  0.00    -0.354 N 
ATOM     58  N   UNL A   1      41.069  32.641  30.079  1.00  0.00    -0.248 NA
ATOM     59  C   UNL A   1      39.491  34.163  30.884  1.00  0.00     0.031 C 
ATOM     60  C   UNL A   1      45.435  33.433  29.885  1.00  0.00     0.029 A 
ATOM     61  C   UNL A   1      44.071  33.207  29.962  1.00  0.00     0.049 A 
ATOM     62  H   UNL A   1      42.980  31.470  29.470  1.00  0.00     0.167 HD
ATOM     63  C   UNL A   1      41.715  33.812  30.450  1.00  0.00     0.074 A 
ATOM     64  C   UNL A   1      40.691  34.726  30.911  1.00  0.00     0.031 C 
ATOM     65  C   UNL A   1      43.037  34.105  30.410  1.00  0.00     0.037 A 
BRANCH  52  66
ATOM     66  C   UNL A   1      46.592  29.470  28.396  1.00  0.00     0.057 A 
ATOM     67  C   UNL A   1      47.187  29.608  27.134  1.00  0.00     0.134 A 
ATOM     68  C   UNL A   1      47.346  28.853  29.402  1.00  0.00     0.134 A 
ATOM     69  F   UNL A   1      46.514  30.178  26.124  1.00  0.00    -0.206 F 
ATOM     70  C   UNL A   1      48.471  29.125  26.876  1.00  0.00     0.040 A 
ATOM     71  C   UNL A   1      48.640  28.389  29.163  1.00  0.00     0.040 A 
ATOM     72  F   UNL A   1      46.837  28.693  30.633  1.00  0.00    -0.206 F 
ATOM     73  C   UNL A   1      49.203  28.519  27.895  1.00  0.00     0.006 A 
ENDBRANCH  52  66
BRANCH  53  74
ATOM     74  C   UNL A   1      37.246  32.359  30.387  1.00  0.00     0.057 A 
ATOM     75  C   UNL A   1      36.616  31.949  31.567  1.00  0.00     0.134 A 
ATOM     76  C   UNL A   1      36.520  33.185  29.520  1.00  0.00     0.134 A 
ATOM     77  F   UNL A   1      37.257  31.144  32.428  1.00  0.00    -0.206 F 
ATOM     78  C   UNL A   1      35.307  32.328  31.867  1.00  0.00     0.040 A 
ATOM     79  C   UNL A   1      35.218  33.589  29.818  1.00  0.00     0.040 A 
ATOM     80  F   UNL A   1      37.071  33.618  28.377  1.00  0.00    -0.206 F 
ATOM     81  C   UNL A   1      34.606  33.154  30.992  1.00  0.00     0.006 A 
ENDBRANCH  53  74
BRANCH  65  82
ATOM     82  C   UNL A   1      43.447  35.481  30.846  1.00  0.00     0.057 A 
ATOM     83  C   UNL A   1      43.556  36.540  29.938  1.00  0.00     0.134 A 
ATOM     84  C   UNL A   1      43.695  35.754  32.196  1.00  0.00     0.134 A 
ATOM     85  F   UNL A   1      43.345  36.339  28.627  1.00  0.00    -0.206 F 
ATOM     86  C   UNL A   1      43.920  37.822  30.355  1.00  0.00     0.040 A 
ATOM     87  C   UNL A   1      44.035  37.036  32.629  1.00  0.00     0.040 A 
ATOM     88  F   UNL A   1      43.600  34.784  33.117  1.00  0.00    -0.206 F 
ATOM     89  C   UNL A   1      44.153  38.074  31.706  1.00  0.00     0.006 A 
ENDBRANCH  65  82
ENDBRANCH  39  40
ENDBRANCH  31  34
ENDBRANCH  29  30
ENDBRANCH  28  29
ENDBRANCH   1  28
TORSDOF 15
ENDMDL
