MODEL 1
REMARK VINA RESULT:     -13.2      0.000      0.000
REMARK SMILES CC(=O)Nc1cc(NC(C)=O)cc(C(=O)Nc2ccc(Br)cc2C(=O)NCCCCNC(=O)c2ccc(-c3c4nc(c(-c5c(F)cccc5F)c5ccc([nH]5)c(-c5c(F)cccc5F)c5nc(c(-c6c(F)cccc6F)c6ccc3[nH]6)C=C5)C=C4)cc2)c1
REMARK SMILES IDX 28 1 27 2 26 3 24 4 25 5 23 7 17 8 18 9 19 10 22 11 20 12
REMARK SMILES IDX 21 13 16 14 14 15 15 16 13 18 5 19 6 20 88 21 7 22 12 23
REMARK SMILES IDX 4 24 1 25 2 26 3 27 8 29 9 30 10 32 11 33 29 34 30 35 31 36
REMARK SMILES IDX 32 37 33 39 34 40 35 41 87 42 36 43 86 44 37 45 38 46 39 47
REMARK SMILES IDX 80 48 40 49 85 50 79 51 81 52 41 53 84 54 78 55 77 56 42 58
REMARK SMILES IDX 68 59 51 60 67 61 52 62 55 63 66 64 82 65 53 66 54 67 65 69
REMARK SMILES IDX 83 70 56 71 43 72 44 73 49 74 45 75 46 76 48 77 50 78 47 79
REMARK SMILES IDX 69 80 70 81 75 82 71 83 72 84 74 85 76 86 73 87 57 88 58 89
REMARK SMILES IDX 63 90 59 91 60 92 62 93 64 94 61 95
REMARK H PARENT 26 6 16 17 4 28 8 31 31 38 81 57 55 68
REMARK Flexibility Score: inf
ROOT
ATOM      1  C   UNL A   1      31.615  30.781  26.093  1.00  0.00     0.023 C 
ENDROOT
BRANCH   1   2
ATOM      2  C   UNL A   1      32.154  29.616  26.913  1.00  0.00     0.116 C 
BRANCH   2   3
ATOM      3  N   UNL A   1      33.041  28.731  26.188  1.00  0.00    -0.352 N 
ATOM      4  C   UNL A   1      32.740  27.785  25.239  1.00  0.00     0.253 C 
ATOM      5  O   UNL A   1      33.662  27.129  24.756  1.00  0.00    -0.269 OA
ATOM      6  H   UNL A   1      33.996  28.818  26.408  1.00  0.00     0.163 HD
BRANCH   4   7
ATOM      7  C   UNL A   1      31.338  27.468  24.846  1.00  0.00     0.064 A 
ATOM      8  C   UNL A   1      30.571  26.362  25.266  1.00  0.00     0.054 A 
ATOM      9  C   UNL A   1      29.359  26.091  24.607  1.00  0.00     0.028 A 
ATOM     10  C   UNL A   1      28.828  26.990  23.680  1.00  0.00     0.018 A 
ATOM     11  C   UNL A   1      30.774  28.388  23.937  1.00  0.00     0.031 A 
ATOM     12  C   UNL A   1      29.519  28.158  23.382  1.00  0.00     0.018 A 
ATOM     13  Br  UNL A   1      28.747  29.435  22.226  1.00  0.00    -0.051 Br
BRANCH   8  14
ATOM     14  N   UNL A   1      30.839  25.505  26.361  1.00  0.00    -0.321 N 
ATOM     15  C   UNL A   1      31.436  24.259  26.419  1.00  0.00     0.255 C 
ATOM     16  O   UNL A   1      31.314  23.576  27.434  1.00  0.00    -0.269 OA
ATOM     17  H   UNL A   1      30.550  25.858  27.234  1.00  0.00     0.170 HD
BRANCH  15  18
ATOM     18  C   UNL A   1      32.274  23.752  25.308  1.00  0.00     0.044 A 
ATOM     19  C   UNL A   1      34.246  22.572  24.573  1.00  0.00     0.044 A 
ATOM     20  C   UNL A   1      34.001  23.037  23.271  1.00  0.00     0.052 A 
ATOM     21  C   UNL A   1      33.328  22.870  25.566  1.00  0.00     0.040 A 
ATOM     22  C   UNL A   1      32.858  23.786  22.964  1.00  0.00     0.044 A 
ATOM     23  C   UNL A   1      32.006  24.169  24.002  1.00  0.00     0.040 A 
BRANCH  19  24
ATOM     24  N   UNL A   1      35.477  21.932  24.809  1.00  0.00    -0.326 N 
ATOM     25  C   UNL A   1      36.945  23.779  25.636  1.00  0.00     0.114 C 
ATOM     26  C   UNL A   1      36.725  22.388  25.114  1.00  0.00     0.221 C 
ATOM     27  O   UNL A   1      37.682  21.618  24.993  1.00  0.00    -0.275 OA
ATOM     28  H   UNL A   1      35.426  20.951  24.740  1.00  0.00     0.169 HD
ENDBRANCH  19  24
BRANCH  22  29
ATOM     29  N   UNL A   1      32.515  24.197  21.655  1.00  0.00    -0.326 N 
ATOM     30  C   UNL A   1      32.903  25.363  21.020  1.00  0.00     0.221 C 
ATOM     31  H   UNL A   1      31.936  23.588  21.142  1.00  0.00     0.169 HD
ATOM     32  C   UNL A   1      32.390  25.469  19.605  1.00  0.00     0.114 C 
ATOM     33  O   UNL A   1      33.613  26.249  21.484  1.00  0.00    -0.275 OA
ENDBRANCH  22  29
ENDBRANCH  15  18
ENDBRANCH   8  14
ENDBRANCH   4   7
ENDBRANCH   2   3
ENDBRANCH   1   2
BRANCH   1  34
ATOM     34  C   UNL A   1      31.415  32.099  26.843  1.00  0.00     0.023 C 
BRANCH  34  35
ATOM     35  C   UNL A   1      32.671  32.896  27.193  1.00  0.00     0.116 C 
BRANCH  35  36
ATOM     36  N   UNL A   1      32.409  34.216  27.735  1.00  0.00    -0.352 N 
ATOM     37  C   UNL A   1      33.069  34.939  28.706  1.00  0.00     0.251 C 
ATOM     38  H   UNL A   1      31.628  34.673  27.344  1.00  0.00     0.163 HD
ATOM     39  O   UNL A   1      32.613  36.006  29.092  1.00  0.00    -0.269 OA
BRANCH  37  40
ATOM     40  C   UNL A   1      34.313  34.413  29.313  1.00  0.00     0.039 A 
ATOM     41  C   UNL A   1      34.221  33.670  30.492  1.00  0.00     0.014 A 
ATOM     42  C   UNL A   1      35.563  34.654  28.738  1.00  0.00     0.014 A 
ATOM     43  C   UNL A   1      35.370  33.095  31.043  1.00  0.00     0.010 A 
ATOM     44  C   UNL A   1      36.692  34.008  29.236  1.00  0.00     0.010 A 
ATOM     45  C   UNL A   1      36.609  33.221  30.394  1.00  0.00    -0.014 A 
BRANCH  45  46
ATOM     46  C   UNL A   1      37.818  32.528  30.915  1.00  0.00     0.031 A 
ATOM     47  C   UNL A   1      38.519  33.032  32.147  1.00  0.00     0.074 A 
ATOM     48  C   UNL A   1      38.322  31.473  30.244  1.00  0.00     0.049 A 
ATOM     49  N   UNL A   1      39.591  32.566  32.738  1.00  0.00    -0.248 NA
ATOM     50  C   UNL A   1      37.961  34.236  32.782  1.00  0.00     0.031 C 
ATOM     51  C   UNL A   1      37.787  30.928  28.995  1.00  0.00     0.029 A 
ATOM     52  N   UNL A   1      39.401  30.670  30.518  1.00  0.00    -0.354 N 
ATOM     53  C   UNL A   1      39.842  33.426  33.799  1.00  0.00     0.074 A 
ATOM     54  C   UNL A   1      38.849  34.476  33.735  1.00  0.00     0.031 C 
ATOM     55  C   UNL A   1      38.516  29.862  28.631  1.00  0.00     0.029 A 
ATOM     56  C   UNL A   1      39.585  29.662  29.604  1.00  0.00     0.049 A 
ATOM     57  H   UNL A   1      39.987  30.804  31.298  1.00  0.00     0.167 HD
ATOM     58  C   UNL A   1      40.794  33.335  34.760  1.00  0.00     0.037 A 
ATOM     59  C   UNL A   1      40.505  28.680  29.559  1.00  0.00     0.037 A 
ATOM     60  C   UNL A   1      41.762  32.274  34.845  1.00  0.00     0.049 A 
ATOM     61  C   UNL A   1      41.526  28.576  30.657  1.00  0.00     0.074 A 
ATOM     62  C   UNL A   1      42.723  32.057  35.817  1.00  0.00     0.029 A 
ATOM     63  N   UNL A   1      41.891  31.248  33.921  1.00  0.00    -0.354 N 
ATOM     64  N   UNL A   1      41.700  29.349  31.701  1.00  0.00    -0.248 NA
ATOM     65  C   UNL A   1      42.468  27.450  30.580  1.00  0.00     0.031 C 
ATOM     66  C   UNL A   1      43.458  30.920  35.462  1.00  0.00     0.029 A 
ATOM     67  C   UNL A   1      42.925  30.403  34.293  1.00  0.00     0.049 A 
ATOM     68  H   UNL A   1      41.331  31.136  33.119  1.00  0.00     0.167 HD
ATOM     69  C   UNL A   1      42.749  28.790  32.418  1.00  0.00     0.074 A 
ATOM     70  C   UNL A   1      43.160  27.602  31.699  1.00  0.00     0.031 C 
ATOM     71  C   UNL A   1      43.323  29.223  33.569  1.00  0.00     0.037 A 
BRANCH  58  72
ATOM     72  C   UNL A   1      40.823  34.416  35.802  1.00  0.00     0.057 A 
ATOM     73  C   UNL A   1      41.612  35.566  35.651  1.00  0.00     0.134 A 
ATOM     74  C   UNL A   1      40.043  34.318  36.961  1.00  0.00     0.134 A 
ATOM     75  F   UNL A   1      42.393  35.718  34.571  1.00  0.00    -0.206 F 
ATOM     76  C   UNL A   1      41.651  36.560  36.631  1.00  0.00     0.040 A 
ATOM     77  C   UNL A   1      40.052  35.320  37.934  1.00  0.00     0.040 A 
ATOM     78  F   UNL A   1      39.261  33.249  37.167  1.00  0.00    -0.206 F 
ATOM     79  C   UNL A   1      40.864  36.441  37.774  1.00  0.00     0.006 A 
ENDBRANCH  58  72
BRANCH  59  80
ATOM     80  C   UNL A   1      40.474  27.683  28.459  1.00  0.00     0.057 A 
ATOM     81  C   UNL A   1      41.186  27.897  27.273  1.00  0.00     0.134 A 
ATOM     82  C   UNL A   1      39.733  26.501  28.562  1.00  0.00     0.134 A 
ATOM     83  F   UNL A   1      41.901  29.021  27.108  1.00  0.00    -0.206 F 
ATOM     84  C   UNL A   1      41.145  26.983  26.219  1.00  0.00     0.040 A 
ATOM     85  C   UNL A   1      39.703  25.566  27.526  1.00  0.00     0.040 A 
ATOM     86  F   UNL A   1      39.038  26.233  29.677  1.00  0.00    -0.206 F 
ATOM     87  C   UNL A   1      40.404  25.810  26.347  1.00  0.00     0.006 A 
ENDBRANCH  59  80
BRANCH  71  88
ATOM     88  C   UNL A   1      44.432  28.384  34.135  1.00  0.00     0.057 A 
ATOM     89  C   UNL A   1      45.775  28.613  33.809  1.00  0.00     0.134 A 
ATOM     90  C   UNL A   1      44.151  27.340  35.025  1.00  0.00     0.134 A 
ATOM     91  F   UNL A   1      46.110  29.589  32.952  1.00  0.00    -0.206 F 
ATOM     92  C   UNL A   1      46.797  27.813  34.323  1.00  0.00     0.040 A 
ATOM     93  C   UNL A   1      45.166  26.551  35.567  1.00  0.00     0.040 A 
ATOM     94  F   UNL A   1      42.887  27.072  35.385  1.00  0.00    -0.206 F 
ATOM     95  C   UNL A   1      46.493  26.781  35.209  1.00  0.00     0.006 A 
ENDBRANCH  71  88
ENDBRANCH  45  46
ENDBRANCH  37  40
ENDBRANCH  35  36
ENDBRANCH  34  35
ENDBRANCH   1  34
TORSDOF 15
ENDMDL
MODEL 2
REMARK VINA RESULT:     -13.1      0.726      5.948
REMARK SMILES CC(=O)Nc1cc(NC(C)=O)cc(C(=O)Nc2ccc(Br)cc2C(=O)NCCCCNC(=O)c2ccc(-c3c4nc(c(-c5c(F)cccc5F)c5ccc([nH]5)c(-c5c(F)cccc5F)c5nc(c(-c6c(F)cccc6F)c6ccc3[nH]6)C=C5)C=C4)cc2)c1
REMARK SMILES IDX 28 1 27 2 26 3 24 4 25 5 23 7 17 8 18 9 19 10 22 11 20 12
REMARK SMILES IDX 21 13 16 14 14 15 15 16 13 18 5 19 6 20 88 21 7 22 12 23
REMARK SMILES IDX 4 24 1 25 2 26 3 27 8 29 9 30 10 32 11 33 29 34 30 35 31 36
REMARK SMILES IDX 32 37 33 39 34 40 35 41 87 42 36 43 86 44 37 45 38 46 39 47
REMARK SMILES IDX 80 48 40 49 85 50 79 51 81 52 41 53 84 54 78 55 77 56 42 58
REMARK SMILES IDX 68 59 51 60 67 61 52 62 55 63 66 64 82 65 53 66 54 67 65 69
REMARK SMILES IDX 83 70 56 71 43 72 44 73 49 74 45 75 46 76 48 77 50 78 47 79
REMARK SMILES IDX 69 80 70 81 75 82 71 83 72 84 74 85 76 86 73 87 57 88 58 89
REMARK SMILES IDX 63 90 59 91 60 92 62 93 64 94 61 95
REMARK H PARENT 26 6 16 17 4 28 8 31 31 38 81 57 55 68
REMARK Flexibility Score: inf
ROOT
ATOM      1  C   UNL A   1      31.658  30.735  26.114  1.00  0.00     0.023 C 
ENDROOT
BRANCH   1   2
ATOM      2  C   UNL A   1      32.123  29.577  26.987  1.00  0.00     0.116 C 
BRANCH   2   3
ATOM      3  N   UNL A   1      33.004  28.640  26.322  1.00  0.00    -0.352 N 
ATOM      4  C   UNL A   1      32.710  27.697  25.368  1.00  0.00     0.253 C 
ATOM      5  O   UNL A   1      33.624  26.991  24.945  1.00  0.00    -0.269 OA
ATOM      6  H   UNL A   1      33.949  28.684  26.595  1.00  0.00     0.163 HD
BRANCH   4   7
ATOM      7  C   UNL A   1      31.318  27.443  24.901  1.00  0.00     0.064 A 
ATOM      8  C   UNL A   1      30.488  26.362  25.262  1.00  0.00     0.054 A 
ATOM      9  C   UNL A   1      29.301  26.150  24.540  1.00  0.00     0.028 A 
ATOM     10  C   UNL A   1      28.853  27.086  23.604  1.00  0.00     0.018 A 
ATOM     11  C   UNL A   1      30.837  28.400  23.982  1.00  0.00     0.031 A 
ATOM     12  C   UNL A   1      29.604  28.230  23.362  1.00  0.00     0.018 A 
ATOM     13  Br  UNL A   1      28.941  29.556  22.193  1.00  0.00    -0.051 Br
BRANCH   8  14
ATOM     14  N   UNL A   1      30.667  25.478  26.353  1.00  0.00    -0.321 N 
ATOM     15  C   UNL A   1      31.235  24.218  26.422  1.00  0.00     0.255 C 
ATOM     16  O   UNL A   1      31.034  23.517  27.412  1.00  0.00    -0.269 OA
ATOM     17  H   UNL A   1      30.328  25.818  27.213  1.00  0.00     0.170 HD
BRANCH  15  18
ATOM     18  C   UNL A   1      32.136  23.718  25.358  1.00  0.00     0.044 A 
ATOM     19  C   UNL A   1      34.159  22.565  24.730  1.00  0.00     0.044 A 
ATOM     20  C   UNL A   1      33.972  23.018  23.413  1.00  0.00     0.052 A 
ATOM     21  C   UNL A   1      33.189  22.855  25.674  1.00  0.00     0.040 A 
ATOM     22  C   UNL A   1      32.834  23.746  23.045  1.00  0.00     0.044 A 
ATOM     23  C   UNL A   1      31.926  24.122  24.037  1.00  0.00     0.040 A 
BRANCH  19  24
ATOM     24  N   UNL A   1      35.387  21.946  25.030  1.00  0.00    -0.326 N 
ATOM     25  C   UNL A   1      36.845  23.854  25.729  1.00  0.00     0.114 C 
ATOM     26  C   UNL A   1      36.632  22.426  25.315  1.00  0.00     0.221 C 
ATOM     27  O   UNL A   1      37.590  21.650  25.266  1.00  0.00    -0.275 OA
ATOM     28  H   UNL A   1      35.337  20.963  25.038  1.00  0.00     0.169 HD
ENDBRANCH  19  24
BRANCH  22  29
ATOM     29  N   UNL A   1      32.549  24.143  21.718  1.00  0.00    -0.326 N 
ATOM     30  C   UNL A   1      32.938  25.317  21.099  1.00  0.00     0.221 C 
ATOM     31  H   UNL A   1      32.016  23.516  21.178  1.00  0.00     0.169 HD
ATOM     32  C   UNL A   1      32.498  25.405  19.658  1.00  0.00     0.114 C 
ATOM     33  O   UNL A   1      33.597  26.225  21.596  1.00  0.00    -0.275 OA
ENDBRANCH  22  29
ENDBRANCH  15  18
ENDBRANCH   8  14
ENDBRANCH   4   7
ENDBRANCH   2   3
ENDBRANCH   1   2
BRANCH   1  34
ATOM     34  C   UNL A   1      31.419  32.066  26.829  1.00  0.00     0.023 C 
BRANCH  34  35
ATOM     35  C   UNL A   1      32.654  32.872  27.227  1.00  0.00     0.116 C 
BRANCH  35  36
ATOM     36  N   UNL A   1      32.371  34.231  27.650  1.00  0.00    -0.352 N 
ATOM     37  C   UNL A   1      32.972  35.020  28.608  1.00  0.00     0.251 C 
ATOM     38  H   UNL A   1      31.623  34.661  27.174  1.00  0.00     0.163 HD
ATOM     39  O   UNL A   1      32.502  36.116  28.881  1.00  0.00    -0.269 OA
BRANCH  37  40
ATOM     40  C   UNL A   1      34.165  34.534  29.336  1.00  0.00     0.039 A 
ATOM     41  C   UNL A   1      33.997  33.990  30.612  1.00  0.00     0.014 A 
ATOM     42  C   UNL A   1      35.443  34.620  28.779  1.00  0.00     0.014 A 
ATOM     43  C   UNL A   1      35.095  33.451  31.288  1.00  0.00     0.010 A 
ATOM     44  C   UNL A   1      36.520  34.003  29.414  1.00  0.00     0.010 A 
ATOM     45  C   UNL A   1      36.359  33.412  30.675  1.00  0.00    -0.014 A 
BRANCH  45  46
ATOM     46  C   UNL A   1      37.511  32.750  31.343  1.00  0.00     0.031 A 
ATOM     47  C   UNL A   1      38.174  31.552  30.719  1.00  0.00     0.074 A 
ATOM     48  C   UNL A   1      37.929  33.195  32.545  1.00  0.00     0.049 A 
ATOM     49  N   UNL A   1      39.179  30.839  31.162  1.00  0.00    -0.248 NA
ATOM     50  C   UNL A   1      37.614  31.073  29.445  1.00  0.00     0.031 C 
ATOM     51  C   UNL A   1      37.328  34.297  33.297  1.00  0.00     0.029 A 
ATOM     52  N   UNL A   1      38.958  32.769  33.348  1.00  0.00    -0.354 N 
ATOM     53  C   UNL A   1      39.360  29.822  30.233  1.00  0.00     0.074 A 
ATOM     54  C   UNL A   1      38.322  29.973  29.236  1.00  0.00     0.031 C 
ATOM     55  C   UNL A   1      38.019  34.484  34.432  1.00  0.00     0.029 A 
ATOM     56  C   UNL A   1      39.094  33.501  34.503  1.00  0.00     0.049 A 
ATOM     57  H   UNL A   1      39.543  32.012  33.118  1.00  0.00     0.167 HD
ATOM     58  C   UNL A   1      40.320  28.866  30.194  1.00  0.00     0.037 A 
ATOM     59  C   UNL A   1      39.992  33.398  35.502  1.00  0.00     0.037 A 
ATOM     60  C   UNL A   1      41.372  28.734  31.168  1.00  0.00     0.049 A 
ATOM     61  C   UNL A   1      41.071  32.356  35.417  1.00  0.00     0.074 A 
ATOM     62  C   UNL A   1      42.429  27.841  31.180  1.00  0.00     0.029 A 
ATOM     63  N   UNL A   1      41.500  29.520  32.303  1.00  0.00    -0.354 N 
ATOM     64  N   UNL A   1      41.280  31.453  34.490  1.00  0.00    -0.248 NA
ATOM     65  C   UNL A   1      42.052  32.331  36.512  1.00  0.00     0.031 C 
ATOM     66  C   UNL A   1      43.177  28.063  32.343  1.00  0.00     0.029 A 
ATOM     67  C   UNL A   1      42.611  29.124  33.031  1.00  0.00     0.049 A 
ATOM     68  H   UNL A   1      40.891  30.252  32.555  1.00  0.00     0.167 HD
ATOM     69  C   UNL A   1      42.428  30.773  34.873  1.00  0.00     0.074 A 
ATOM     70  C   UNL A   1      42.881  31.380  36.108  1.00  0.00     0.031 C 
ATOM     71  C   UNL A   1      43.052  29.737  34.258  1.00  0.00     0.037 A 
BRANCH  58  72
ATOM     72  C   UNL A   1      40.275  27.893  29.052  1.00  0.00     0.057 A 
ATOM     73  C   UNL A   1      40.990  28.113  27.866  1.00  0.00     0.134 A 
ATOM     74  C   UNL A   1      39.523  26.715  29.141  1.00  0.00     0.134 A 
ATOM     75  F   UNL A   1      41.720  29.228  27.709  1.00  0.00    -0.206 F 
ATOM     76  C   UNL A   1      40.931  27.216  26.798  1.00  0.00     0.040 A 
ATOM     77  C   UNL A   1      39.480  25.795  28.091  1.00  0.00     0.040 A 
ATOM     78  F   UNL A   1      38.819  26.438  30.248  1.00  0.00    -0.206 F 
ATOM     79  C   UNL A   1      40.178  26.049  26.912  1.00  0.00     0.006 A 
ENDBRANCH  58  72
BRANCH  59  80
ATOM     80  C   UNL A   1      39.938  34.341  36.647  1.00  0.00     0.057 A 
ATOM     81  C   UNL A   1      39.278  33.997  37.833  1.00  0.00     0.134 A 
ATOM     82  C   UNL A   1      40.538  35.603  36.585  1.00  0.00     0.134 A 
ATOM     83  F   UNL A   1      38.668  32.807  37.945  1.00  0.00    -0.206 F 
ATOM     84  C   UNL A   1      39.195  34.883  38.908  1.00  0.00     0.040 A 
ATOM     85  C   UNL A   1      40.486  36.490  37.662  1.00  0.00     0.040 A 
ATOM     86  F   UNL A   1      41.195  35.987  35.481  1.00  0.00    -0.206 F 
ATOM     87  C   UNL A   1      39.806  36.133  38.825  1.00  0.00     0.006 A 
ENDBRANCH  59  80
BRANCH  71  88
ATOM     88  C   UNL A   1      44.309  29.221  34.896  1.00  0.00     0.057 A 
ATOM     89  C   UNL A   1      45.572  29.722  34.556  1.00  0.00     0.134 A 
ATOM     90  C   UNL A   1      44.251  28.218  35.872  1.00  0.00     0.134 A 
ATOM     91  F   UNL A   1      45.696  30.674  33.619  1.00  0.00    -0.206 F 
ATOM     92  C   UNL A   1      46.736  29.220  35.139  1.00  0.00     0.040 A 
ATOM     93  C   UNL A   1      45.406  27.728  36.483  1.00  0.00     0.040 A 
ATOM     94  F   UNL A   1      43.073  27.702  36.251  1.00  0.00    -0.206 F 
ATOM     95  C   UNL A   1      46.655  28.223  36.109  1.00  0.00     0.006 A 
ENDBRANCH  71  88
ENDBRANCH  45  46
ENDBRANCH  37  40
ENDBRANCH  35  36
ENDBRANCH  34  35
ENDBRANCH   1  34
TORSDOF 15
ENDMDL
MODEL 3
REMARK VINA RESULT:     -13.0      1.247      6.380
REMARK SMILES CC(=O)Nc1cc(NC(C)=O)cc(C(=O)Nc2ccc(Br)cc2C(=O)NCCCCNC(=O)c2ccc(-c3c4nc(c(-c5c(F)cccc5F)c5ccc([nH]5)c(-c5c(F)cccc5F)c5nc(c(-c6c(F)cccc6F)c6ccc3[nH]6)C=C5)C=C4)cc2)c1
REMARK SMILES IDX 28 1 27 2 26 3 24 4 25 5 23 7 17 8 18 9 19 10 22 11 20 12
REMARK SMILES IDX 21 13 16 14 14 15 15 16 13 18 5 19 6 20 88 21 7 22 12 23
REMARK SMILES IDX 4 24 1 25 2 26 3 27 8 29 9 30 10 32 11 33 29 34 30 35 31 36
REMARK SMILES IDX 32 37 33 39 34 40 35 41 87 42 36 43 86 44 37 45 38 46 39 47
REMARK SMILES IDX 80 48 40 49 85 50 79 51 81 52 41 53 84 54 78 55 77 56 42 58
REMARK SMILES IDX 68 59 51 60 67 61 52 62 55 63 66 64 82 65 53 66 54 67 65 69
REMARK SMILES IDX 83 70 56 71 43 72 44 73 49 74 45 75 46 76 48 77 50 78 47 79
REMARK SMILES IDX 69 80 70 81 75 82 71 83 72 84 74 85 76 86 73 87 57 88 58 89
REMARK SMILES IDX 63 90 59 91 60 92 62 93 64 94 61 95
REMARK H PARENT 26 6 16 17 4 28 8 31 31 38 81 57 55 68
REMARK Flexibility Score: inf
ROOT
ATOM      1  C   UNL A   1      31.519  30.862  26.136  1.00  0.00     0.023 C 
ENDROOT
BRANCH   1   2
ATOM      2  C   UNL A   1      32.250  29.750  26.875  1.00  0.00     0.116 C 
BRANCH   2   3
ATOM      3  N   UNL A   1      33.124  28.949  26.043  1.00  0.00    -0.352 N 
ATOM      4  C   UNL A   1      32.803  27.998  25.107  1.00  0.00     0.253 C 
ATOM      5  O   UNL A   1      33.718  27.426  24.518  1.00  0.00    -0.269 OA
ATOM      6  H   UNL A   1      34.088  29.109  26.169  1.00  0.00     0.163 HD
BRANCH   4   7
ATOM      7  C   UNL A   1      31.397  27.577  24.849  1.00  0.00     0.064 A 
ATOM      8  C   UNL A   1      30.745  26.440  25.370  1.00  0.00     0.054 A 
ATOM      9  C   UNL A   1      29.502  26.067  24.829  1.00  0.00     0.028 A 
ATOM     10  C   UNL A   1      28.834  26.895  23.924  1.00  0.00     0.018 A 
ATOM     11  C   UNL A   1      30.697  28.424  23.964  1.00  0.00     0.031 A 
ATOM     12  C   UNL A   1      29.417  28.093  23.529  1.00  0.00     0.018 A 
ATOM     13  Br  UNL A   1      28.464  29.274  22.406  1.00  0.00    -0.051 Br
BRANCH   8  14
ATOM     14  N   UNL A   1      31.162  25.645  26.464  1.00  0.00    -0.321 N 
ATOM     15  C   UNL A   1      31.619  24.340  26.520  1.00  0.00     0.255 C 
ATOM     16  O   UNL A   1      31.661  23.759  27.603  1.00  0.00    -0.269 OA
ATOM     17  H   UNL A   1      31.121  26.098  27.337  1.00  0.00     0.170 HD
BRANCH  15  18
ATOM     18  C   UNL A   1      32.122  23.645  25.313  1.00  0.00     0.044 A 
ATOM     19  C   UNL A   1      33.026  23.765  23.080  1.00  0.00     0.044 A 
ATOM     20  C   UNL A   1      32.801  22.385  22.947  1.00  0.00     0.052 A 
ATOM     21  C   UNL A   1      32.757  24.366  24.298  1.00  0.00     0.040 A 
ATOM     22  C   UNL A   1      32.316  21.617  24.013  1.00  0.00     0.044 A 
ATOM     23  C   UNL A   1      31.948  22.264  25.195  1.00  0.00     0.040 A 
BRANCH  19  24
ATOM     24  N   UNL A   1      33.399  24.472  21.921  1.00  0.00    -0.326 N 
ATOM     25  C   UNL A   1      31.476  26.027  21.544  1.00  0.00     0.114 C 
ATOM     26  C   UNL A   1      32.740  25.344  21.105  1.00  0.00     0.221 C 
ATOM     27  O   UNL A   1      33.224  25.598  19.999  1.00  0.00    -0.275 OA
ATOM     28  H   UNL A   1      34.328  24.303  21.643  1.00  0.00     0.169 HD
ENDBRANCH  19  24
BRANCH  22  29
ATOM     29  N   UNL A   1      32.162  20.213  23.965  1.00  0.00    -0.326 N 
ATOM     30  C   UNL A   1      33.115  19.259  24.279  1.00  0.00     0.221 C 
ATOM     31  H   UNL A   1      31.283  19.877  23.678  1.00  0.00     0.169 HD
ATOM     32  C   UNL A   1      32.604  17.845  24.159  1.00  0.00     0.114 C 
ATOM     33  O   UNL A   1      34.266  19.468  24.650  1.00  0.00    -0.275 OA
ENDBRANCH  22  29
ENDBRANCH  15  18
ENDBRANCH   8  14
ENDBRANCH   4   7
ENDBRANCH   2   3
ENDBRANCH   1   2
BRANCH   1  34
ATOM     34  C   UNL A   1      31.322  32.169  26.907  1.00  0.00     0.023 C 
BRANCH  34  35
ATOM     35  C   UNL A   1      32.581  32.934  27.310  1.00  0.00     0.116 C 
BRANCH  35  36
ATOM     36  N   UNL A   1      32.345  34.313  27.695  1.00  0.00    -0.352 N 
ATOM     37  C   UNL A   1      32.975  35.109  28.628  1.00  0.00     0.251 C 
ATOM     38  H   UNL A   1      31.610  34.755  27.209  1.00  0.00     0.163 HD
ATOM     39  O   UNL A   1      32.544  36.227  28.872  1.00  0.00    -0.269 OA
BRANCH  37  40
ATOM     40  C   UNL A   1      34.155  34.604  29.366  1.00  0.00     0.039 A 
ATOM     41  C   UNL A   1      33.961  34.012  30.616  1.00  0.00     0.014 A 
ATOM     42  C   UNL A   1      35.445  34.719  28.843  1.00  0.00     0.014 A 
ATOM     43  C   UNL A   1      35.047  33.456  31.298  1.00  0.00     0.010 A 
ATOM     44  C   UNL A   1      36.511  34.087  29.480  1.00  0.00     0.010 A 
ATOM     45  C   UNL A   1      36.325  33.448  30.714  1.00  0.00    -0.014 A 
BRANCH  45  46
ATOM     46  C   UNL A   1      37.466  32.770  31.385  1.00  0.00     0.031 A 
ATOM     47  C   UNL A   1      38.140  31.587  30.742  1.00  0.00     0.074 A 
ATOM     48  C   UNL A   1      37.864  33.185  32.604  1.00  0.00     0.049 A 
ATOM     49  N   UNL A   1      39.137  30.863  31.184  1.00  0.00    -0.248 NA
ATOM     50  C   UNL A   1      37.601  31.140  29.448  1.00  0.00     0.031 C 
ATOM     51  C   UNL A   1      37.251  34.268  33.373  1.00  0.00     0.029 A 
ATOM     52  N   UNL A   1      38.880  32.739  33.413  1.00  0.00    -0.354 N 
ATOM     53  C   UNL A   1      39.334  29.869  30.233  1.00  0.00     0.074 A 
ATOM     54  C   UNL A   1      38.313  30.046  29.223  1.00  0.00     0.031 C 
ATOM     55  C   UNL A   1      37.923  34.427  34.524  1.00  0.00     0.029 A 
ATOM     56  C   UNL A   1      38.997  33.442  34.588  1.00  0.00     0.049 A 
ATOM     57  H   UNL A   1      39.469  31.988  33.174  1.00  0.00     0.167 HD
ATOM     58  C   UNL A   1      40.294  28.915  30.187  1.00  0.00     0.037 A 
ATOM     59  C   UNL A   1      39.878  33.314  35.599  1.00  0.00     0.037 A 
ATOM     60  C   UNL A   1      41.330  28.758  31.174  1.00  0.00     0.049 A 
ATOM     61  C   UNL A   1      40.959  32.274  35.506  1.00  0.00     0.074 A 
ATOM     62  C   UNL A   1      42.387  27.865  31.182  1.00  0.00     0.029 A 
ATOM     63  N   UNL A   1      41.439  29.516  32.330  1.00  0.00    -0.354 N 
ATOM     64  N   UNL A   1      41.184  31.395  34.560  1.00  0.00    -0.248 NA
ATOM     65  C   UNL A   1      41.922  32.222  36.615  1.00  0.00     0.031 C 
ATOM     66  C   UNL A   1      43.116  28.058  32.362  1.00  0.00     0.029 A 
ATOM     67  C   UNL A   1      42.538  29.102  33.066  1.00  0.00     0.049 A 
ATOM     68  H   UNL A   1      40.827  30.242  32.590  1.00  0.00     0.167 HD
ATOM     69  C   UNL A   1      42.325  30.705  34.945  1.00  0.00     0.074 A 
ATOM     70  C   UNL A   1      42.757  31.281  36.202  1.00  0.00     0.031 C 
ATOM     71  C   UNL A   1      42.959  29.684  34.315  1.00  0.00     0.037 A 
BRANCH  58  72
ATOM     72  C   UNL A   1      40.268  27.970  29.020  1.00  0.00     0.057 A 
ATOM     73  C   UNL A   1      40.973  28.238  27.838  1.00  0.00     0.134 A 
ATOM     74  C   UNL A   1      39.546  26.772  29.082  1.00  0.00     0.134 A 
ATOM     75  F   UNL A   1      41.675  29.373  27.707  1.00  0.00    -0.206 F 
ATOM     76  C   UNL A   1      40.931  27.366  26.748  1.00  0.00     0.040 A 
ATOM     77  C   UNL A   1      39.520  25.879  28.009  1.00  0.00     0.040 A 
ATOM     78  F   UNL A   1      38.853  26.450  30.184  1.00  0.00    -0.206 F 
ATOM     79  C   UNL A   1      40.208  26.179  26.835  1.00  0.00     0.006 A 
ENDBRANCH  58  72
BRANCH  59  80
ATOM     80  C   UNL A   1      39.806  34.229  36.765  1.00  0.00     0.057 A 
ATOM     81  C   UNL A   1      39.044  33.899  37.893  1.00  0.00     0.134 A 
ATOM     82  C   UNL A   1      40.488  35.450  36.783  1.00  0.00     0.134 A 
ATOM     83  F   UNL A   1      38.354  32.749  37.928  1.00  0.00    -0.206 F 
ATOM     84  C   UNL A   1      38.944  34.760  38.987  1.00  0.00     0.040 A 
ATOM     85  C   UNL A   1      40.418  36.310  37.880  1.00  0.00     0.040 A 
ATOM     86  F   UNL A   1      41.243  35.819  35.737  1.00  0.00    -0.206 F 
ATOM     87  C   UNL A   1      39.638  35.969  38.983  1.00  0.00     0.006 A 
ENDBRANCH  59  80
BRANCH  71  88
ATOM     88  C   UNL A   1      44.205  29.153  34.961  1.00  0.00     0.057 A 
ATOM     89  C   UNL A   1      44.172  28.093  35.876  1.00  0.00     0.134 A 
ATOM     90  C   UNL A   1      45.456  29.704  34.655  1.00  0.00     0.134 A 
ATOM     91  F   UNL A   1      43.004  27.530  36.222  1.00  0.00    -0.206 F 
ATOM     92  C   UNL A   1      45.334  27.621  36.489  1.00  0.00     0.040 A 
ATOM     93  C   UNL A   1      46.628  29.223  35.240  1.00  0.00     0.040 A 
ATOM     94  F   UNL A   1      45.560  30.716  33.780  1.00  0.00    -0.206 F 
ATOM     95  C   UNL A   1      46.567  28.184  36.167  1.00  0.00     0.006 A 
ENDBRANCH  71  88
ENDBRANCH  45  46
ENDBRANCH  37  40
ENDBRANCH  35  36
ENDBRANCH  34  35
ENDBRANCH   1  34
TORSDOF 15
ENDMDL
