MODEL 1
REMARK VINA RESULT:     -11.6      0.000      0.000
REMARK SMILES O=C(CCCNC(=O)[C@@H]1CCCN(S(=O)(=O)c2ccc(F)cc2)C1)NCCCCNC(=O)c1ccc(-c2c3nc(c(-c4c(F)cccc4F)c4ccc([nH]4)c(-c4c(F)cccc4F)c4nc(c(-c5c(F)cccc5F)c5ccc2[nH]5)C=C4)C=C3)cc1
REMARK SMILES IDX 1 1 2 2 25 3 3 5 4 6 5 7 6 8 7 9 8 11 9 12 10 13 24 14 11 15
REMARK SMILES IDX 13 16 12 17 14 18 15 19 16 20 17 21 18 22 23 23 19 24 22 25
REMARK SMILES IDX 20 26 21 27 26 28 27 29 28 30 29 31 30 32 31 33 32 35 33 36
REMARK SMILES IDX 34 37 86 38 35 39 85 40 36 41 37 42 38 43 79 44 39 45 84 46
REMARK SMILES IDX 78 47 80 48 40 49 83 50 77 51 76 52 41 54 67 55 50 56 66 57
REMARK SMILES IDX 51 58 54 59 65 60 81 61 52 62 53 63 64 65 82 66 55 67 42 68
REMARK SMILES IDX 43 69 48 70 44 71 45 72 47 73 49 74 46 75 68 76 69 77 74 78
REMARK SMILES IDX 70 79 71 80 73 81 75 82 72 83 56 84 57 85 62 86 58 87 59 88
REMARK SMILES IDX 61 89 63 90 60 91
REMARK H PARENT 25 4 6 10 30 34 80 53 54 64
REMARK Flexibility Score: inf
ROOT
ATOM      1  O   UNL A   1      32.395  31.513  26.881  1.00  0.00    -0.275 OA
ATOM      2  C   UNL A   1      33.304  30.835  27.347  1.00  0.00     0.220 C 
ATOM      3  N   UNL A   1      34.449  31.366  27.899  1.00  0.00    -0.356 N 
ATOM      4  H   UNL A   1      35.114  30.763  28.300  1.00  0.00     0.163 HD
ENDROOT
BRANCH   2   5
ATOM      5  C   UNL A   1      33.309  29.324  27.265  1.00  0.00     0.102 C 
BRANCH   5   6
ATOM      6  C   UNL A   1      32.032  28.837  26.583  1.00  0.00     0.031 C 
BRANCH   6   7
ATOM      7  C   UNL A   1      32.062  28.942  25.059  1.00  0.00     0.116 C 
BRANCH   7   8
ATOM      8  N   UNL A   1      30.980  29.755  24.543  1.00  0.00    -0.356 N 
ATOM      9  C   UNL A   1      30.052  29.546  23.582  1.00  0.00     0.224 C 
ATOM     10  H   UNL A   1      30.906  30.633  24.980  1.00  0.00     0.163 HD
ATOM     11  O   UNL A   1      29.252  30.478  23.414  1.00  0.00    -0.275 OA
BRANCH   9  12
ATOM     12  C   UNL A   1      29.854  28.255  22.783  1.00  0.00     0.093 C 
ATOM     13  C   UNL A   1      28.993  27.247  23.546  1.00  0.00     0.016 C 
ATOM     14  C   UNL A   1      31.056  27.639  22.065  1.00  0.00     0.116 C 
ATOM     15  C   UNL A   1      29.824  26.250  24.335  1.00  0.00     0.018 C 
ATOM     16  N   UNL A   1      31.758  26.580  22.862  1.00  0.00    -0.197 NA
ATOM     17  C   UNL A   1      30.837  25.565  23.427  1.00  0.00     0.102 C 
BRANCH  16  18
ATOM     18  S   UNL A   1      33.158  25.960  22.079  1.00  0.00     0.243 S 
ATOM     19  O   UNL A   1      32.723  25.019  21.071  1.00  0.00    -0.207 OA
ATOM     20  O   UNL A   1      34.006  27.086  21.743  1.00  0.00    -0.207 OA
BRANCH  18  21
ATOM     21  C   UNL A   1      33.988  25.050  23.370  1.00  0.00     0.082 A 
ATOM     22  C   UNL A   1      34.124  25.613  24.644  1.00  0.00     0.025 A 
ATOM     23  C   UNL A   1      34.415  23.737  23.127  1.00  0.00     0.025 A 
ATOM     24  C   UNL A   1      34.744  24.883  25.659  1.00  0.00     0.040 A 
ATOM     25  C   UNL A   1      35.015  23.004  24.153  1.00  0.00     0.040 A 
ATOM     26  C   UNL A   1      35.183  23.587  25.406  1.00  0.00     0.123 A 
ATOM     27  F   UNL A   1      35.760  22.885  26.389  1.00  0.00    -0.207 F 
ENDBRANCH  18  21
ENDBRANCH  16  18
ENDBRANCH   9  12
ENDBRANCH   7   8
ENDBRANCH   6   7
ENDBRANCH   5   6
ENDBRANCH   2   5
BRANCH   3  28
ATOM     28  C   UNL A   1      34.691  32.793  27.900  1.00  0.00     0.116 C 
BRANCH  28  29
ATOM     29  C   UNL A   1      34.097  33.483  29.124  1.00  0.00     0.023 C 
BRANCH  29  30
ATOM     30  C   UNL A   1      33.069  34.581  28.822  1.00  0.00     0.023 C 
BRANCH  30  31
ATOM     31  C   UNL A   1      33.353  35.942  29.454  1.00  0.00     0.116 C 
BRANCH  31  32
ATOM     32  N   UNL A   1      32.525  36.196  30.622  1.00  0.00    -0.352 N 
ATOM     33  C   UNL A   1      32.654  35.755  31.917  1.00  0.00     0.251 C 
ATOM     34  H   UNL A   1      31.748  36.778  30.460  1.00  0.00     0.163 HD
ATOM     35  O   UNL A   1      31.738  35.944  32.714  1.00  0.00    -0.269 OA
BRANCH  33  36
ATOM     36  C   UNL A   1      33.871  35.040  32.365  1.00  0.00     0.039 A 
ATOM     37  C   UNL A   1      33.735  33.749  32.888  1.00  0.00     0.014 A 
ATOM     38  C   UNL A   1      35.132  35.642  32.320  1.00  0.00     0.014 A 
ATOM     39  C   UNL A   1      34.867  33.039  33.300  1.00  0.00     0.010 A 
ATOM     40  C   UNL A   1      36.266  34.911  32.676  1.00  0.00     0.010 A 
ATOM     41  C   UNL A   1      36.146  33.602  33.166  1.00  0.00    -0.014 A 
BRANCH  41  42
ATOM     42  C   UNL A   1      37.366  32.828  33.514  1.00  0.00     0.031 A 
ATOM     43  C   UNL A   1      38.110  33.107  34.790  1.00  0.00     0.074 A 
ATOM     44  C   UNL A   1      37.839  31.909  32.650  1.00  0.00     0.049 A 
ATOM     45  N   UNL A   1      39.239  32.597  35.215  1.00  0.00    -0.248 NA
ATOM     46  C   UNL A   1      37.520  34.104  35.696  1.00  0.00     0.031 C 
ATOM     47  C   UNL A   1      37.229  31.563  31.366  1.00  0.00     0.029 A 
ATOM     48  N   UNL A   1      38.950  31.105  32.718  1.00  0.00    -0.354 N 
ATOM     49  C   UNL A   1      39.499  33.218  36.429  1.00  0.00     0.074 A 
ATOM     50  C   UNL A   1      38.434  34.171  36.655  1.00  0.00     0.031 C 
ATOM     51  C   UNL A   1      37.960  30.602  30.777  1.00  0.00     0.029 A 
ATOM     52  C   UNL A   1      39.109  30.291  31.623  1.00  0.00     0.049 A 
ATOM     53  H   UNL A   1      39.572  31.109  33.481  1.00  0.00     0.167 HD
ATOM     54  C   UNL A   1      40.523  32.998  37.288  1.00  0.00     0.037 A 
ATOM     55  C   UNL A   1      40.074  29.401  31.324  1.00  0.00     0.037 A 
ATOM     56  C   UNL A   1      41.568  32.028  37.081  1.00  0.00     0.049 A 
ATOM     57  C   UNL A   1      41.206  29.183  32.287  1.00  0.00     0.074 A 
ATOM     58  C   UNL A   1      42.619  31.706  37.921  1.00  0.00     0.029 A 
ATOM     59  N   UNL A   1      41.690  31.223  35.960  1.00  0.00    -0.354 N 
ATOM     60  N   UNL A   1      41.423  29.756  33.446  1.00  0.00    -0.248 NA
ATOM     61  C   UNL A   1      42.226  28.197  31.904  1.00  0.00     0.031 C 
ATOM     62  C   UNL A   1      43.398  30.729  37.293  1.00  0.00     0.029 A 
ATOM     63  C   UNL A   1      42.809  30.415  36.080  1.00  0.00     0.049 A 
ATOM     64  H   UNL A   1      41.073  31.226  35.192  1.00  0.00     0.167 HD
ATOM     65  C   UNL A   1      42.591  29.188  33.938  1.00  0.00     0.074 A 
ATOM     66  C   UNL A   1      43.032  28.219  32.958  1.00  0.00     0.031 C 
ATOM     67  C   UNL A   1      43.238  29.451  35.099  1.00  0.00     0.037 A 
BRANCH  54  68
ATOM     68  C   UNL A   1      40.562  33.813  38.547  1.00  0.00     0.057 A 
ATOM     69  C   UNL A   1      41.370  34.953  38.638  1.00  0.00     0.134 A 
ATOM     70  C   UNL A   1      39.845  33.434  39.689  1.00  0.00     0.134 A 
ATOM     71  F   UNL A   1      42.088  35.366  37.583  1.00  0.00    -0.206 F 
ATOM     72  C   UNL A   1      41.470  35.682  39.823  1.00  0.00     0.040 A 
ATOM     73  C   UNL A   1      39.918  34.169  40.873  1.00  0.00     0.040 A 
ATOM     74  F   UNL A   1      39.044  32.358  39.663  1.00  0.00    -0.206 F 
ATOM     75  C   UNL A   1      40.740  35.292  40.945  1.00  0.00     0.006 A 
ENDBRANCH  54  68
BRANCH  55  76
ATOM     76  C   UNL A   1      39.992  28.630  30.061  1.00  0.00     0.057 A 
ATOM     77  C   UNL A   1      39.265  27.436  29.976  1.00  0.00     0.134 A 
ATOM     78  C   UNL A   1      40.668  29.060  28.913  1.00  0.00     0.134 A 
ATOM     79  F   UNL A   1      38.602  26.971  31.045  1.00  0.00    -0.206 F 
ATOM     80  C   UNL A   1      39.228  26.687  28.800  1.00  0.00     0.040 A 
ATOM     81  C   UNL A   1      40.624  28.330  27.724  1.00  0.00     0.040 A 
ATOM     82  F   UNL A   1      41.365  30.205  28.930  1.00  0.00    -0.206 F 
ATOM     83  C   UNL A   1      39.908  27.135  27.669  1.00  0.00     0.006 A 
ENDBRANCH  55  76
BRANCH  67  84
ATOM     84  C   UNL A   1      44.483  28.670  35.392  1.00  0.00     0.057 A 
ATOM     85  C   UNL A   1      45.732  29.126  34.951  1.00  0.00     0.134 A 
ATOM     86  C   UNL A   1      44.436  27.432  36.044  1.00  0.00     0.134 A 
ATOM     87  F   UNL A   1      45.843  30.299  34.312  1.00  0.00    -0.206 F 
ATOM     88  C   UNL A   1      46.890  28.369  35.137  1.00  0.00     0.040 A 
ATOM     89  C   UNL A   1      45.590  26.676  36.254  1.00  0.00     0.040 A 
ATOM     90  F   UNL A   1      43.271  26.947  36.499  1.00  0.00    -0.206 F 
ATOM     91  C   UNL A   1      46.821  27.140  35.791  1.00  0.00     0.006 A 
ENDBRANCH  67  84
ENDBRANCH  41  42
ENDBRANCH  33  36
ENDBRANCH  31  32
ENDBRANCH  30  31
ENDBRANCH  29  30
ENDBRANCH  28  29
ENDBRANCH   3  28
TORSDOF 17
ENDMDL
MODEL 2
REMARK VINA RESULT:     -11.4      3.789      8.923
REMARK SMILES O=C(CCCNC(=O)[C@@H]1CCCN(S(=O)(=O)c2ccc(F)cc2)C1)NCCCCNC(=O)c1ccc(-c2c3nc(c(-c4c(F)cccc4F)c4ccc([nH]4)c(-c4c(F)cccc4F)c4nc(c(-c5c(F)cccc5F)c5ccc2[nH]5)C=C4)C=C3)cc1
REMARK SMILES IDX 1 1 2 2 25 3 3 5 4 6 5 7 6 8 7 9 8 11 9 12 10 13 24 14 11 15
REMARK SMILES IDX 13 16 12 17 14 18 15 19 16 20 17 21 18 22 23 23 19 24 22 25
REMARK SMILES IDX 20 26 21 27 26 28 27 29 28 30 29 31 30 32 31 33 32 35 33 36
REMARK SMILES IDX 34 37 86 38 35 39 85 40 36 41 37 42 38 43 79 44 39 45 84 46
REMARK SMILES IDX 78 47 80 48 40 49 83 50 77 51 76 52 41 54 67 55 50 56 66 57
REMARK SMILES IDX 51 58 54 59 65 60 81 61 52 62 53 63 64 65 82 66 55 67 42 68
REMARK SMILES IDX 43 69 48 70 44 71 45 72 47 73 49 74 46 75 68 76 69 77 74 78
REMARK SMILES IDX 70 79 71 80 73 81 75 82 72 83 56 84 57 85 62 86 58 87 59 88
REMARK SMILES IDX 61 89 63 90 60 91
REMARK H PARENT 25 4 6 10 30 34 80 53 54 64
REMARK Flexibility Score: inf
ROOT
ATOM      1  O   UNL A   1      38.434  23.557  26.438  1.00  0.00    -0.275 OA
ATOM      2  C   UNL A   1      38.330  22.488  25.849  1.00  0.00     0.220 C 
ATOM      3  N   UNL A   1      39.165  21.412  26.061  1.00  0.00    -0.356 N 
ATOM      4  H   UNL A   1      38.990  20.567  25.590  1.00  0.00     0.163 HD
ENDROOT
BRANCH   2   5
ATOM      5  C   UNL A   1      37.327  22.271  24.736  1.00  0.00     0.102 C 
BRANCH   5   6
ATOM      6  C   UNL A   1      36.471  21.044  25.041  1.00  0.00     0.031 C 
BRANCH   6   7
ATOM      7  C   UNL A   1      35.103  21.372  25.637  1.00  0.00     0.116 C 
BRANCH   7   8
ATOM      8  N   UNL A   1      34.218  20.226  25.644  1.00  0.00    -0.356 N 
ATOM      9  C   UNL A   1      32.929  20.057  25.267  1.00  0.00     0.224 C 
ATOM     10  H   UNL A   1      34.638  19.407  25.992  1.00  0.00     0.163 HD
ATOM     11  O   UNL A   1      32.490  18.907  25.403  1.00  0.00    -0.275 OA
BRANCH   9  12
ATOM     12  C   UNL A   1      32.035  21.114  24.614  1.00  0.00     0.093 C 
ATOM     13  C   UNL A   1      32.452  21.390  23.169  1.00  0.00     0.016 C 
ATOM     14  C   UNL A   1      31.666  22.366  25.412  1.00  0.00     0.116 C 
ATOM     15  C   UNL A   1      33.391  22.578  23.050  1.00  0.00     0.018 C 
ATOM     16  N   UNL A   1      32.572  23.534  25.155  1.00  0.00    -0.197 NA
ATOM     17  C   UNL A   1      32.782  23.806  23.714  1.00  0.00     0.102 C 
BRANCH  16  18
ATOM     18  S   UNL A   1      32.199  24.905  26.124  1.00  0.00     0.243 S 
ATOM     19  O   UNL A   1      31.402  24.454  27.243  1.00  0.00    -0.207 OA
ATOM     20  O   UNL A   1      33.428  25.646  26.324  1.00  0.00    -0.207 OA
BRANCH  18  21
ATOM     21  C   UNL A   1      31.161  25.895  25.064  1.00  0.00     0.082 A 
ATOM     22  C   UNL A   1      29.822  25.537  24.867  1.00  0.00     0.025 A 
ATOM     23  C   UNL A   1      31.666  27.081  24.512  1.00  0.00     0.025 A 
ATOM     24  C   UNL A   1      29.005  26.335  24.064  1.00  0.00     0.040 A 
ATOM     25  C   UNL A   1      30.836  27.885  23.727  1.00  0.00     0.040 A 
ATOM     26  C   UNL A   1      29.518  27.501  23.503  1.00  0.00     0.123 A 
ATOM     27  F   UNL A   1      28.724  28.271  22.749  1.00  0.00    -0.207 F 
ENDBRANCH  18  21
ENDBRANCH  16  18
ENDBRANCH   9  12
ENDBRANCH   7   8
ENDBRANCH   6   7
ENDBRANCH   5   6
ENDBRANCH   2   5
BRANCH   3  28
ATOM     28  C   UNL A   1      40.292  21.502  26.966  1.00  0.00     0.116 C 
BRANCH  28  29
ATOM     29  C   UNL A   1      41.395  20.505  26.622  1.00  0.00     0.023 C 
BRANCH  29  30
ATOM     30  C   UNL A   1      42.619  21.102  25.916  1.00  0.00     0.023 C 
BRANCH  30  31
ATOM     31  C   UNL A   1      42.446  22.523  25.384  1.00  0.00     0.116 C 
BRANCH  31  32
ATOM     32  N   UNL A   1      43.702  23.110  24.947  1.00  0.00    -0.352 N 
ATOM     33  C   UNL A   1      44.265  24.328  25.240  1.00  0.00     0.251 C 
ATOM     34  H   UNL A   1      44.235  22.544  24.343  1.00  0.00     0.163 HD
ATOM     35  O   UNL A   1      45.255  24.703  24.618  1.00  0.00    -0.269 OA
BRANCH  33  36
ATOM     36  C   UNL A   1      43.687  25.207  26.284  1.00  0.00     0.039 A 
ATOM     37  C   UNL A   1      42.801  24.649  27.213  1.00  0.00     0.014 A 
ATOM     38  C   UNL A   1      43.969  26.575  26.328  1.00  0.00     0.014 A 
ATOM     39  C   UNL A   1      42.253  25.446  28.222  1.00  0.00     0.010 A 
ATOM     40  C   UNL A   1      43.469  27.356  27.371  1.00  0.00     0.010 A 
ATOM     41  C   UNL A   1      42.610  26.799  28.330  1.00  0.00    -0.014 A 
BRANCH  41  42
ATOM     42  C   UNL A   1      42.110  27.638  29.450  1.00  0.00     0.031 A 
ATOM     43  C   UNL A   1      42.773  27.587  30.798  1.00  0.00     0.074 A 
ATOM     44  C   UNL A   1      41.018  28.406  29.270  1.00  0.00     0.049 A 
ATOM     45  N   UNL A   1      42.422  28.177  31.913  1.00  0.00    -0.248 NA
ATOM     46  C   UNL A   1      43.975  26.748  30.914  1.00  0.00     0.031 C 
ATOM     47  C   UNL A   1      40.265  28.524  28.021  1.00  0.00     0.029 A 
ATOM     48  N   UNL A   1      40.347  29.227  30.142  1.00  0.00    -0.354 N 
ATOM     49  C   UNL A   1      43.350  27.772  32.864  1.00  0.00     0.074 A 
ATOM     50  C   UNL A   1      44.256  26.855  32.206  1.00  0.00     0.031 C 
ATOM     51  C   UNL A   1      39.249  29.384  28.201  1.00  0.00     0.029 A 
ATOM     52  C   UNL A   1      39.256  29.848  29.585  1.00  0.00     0.049 A 
ATOM     53  H   UNL A   1      40.623  29.359  31.078  1.00  0.00     0.167 HD
ATOM     54  C   UNL A   1      43.450  28.148  34.160  1.00  0.00     0.037 A 
ATOM     55  C   UNL A   1      38.355  30.690  30.126  1.00  0.00     0.037 A 
ATOM     56  C   UNL A   1      42.569  29.084  34.810  1.00  0.00     0.049 A 
ATOM     57  C   UNL A   1      38.480  31.083  31.571  1.00  0.00     0.074 A 
ATOM     58  C   UNL A   1      42.625  29.558  36.109  1.00  0.00     0.029 A 
ATOM     59  N   UNL A   1      41.478  29.692  34.209  1.00  0.00    -0.354 N 
ATOM     60  N   UNL A   1      39.381  30.714  32.448  1.00  0.00    -0.248 NA
ATOM     61  C   UNL A   1      37.465  32.006  32.100  1.00  0.00     0.031 C 
ATOM     62  C   UNL A   1      41.547  30.427  36.304  1.00  0.00     0.029 A 
ATOM     63  C   UNL A   1      40.845  30.525  35.115  1.00  0.00     0.049 A 
ATOM     64  H   UNL A   1      41.197  29.552  33.276  1.00  0.00     0.167 HD
ATOM     65  C   UNL A   1      39.055  31.373  33.627  1.00  0.00     0.074 A 
ATOM     66  C   UNL A   1      37.879  32.172  33.350  1.00  0.00     0.031 C 
ATOM     67  C   UNL A   1      39.676  31.318  34.829  1.00  0.00     0.037 A 
BRANCH  54  68
ATOM     68  C   UNL A   1      44.565  27.555  34.972  1.00  0.00     0.057 A 
ATOM     69  C   UNL A   1      45.771  28.245  35.145  1.00  0.00     0.134 A 
ATOM     70  C   UNL A   1      44.464  26.275  35.530  1.00  0.00     0.134 A 
ATOM     71  F   UNL A   1      45.935  29.473  34.629  1.00  0.00    -0.206 F 
ATOM     72  C   UNL A   1      46.841  27.679  35.838  1.00  0.00     0.040 A 
ATOM     73  C   UNL A   1      45.519  25.707  36.246  1.00  0.00     0.040 A 
ATOM     74  F   UNL A   1      43.331  25.567  35.410  1.00  0.00    -0.206 F 
ATOM     75  C   UNL A   1      46.716  26.407  36.394  1.00  0.00     0.006 A 
ENDBRANCH  54  68
BRANCH  55  76
ATOM     76  C   UNL A   1      37.266  31.237  29.281  1.00  0.00     0.057 A 
ATOM     77  C   UNL A   1      37.327  32.534  28.756  1.00  0.00     0.134 A 
ATOM     78  C   UNL A   1      36.122  30.480  29.004  1.00  0.00     0.134 A 
ATOM     79  F   UNL A   1      38.395  33.310  28.993  1.00  0.00    -0.206 F 
ATOM     80  C   UNL A   1      36.282  33.066  28.002  1.00  0.00     0.040 A 
ATOM     81  C   UNL A   1      35.077  30.992  28.235  1.00  0.00     0.040 A 
ATOM     82  F   UNL A   1      36.017  29.225  29.465  1.00  0.00    -0.206 F 
ATOM     83  C   UNL A   1      35.152  32.292  27.737  1.00  0.00     0.006 A 
ENDBRANCH  55  76
BRANCH  67  84
ATOM     84  C   UNL A   1      39.116  32.155  35.939  1.00  0.00     0.057 A 
ATOM     85  C   UNL A   1      38.162  31.629  36.819  1.00  0.00     0.134 A 
ATOM     86  C   UNL A   1      39.466  33.502  36.090  1.00  0.00     0.134 A 
ATOM     87  F   UNL A   1      37.777  30.348  36.721  1.00  0.00    -0.206 F 
ATOM     88  C   UNL A   1      37.564  32.419  37.802  1.00  0.00     0.040 A 
ATOM     89  C   UNL A   1      38.891  34.297  37.083  1.00  0.00     0.040 A 
ATOM     90  F   UNL A   1      40.382  34.061  35.285  1.00  0.00    -0.206 F 
ATOM     91  C   UNL A   1      37.929  33.757  37.936  1.00  0.00     0.006 A 
ENDBRANCH  67  84
ENDBRANCH  41  42
ENDBRANCH  33  36
ENDBRANCH  31  32
ENDBRANCH  30  31
ENDBRANCH  29  30
ENDBRANCH  28  29
ENDBRANCH   3  28
TORSDOF 17
ENDMDL
MODEL 3
REMARK VINA RESULT:     -11.2      4.972      9.816
REMARK SMILES O=C(CCCNC(=O)[C@@H]1CCCN(S(=O)(=O)c2ccc(F)cc2)C1)NCCCCNC(=O)c1ccc(-c2c3nc(c(-c4c(F)cccc4F)c4ccc([nH]4)c(-c4c(F)cccc4F)c4nc(c(-c5c(F)cccc5F)c5ccc2[nH]5)C=C4)C=C3)cc1
REMARK SMILES IDX 1 1 2 2 25 3 3 5 4 6 5 7 6 8 7 9 8 11 9 12 10 13 24 14 11 15
REMARK SMILES IDX 13 16 12 17 14 18 15 19 16 20 17 21 18 22 23 23 19 24 22 25
REMARK SMILES IDX 20 26 21 27 26 28 27 29 28 30 29 31 30 32 31 33 32 35 33 36
REMARK SMILES IDX 34 37 86 38 35 39 85 40 36 41 37 42 38 43 79 44 39 45 84 46
REMARK SMILES IDX 78 47 80 48 40 49 83 50 77 51 76 52 41 54 67 55 50 56 66 57
REMARK SMILES IDX 51 58 54 59 65 60 81 61 52 62 53 63 64 65 82 66 55 67 42 68
REMARK SMILES IDX 43 69 48 70 44 71 45 72 47 73 49 74 46 75 68 76 69 77 74 78
REMARK SMILES IDX 70 79 71 80 73 81 75 82 72 83 56 84 57 85 62 86 58 87 59 88
REMARK SMILES IDX 61 89 63 90 60 91
REMARK H PARENT 25 4 6 10 30 34 80 53 54 64
REMARK Flexibility Score: inf
ROOT
ATOM      1  O   UNL A   1      34.916  24.083  26.090  1.00  0.00    -0.275 OA
ATOM      2  C   UNL A   1      34.598  23.098  26.745  1.00  0.00     0.220 C 
ATOM      3  N   UNL A   1      35.270  21.896  26.694  1.00  0.00    -0.356 N 
ATOM      4  H   UNL A   1      34.990  21.162  27.287  1.00  0.00     0.163 HD
ENDROOT
BRANCH   2   5
ATOM      5  C   UNL A   1      33.355  23.066  27.608  1.00  0.00     0.102 C 
BRANCH   5   6
ATOM      6  C   UNL A   1      32.160  22.598  26.780  1.00  0.00     0.031 C 
BRANCH   6   7
ATOM      7  C   UNL A   1      31.329  23.736  26.188  1.00  0.00     0.116 C 
BRANCH   7   8
ATOM      8  N   UNL A   1      31.475  24.968  26.934  1.00  0.00    -0.356 N 
ATOM      9  C   UNL A   1      31.736  26.243  26.561  1.00  0.00     0.224 C 
ATOM     10  H   UNL A   1      31.361  24.857  27.905  1.00  0.00     0.163 HD
ATOM     11  O   UNL A   1      31.775  27.062  27.489  1.00  0.00    -0.275 OA
BRANCH   9  12
ATOM     12  C   UNL A   1      31.881  26.750  25.124  1.00  0.00     0.093 C 
ATOM     13  C   UNL A   1      30.522  27.081  24.504  1.00  0.00     0.016 C 
ATOM     14  C   UNL A   1      32.845  26.032  24.180  1.00  0.00     0.116 C 
ATOM     15  C   UNL A   1      29.956  25.927  23.695  1.00  0.00     0.018 C 
ATOM     16  N   UNL A   1      32.190  24.983  23.331  1.00  0.00    -0.197 NA
ATOM     17  C   UNL A   1      30.963  25.462  22.652  1.00  0.00     0.102 C 
BRANCH  16  18
ATOM     18  S   UNL A   1      33.301  24.124  22.339  1.00  0.00     0.243 S 
ATOM     19  O   UNL A   1      33.036  24.480  20.963  1.00  0.00    -0.207 OA
ATOM     20  O   UNL A   1      34.619  24.283  22.919  1.00  0.00    -0.207 OA
BRANCH  18  21
ATOM     21  C   UNL A   1      32.834  22.417  22.573  1.00  0.00     0.082 A 
ATOM     22  C   UNL A   1      32.147  21.738  21.560  1.00  0.00     0.025 A 
ATOM     23  C   UNL A   1      33.244  21.739  23.729  1.00  0.00     0.025 A 
ATOM     24  C   UNL A   1      31.814  20.393  21.734  1.00  0.00     0.040 A 
ATOM     25  C   UNL A   1      32.926  20.388  23.887  1.00  0.00     0.040 A 
ATOM     26  C   UNL A   1      32.207  19.731  22.894  1.00  0.00     0.123 A 
ATOM     27  F   UNL A   1      31.901  18.436  23.046  1.00  0.00    -0.207 F 
ENDBRANCH  18  21
ENDBRANCH  16  18
ENDBRANCH   9  12
ENDBRANCH   7   8
ENDBRANCH   6   7
ENDBRANCH   5   6
ENDBRANCH   2   5
BRANCH   3  28
ATOM     28  C   UNL A   1      36.380  21.692  25.787  1.00  0.00     0.116 C 
BRANCH  28  29
ATOM     29  C   UNL A   1      36.290  20.361  25.047  1.00  0.00     0.023 C 
BRANCH  29  30
ATOM     30  C   UNL A   1      37.594  19.555  24.989  1.00  0.00     0.023 C 
BRANCH  30  31
ATOM     31  C   UNL A   1      38.795  20.195  25.681  1.00  0.00     0.116 C 
BRANCH  31  32
ATOM     32  N   UNL A   1      39.944  19.306  25.737  1.00  0.00    -0.352 N 
ATOM     33  C   UNL A   1      41.256  19.565  26.051  1.00  0.00     0.251 C 
ATOM     34  H   UNL A   1      39.750  18.366  25.516  1.00  0.00     0.163 HD
ATOM     35  O   UNL A   1      42.106  18.698  25.863  1.00  0.00    -0.269 OA
BRANCH  33  36
ATOM     36  C   UNL A   1      41.667  20.879  26.597  1.00  0.00     0.039 A 
ATOM     37  C   UNL A   1      42.176  21.840  25.716  1.00  0.00     0.014 A 
ATOM     38  C   UNL A   1      41.601  21.157  27.965  1.00  0.00     0.014 A 
ATOM     39  C   UNL A   1      42.554  23.098  26.196  1.00  0.00     0.010 A 
ATOM     40  C   UNL A   1      41.922  22.432  28.434  1.00  0.00     0.010 A 
ATOM     41  C   UNL A   1      42.398  23.416  27.554  1.00  0.00    -0.014 A 
BRANCH  41  42
ATOM     42  C   UNL A   1      42.708  24.776  28.065  1.00  0.00     0.031 A 
ATOM     43  C   UNL A   1      44.111  25.142  28.461  1.00  0.00     0.074 A 
ATOM     44  C   UNL A   1      41.712  25.668  28.229  1.00  0.00     0.049 A 
ATOM     45  N   UNL A   1      44.552  26.246  29.010  1.00  0.00    -0.248 NA
ATOM     46  C   UNL A   1      45.150  24.127  28.231  1.00  0.00     0.031 C 
ATOM     47  C   UNL A   1      40.304  25.431  27.910  1.00  0.00     0.029 A 
ATOM     48  N   UNL A   1      41.731  26.953  28.712  1.00  0.00    -0.354 N 
ATOM     49  C   UNL A   1      45.914  26.056  29.200  1.00  0.00     0.074 A 
ATOM     50  C   UNL A   1      46.221  24.716  28.747  1.00  0.00     0.031 C 
ATOM     51  C   UNL A   1      39.598  26.539  28.186  1.00  0.00     0.029 A 
ATOM     52  C   UNL A   1      40.495  27.552  28.735  1.00  0.00     0.049 A 
ATOM     53  H   UNL A   1      42.554  27.404  29.012  1.00  0.00     0.167 HD
ATOM     54  C   UNL A   1      46.829  26.926  29.688  1.00  0.00     0.037 A 
ATOM     55  C   UNL A   1      40.120  28.774  29.158  1.00  0.00     0.037 A 
ATOM     56  C   UNL A   1      46.532  28.271  30.111  1.00  0.00     0.049 A 
ATOM     57  C   UNL A   1      41.152  29.718  29.707  1.00  0.00     0.074 A 
ATOM     58  C   UNL A   1      47.406  29.238  30.575  1.00  0.00     0.029 A 
ATOM     59  N   UNL A   1      45.268  28.838  30.116  1.00  0.00    -0.354 N 
ATOM     60  N   UNL A   1      42.441  29.533  29.853  1.00  0.00    -0.248 NA
ATOM     61  C   UNL A   1      40.678  31.037  30.151  1.00  0.00     0.031 C 
ATOM     62  C   UNL A   1      46.666  30.380  30.894  1.00  0.00     0.029 A 
ATOM     63  C   UNL A   1      45.337  30.138  30.589  1.00  0.00     0.049 A 
ATOM     64  H   UNL A   1      44.444  28.384  29.825  1.00  0.00     0.167 HD
ATOM     65  C   UNL A   1      42.936  30.717  30.386  1.00  0.00     0.074 A 
ATOM     66  C   UNL A   1      41.811  31.616  30.529  1.00  0.00     0.031 C 
ATOM     67  C   UNL A   1      44.210  31.026  30.726  1.00  0.00     0.037 A 
BRANCH  54  68
ATOM     68  C   UNL A   1      48.252  26.459  29.782  1.00  0.00     0.057 A 
ATOM     69  C   UNL A   1      48.718  25.808  30.931  1.00  0.00     0.134 A 
ATOM     70  C   UNL A   1      49.176  26.710  28.760  1.00  0.00     0.134 A 
ATOM     71  F   UNL A   1      47.886  25.544  31.950  1.00  0.00    -0.206 F 
ATOM     72  C   UNL A   1      50.054  25.429  31.063  1.00  0.00     0.040 A 
ATOM     73  C   UNL A   1      50.510  26.314  28.869  1.00  0.00     0.040 A 
ATOM     74  F   UNL A   1      48.790  27.320  27.629  1.00  0.00    -0.206 F 
ATOM     75  C   UNL A   1      50.954  25.679  30.028  1.00  0.00     0.006 A 
ENDBRANCH  54  68
BRANCH  55  76
ATOM     76  C   UNL A   1      38.698  29.180  29.052  1.00  0.00     0.057 A 
ATOM     77  C   UNL A   1      37.836  29.124  30.154  1.00  0.00     0.134 A 
ATOM     78  C   UNL A   1      38.163  29.606  27.832  1.00  0.00     0.134 A 
ATOM     79  F   UNL A   1      38.290  28.717  31.348  1.00  0.00    -0.206 F 
ATOM     80  C   UNL A   1      36.487  29.460  30.042  1.00  0.00     0.040 A 
ATOM     81  C   UNL A   1      36.820  29.964  27.709  1.00  0.00     0.040 A 
ATOM     82  F   UNL A   1      38.946  29.697  26.747  1.00  0.00    -0.206 F 
ATOM     83  C   UNL A   1      35.976  29.884  28.816  1.00  0.00     0.006 A 
ENDBRANCH  55  76
BRANCH  67  84
ATOM     84  C   UNL A   1      44.471  32.398  31.269  1.00  0.00     0.057 A 
ATOM     85  C   UNL A   1      44.385  32.650  32.644  1.00  0.00     0.134 A 
ATOM     86  C   UNL A   1      44.732  33.484  30.425  1.00  0.00     0.134 A 
ATOM     87  F   UNL A   1      44.128  31.654  33.505  1.00  0.00    -0.206 F 
ATOM     88  C   UNL A   1      44.536  33.939  33.159  1.00  0.00     0.040 A 
ATOM     89  C   UNL A   1      44.906  34.773  30.930  1.00  0.00     0.040 A 
ATOM     90  F   UNL A   1      44.837  33.305  29.100  1.00  0.00    -0.206 F 
ATOM     91  C   UNL A   1      44.798  35.004  32.301  1.00  0.00     0.006 A 
ENDBRANCH  67  84
ENDBRANCH  41  42
ENDBRANCH  33  36
ENDBRANCH  31  32
ENDBRANCH  30  31
ENDBRANCH  29  30
ENDBRANCH  28  29
ENDBRANCH   3  28
TORSDOF 17
ENDMDL
