MODEL 1
REMARK VINA RESULT:     -11.0      0.000      0.000
REMARK SMILES CN1N=C(CC(=O)NCCCCNC(=O)c2ccc(-c3c4nc(c(-c5c(F)cccc5F)c5ccc([nH]5)c(-c5c(F)cccc5F)c5nc(c(-c6c(F)cccc6F)c6ccc3[nH]6)C=C5)C=C4)cc2)CC1=O
REMARK SMILES IDX 11 1 10 2 9 3 8 4 6 5 7 6 5 8 4 9 1 10 2 11 3 12 71 13 70 14
REMARK SMILES IDX 72 15 12 16 13 17 14 18 15 20 16 21 17 22 69 23 18 24 68 25
REMARK SMILES IDX 19 26 20 27 21 28 62 29 22 30 67 31 61 32 63 33 23 34 66 35
REMARK SMILES IDX 60 36 59 37 24 39 50 40 33 41 49 42 34 43 37 44 48 45 64 46
REMARK SMILES IDX 35 47 36 48 47 50 65 51 38 52 25 53 26 54 31 55 27 56 28 57
REMARK SMILES IDX 30 58 32 59 29 60 51 61 52 62 57 63 53 64 54 65 56 66 58 67
REMARK SMILES IDX 55 68 39 69 40 70 45 71 41 72 42 73 44 74 46 75 43 76
REMARK H PARENT 8 7 13 19 63 38 37 49
REMARK Flexibility Score: inf
ROOT
ATOM      1  C   UNL A   1      33.754  28.674  25.837  1.00  0.00     0.023 C 
ENDROOT
BRANCH   1   2
ATOM      2  C   UNL A   1      32.814  29.713  25.222  1.00  0.00     0.023 C 
BRANCH   2   3
ATOM      3  C   UNL A   1      31.424  29.179  24.883  1.00  0.00     0.116 C 
BRANCH   3   4
ATOM      4  N   UNL A   1      31.419  28.445  23.634  1.00  0.00    -0.356 N 
ATOM      5  C   UNL A   1      30.368  28.157  22.811  1.00  0.00     0.225 C 
ATOM      6  O   UNL A   1      30.584  27.505  21.790  1.00  0.00    -0.275 OA
ATOM      7  H   UNL A   1      32.295  28.108  23.338  1.00  0.00     0.163 HD
BRANCH   5   8
ATOM      8  C   UNL A   1      29.003  28.717  23.120  1.00  0.00     0.153 C 
BRANCH   8   9
ATOM      9  C   UNL A   1      28.731  30.067  22.551  1.00  0.00     0.057 C 
ATOM     10  C   UNL A   1      27.874  32.255  19.951  1.00  0.00     0.177 C 
ATOM     11  N   UNL A   1      28.270  31.658  21.201  1.00  0.00    -0.237 N 
ATOM     12  N   UNL A   1      28.425  30.296  21.310  1.00  0.00    -0.179 NA
ATOM     13  C   UNL A   1      28.473  32.359  22.385  1.00  0.00     0.248 C 
ATOM     14  C   UNL A   1      28.821  31.308  23.391  1.00  0.00     0.156 C 
ATOM     15  O   UNL A   1      28.377  33.556  22.597  1.00  0.00    -0.273 OA
ENDBRANCH   8   9
ENDBRANCH   5   8
ENDBRANCH   3   4
ENDBRANCH   2   3
ENDBRANCH   1   2
BRANCH   1  16
ATOM     16  C   UNL A   1      33.873  28.732  27.354  1.00  0.00     0.116 C 
BRANCH  16  17
ATOM     17  N   UNL A   1      33.846  30.090  27.877  1.00  0.00    -0.352 N 
ATOM     18  C   UNL A   1      34.842  30.781  28.525  1.00  0.00     0.251 C 
ATOM     19  H   UNL A   1      33.002  30.580  27.749  1.00  0.00     0.163 HD
ATOM     20  O   UNL A   1      34.616  31.880  29.020  1.00  0.00    -0.269 OA
BRANCH  18  21
ATOM     21  C   UNL A   1      36.182  30.169  28.651  1.00  0.00     0.039 A 
ATOM     22  C   UNL A   1      37.066  30.251  27.573  1.00  0.00     0.014 A 
ATOM     23  C   UNL A   1      36.574  29.555  29.842  1.00  0.00     0.014 A 
ATOM     24  C   UNL A   1      38.370  29.778  27.715  1.00  0.00     0.010 A 
ATOM     25  C   UNL A   1      37.897  29.159  30.009  1.00  0.00     0.010 A 
ATOM     26  C   UNL A   1      38.809  29.266  28.948  1.00  0.00    -0.014 A 
BRANCH  26  27
ATOM     27  C   UNL A   1      40.216  28.840  29.150  1.00  0.00     0.031 A 
ATOM     28  C   UNL A   1      41.219  29.796  29.733  1.00  0.00     0.074 A 
ATOM     29  C   UNL A   1      40.609  27.616  28.743  1.00  0.00     0.049 A 
ATOM     30  N   UNL A   1      42.506  29.639  29.912  1.00  0.00    -0.248 NA
ATOM     31  C   UNL A   1      40.711  31.114  30.143  1.00  0.00     0.031 C 
ATOM     32  C   UNL A   1      39.745  26.615  28.116  1.00  0.00     0.029 A 
ATOM     33  N   UNL A   1      41.842  27.014  28.782  1.00  0.00    -0.354 N 
ATOM     34  C   UNL A   1      42.959  30.837  30.448  1.00  0.00     0.074 A 
ATOM     35  C   UNL A   1      41.825  31.734  30.500  1.00  0.00     0.031 C 
ATOM     36  C   UNL A   1      40.470  25.518  27.844  1.00  0.00     0.029 A 
ATOM     37  C   UNL A   1      41.855  25.753  28.236  1.00  0.00     0.049 A 
ATOM     38  H   UNL A   1      42.640  27.445  29.165  1.00  0.00     0.167 HD
ATOM     39  C   UNL A   1      44.203  31.154  30.885  1.00  0.00     0.037 A 
ATOM     40  C   UNL A   1      42.874  24.890  28.056  1.00  0.00     0.037 A 
ATOM     41  C   UNL A   1      45.328  30.257  30.835  1.00  0.00     0.049 A 
ATOM     42  C   UNL A   1      44.251  25.271  28.522  1.00  0.00     0.074 A 
ATOM     43  C   UNL A   1      46.618  30.466  31.288  1.00  0.00     0.029 A 
ATOM     44  N   UNL A   1      45.298  28.981  30.289  1.00  0.00    -0.354 N 
ATOM     45  N   UNL A   1      44.654  26.382  29.089  1.00  0.00    -0.248 NA
ATOM     46  C   UNL A   1      45.315  24.276  28.330  1.00  0.00     0.031 C 
ATOM     47  C   UNL A   1      47.383  29.340  30.967  1.00  0.00     0.029 A 
ATOM     48  C   UNL A   1      46.554  28.403  30.372  1.00  0.00     0.049 A 
ATOM     49  H   UNL A   1      44.502  28.551  29.902  1.00  0.00     0.167 HD
ATOM     50  C   UNL A   1      46.008  26.212  29.346  1.00  0.00     0.074 A 
ATOM     51  C   UNL A   1      46.354  24.882  28.886  1.00  0.00     0.031 C 
ATOM     52  C   UNL A   1      46.885  27.077  29.914  1.00  0.00     0.037 A 
BRANCH  39  53
ATOM     53  C   UNL A   1      44.401  32.531  31.452  1.00  0.00     0.057 A 
ATOM     54  C   UNL A   1      44.219  32.803  32.815  1.00  0.00     0.134 A 
ATOM     55  C   UNL A   1      44.793  33.596  30.630  1.00  0.00     0.134 A 
ATOM     56  F   UNL A   1      43.833  31.832  33.657  1.00  0.00    -0.206 F 
ATOM     57  C   UNL A   1      44.380  34.090  33.333  1.00  0.00     0.040 A 
ATOM     58  C   UNL A   1      44.990  34.880  31.143  1.00  0.00     0.040 A 
ATOM     59  F   UNL A   1      44.994  33.407  29.318  1.00  0.00    -0.206 F 
ATOM     60  C   UNL A   1      44.772  35.132  32.495  1.00  0.00     0.006 A 
ENDBRANCH  39  53
BRANCH  40  61
ATOM     61  C   UNL A   1      42.622  23.575  27.412  1.00  0.00     0.057 A 
ATOM     62  C   UNL A   1      42.233  22.460  28.163  1.00  0.00     0.134 A 
ATOM     63  C   UNL A   1      42.761  23.403  26.029  1.00  0.00     0.134 A 
ATOM     64  F   UNL A   1      42.101  22.556  29.495  1.00  0.00    -0.206 F 
ATOM     65  C   UNL A   1      42.010  21.218  27.567  1.00  0.00     0.040 A 
ATOM     66  C   UNL A   1      42.513  22.174  25.416  1.00  0.00     0.040 A 
ATOM     67  F   UNL A   1      43.121  24.434  25.251  1.00  0.00    -0.206 F 
ATOM     68  C   UNL A   1      42.144  21.074  26.187  1.00  0.00     0.006 A 
ENDBRANCH  40  61
BRANCH  52  69
ATOM     69  C   UNL A   1      48.297  26.601  30.105  1.00  0.00     0.057 A 
ATOM     70  C   UNL A   1      48.693  25.884  31.242  1.00  0.00     0.134 A 
ATOM     71  C   UNL A   1      49.263  26.824  29.114  1.00  0.00     0.134 A 
ATOM     72  F   UNL A   1      47.822  25.648  32.234  1.00  0.00    -0.206 F 
ATOM     73  C   UNL A   1      50.003  25.427  31.396  1.00  0.00     0.040 A 
ATOM     74  C   UNL A   1      50.567  26.344  29.243  1.00  0.00     0.040 A 
ATOM     75  F   UNL A   1      48.948  27.495  27.996  1.00  0.00    -0.206 F 
ATOM     76  C   UNL A   1      50.941  25.649  30.390  1.00  0.00     0.006 A 
ENDBRANCH  52  69
ENDBRANCH  26  27
ENDBRANCH  18  21
ENDBRANCH  16  17
ENDBRANCH   1  16
TORSDOF 12
ENDMDL
MODEL 2
REMARK VINA RESULT:     -11.0      4.800      8.999
REMARK SMILES CN1N=C(CC(=O)NCCCCNC(=O)c2ccc(-c3c4nc(c(-c5c(F)cccc5F)c5ccc([nH]5)c(-c5c(F)cccc5F)c5nc(c(-c6c(F)cccc6F)c6ccc3[nH]6)C=C5)C=C4)cc2)CC1=O
REMARK SMILES IDX 11 1 10 2 9 3 8 4 6 5 7 6 5 8 4 9 1 10 2 11 3 12 71 13 70 14
REMARK SMILES IDX 72 15 12 16 13 17 14 18 15 20 16 21 17 22 69 23 18 24 68 25
REMARK SMILES IDX 19 26 20 27 21 28 62 29 22 30 67 31 61 32 63 33 23 34 66 35
REMARK SMILES IDX 60 36 59 37 24 39 50 40 33 41 49 42 34 43 37 44 48 45 64 46
REMARK SMILES IDX 35 47 36 48 47 50 65 51 38 52 25 53 26 54 31 55 27 56 28 57
REMARK SMILES IDX 30 58 32 59 29 60 51 61 52 62 57 63 53 64 54 65 56 66 58 67
REMARK SMILES IDX 55 68 39 69 40 70 45 71 41 72 42 73 44 74 46 75 43 76
REMARK H PARENT 8 7 13 19 63 38 37 49
REMARK Flexibility Score: inf
ROOT
ATOM      1  C   UNL A   1      37.465  20.367  24.986  1.00  0.00     0.023 C 
ENDROOT
BRANCH   1   2
ATOM      2  C   UNL A   1      36.201  21.044  25.520  1.00  0.00     0.023 C 
BRANCH   2   3
ATOM      3  C   UNL A   1      35.135  21.310  24.459  1.00  0.00     0.116 C 
BRANCH   3   4
ATOM      4  N   UNL A   1      33.805  21.347  25.031  1.00  0.00    -0.356 N 
ATOM      5  C   UNL A   1      32.720  20.572  24.733  1.00  0.00     0.225 C 
ATOM      6  O   UNL A   1      31.668  20.776  25.339  1.00  0.00    -0.275 OA
ATOM      7  H   UNL A   1      33.663  22.023  25.732  1.00  0.00     0.163 HD
BRANCH   5   8
ATOM      8  C   UNL A   1      32.860  19.438  23.750  1.00  0.00     0.153 C 
BRANCH   8   9
ATOM      9  C   UNL A   1      33.119  18.103  24.359  1.00  0.00     0.057 C 
ATOM     10  C   UNL A   1      32.150  15.193  26.053  1.00  0.00     0.177 C 
ATOM     11  N   UNL A   1      32.872  16.244  25.382  1.00  0.00    -0.237 N 
ATOM     12  N   UNL A   1      32.224  17.382  24.962  1.00  0.00    -0.179 NA
ATOM     13  C   UNL A   1      34.223  16.196  25.059  1.00  0.00     0.248 C 
ATOM     14  C   UNL A   1      34.487  17.484  24.345  1.00  0.00     0.156 C 
ATOM     15  O   UNL A   1      35.036  15.311  25.273  1.00  0.00    -0.273 OA
ENDBRANCH   8   9
ENDBRANCH   5   8
ENDBRANCH   3   4
ENDBRANCH   2   3
ENDBRANCH   1   2
BRANCH   1  16
ATOM     16  C   UNL A   1      38.742  20.697  25.748  1.00  0.00     0.116 C 
BRANCH  16  17
ATOM     17  N   UNL A   1      39.695  19.597  25.769  1.00  0.00    -0.352 N 
ATOM     18  C   UNL A   1      41.028  19.622  26.100  1.00  0.00     0.251 C 
ATOM     19  H   UNL A   1      39.336  18.717  25.511  1.00  0.00     0.163 HD
ATOM     20  O   UNL A   1      41.727  18.627  25.941  1.00  0.00    -0.269 OA
BRANCH  18  21
ATOM     21  C   UNL A   1      41.621  20.873  26.616  1.00  0.00     0.039 A 
ATOM     22  C   UNL A   1      42.133  21.803  25.708  1.00  0.00     0.014 A 
ATOM     23  C   UNL A   1      41.633  21.143  27.987  1.00  0.00     0.014 A 
ATOM     24  C   UNL A   1      42.594  23.036  26.172  1.00  0.00     0.010 A 
ATOM     25  C   UNL A   1      42.016  22.402  28.437  1.00  0.00     0.010 A 
ATOM     26  C   UNL A   1      42.501  23.361  27.535  1.00  0.00    -0.014 A 
BRANCH  26  27
ATOM     27  C   UNL A   1      42.901  24.699  28.038  1.00  0.00     0.031 A 
ATOM     28  C   UNL A   1      41.862  25.761  28.268  1.00  0.00     0.074 A 
ATOM     29  C   UNL A   1      44.206  24.981  28.221  1.00  0.00     0.049 A 
ATOM     30  N   UNL A   1      42.020  27.011  28.626  1.00  0.00    -0.248 NA
ATOM     31  C   UNL A   1      40.462  25.375  28.036  1.00  0.00     0.031 C 
ATOM     32  C   UNL A   1      45.313  24.055  27.984  1.00  0.00     0.029 A 
ATOM     33  N   UNL A   1      44.821  26.137  28.633  1.00  0.00    -0.354 N 
ATOM     34  C   UNL A   1      40.745  27.557  28.656  1.00  0.00     0.074 A 
ATOM     35  C   UNL A   1      39.832  26.526  28.214  1.00  0.00     0.031 C 
ATOM     36  C   UNL A   1      46.471  24.672  28.270  1.00  0.00     0.029 A 
ATOM     37  C   UNL A   1      46.192  26.048  28.666  1.00  0.00     0.049 A 
ATOM     38  H   UNL A   1      44.328  26.953  28.879  1.00  0.00     0.167 HD
ATOM     39  C   UNL A   1      40.363  28.798  29.045  1.00  0.00     0.037 A 
ATOM     40  C   UNL A   1      47.121  26.976  28.968  1.00  0.00     0.037 A 
ATOM     41  C   UNL A   1      41.274  29.821  29.488  1.00  0.00     0.049 A 
ATOM     42  C   UNL A   1      46.678  28.355  29.369  1.00  0.00     0.074 A 
ATOM     43  C   UNL A   1      40.986  31.096  29.940  1.00  0.00     0.029 A 
ATOM     44  N   UNL A   1      42.655  29.687  29.524  1.00  0.00    -0.354 N 
ATOM     45  N   UNL A   1      45.464  28.840  29.458  1.00  0.00    -0.248 NA
ATOM     46  C   UNL A   1      47.735  29.315  29.719  1.00  0.00     0.031 C 
ATOM     47  C   UNL A   1      42.193  31.752  30.199  1.00  0.00     0.029 A 
ATOM     48  C   UNL A   1      43.233  30.865  29.968  1.00  0.00     0.049 A 
ATOM     49  H   UNL A   1      43.151  28.874  29.273  1.00  0.00     0.167 HD
ATOM     50  C   UNL A   1      45.606  30.150  29.900  1.00  0.00     0.074 A 
ATOM     51  C   UNL A   1      47.026  30.378  30.074  1.00  0.00     0.031 C 
ATOM     52  C   UNL A   1      44.648  31.079  30.141  1.00  0.00     0.037 A 
BRANCH  39  53
ATOM     53  C   UNL A   1      38.894  29.110  29.003  1.00  0.00     0.057 A 
ATOM     54  C   UNL A   1      38.080  28.991  30.138  1.00  0.00     0.134 A 
ATOM     55  C   UNL A   1      38.286  29.547  27.819  1.00  0.00     0.134 A 
ATOM     56  F   UNL A   1      38.593  28.566  31.303  1.00  0.00    -0.206 F 
ATOM     57  C   UNL A   1      36.709  29.257  30.087  1.00  0.00     0.040 A 
ATOM     58  C   UNL A   1      36.923  29.848  27.765  1.00  0.00     0.040 A 
ATOM     59  F   UNL A   1      39.006  29.691  26.696  1.00  0.00    -0.206 F 
ATOM     60  C   UNL A   1      36.129  29.692  28.898  1.00  0.00     0.006 A 
ENDBRANCH  39  53
BRANCH  40  61
ATOM     61  C   UNL A   1      48.563  26.623  28.909  1.00  0.00     0.057 A 
ATOM     62  C   UNL A   1      49.243  26.149  30.036  1.00  0.00     0.134 A 
ATOM     63  C   UNL A   1      49.296  26.749  27.722  1.00  0.00     0.134 A 
ATOM     64  F   UNL A   1      48.600  26.024  31.208  1.00  0.00    -0.206 F 
ATOM     65  C   UNL A   1      50.600  25.831  29.993  1.00  0.00     0.040 A 
ATOM     66  C   UNL A   1      50.647  26.407  27.656  1.00  0.00     0.040 A 
ATOM     67  F   UNL A   1      48.702  27.188  26.603  1.00  0.00    -0.206 F 
ATOM     68  C   UNL A   1      51.306  25.954  28.797  1.00  0.00     0.006 A 
ENDBRANCH  40  61
BRANCH  52  69
ATOM     69  C   UNL A   1      45.097  32.416  30.656  1.00  0.00     0.057 A 
ATOM     70  C   UNL A   1      45.263  32.669  32.023  1.00  0.00     0.134 A 
ATOM     71  C   UNL A   1      45.414  33.450  29.764  1.00  0.00     0.134 A 
ATOM     72  F   UNL A   1      44.965  31.727  32.930  1.00  0.00    -0.206 F 
ATOM     73  C   UNL A   1      45.705  33.910  32.487  1.00  0.00     0.040 A 
ATOM     74  C   UNL A   1      45.887  34.684  30.215  1.00  0.00     0.040 A 
ATOM     75  F   UNL A   1      45.288  33.272  28.441  1.00  0.00    -0.206 F 
ATOM     76  C   UNL A   1      46.027  34.918  31.580  1.00  0.00     0.006 A 
ENDBRANCH  52  69
ENDBRANCH  26  27
ENDBRANCH  18  21
ENDBRANCH  16  17
ENDBRANCH   1  16
TORSDOF 12
ENDMDL
MODEL 3
REMARK VINA RESULT:     -11.0      4.840      9.128
REMARK SMILES CN1N=C(CC(=O)NCCCCNC(=O)c2ccc(-c3c4nc(c(-c5c(F)cccc5F)c5ccc([nH]5)c(-c5c(F)cccc5F)c5nc(c(-c6c(F)cccc6F)c6ccc3[nH]6)C=C5)C=C4)cc2)CC1=O
REMARK SMILES IDX 11 1 10 2 9 3 8 4 6 5 7 6 5 8 4 9 1 10 2 11 3 12 71 13 70 14
REMARK SMILES IDX 72 15 12 16 13 17 14 18 15 20 16 21 17 22 69 23 18 24 68 25
REMARK SMILES IDX 19 26 20 27 21 28 62 29 22 30 67 31 61 32 63 33 23 34 66 35
REMARK SMILES IDX 60 36 59 37 24 39 50 40 33 41 49 42 34 43 37 44 48 45 64 46
REMARK SMILES IDX 35 47 36 48 47 50 65 51 38 52 25 53 26 54 31 55 27 56 28 57
REMARK SMILES IDX 30 58 32 59 29 60 51 61 52 62 57 63 53 64 54 65 56 66 58 67
REMARK SMILES IDX 55 68 39 69 40 70 45 71 41 72 42 73 44 74 46 75 43 76
REMARK H PARENT 8 7 13 19 63 38 37 49
REMARK Flexibility Score: inf
ROOT
ATOM      1  C   UNL A   1      37.469  20.359  24.994  1.00  0.00     0.023 C 
ENDROOT
BRANCH   1   2
ATOM      2  C   UNL A   1      36.217  21.061  25.521  1.00  0.00     0.023 C 
BRANCH   2   3
ATOM      3  C   UNL A   1      35.133  21.289  24.470  1.00  0.00     0.116 C 
BRANCH   3   4
ATOM      4  N   UNL A   1      33.811  21.329  25.060  1.00  0.00    -0.356 N 
ATOM      5  C   UNL A   1      32.717  20.565  24.770  1.00  0.00     0.225 C 
ATOM      6  O   UNL A   1      31.675  20.771  25.392  1.00  0.00    -0.275 OA
ATOM      7  H   UNL A   1      33.684  22.001  25.769  1.00  0.00     0.163 HD
BRANCH   5   8
ATOM      8  C   UNL A   1      32.836  19.439  23.775  1.00  0.00     0.153 C 
BRANCH   8   9
ATOM      9  C   UNL A   1      33.087  18.096  24.369  1.00  0.00     0.057 C 
ATOM     10  C   UNL A   1      32.099  15.164  26.015  1.00  0.00     0.177 C 
ATOM     11  N   UNL A   1      32.828  16.224  25.366  1.00  0.00    -0.237 N 
ATOM     12  N   UNL A   1      32.186  17.368  24.954  1.00  0.00    -0.179 NA
ATOM     13  C   UNL A   1      34.183  16.178  25.055  1.00  0.00     0.248 C 
ATOM     14  C   UNL A   1      34.455  17.475  24.361  1.00  0.00     0.156 C 
ATOM     15  O   UNL A   1      34.993  15.291  25.266  1.00  0.00    -0.273 OA
ENDBRANCH   8   9
ENDBRANCH   5   8
ENDBRANCH   3   4
ENDBRANCH   2   3
ENDBRANCH   1   2
BRANCH   1  16
ATOM     16  C   UNL A   1      38.750  20.666  25.760  1.00  0.00     0.116 C 
BRANCH  16  17
ATOM     17  N   UNL A   1      39.691  19.555  25.765  1.00  0.00    -0.352 N 
ATOM     18  C   UNL A   1      41.033  19.569  26.063  1.00  0.00     0.251 C 
ATOM     19  H   UNL A   1      39.316  18.677  25.523  1.00  0.00     0.163 HD
ATOM     20  O   UNL A   1      41.717  18.565  25.894  1.00  0.00    -0.269 OA
BRANCH  18  21
ATOM     21  C   UNL A   1      41.651  20.817  26.554  1.00  0.00     0.039 A 
ATOM     22  C   UNL A   1      42.149  21.735  25.626  1.00  0.00     0.014 A 
ATOM     23  C   UNL A   1      41.702  21.097  27.922  1.00  0.00     0.014 A 
ATOM     24  C   UNL A   1      42.634  22.966  26.068  1.00  0.00     0.010 A 
ATOM     25  C   UNL A   1      42.108  22.355  28.353  1.00  0.00     0.010 A 
ATOM     26  C   UNL A   1      42.580  23.302  27.431  1.00  0.00    -0.014 A 
BRANCH  26  27
ATOM     27  C   UNL A   1      43.007  24.640  27.913  1.00  0.00     0.031 A 
ATOM     28  C   UNL A   1      41.982  25.699  28.209  1.00  0.00     0.074 A 
ATOM     29  C   UNL A   1      44.319  24.925  28.019  1.00  0.00     0.049 A 
ATOM     30  N   UNL A   1      42.158  26.947  28.560  1.00  0.00    -0.248 NA
ATOM     31  C   UNL A   1      40.571  25.310  28.060  1.00  0.00     0.031 C 
ATOM     32  C   UNL A   1      45.413  24.001  27.713  1.00  0.00     0.029 A 
ATOM     33  N   UNL A   1      44.956  26.081  28.396  1.00  0.00    -0.354 N 
ATOM     34  C   UNL A   1      40.886  27.491  28.669  1.00  0.00     0.074 A 
ATOM     35  C   UNL A   1      39.950  26.459  28.278  1.00  0.00     0.031 C 
ATOM     36  C   UNL A   1      46.585  24.620  27.931  1.00  0.00     0.029 A 
ATOM     37  C   UNL A   1      46.327  25.994  28.348  1.00  0.00     0.049 A 
ATOM     38  H   UNL A   1      44.477  26.894  28.675  1.00  0.00     0.167 HD
ATOM     39  C   UNL A   1      40.525  28.730  29.084  1.00  0.00     0.037 A 
ATOM     40  C   UNL A   1      47.270  26.924  28.596  1.00  0.00     0.037 A 
ATOM     41  C   UNL A   1      41.459  29.753  29.474  1.00  0.00     0.049 A 
ATOM     42  C   UNL A   1      46.849  28.301  29.027  1.00  0.00     0.074 A 
ATOM     43  C   UNL A   1      41.196  31.026  29.948  1.00  0.00     0.029 A 
ATOM     44  N   UNL A   1      42.840  29.622  29.427  1.00  0.00    -0.354 N 
ATOM     45  N   UNL A   1      45.641  28.783  29.191  1.00  0.00    -0.248 NA
ATOM     46  C   UNL A   1      47.923  29.262  29.316  1.00  0.00     0.031 C 
ATOM     47  C   UNL A   1      42.415  31.684  30.135  1.00  0.00     0.029 A 
ATOM     48  C   UNL A   1      43.440  30.801  29.840  1.00  0.00     0.049 A 
ATOM     49  H   UNL A   1      43.321  28.811  29.144  1.00  0.00     0.167 HD
ATOM     50  C   UNL A   1      45.807  30.091  29.627  1.00  0.00     0.074 A 
ATOM     51  C   UNL A   1      47.235  30.322  29.716  1.00  0.00     0.031 C 
ATOM     52  C   UNL A   1      44.863  31.017  29.928  1.00  0.00     0.037 A 
BRANCH  39  53
ATOM     53  C   UNL A   1      39.055  29.038  29.131  1.00  0.00     0.057 A 
ATOM     54  C   UNL A   1      38.358  29.493  28.002  1.00  0.00     0.134 A 
ATOM     55  C   UNL A   1      38.323  28.865  30.312  1.00  0.00     0.134 A 
ATOM     56  F   UNL A   1      39.000  29.692  26.840  1.00  0.00    -0.206 F 
ATOM     57  C   UNL A   1      36.997  29.802  28.058  1.00  0.00     0.040 A 
ATOM     58  C   UNL A   1      36.954  29.139  30.370  1.00  0.00     0.040 A 
ATOM     59  F   UNL A   1      38.923  28.425  31.428  1.00  0.00    -0.206 F 
ATOM     60  C   UNL A   1      36.291  29.619  29.244  1.00  0.00     0.006 A 
ENDBRANCH  39  53
BRANCH  40  61
ATOM     61  C   UNL A   1      48.706  26.574  28.449  1.00  0.00     0.057 A 
ATOM     62  C   UNL A   1      49.365  26.704  27.222  1.00  0.00     0.134 A 
ATOM     63  C   UNL A   1      49.457  26.105  29.535  1.00  0.00     0.134 A 
ATOM     64  F   UNL A   1      48.697  27.131  26.139  1.00  0.00    -0.206 F 
ATOM     65  C   UNL A   1      50.710  26.363  27.072  1.00  0.00     0.040 A 
ATOM     66  C   UNL A   1      50.809  25.787  29.408  1.00  0.00     0.040 A 
ATOM     67  F   UNL A   1      48.888  25.967  30.742  1.00  0.00    -0.206 F 
ATOM     68  C   UNL A   1      51.438  25.908  28.171  1.00  0.00     0.006 A 
ENDBRANCH  40  61
BRANCH  52  69
ATOM     69  C   UNL A   1      45.340  32.354  30.419  1.00  0.00     0.057 A 
ATOM     70  C   UNL A   1      45.561  33.430  29.550  1.00  0.00     0.134 A 
ATOM     71  C   UNL A   1      45.533  32.580  31.789  1.00  0.00     0.134 A 
ATOM     72  F   UNL A   1      45.406  33.278  28.226  1.00  0.00    -0.206 F 
ATOM     73  C   UNL A   1      45.980  34.676  30.023  1.00  0.00     0.040 A 
ATOM     74  C   UNL A   1      45.921  33.828  32.276  1.00  0.00     0.040 A 
ATOM     75  F   UNL A   1      45.329  31.595  32.677  1.00  0.00    -0.206 F 
ATOM     76  C   UNL A   1      46.152  34.879  31.391  1.00  0.00     0.006 A 
ENDBRANCH  52  69
ENDBRANCH  26  27
ENDBRANCH  18  21
ENDBRANCH  16  17
ENDBRANCH   1  16
TORSDOF 12
ENDMDL
