MODEL 1
REMARK VINA RESULT:     -11.3      0.000      0.000
REMARK SMILES CSc1nc(O)nc(C)c1C(=O)N1C[C@@H](O)C[C@@H]1C(=O)NCCCCNC(=O)c1ccc(-c2c3nc(c(-c4c(F)cccc4F)c4ccc([nH]4)c(-c4c(F)cccc4F)c4nc(c(-c5c(F)cccc5F)c5ccc2[nH]5)C=C4)C=C3)cc1
REMARK SMILES IDX 23 1 22 2 21 3 19 4 20 5 18 7 13 8 14 9 15 10 17 11 11 12
REMARK SMILES IDX 12 13 10 14 3 15 4 16 5 17 8 18 7 19 9 20 2 21 1 22 6 23
REMARK SMILES IDX 16 25 24 27 25 28 26 29 27 30 28 32 29 33 30 34 82 35 31 36
REMARK SMILES IDX 81 37 32 38 33 39 34 40 75 41 35 42 80 43 74 44 76 45 36 46
REMARK SMILES IDX 79 47 73 48 72 49 37 51 63 52 46 53 62 54 47 55 50 56 61 57
REMARK SMILES IDX 77 58 48 59 49 60 60 62 78 63 51 64 38 65 39 66 44 67 40 68
REMARK SMILES IDX 41 69 43 70 45 71 42 72 64 73 65 74 70 75 66 76 67 77 69 78
REMARK SMILES IDX 71 79 68 80 52 81 53 82 58 83 54 84 55 85 57 86 59 87 56 88
REMARK H PARENT 21 6 6 24 16 26 26 31 76 50 50 61
REMARK Flexibility Score: inf
ROOT
ATOM      1  C   UNL A   1      36.915  21.186  24.643  1.00  0.00     0.023 C 
ENDROOT
BRANCH   1   2
ATOM      2  C   UNL A   1      35.475  21.068  25.136  1.00  0.00     0.116 C 
BRANCH   2   3
ATOM      3  N   UNL A   1      35.335  21.546  26.495  1.00  0.00    -0.354 N 
ATOM      4  C   UNL A   1      34.340  22.324  27.017  1.00  0.00     0.242 C 
ATOM      5  O   UNL A   1      34.482  22.750  28.163  1.00  0.00    -0.273 OA
ATOM      6  H   UNL A   1      36.045  21.277  27.122  1.00  0.00     0.163 HD
BRANCH   4   7
ATOM      7  C   UNL A   1      33.107  22.615  26.141  1.00  0.00     0.177 C 
ATOM      8  N   UNL A   1      33.026  24.007  25.717  1.00  0.00    -0.324 N 
ATOM      9  C   UNL A   1      31.629  24.358  25.590  1.00  0.00     0.152 C 
ATOM     10  C   UNL A   1      30.981  23.644  26.770  1.00  0.00     0.136 C 
ATOM     11  C   UNL A   1      31.794  22.353  26.894  1.00  0.00     0.069 C 
BRANCH   8  12
ATOM     12  C   UNL A   1      33.992  24.489  24.859  1.00  0.00     0.259 C 
ATOM     13  O   UNL A   1      35.143  24.621  25.269  1.00  0.00    -0.269 OA
BRANCH  12  14
ATOM     14  C   UNL A   1      33.594  24.961  23.486  1.00  0.00     0.093 A 
ATOM     15  C   UNL A   1      33.508  26.295  23.062  1.00  0.00     0.116 A 
ATOM     16  N   UNL A   1      33.207  26.652  21.788  1.00  0.00    -0.188 NA
ATOM     17  C   UNL A   1      33.037  25.666  20.926  1.00  0.00     0.315 A 
ATOM     18  C   UNL A   1      33.351  24.019  22.470  1.00  0.00     0.058 A 
ATOM     19  N   UNL A   1      33.081  24.369  21.184  1.00  0.00    -0.200 NA
ATOM     20  C   UNL A   1      33.428  22.526  22.641  1.00  0.00     0.068 C 
BRANCH  15  21
ATOM     21  S   UNL A   1      33.840  27.765  24.026  1.00  0.00    -0.109 SA
ATOM     22  C   UNL A   1      32.222  27.967  24.806  1.00  0.00     0.092 C 
ENDBRANCH  15  21
BRANCH  17  23
ATOM     23  O   UNL A   1      32.812  25.986  19.628  1.00  0.00    -0.479 OA
ATOM     24  H   UNL A   1      33.248  25.515  18.945  1.00  0.00     0.297 HD
ENDBRANCH  17  23
ENDBRANCH  12  14
ENDBRANCH   8  12
BRANCH  10  25
ATOM     25  O   UNL A   1      29.616  23.334  26.551  1.00  0.00    -0.391 OA
ATOM     26  H   UNL A   1      29.318  23.747  25.726  1.00  0.00     0.211 HD
ENDBRANCH  10  25
ENDBRANCH   4   7
ENDBRANCH   2   3
ENDBRANCH   1   2
BRANCH   1  27
ATOM     27  C   UNL A   1      37.803  19.992  24.999  1.00  0.00     0.023 C 
BRANCH  27  28
ATOM     28  C   UNL A   1      39.045  20.336  25.810  1.00  0.00     0.116 C 
BRANCH  28  29
ATOM     29  N   UNL A   1      40.010  19.248  25.850  1.00  0.00    -0.352 N 
ATOM     30  C   UNL A   1      41.357  19.324  26.102  1.00  0.00     0.251 C 
ATOM     31  H   UNL A   1      39.654  18.347  25.675  1.00  0.00     0.163 HD
ATOM     32  O   UNL A   1      42.081  18.340  25.991  1.00  0.00    -0.269 OA
BRANCH  30  33
ATOM     33  C   UNL A   1      41.927  20.629  26.483  1.00  0.00     0.039 A 
ATOM     34  C   UNL A   1      42.309  21.518  25.477  1.00  0.00     0.014 A 
ATOM     35  C   UNL A   1      42.021  20.985  27.832  1.00  0.00     0.014 A 
ATOM     36  C   UNL A   1      42.745  22.796  25.825  1.00  0.00     0.010 A 
ATOM     37  C   UNL A   1      42.403  22.276  28.173  1.00  0.00     0.010 A 
ATOM     38  C   UNL A   1      42.776  23.188  27.173  1.00  0.00    -0.014 A 
BRANCH  38  39
ATOM     39  C   UNL A   1      43.250  24.535  27.563  1.00  0.00     0.031 A 
ATOM     40  C   UNL A   1      42.248  25.585  27.946  1.00  0.00     0.074 A 
ATOM     41  C   UNL A   1      44.564  24.824  27.529  1.00  0.00     0.049 A 
ATOM     42  N   UNL A   1      42.444  26.835  28.277  1.00  0.00    -0.248 NA
ATOM     43  C   UNL A   1      40.834  25.176  27.937  1.00  0.00     0.031 C 
ATOM     44  C   UNL A   1      45.628  23.897  27.144  1.00  0.00     0.029 A 
ATOM     45  N   UNL A   1      45.225  25.992  27.814  1.00  0.00    -0.354 N 
ATOM     46  C   UNL A   1      41.182  27.360  28.516  1.00  0.00     0.074 A 
ATOM     47  C   UNL A   1      40.223  26.313  28.234  1.00  0.00     0.031 C 
ATOM     48  C   UNL A   1      46.812  24.528  27.229  1.00  0.00     0.029 A 
ATOM     49  C   UNL A   1      46.585  25.908  27.649  1.00  0.00     0.049 A 
ATOM     50  H   UNL A   1      44.766  26.811  28.111  1.00  0.00     0.167 HD
ATOM     51  C   UNL A   1      40.850  28.596  28.959  1.00  0.00     0.037 A 
ATOM     52  C   UNL A   1      47.537  26.847  27.813  1.00  0.00     0.037 A 
ATOM     53  C   UNL A   1      41.803  29.633  29.245  1.00  0.00     0.049 A 
ATOM     54  C   UNL A   1      47.137  28.229  28.255  1.00  0.00     0.074 A 
ATOM     55  C   UNL A   1      41.575  30.904  29.741  1.00  0.00     0.029 A 
ATOM     56  N   UNL A   1      43.172  29.518  29.049  1.00  0.00    -0.354 N 
ATOM     57  N   UNL A   1      45.945  28.694  28.546  1.00  0.00    -0.248 NA
ATOM     58  C   UNL A   1      48.217  29.215  28.393  1.00  0.00     0.031 C 
ATOM     59  C   UNL A   1      42.803  31.573  29.809  1.00  0.00     0.029 A 
ATOM     60  C   UNL A   1      43.799  30.705  29.391  1.00  0.00     0.049 A 
ATOM     61  H   UNL A   1      43.629  28.713  28.717  1.00  0.00     0.167 HD
ATOM     62  C   UNL A   1      46.136  30.018  28.922  1.00  0.00     0.074 A 
ATOM     63  C   UNL A   1      47.559  30.274  28.841  1.00  0.00     0.031 C 
ATOM     64  C   UNL A   1      45.216  30.939  29.300  1.00  0.00     0.037 A 
BRANCH  51  65
ATOM     65  C   UNL A   1      39.391  28.877  29.162  1.00  0.00     0.057 A 
ATOM     66  C   UNL A   1      38.785  28.661  30.406  1.00  0.00     0.134 A 
ATOM     67  C   UNL A   1      38.586  29.363  28.124  1.00  0.00     0.134 A 
ATOM     68  F   UNL A   1      39.499  28.196  31.441  1.00  0.00    -0.206 F 
ATOM     69  C   UNL A   1      37.429  28.925  30.610  1.00  0.00     0.040 A 
ATOM     70  C   UNL A   1      37.235  29.654  28.323  1.00  0.00     0.040 A 
ATOM     71  F   UNL A   1      39.111  29.608  26.914  1.00  0.00    -0.206 F 
ATOM     72  C   UNL A   1      36.653  29.431  29.569  1.00  0.00     0.006 A 
ENDBRANCH  51  65
BRANCH  52  73
ATOM     73  C   UNL A   1      48.964  26.521  27.573  1.00  0.00     0.057 A 
ATOM     74  C   UNL A   1      49.786  26.034  28.595  1.00  0.00     0.134 A 
ATOM     75  C   UNL A   1      49.527  26.647  26.297  1.00  0.00     0.134 A 
ATOM     76  F   UNL A   1      49.307  25.890  29.839  1.00  0.00    -0.206 F 
ATOM     77  C   UNL A   1      51.116  25.682  28.357  1.00  0.00     0.040 A 
ATOM     78  C   UNL A   1      50.847  26.278  26.039  1.00  0.00     0.040 A 
ATOM     79  F   UNL A   1      48.781  27.088  25.272  1.00  0.00    -0.206 F 
ATOM     80  C   UNL A   1      51.646  25.794  27.073  1.00  0.00     0.006 A 
ENDBRANCH  52  73
BRANCH  64  81
ATOM     81  C   UNL A   1      45.730  32.299  29.669  1.00  0.00     0.057 A 
ATOM     82  C   UNL A   1      45.831  33.311  28.707  1.00  0.00     0.134 A 
ATOM     83  C   UNL A   1      46.144  32.600  30.973  1.00  0.00     0.134 A 
ATOM     84  F   UNL A   1      45.458  33.085  27.438  1.00  0.00    -0.206 F 
ATOM     85  C   UNL A   1      46.327  34.575  29.028  1.00  0.00     0.040 A 
ATOM     86  C   UNL A   1      46.618  33.868  31.312  1.00  0.00     0.040 A 
ATOM     87  F   UNL A   1      46.055  31.678  31.944  1.00  0.00    -0.206 F 
ATOM     88  C   UNL A   1      46.715  34.858  30.336  1.00  0.00     0.006 A 
ENDBRANCH  64  81
ENDBRANCH  38  39
ENDBRANCH  30  33
ENDBRANCH  28  29
ENDBRANCH  27  28
ENDBRANCH   1  27
TORSDOF 16
ENDMDL
MODEL 2
REMARK VINA RESULT:     -11.3      1.218      6.209
REMARK SMILES CSc1nc(O)nc(C)c1C(=O)N1C[C@@H](O)C[C@@H]1C(=O)NCCCCNC(=O)c1ccc(-c2c3nc(c(-c4c(F)cccc4F)c4ccc([nH]4)c(-c4c(F)cccc4F)c4nc(c(-c5c(F)cccc5F)c5ccc2[nH]5)C=C4)C=C3)cc1
REMARK SMILES IDX 23 1 22 2 21 3 19 4 20 5 18 7 13 8 14 9 15 10 17 11 11 12
REMARK SMILES IDX 12 13 10 14 3 15 4 16 5 17 8 18 7 19 9 20 2 21 1 22 6 23
REMARK SMILES IDX 16 25 24 27 25 28 26 29 27 30 28 32 29 33 30 34 82 35 31 36
REMARK SMILES IDX 81 37 32 38 33 39 34 40 75 41 35 42 80 43 74 44 76 45 36 46
REMARK SMILES IDX 79 47 73 48 72 49 37 51 63 52 46 53 62 54 47 55 50 56 61 57
REMARK SMILES IDX 77 58 48 59 49 60 60 62 78 63 51 64 38 65 39 66 44 67 40 68
REMARK SMILES IDX 41 69 43 70 45 71 42 72 64 73 65 74 70 75 66 76 67 77 69 78
REMARK SMILES IDX 71 79 68 80 52 81 53 82 58 83 54 84 55 85 57 86 59 87 56 88
REMARK H PARENT 21 6 6 24 16 26 26 31 76 50 50 61
REMARK Flexibility Score: inf
ROOT
ATOM      1  C   UNL A   1      36.561  20.994  24.581  1.00  0.00     0.023 C 
ENDROOT
BRANCH   1   2
ATOM      2  C   UNL A   1      35.189  20.869  25.238  1.00  0.00     0.116 C 
BRANCH   2   3
ATOM      3  N   UNL A   1      35.172  21.464  26.558  1.00  0.00    -0.354 N 
ATOM      4  C   UNL A   1      34.290  22.381  27.058  1.00  0.00     0.242 C 
ATOM      5  O   UNL A   1      34.537  22.879  28.156  1.00  0.00    -0.273 OA
ATOM      6  H   UNL A   1      35.884  21.172  27.172  1.00  0.00     0.163 HD
BRANCH   4   7
ATOM      7  C   UNL A   1      33.048  22.731  26.218  1.00  0.00     0.177 C 
ATOM      8  N   UNL A   1      33.060  24.104  25.728  1.00  0.00    -0.324 N 
ATOM      9  C   UNL A   1      31.690  24.562  25.639  1.00  0.00     0.152 C 
ATOM     10  C   UNL A   1      31.040  23.959  26.879  1.00  0.00     0.136 C 
ATOM     11  C   UNL A   1      31.752  22.613  27.035  1.00  0.00     0.069 C 
BRANCH   8  12
ATOM     12  C   UNL A   1      34.022  24.464  24.809  1.00  0.00     0.259 C 
ATOM     13  O   UNL A   1      35.200  24.493  25.159  1.00  0.00    -0.269 OA
BRANCH  12  14
ATOM     14  C   UNL A   1      33.602  24.934  23.442  1.00  0.00     0.093 A 
ATOM     15  C   UNL A   1      33.507  26.268  23.019  1.00  0.00     0.116 A 
ATOM     16  N   UNL A   1      33.186  26.624  21.749  1.00  0.00    -0.188 NA
ATOM     17  C   UNL A   1      33.004  25.637  20.891  1.00  0.00     0.315 A 
ATOM     18  C   UNL A   1      33.345  23.992  22.431  1.00  0.00     0.058 A 
ATOM     19  N   UNL A   1      33.054  24.340  21.149  1.00  0.00    -0.200 NA
ATOM     20  C   UNL A   1      33.427  22.499  22.602  1.00  0.00     0.068 C 
BRANCH  15  21
ATOM     21  S   UNL A   1      33.852  27.740  23.976  1.00  0.00    -0.109 SA
ATOM     22  C   UNL A   1      32.163  28.170  24.455  1.00  0.00     0.092 C 
ENDBRANCH  15  21
BRANCH  17  23
ATOM     23  O   UNL A   1      32.757  25.955  19.596  1.00  0.00    -0.479 OA
ATOM     24  H   UNL A   1      33.198  25.497  18.907  1.00  0.00     0.297 HD
ENDBRANCH  17  23
ENDBRANCH  12  14
ENDBRANCH   8  12
BRANCH  10  25
ATOM     25  O   UNL A   1      29.646  23.752  26.730  1.00  0.00    -0.391 OA
ATOM     26  H   UNL A   1      29.196  23.962  27.563  1.00  0.00     0.211 HD
ENDBRANCH  10  25
ENDBRANCH   4   7
ENDBRANCH   2   3
ENDBRANCH   1   2
BRANCH   1  27
ATOM     27  C   UNL A   1      37.545  19.888  24.964  1.00  0.00     0.023 C 
BRANCH  27  28
ATOM     28  C   UNL A   1      38.778  20.360  25.724  1.00  0.00     0.116 C 
BRANCH  28  29
ATOM     29  N   UNL A   1      39.851  19.378  25.724  1.00  0.00    -0.352 N 
ATOM     30  C   UNL A   1      41.168  19.568  26.059  1.00  0.00     0.251 C 
ATOM     31  H   UNL A   1      39.602  18.466  25.449  1.00  0.00     0.163 HD
ATOM     32  O   UNL A   1      41.998  18.678  25.903  1.00  0.00    -0.269 OA
BRANCH  30  33
ATOM     33  C   UNL A   1      41.576  20.883  26.587  1.00  0.00     0.039 A 
ATOM     34  C   UNL A   1      42.057  21.847  25.699  1.00  0.00     0.014 A 
ATOM     35  C   UNL A   1      41.419  21.170  27.946  1.00  0.00     0.014 A 
ATOM     36  C   UNL A   1      42.340  23.128  26.170  1.00  0.00     0.010 A 
ATOM     37  C   UNL A   1      41.649  22.462  28.402  1.00  0.00     0.010 A 
ATOM     38  C   UNL A   1      42.119  23.448  27.520  1.00  0.00    -0.014 A 
BRANCH  38  39
ATOM     39  C   UNL A   1      42.428  24.798  28.042  1.00  0.00     0.031 A 
ATOM     40  C   UNL A   1      43.839  25.132  28.430  1.00  0.00     0.074 A 
ATOM     41  C   UNL A   1      41.442  25.699  28.208  1.00  0.00     0.049 A 
ATOM     42  N   UNL A   1      44.317  26.233  28.946  1.00  0.00    -0.248 NA
ATOM     43  C   UNL A   1      44.842  24.074  28.227  1.00  0.00     0.031 C 
ATOM     44  C   UNL A   1      40.030  25.481  27.895  1.00  0.00     0.029 A 
ATOM     45  N   UNL A   1      41.483  26.982  28.693  1.00  0.00    -0.354 N 
ATOM     46  C   UNL A   1      45.674  26.003  29.128  1.00  0.00     0.074 A 
ATOM     47  C   UNL A   1      45.932  24.637  28.725  1.00  0.00     0.031 C 
ATOM     48  C   UNL A   1      39.339  26.597  28.186  1.00  0.00     0.029 A 
ATOM     49  C   UNL A   1      40.255  27.596  28.727  1.00  0.00     0.049 A 
ATOM     50  H   UNL A   1      42.314  27.419  28.988  1.00  0.00     0.167 HD
ATOM     51  C   UNL A   1      46.626  26.861  29.565  1.00  0.00     0.037 A 
ATOM     52  C   UNL A   1      39.914  28.826  29.156  1.00  0.00     0.037 A 
ATOM     53  C   UNL A   1      46.370  28.218  29.959  1.00  0.00     0.049 A 
ATOM     54  C   UNL A   1      40.984  29.742  29.686  1.00  0.00     0.074 A 
ATOM     55  C   UNL A   1      47.270  29.184  30.373  1.00  0.00     0.029 A 
ATOM     56  N   UNL A   1      45.111  28.801  29.997  1.00  0.00    -0.354 N 
ATOM     57  N   UNL A   1      42.276  29.537  29.787  1.00  0.00    -0.248 NA
ATOM     58  C   UNL A   1      40.546  31.062  30.160  1.00  0.00     0.031 C 
ATOM     59  C   UNL A   1      46.552  30.340  30.699  1.00  0.00     0.029 A 
ATOM     60  C   UNL A   1      45.208  30.106  30.451  1.00  0.00     0.049 A 
ATOM     61  H   UNL A   1      44.273  28.354  29.739  1.00  0.00     0.167 HD
ATOM     62  C   UNL A   1      42.805  30.708  30.315  1.00  0.00     0.074 A 
ATOM     63  C   UNL A   1      41.699  31.625  30.493  1.00  0.00     0.031 C 
ATOM     64  C   UNL A   1      44.093  30.999  30.625  1.00  0.00     0.037 A 
BRANCH  51  65
ATOM     65  C   UNL A   1      48.032  26.341  29.627  1.00  0.00     0.057 A 
ATOM     66  C   UNL A   1      48.528  25.755  30.797  1.00  0.00     0.134 A 
ATOM     67  C   UNL A   1      48.893  26.421  28.525  1.00  0.00     0.134 A 
ATOM     68  F   UNL A   1      47.756  25.648  31.888  1.00  0.00    -0.206 F 
ATOM     69  C   UNL A   1      49.833  25.260  30.866  1.00  0.00     0.040 A 
ATOM     70  C   UNL A   1      50.190  25.908  28.574  1.00  0.00     0.040 A 
ATOM     71  F   UNL A   1      48.471  26.955  27.369  1.00  0.00    -0.206 F 
ATOM     72  C   UNL A   1      50.664  25.329  29.749  1.00  0.00     0.006 A 
ENDBRANCH  51  65
BRANCH  52  73
ATOM     73  C   UNL A   1      38.503  29.279  29.094  1.00  0.00     0.057 A 
ATOM     74  C   UNL A   1      37.680  29.268  30.226  1.00  0.00     0.134 A 
ATOM     75  C   UNL A   1      37.958  29.779  27.904  1.00  0.00     0.134 A 
ATOM     76  F   UNL A   1      38.141  28.802  31.395  1.00  0.00    -0.206 F 
ATOM     77  C   UNL A   1      36.367  29.740  30.177  1.00  0.00     0.040 A 
ATOM     78  C   UNL A   1      36.656  30.274  27.847  1.00  0.00     0.040 A 
ATOM     79  F   UNL A   1      38.707  29.835  26.792  1.00  0.00    -0.206 F 
ATOM     80  C   UNL A   1      35.855  30.254  28.987  1.00  0.00     0.006 A 
ENDBRANCH  52  73
BRANCH  64  81
ATOM     81  C   UNL A   1      44.366  32.370  31.169  1.00  0.00     0.057 A 
ATOM     82  C   UNL A   1      44.347  32.608  32.549  1.00  0.00     0.134 A 
ATOM     83  C   UNL A   1      44.629  33.458  30.327  1.00  0.00     0.134 A 
ATOM     84  F   UNL A   1      44.095  31.610  33.409  1.00  0.00    -0.206 F 
ATOM     85  C   UNL A   1      44.578  33.880  33.071  1.00  0.00     0.040 A 
ATOM     86  C   UNL A   1      44.887  34.730  30.839  1.00  0.00     0.040 A 
ATOM     87  F   UNL A   1      44.678  33.290  28.996  1.00  0.00    -0.206 F 
ATOM     88  C   UNL A   1      44.856  34.945  32.215  1.00  0.00     0.006 A 
ENDBRANCH  64  81
ENDBRANCH  38  39
ENDBRANCH  30  33
ENDBRANCH  28  29
ENDBRANCH  27  28
ENDBRANCH   1  27
TORSDOF 16
ENDMDL
MODEL 3
REMARK VINA RESULT:     -11.2      5.040     10.078
REMARK SMILES CSc1nc(O)nc(C)c1C(=O)N1C[C@@H](O)C[C@@H]1C(=O)NCCCCNC(=O)c1ccc(-c2c3nc(c(-c4c(F)cccc4F)c4ccc([nH]4)c(-c4c(F)cccc4F)c4nc(c(-c5c(F)cccc5F)c5ccc2[nH]5)C=C4)C=C3)cc1
REMARK SMILES IDX 23 1 22 2 21 3 19 4 20 5 18 7 13 8 14 9 15 10 17 11 11 12
REMARK SMILES IDX 12 13 10 14 3 15 4 16 5 17 8 18 7 19 9 20 2 21 1 22 6 23
REMARK SMILES IDX 16 25 24 27 25 28 26 29 27 30 28 32 29 33 30 34 82 35 31 36
REMARK SMILES IDX 81 37 32 38 33 39 34 40 75 41 35 42 80 43 74 44 76 45 36 46
REMARK SMILES IDX 79 47 73 48 72 49 37 51 63 52 46 53 62 54 47 55 50 56 61 57
REMARK SMILES IDX 77 58 48 59 49 60 60 62 78 63 51 64 38 65 39 66 44 67 40 68
REMARK SMILES IDX 41 69 43 70 45 71 42 72 64 73 65 74 70 75 66 76 67 77 69 78
REMARK SMILES IDX 71 79 68 80 52 81 53 82 58 83 54 84 55 85 57 86 59 87 56 88
REMARK H PARENT 21 6 6 24 16 26 26 31 76 50 50 61
REMARK Flexibility Score: inf
ROOT
ATOM      1  C   UNL A   1      31.732  30.433  26.650  1.00  0.00     0.023 C 
ENDROOT
BRANCH   1   2
ATOM      2  C   UNL A   1      31.678  29.766  25.278  1.00  0.00     0.116 C 
BRANCH   2   3
ATOM      3  N   UNL A   1      32.996  29.646  24.690  1.00  0.00    -0.354 N 
ATOM      4  C   UNL A   1      33.489  28.626  23.926  1.00  0.00     0.242 C 
ATOM      5  O   UNL A   1      34.688  28.640  23.649  1.00  0.00    -0.273 OA
ATOM      6  H   UNL A   1      33.614  30.393  24.862  1.00  0.00     0.163 HD
BRANCH   4   7
ATOM      7  C   UNL A   1      32.515  27.526  23.463  1.00  0.00     0.177 C 
ATOM      8  N   UNL A   1      33.053  26.182  23.630  1.00  0.00    -0.324 N 
ATOM      9  C   UNL A   1      32.507  25.345  22.584  1.00  0.00     0.152 C 
ATOM     10  C   UNL A   1      32.504  26.265  21.369  1.00  0.00     0.136 C 
ATOM     11  C   UNL A   1      32.194  27.641  21.964  1.00  0.00     0.069 C 
BRANCH   8  12
ATOM     12  C   UNL A   1      33.273  25.718  24.910  1.00  0.00     0.259 C 
ATOM     13  O   UNL A   1      34.314  26.026  25.486  1.00  0.00    -0.269 OA
BRANCH  12  14
ATOM     14  C   UNL A   1      32.298  24.748  25.524  1.00  0.00     0.093 A 
ATOM     15  C   UNL A   1      32.404  23.350  25.511  1.00  0.00     0.116 A 
ATOM     16  N   UNL A   1      31.524  22.532  26.143  1.00  0.00    -0.188 NA
ATOM     17  C   UNL A   1      30.561  23.122  26.827  1.00  0.00     0.315 A 
ATOM     18  C   UNL A   1      31.203  25.234  26.260  1.00  0.00     0.058 A 
ATOM     19  N   UNL A   1      30.336  24.422  26.922  1.00  0.00    -0.200 NA
ATOM     20  C   UNL A   1      30.887  26.689  26.477  1.00  0.00     0.068 C 
BRANCH  15  21
ATOM     21  S   UNL A   1      33.701  22.364  24.771  1.00  0.00    -0.109 SA
ATOM     22  C   UNL A   1      32.722  20.928  24.278  1.00  0.00     0.092 C 
ENDBRANCH  15  21
BRANCH  17  23
ATOM     23  O   UNL A   1      29.709  22.339  27.534  1.00  0.00    -0.479 OA
ATOM     24  H   UNL A   1      29.805  21.407  27.518  1.00  0.00     0.297 HD
ENDBRANCH  17  23
ENDBRANCH  12  14
ENDBRANCH   8  12
BRANCH  10  25
ATOM     25  O   UNL A   1      31.515  25.920  20.413  1.00  0.00    -0.391 OA
ATOM     26  H   UNL A   1      30.640  26.172  20.747  1.00  0.00     0.211 HD
ENDBRANCH  10  25
ENDBRANCH   4   7
ENDBRANCH   2   3
ENDBRANCH   1   2
BRANCH   1  27
ATOM     27  C   UNL A   1      31.587  31.955  26.616  1.00  0.00     0.023 C 
BRANCH  27  28
ATOM     28  C   UNL A   1      32.738  32.723  27.252  1.00  0.00     0.116 C 
BRANCH  28  29
ATOM     29  N   UNL A   1      32.389  34.099  27.571  1.00  0.00    -0.352 N 
ATOM     30  C   UNL A   1      32.955  34.915  28.518  1.00  0.00     0.251 C 
ATOM     31  H   UNL A   1      31.657  34.493  27.044  1.00  0.00     0.163 HD
ATOM     32  O   UNL A   1      32.487  36.021  28.765  1.00  0.00    -0.269 OA
BRANCH  30  33
ATOM     33  C   UNL A   1      34.130  34.420  29.259  1.00  0.00     0.039 A 
ATOM     34  C   UNL A   1      33.934  33.775  30.482  1.00  0.00     0.014 A 
ATOM     35  C   UNL A   1      35.408  34.544  28.708  1.00  0.00     0.014 A 
ATOM     36  C   UNL A   1      35.025  33.206  31.136  1.00  0.00     0.010 A 
ATOM     37  C   UNL A   1      36.485  33.930  29.334  1.00  0.00     0.010 A 
ATOM     38  C   UNL A   1      36.303  33.263  30.556  1.00  0.00    -0.014 A 
BRANCH  38  39
ATOM     39  C   UNL A   1      37.477  32.679  31.243  1.00  0.00     0.031 A 
ATOM     40  C   UNL A   1      38.161  31.485  30.643  1.00  0.00     0.074 A 
ATOM     41  C   UNL A   1      37.895  33.188  32.416  1.00  0.00     0.049 A 
ATOM     42  N   UNL A   1      39.173  30.794  31.099  1.00  0.00    -0.248 NA
ATOM     43  C   UNL A   1      37.619  30.992  29.366  1.00  0.00     0.031 C 
ATOM     44  C   UNL A   1      37.293  34.326  33.112  1.00  0.00     0.029 A 
ATOM     45  N   UNL A   1      38.925  32.801  33.237  1.00  0.00    -0.354 N 
ATOM     46  C   UNL A   1      39.389  29.789  30.168  1.00  0.00     0.074 A 
ATOM     47  C   UNL A   1      38.367  29.920  29.152  1.00  0.00     0.031 C 
ATOM     48  C   UNL A   1      37.972  34.553  34.250  1.00  0.00     0.029 A 
ATOM     49  C   UNL A   1      39.038  33.563  34.374  1.00  0.00     0.049 A 
ATOM     50  H   UNL A   1      39.525  32.050  33.029  1.00  0.00     0.167 HD
ATOM     51  C   UNL A   1      40.370  28.854  30.144  1.00  0.00     0.037 A 
ATOM     52  C   UNL A   1      39.903  33.463  35.401  1.00  0.00     0.037 A 
ATOM     53  C   UNL A   1      41.388  28.728  31.150  1.00  0.00     0.049 A 
ATOM     54  C   UNL A   1      40.950  32.382  35.375  1.00  0.00     0.074 A 
ATOM     55  C   UNL A   1      42.453  27.846  31.197  1.00  0.00     0.029 A 
ATOM     56  N   UNL A   1      41.461  29.506  32.297  1.00  0.00    -0.354 N 
ATOM     57  N   UNL A   1      41.189  31.480  34.454  1.00  0.00    -0.248 NA
ATOM     58  C   UNL A   1      41.849  32.310  36.535  1.00  0.00     0.031 C 
ATOM     59  C   UNL A   1      43.148  28.064  32.392  1.00  0.00     0.029 A 
ATOM     60  C   UNL A   1      42.538  29.107  33.070  1.00  0.00     0.049 A 
ATOM     61  H   UNL A   1      40.839  30.233  32.526  1.00  0.00     0.167 HD
ATOM     62  C   UNL A   1      42.278  30.749  34.912  1.00  0.00     0.074 A 
ATOM     63  C   UNL A   1      42.664  31.325  36.183  1.00  0.00     0.031 C 
ATOM     64  C   UNL A   1      42.902  29.693  34.334  1.00  0.00     0.037 A 
BRANCH  51  65
ATOM     65  C   UNL A   1      40.377  27.906  28.982  1.00  0.00     0.057 A 
ATOM     66  C   UNL A   1      39.600  26.742  29.002  1.00  0.00     0.134 A 
ATOM     67  C   UNL A   1      41.154  28.149  27.842  1.00  0.00     0.134 A 
ATOM     68  F   UNL A   1      38.834  26.450  30.063  1.00  0.00    -0.206 F 
ATOM     69  C   UNL A   1      39.592  25.855  27.923  1.00  0.00     0.040 A 
ATOM     70  C   UNL A   1      41.135  27.282  26.748  1.00  0.00     0.040 A 
ATOM     71  F   UNL A   1      41.906  29.256  27.754  1.00  0.00    -0.206 F 
ATOM     72  C   UNL A   1      40.355  26.129  26.790  1.00  0.00     0.006 A 
ENDBRANCH  51  65
BRANCH  52  73
ATOM     73  C   UNL A   1      39.834  34.413  36.538  1.00  0.00     0.057 A 
ATOM     74  C   UNL A   1      39.094  34.124  37.690  1.00  0.00     0.134 A 
ATOM     75  C   UNL A   1      40.547  35.618  36.513  1.00  0.00     0.134 A 
ATOM     76  F   UNL A   1      38.389  32.987  37.775  1.00  0.00    -0.206 F 
ATOM     77  C   UNL A   1      39.069  34.998  38.778  1.00  0.00     0.040 A 
ATOM     78  C   UNL A   1      40.549  36.489  37.602  1.00  0.00     0.040 A 
ATOM     79  F   UNL A   1      41.291  35.938  35.444  1.00  0.00    -0.206 F 
ATOM     80  C   UNL A   1      39.806  36.180  38.740  1.00  0.00     0.006 A 
ENDBRANCH  52  73
BRANCH  64  81
ATOM     81  C   UNL A   1      44.075  29.114  35.067  1.00  0.00     0.057 A 
ATOM     82  C   UNL A   1      43.893  28.115  36.032  1.00  0.00     0.134 A 
ATOM     83  C   UNL A   1      45.383  29.558  34.831  1.00  0.00     0.134 A 
ATOM     84  F   UNL A   1      42.666  27.652  36.309  1.00  0.00    -0.206 F 
ATOM     85  C   UNL A   1      44.970  27.581  36.738  1.00  0.00     0.040 A 
ATOM     86  C   UNL A   1      46.471  29.012  35.514  1.00  0.00     0.040 A 
ATOM     87  F   UNL A   1      45.624  30.500  33.907  1.00  0.00    -0.206 F 
ATOM     88  C   UNL A   1      46.265  28.024  36.475  1.00  0.00     0.006 A 
ENDBRANCH  64  81
ENDBRANCH  38  39
ENDBRANCH  30  33
ENDBRANCH  28  29
ENDBRANCH  27  28
ENDBRANCH   1  27
TORSDOF 16
ENDMDL
