MODEL 1
REMARK VINA RESULT:     -10.9      0.000      0.000
REMARK SMILES C[C@H](O)C[C@@]1(C(=O)NCCCCNC(=O)c2ccc(-c3c4nc(c(-c5c(F)cccc5F)c5ccc([nH]5)c(-c5c(F)cccc5F)c5nc(c(-c6c(F)cccc6F)c6ccc3[nH]6)C=C5)C=C4)cc2)CCN(C(=O)OC(C)(C)C)C1
REMARK SMILES IDX 10 1 9 2 8 3 6 4 7 5 5 7 70 8 80 9 71 10 72 11 4 12 2 13
REMARK SMILES IDX 1 14 3 15 73 17 74 18 75 19 76 20 77 21 78 22 79 23 11 24
REMARK SMILES IDX 12 25 13 26 14 27 15 29 16 30 17 31 69 32 18 33 68 34 19 35
REMARK SMILES IDX 20 36 21 37 62 38 22 39 67 40 61 41 63 42 23 43 66 44 60 45
REMARK SMILES IDX 59 46 24 48 50 49 33 50 49 51 34 52 37 53 48 54 64 55 35 56
REMARK SMILES IDX 36 57 47 59 65 60 38 61 25 62 26 63 31 64 27 65 28 66 30 67
REMARK SMILES IDX 32 68 29 69 51 70 52 71 57 72 53 73 54 74 56 75 58 76 55 77
REMARK SMILES IDX 39 78 40 79 45 80 41 81 42 82 44 83 46 84 43 85
REMARK H PARENT 8 6 3 16 13 28 63 47 37 58
REMARK Flexibility Score: inf
ROOT
ATOM      1  C   UNL A   1      37.041  23.438  25.034  1.00  0.00     0.023 C 
ENDROOT
BRANCH   1   2
ATOM      2  C   UNL A   1      35.527  23.631  25.021  1.00  0.00     0.116 C 
BRANCH   2   3
ATOM      3  N   UNL A   1      34.980  23.583  23.680  1.00  0.00    -0.356 N 
ATOM      4  C   UNL A   1      33.763  23.393  23.124  1.00  0.00     0.228 C 
ATOM      5  O   UNL A   1      33.774  23.492  21.888  1.00  0.00    -0.274 OA
ATOM      6  H   UNL A   1      35.674  23.722  22.997  1.00  0.00     0.163 HD
BRANCH   4   7
ATOM      7  C   UNL A   1      32.469  22.955  23.852  1.00  0.00     0.071 C 
ATOM      8  C   UNL A   1      31.268  23.542  23.032  1.00  0.00     0.040 C 
ATOM      9  C   UNL A   1      32.185  23.588  25.214  1.00  0.00     0.140 C 
ATOM     10  C   UNL A   1      31.112  24.961  23.583  1.00  0.00     0.124 C 
ATOM     11  N   UNL A   1      31.412  24.783  24.986  1.00  0.00    -0.307 N 
BRANCH   7  12
ATOM     12  C   UNL A   1      32.409  21.394  23.863  1.00  0.00     0.050 C 
BRANCH  12  13
ATOM     13  C   UNL A   1      32.984  20.744  25.131  1.00  0.00     0.112 C 
ATOM     14  C   UNL A   1      34.330  20.072  24.907  1.00  0.00     0.038 C 
BRANCH  13  15
ATOM     15  O   UNL A   1      32.076  19.761  25.617  1.00  0.00    -0.393 OA
ATOM     16  H   UNL A   1      31.629  20.098  26.410  1.00  0.00     0.210 HD
ENDBRANCH  13  15
ENDBRANCH  12  13
ENDBRANCH   7  12
BRANCH  11  17
ATOM     17  C   UNL A   1      30.848  25.411  26.070  1.00  0.00     0.410 C 
ATOM     18  O   UNL A   1      29.641  25.400  26.266  1.00  0.00    -0.224 OA
BRANCH  17  19
ATOM     19  O   UNL A   1      31.752  26.065  26.843  1.00  0.00    -0.444 OA
BRANCH  19  20
ATOM     20  C   UNL A   1      32.118  27.426  26.487  1.00  0.00     0.106 C 
ATOM     21  C   UNL A   1      33.624  27.490  26.203  1.00  0.00     0.056 C 
ATOM     22  C   UNL A   1      31.299  27.998  25.320  1.00  0.00     0.056 C 
ATOM     23  C   UNL A   1      31.811  28.266  27.736  1.00  0.00     0.056 C 
ENDBRANCH  19  20
ENDBRANCH  17  19
ENDBRANCH  11  17
ENDBRANCH   4   7
ENDBRANCH   2   3
ENDBRANCH   1   2
BRANCH   1  24
ATOM     24  C   UNL A   1      37.507  21.993  25.011  1.00  0.00     0.023 C 
BRANCH  24  25
ATOM     25  C   UNL A   1      38.737  21.709  25.854  1.00  0.00     0.116 C 
BRANCH  25  26
ATOM     26  N   UNL A   1      39.346  20.396  25.665  1.00  0.00    -0.352 N 
ATOM     27  C   UNL A   1      40.640  20.035  25.990  1.00  0.00     0.251 C 
ATOM     28  H   UNL A   1      38.778  19.698  25.267  1.00  0.00     0.163 HD
ATOM     29  O   UNL A   1      41.073  18.913  25.767  1.00  0.00    -0.269 OA
BRANCH  27  30
ATOM     30  C   UNL A   1      41.507  21.087  26.556  1.00  0.00     0.039 A 
ATOM     31  C   UNL A   1      42.020  22.069  25.709  1.00  0.00     0.014 A 
ATOM     32  C   UNL A   1      41.584  21.222  27.942  1.00  0.00     0.014 A 
ATOM     33  C   UNL A   1      42.508  23.252  26.262  1.00  0.00     0.010 A 
ATOM     34  C   UNL A   1      41.936  22.452  28.475  1.00  0.00     0.010 A 
ATOM     35  C   UNL A   1      42.406  23.482  27.645  1.00  0.00    -0.014 A 
BRANCH  35  36
ATOM     36  C   UNL A   1      42.789  24.783  28.254  1.00  0.00     0.031 A 
ATOM     37  C   UNL A   1      41.730  25.824  28.504  1.00  0.00     0.074 A 
ATOM     38  C   UNL A   1      44.085  25.072  28.490  1.00  0.00     0.049 A 
ATOM     39  N   UNL A   1      41.863  27.061  28.909  1.00  0.00    -0.248 NA
ATOM     40  C   UNL A   1      40.342  25.444  28.194  1.00  0.00     0.031 C 
ATOM     41  C   UNL A   1      45.225  24.196  28.202  1.00  0.00     0.029 A 
ATOM     42  N   UNL A   1      44.665  26.195  29.029  1.00  0.00    -0.354 N 
ATOM     43  C   UNL A   1      40.589  27.612  28.847  1.00  0.00     0.074 A 
ATOM     44  C   UNL A   1      39.715  26.604  28.293  1.00  0.00     0.031 C 
ATOM     45  C   UNL A   1      46.357  24.793  28.614  1.00  0.00     0.029 A 
ATOM     46  C   UNL A   1      46.029  26.103  29.165  1.00  0.00     0.049 A 
ATOM     47  H   UNL A   1      44.151  26.991  29.293  1.00  0.00     0.167 HD
ATOM     48  C   UNL A   1      40.170  28.831  29.259  1.00  0.00     0.037 A 
ATOM     49  C   UNL A   1      46.912  26.974  29.691  1.00  0.00     0.037 A 
ATOM     50  C   UNL A   1      41.021  29.792  29.902  1.00  0.00     0.049 A 
ATOM     51  C   UNL A   1      46.410  28.281  30.239  1.00  0.00     0.074 A 
ATOM     52  C   UNL A   1      40.679  31.013  30.456  1.00  0.00     0.029 A 
ATOM     53  N   UNL A   1      42.382  29.625  30.100  1.00  0.00    -0.354 N 
ATOM     54  N   UNL A   1      45.189  28.758  30.250  1.00  0.00    -0.248 NA
ATOM     55  C   UNL A   1      47.407  29.167  30.861  1.00  0.00     0.031 C 
ATOM     56  C   UNL A   1      41.841  31.592  30.976  1.00  0.00     0.029 A 
ATOM     57  C   UNL A   1      42.898  30.720  30.770  1.00  0.00     0.049 A 
ATOM     58  H   UNL A   1      42.905  28.844  29.807  1.00  0.00     0.167 HD
ATOM     59  C   UNL A   1      45.264  29.982  30.900  1.00  0.00     0.074 A 
ATOM     60  C   UNL A   1      46.648  30.170  31.282  1.00  0.00     0.031 C 
ATOM     61  C   UNL A   1      44.276  30.873  31.158  1.00  0.00     0.037 A 
BRANCH  48  62
ATOM     62  C   UNL A   1      38.722  29.163  29.056  1.00  0.00     0.057 A 
ATOM     63  C   UNL A   1      38.219  29.547  27.805  1.00  0.00     0.134 A 
ATOM     64  C   UNL A   1      37.818  29.105  30.124  1.00  0.00     0.134 A 
ATOM     65  F   UNL A   1      39.036  29.639  26.744  1.00  0.00    -0.206 F 
ATOM     66  C   UNL A   1      36.881  29.905  27.632  1.00  0.00     0.040 A 
ATOM     67  C   UNL A   1      36.471  29.431  29.958  1.00  0.00     0.040 A 
ATOM     68  F   UNL A   1      38.230  28.741  31.347  1.00  0.00    -0.206 F 
ATOM     69  C   UNL A   1      36.002  29.843  28.711  1.00  0.00     0.006 A 
ENDBRANCH  48  62
BRANCH  49  70
ATOM     70  C   UNL A   1      48.350  26.616  29.785  1.00  0.00     0.057 A 
ATOM     71  C   UNL A   1      49.251  27.002  28.784  1.00  0.00     0.134 A 
ATOM     72  C   UNL A   1      48.859  25.878  30.860  1.00  0.00     0.134 A 
ATOM     73  F   UNL A   1      48.821  27.697  27.721  1.00  0.00    -0.206 F 
ATOM     74  C   UNL A   1      50.601  26.650  28.837  1.00  0.00     0.040 A 
ATOM     75  C   UNL A   1      50.211  25.536  30.936  1.00  0.00     0.040 A 
ATOM     76  F   UNL A   1      48.050  25.486  31.854  1.00  0.00    -0.206 F 
ATOM     77  C   UNL A   1      51.085  25.917  29.918  1.00  0.00     0.006 A 
ENDBRANCH  49  70
BRANCH  61  78
ATOM     78  C   UNL A   1      44.646  32.109  31.917  1.00  0.00     0.057 A 
ATOM     79  C   UNL A   1      45.034  33.285  31.266  1.00  0.00     0.134 A 
ATOM     80  C   UNL A   1      44.555  32.139  33.314  1.00  0.00     0.134 A 
ATOM     81  F   UNL A   1      45.150  33.315  29.928  1.00  0.00    -0.206 F 
ATOM     82  C   UNL A   1      45.333  34.446  31.978  1.00  0.00     0.040 A 
ATOM     83  C   UNL A   1      44.830  33.299  34.037  1.00  0.00     0.040 A 
ATOM     84  F   UNL A   1      44.179  31.045  33.996  1.00  0.00    -0.206 F 
ATOM     85  C   UNL A   1      45.223  34.457  33.369  1.00  0.00     0.006 A 
ENDBRANCH  61  78
ENDBRANCH  35  36
ENDBRANCH  27  30
ENDBRANCH  25  26
ENDBRANCH  24  25
ENDBRANCH   1  24
TORSDOF 17
ENDMDL
MODEL 2
REMARK VINA RESULT:     -10.8      0.566      6.381
REMARK SMILES C[C@H](O)C[C@@]1(C(=O)NCCCCNC(=O)c2ccc(-c3c4nc(c(-c5c(F)cccc5F)c5ccc([nH]5)c(-c5c(F)cccc5F)c5nc(c(-c6c(F)cccc6F)c6ccc3[nH]6)C=C5)C=C4)cc2)CCN(C(=O)OC(C)(C)C)C1
REMARK SMILES IDX 10 1 9 2 8 3 6 4 7 5 5 7 70 8 80 9 71 10 72 11 4 12 2 13
REMARK SMILES IDX 1 14 3 15 73 17 74 18 75 19 76 20 77 21 78 22 79 23 11 24
REMARK SMILES IDX 12 25 13 26 14 27 15 29 16 30 17 31 69 32 18 33 68 34 19 35
REMARK SMILES IDX 20 36 21 37 62 38 22 39 67 40 61 41 63 42 23 43 66 44 60 45
REMARK SMILES IDX 59 46 24 48 50 49 33 50 49 51 34 52 37 53 48 54 64 55 35 56
REMARK SMILES IDX 36 57 47 59 65 60 38 61 25 62 26 63 31 64 27 65 28 66 30 67
REMARK SMILES IDX 32 68 29 69 51 70 52 71 57 72 53 73 54 74 56 75 58 76 55 77
REMARK SMILES IDX 39 78 40 79 45 80 41 81 42 82 44 83 46 84 43 85
REMARK H PARENT 8 6 3 16 13 28 63 47 37 58
REMARK Flexibility Score: inf
ROOT
ATOM      1  C   UNL A   1      37.309  23.007  24.805  1.00  0.00     0.023 C 
ENDROOT
BRANCH   1   2
ATOM      2  C   UNL A   1      35.811  23.299  24.850  1.00  0.00     0.116 C 
BRANCH   2   3
ATOM      3  N   UNL A   1      35.212  23.297  23.531  1.00  0.00    -0.356 N 
ATOM      4  C   UNL A   1      33.966  23.189  23.021  1.00  0.00     0.228 C 
ATOM      5  O   UNL A   1      33.936  23.298  21.786  1.00  0.00    -0.274 OA
ATOM      6  H   UNL A   1      35.888  23.400  22.823  1.00  0.00     0.163 HD
BRANCH   4   7
ATOM      7  C   UNL A   1      32.675  22.826  23.794  1.00  0.00     0.071 C 
ATOM      8  C   UNL A   1      31.485  23.511  23.037  1.00  0.00     0.040 C 
ATOM      9  C   UNL A   1      32.492  23.447  25.178  1.00  0.00     0.140 C 
ATOM     10  C   UNL A   1      31.451  24.925  23.620  1.00  0.00     0.124 C 
ATOM     11  N   UNL A   1      31.795  24.698  25.005  1.00  0.00    -0.307 N 
BRANCH   7  12
ATOM     12  C   UNL A   1      32.507  21.272  23.779  1.00  0.00     0.050 C 
BRANCH  12  13
ATOM     13  C   UNL A   1      32.996  20.567  25.054  1.00  0.00     0.112 C 
ATOM     14  C   UNL A   1      34.294  19.801  24.860  1.00  0.00     0.038 C 
BRANCH  13  15
ATOM     15  O   UNL A   1      32.004  19.649  25.501  1.00  0.00    -0.393 OA
ATOM     16  H   UNL A   1      31.270  20.137  25.907  1.00  0.00     0.210 HD
ENDBRANCH  13  15
ENDBRANCH  12  13
ENDBRANCH   7  12
BRANCH  11  17
ATOM     17  C   UNL A   1      31.321  25.340  26.124  1.00  0.00     0.410 C 
ATOM     18  O   UNL A   1      31.250  24.779  27.208  1.00  0.00    -0.224 OA
BRANCH  17  19
ATOM     19  O   UNL A   1      30.907  26.609  25.880  1.00  0.00    -0.444 OA
BRANCH  19  20
ATOM     20  C   UNL A   1      31.753  27.712  26.306  1.00  0.00     0.106 C 
ATOM     21  C   UNL A   1      31.554  28.901  25.356  1.00  0.00     0.056 C 
ATOM     22  C   UNL A   1      31.542  28.119  27.771  1.00  0.00     0.056 C 
ATOM     23  C   UNL A   1      33.192  27.195  26.161  1.00  0.00     0.056 C 
ENDBRANCH  19  20
ENDBRANCH  17  19
ENDBRANCH  11  17
ENDBRANCH   4   7
ENDBRANCH   2   3
ENDBRANCH   1   2
BRANCH   1  24
ATOM     24  C   UNL A   1      37.687  21.547  24.986  1.00  0.00     0.023 C 
BRANCH  24  25
ATOM     25  C   UNL A   1      38.853  21.306  25.927  1.00  0.00     0.116 C 
BRANCH  25  26
ATOM     26  N   UNL A   1      39.598  20.070  25.710  1.00  0.00    -0.352 N 
ATOM     27  C   UNL A   1      40.933  19.853  25.995  1.00  0.00     0.251 C 
ATOM     28  H   UNL A   1      39.100  19.315  25.322  1.00  0.00     0.163 HD
ATOM     29  O   UNL A   1      41.481  18.787  25.751  1.00  0.00    -0.269 OA
BRANCH  27  30
ATOM     30  C   UNL A   1      41.694  20.991  26.547  1.00  0.00     0.039 A 
ATOM     31  C   UNL A   1      42.162  21.976  25.677  1.00  0.00     0.014 A 
ATOM     32  C   UNL A   1      41.706  21.187  27.928  1.00  0.00     0.014 A 
ATOM     33  C   UNL A   1      42.537  23.215  26.196  1.00  0.00     0.010 A 
ATOM     34  C   UNL A   1      41.942  22.461  28.420  1.00  0.00     0.010 A 
ATOM     35  C   UNL A   1      42.363  23.491  27.564  1.00  0.00    -0.014 A 
BRANCH  35  36
ATOM     36  C   UNL A   1      42.622  24.841  28.129  1.00  0.00     0.031 A 
ATOM     37  C   UNL A   1      44.016  25.205  28.567  1.00  0.00     0.074 A 
ATOM     38  C   UNL A   1      41.605  25.700  28.343  1.00  0.00     0.049 A 
ATOM     39  N   UNL A   1      44.435  26.275  29.194  1.00  0.00    -0.248 NA
ATOM     40  C   UNL A   1      45.069  24.204  28.327  1.00  0.00     0.031 C 
ATOM     41  C   UNL A   1      40.190  25.439  28.060  1.00  0.00     0.029 A 
ATOM     42  N   UNL A   1      41.605  26.975  28.854  1.00  0.00    -0.354 N 
ATOM     43  C   UNL A   1      45.779  26.044  29.465  1.00  0.00     0.074 A 
ATOM     44  C   UNL A   1      46.083  24.708  29.009  1.00  0.00     0.031 C 
ATOM     45  C   UNL A   1      39.470  26.537  28.353  1.00  0.00     0.029 A 
ATOM     46  C   UNL A   1      40.364  27.566  28.872  1.00  0.00     0.049 A 
ATOM     47  H   UNL A   1      42.419  27.424  29.178  1.00  0.00     0.167 HD
ATOM     48  C   UNL A   1      46.692  26.886  30.003  1.00  0.00     0.037 A 
ATOM     49  C   UNL A   1      39.996  28.804  29.251  1.00  0.00     0.037 A 
ATOM     50  C   UNL A   1      46.411  28.247  30.362  1.00  0.00     0.049 A 
ATOM     51  C   UNL A   1      41.046  29.760  29.747  1.00  0.00     0.074 A 
ATOM     52  C   UNL A   1      47.285  29.218  30.813  1.00  0.00     0.029 A 
ATOM     53  N   UNL A   1      45.158  28.835  30.283  1.00  0.00    -0.354 N 
ATOM     54  N   UNL A   1      42.330  29.557  29.923  1.00  0.00    -0.248 NA
ATOM     55  C   UNL A   1      40.601  31.119  30.086  1.00  0.00     0.031 C 
ATOM     56  C   UNL A   1      46.556  30.393  31.023  1.00  0.00     0.029 A 
ATOM     57  C   UNL A   1      45.235  30.158  30.676  1.00  0.00     0.049 A 
ATOM     58  H   UNL A   1      44.336  28.378  29.992  1.00  0.00     0.167 HD
ATOM     59  C   UNL A   1      42.849  30.767  30.365  1.00  0.00     0.074 A 
ATOM     60  C   UNL A   1      41.745  31.702  30.418  1.00  0.00     0.031 C 
ATOM     61  C   UNL A   1      44.125  31.076  30.699  1.00  0.00     0.037 A 
BRANCH  48  62
ATOM     62  C   UNL A   1      48.083  26.356  30.192  1.00  0.00     0.057 A 
ATOM     63  C   UNL A   1      48.487  25.747  31.388  1.00  0.00     0.134 A 
ATOM     64  C   UNL A   1      49.033  26.463  29.169  1.00  0.00     0.134 A 
ATOM     65  F   UNL A   1      47.629  25.630  32.414  1.00  0.00    -0.206 F 
ATOM     66  C   UNL A   1      49.796  25.304  31.578  1.00  0.00     0.040 A 
ATOM     67  C   UNL A   1      50.338  25.995  29.335  1.00  0.00     0.040 A 
ATOM     68  F   UNL A   1      48.713  27.030  27.996  1.00  0.00    -0.206 F 
ATOM     69  C   UNL A   1      50.725  25.424  30.547  1.00  0.00     0.006 A 
ENDBRANCH  48  62
BRANCH  49  70
ATOM     70  C   UNL A   1      38.582  29.238  29.117  1.00  0.00     0.057 A 
ATOM     71  C   UNL A   1      37.714  29.202  30.216  1.00  0.00     0.134 A 
ATOM     72  C   UNL A   1      38.060  29.686  27.898  1.00  0.00     0.134 A 
ATOM     73  F   UNL A   1      38.153  28.767  31.406  1.00  0.00    -0.206 F 
ATOM     74  C   UNL A   1      36.374  29.576  30.105  1.00  0.00     0.040 A 
ATOM     75  C   UNL A   1      36.725  30.082  27.777  1.00  0.00     0.040 A 
ATOM     76  F   UNL A   1      38.840  29.752  26.810  1.00  0.00    -0.206 F 
ATOM     77  C   UNL A   1      35.877  30.020  28.882  1.00  0.00     0.006 A 
ENDBRANCH  49  70
BRANCH  61  78
ATOM     78  C   UNL A   1      44.404  32.487  31.113  1.00  0.00     0.057 A 
ATOM     79  C   UNL A   1      44.363  32.883  32.455  1.00  0.00     0.134 A 
ATOM     80  C   UNL A   1      44.778  33.445  30.163  1.00  0.00     0.134 A 
ATOM     81  F   UNL A   1      44.001  32.011  33.410  1.00  0.00    -0.206 F 
ATOM     82  C   UNL A   1      44.669  34.189  32.837  1.00  0.00     0.040 A 
ATOM     83  C   UNL A   1      45.107  34.749  30.535  1.00  0.00     0.040 A 
ATOM     84  F   UNL A   1      44.845  33.125  28.861  1.00  0.00    -0.206 F 
ATOM     85  C   UNL A   1      45.051  35.124  31.876  1.00  0.00     0.006 A 
ENDBRANCH  61  78
ENDBRANCH  35  36
ENDBRANCH  27  30
ENDBRANCH  25  26
ENDBRANCH  24  25
ENDBRANCH   1  24
TORSDOF 17
ENDMDL
MODEL 3
REMARK VINA RESULT:     -10.8      0.658      6.244
REMARK SMILES C[C@H](O)C[C@@]1(C(=O)NCCCCNC(=O)c2ccc(-c3c4nc(c(-c5c(F)cccc5F)c5ccc([nH]5)c(-c5c(F)cccc5F)c5nc(c(-c6c(F)cccc6F)c6ccc3[nH]6)C=C5)C=C4)cc2)CCN(C(=O)OC(C)(C)C)C1
REMARK SMILES IDX 10 1 9 2 8 3 6 4 7 5 5 7 70 8 80 9 71 10 72 11 4 12 2 13
REMARK SMILES IDX 1 14 3 15 73 17 74 18 75 19 76 20 77 21 78 22 79 23 11 24
REMARK SMILES IDX 12 25 13 26 14 27 15 29 16 30 17 31 69 32 18 33 68 34 19 35
REMARK SMILES IDX 20 36 21 37 62 38 22 39 67 40 61 41 63 42 23 43 66 44 60 45
REMARK SMILES IDX 59 46 24 48 50 49 33 50 49 51 34 52 37 53 48 54 64 55 35 56
REMARK SMILES IDX 36 57 47 59 65 60 38 61 25 62 26 63 31 64 27 65 28 66 30 67
REMARK SMILES IDX 32 68 29 69 51 70 52 71 57 72 53 73 54 74 56 75 58 76 55 77
REMARK SMILES IDX 39 78 40 79 45 80 41 81 42 82 44 83 46 84 43 85
REMARK H PARENT 8 6 3 16 13 28 63 47 37 58
REMARK Flexibility Score: inf
ROOT
ATOM      1  C   UNL A   1      36.433  21.617  25.586  1.00  0.00     0.023 C 
ENDROOT
BRANCH   1   2
ATOM      2  C   UNL A   1      35.746  22.963  25.378  1.00  0.00     0.116 C 
BRANCH   2   3
ATOM      3  N   UNL A   1      35.394  23.191  23.991  1.00  0.00    -0.356 N 
ATOM      4  C   UNL A   1      34.255  23.362  23.284  1.00  0.00     0.228 C 
ATOM      5  O   UNL A   1      34.460  23.585  22.082  1.00  0.00    -0.274 OA
ATOM      6  H   UNL A   1      36.190  23.231  23.414  1.00  0.00     0.163 HD
BRANCH   4   7
ATOM      7  C   UNL A   1      32.807  23.175  23.798  1.00  0.00     0.071 C 
ATOM      8  C   UNL A   1      31.880  24.017  22.855  1.00  0.00     0.040 C 
ATOM      9  C   UNL A   1      32.456  23.812  25.142  1.00  0.00     0.140 C 
ATOM     10  C   UNL A   1      31.927  25.422  23.462  1.00  0.00     0.124 C 
ATOM     11  N   UNL A   1      31.976  25.146  24.879  1.00  0.00    -0.307 N 
BRANCH   7  12
ATOM     12  C   UNL A   1      32.439  21.659  23.709  1.00  0.00     0.050 C 
BRANCH  12  13
ATOM     13  C   UNL A   1      32.748  20.854  24.982  1.00  0.00     0.112 C 
ATOM     14  C   UNL A   1      33.370  19.495  24.700  1.00  0.00     0.038 C 
BRANCH  13  15
ATOM     15  O   UNL A   1      31.547  20.646  25.717  1.00  0.00    -0.393 OA
ATOM     16  H   UNL A   1      31.092  21.493  25.841  1.00  0.00     0.210 HD
ENDBRANCH  13  15
ENDBRANCH  12  13
ENDBRANCH   7  12
BRANCH  11  17
ATOM     17  C   UNL A   1      31.393  25.843  25.910  1.00  0.00     0.410 C 
ATOM     18  O   UNL A   1      31.076  25.300  26.958  1.00  0.00    -0.224 OA
BRANCH  17  19
ATOM     19  O   UNL A   1      31.171  27.150  25.617  1.00  0.00    -0.444 OA
BRANCH  19  20
ATOM     20  C   UNL A   1      32.042  28.154  26.208  1.00  0.00     0.106 C 
ATOM     21  C   UNL A   1      33.474  27.608  26.275  1.00  0.00     0.056 C 
ATOM     22  C   UNL A   1      31.988  29.512  25.493  1.00  0.00     0.056 C 
ATOM     23  C   UNL A   1      31.517  28.351  27.638  1.00  0.00     0.056 C 
ENDBRANCH  19  20
ENDBRANCH  17  19
ENDBRANCH  11  17
ENDBRANCH   4   7
ENDBRANCH   2   3
ENDBRANCH   1   2
BRANCH   1  24
ATOM     24  C   UNL A   1      37.806  21.488  24.949  1.00  0.00     0.023 C 
BRANCH  24  25
ATOM     25  C   UNL A   1      38.939  21.238  25.927  1.00  0.00     0.116 C 
BRANCH  25  26
ATOM     26  N   UNL A   1      39.699  20.010  25.717  1.00  0.00    -0.352 N 
ATOM     27  C   UNL A   1      41.037  19.811  25.999  1.00  0.00     0.251 C 
ATOM     28  H   UNL A   1      39.208  19.246  25.336  1.00  0.00     0.163 HD
ATOM     29  O   UNL A   1      41.597  18.750  25.761  1.00  0.00    -0.269 OA
BRANCH  27  30
ATOM     30  C   UNL A   1      41.786  20.963  26.540  1.00  0.00     0.039 A 
ATOM     31  C   UNL A   1      42.226  21.954  25.662  1.00  0.00     0.014 A 
ATOM     32  C   UNL A   1      41.813  21.161  27.920  1.00  0.00     0.014 A 
ATOM     33  C   UNL A   1      42.586  23.200  26.175  1.00  0.00     0.010 A 
ATOM     34  C   UNL A   1      42.034  22.439  28.407  1.00  0.00     0.010 A 
ATOM     35  C   UNL A   1      42.426  23.475  27.545  1.00  0.00    -0.014 A 
BRANCH  35  36
ATOM     36  C   UNL A   1      42.669  24.830  28.105  1.00  0.00     0.031 A 
ATOM     37  C   UNL A   1      44.060  25.214  28.536  1.00  0.00     0.074 A 
ATOM     38  C   UNL A   1      41.641  25.676  28.320  1.00  0.00     0.049 A 
ATOM     39  N   UNL A   1      44.468  26.290  29.157  1.00  0.00    -0.248 NA
ATOM     40  C   UNL A   1      45.125  24.226  28.294  1.00  0.00     0.031 C 
ATOM     41  C   UNL A   1      40.229  25.396  28.045  1.00  0.00     0.029 A 
ATOM     42  N   UNL A   1      41.627  26.952  28.828  1.00  0.00    -0.354 N 
ATOM     43  C   UNL A   1      45.816  26.079  29.424  1.00  0.00     0.074 A 
ATOM     44  C   UNL A   1      46.135  24.745  28.970  1.00  0.00     0.031 C 
ATOM     45  C   UNL A   1      39.497  26.485  28.337  1.00  0.00     0.029 A 
ATOM     46  C   UNL A   1      40.379  27.527  28.849  1.00  0.00     0.049 A 
ATOM     47  H   UNL A   1      42.437  27.413  29.147  1.00  0.00     0.167 HD
ATOM     48  C   UNL A   1      46.720  26.934  29.956  1.00  0.00     0.037 A 
ATOM     49  C   UNL A   1      39.995  28.762  29.226  1.00  0.00     0.037 A 
ATOM     50  C   UNL A   1      46.422  28.292  30.312  1.00  0.00     0.049 A 
ATOM     51  C   UNL A   1      41.035  29.732  29.715  1.00  0.00     0.074 A 
ATOM     52  C   UNL A   1      47.285  29.276  30.756  1.00  0.00     0.029 A 
ATOM     53  N   UNL A   1      45.162  28.863  30.237  1.00  0.00    -0.354 N 
ATOM     54  N   UNL A   1      42.322  29.547  29.886  1.00  0.00    -0.248 NA
ATOM     55  C   UNL A   1      40.573  31.087  30.052  1.00  0.00     0.031 C 
ATOM     56  C   UNL A   1      46.542  30.442  30.966  1.00  0.00     0.029 A 
ATOM     57  C   UNL A   1      45.222  30.189  30.625  1.00  0.00     0.049 A 
ATOM     58  H   UNL A   1      44.345  28.395  29.950  1.00  0.00     0.167 HD
ATOM     59  C   UNL A   1      42.827  30.765  30.322  1.00  0.00     0.074 A 
ATOM     60  C   UNL A   1      41.711  31.686  30.377  1.00  0.00     0.031 C 
ATOM     61  C   UNL A   1      44.101  31.092  30.650  1.00  0.00     0.037 A 
BRANCH  48  62
ATOM     62  C   UNL A   1      48.118  26.423  30.140  1.00  0.00     0.057 A 
ATOM     63  C   UNL A   1      49.078  26.510  29.121  1.00  0.00     0.134 A 
ATOM     64  C   UNL A   1      48.510  25.830  31.346  1.00  0.00     0.134 A 
ATOM     65  F   UNL A   1      48.761  27.052  27.935  1.00  0.00    -0.206 F 
ATOM     66  C   UNL A   1      50.362  25.987  29.279  1.00  0.00     0.040 A 
ATOM     67  C   UNL A   1      49.801  25.330  31.527  1.00  0.00     0.040 A 
ATOM     68  F   UNL A   1      47.644  25.718  32.364  1.00  0.00    -0.206 F 
ATOM     69  C   UNL A   1      50.727  25.398  30.487  1.00  0.00     0.006 A 
ENDBRANCH  48  62
BRANCH  49  70
ATOM     70  C   UNL A   1      38.576  29.176  29.097  1.00  0.00     0.057 A 
ATOM     71  C   UNL A   1      38.067  29.616  27.867  1.00  0.00     0.134 A 
ATOM     72  C   UNL A   1      37.698  29.156  30.186  1.00  0.00     0.134 A 
ATOM     73  F   UNL A   1      38.864  29.673  26.790  1.00  0.00    -0.206 F 
ATOM     74  C   UNL A   1      36.744  30.040  27.731  1.00  0.00     0.040 A 
ATOM     75  C   UNL A   1      36.366  29.558  30.059  1.00  0.00     0.040 A 
ATOM     76  F   UNL A   1      38.121  28.738  31.388  1.00  0.00    -0.206 F 
ATOM     77  C   UNL A   1      35.889  30.009  28.829  1.00  0.00     0.006 A 
ENDBRANCH  49  70
BRANCH  61  78
ATOM     78  C   UNL A   1      44.363  32.508  31.059  1.00  0.00     0.057 A 
ATOM     79  C   UNL A   1      44.330  32.905  32.400  1.00  0.00     0.134 A 
ATOM     80  C   UNL A   1      44.711  33.470  30.103  1.00  0.00     0.134 A 
ATOM     81  F   UNL A   1      43.992  32.030  33.360  1.00  0.00    -0.206 F 
ATOM     82  C   UNL A   1      44.621  34.216  32.777  1.00  0.00     0.040 A 
ATOM     83  C   UNL A   1      45.025  34.779  30.469  1.00  0.00     0.040 A 
ATOM     84  F   UNL A   1      44.769  33.148  28.801  1.00  0.00    -0.206 F 
ATOM     85  C   UNL A   1      44.977  35.156  31.810  1.00  0.00     0.006 A 
ENDBRANCH  61  78
ENDBRANCH  35  36
ENDBRANCH  27  30
ENDBRANCH  25  26
ENDBRANCH  24  25
ENDBRANCH   1  24
TORSDOF 17
ENDMDL
