MODEL 1
REMARK VINA RESULT:     -11.4      0.000      0.000
REMARK SMILES O=C(NCCCCNC(=O)c1cc(OC[C@@H]2Cc3cc(F)ccc3O2)cs1)c1ccc(-c2c3nc(c(-c4c(F)cccc4F)c4ccc([nH]4)c(-c4c(F)cccc4F)c4nc(c(-c5c(F)cccc5F)c5ccc2[nH]5)C=C4)C=C3)cc1
REMARK SMILES IDX 6 1 5 2 4 3 3 4 1 5 2 6 28 8 29 9 81 10 30 11 80 12 31 13
REMARK SMILES IDX 32 14 33 15 74 16 34 17 79 18 73 19 75 20 35 21 78 22 72 23
REMARK SMILES IDX 71 24 36 26 62 27 45 28 61 29 46 30 49 31 60 32 76 33 47 34
REMARK SMILES IDX 48 35 59 37 77 38 50 39 37 40 38 41 43 42 39 43 40 44 42 45
REMARK SMILES IDX 44 46 41 47 63 48 64 49 69 50 65 51 66 52 68 53 70 54 67 55
REMARK SMILES IDX 51 56 52 57 57 58 53 59 54 60 56 61 58 62 55 63 7 64 8 65
REMARK SMILES IDX 9 66 10 68 11 69 12 70 27 71 13 72 26 73 14 74 15 75 16 76
REMARK SMILES IDX 17 77 25 78 18 79 24 80 19 81 23 82 20 83 22 84 21 85
REMARK H PARENT 3 7 75 25 49 36 8 67
REMARK Flexibility Score: inf
ROOT
ATOM      1  C   UNL A   1      33.177  29.336  24.732  1.00  0.00     0.023 C 
ENDROOT
BRANCH   1   2
ATOM      2  C   UNL A   1      33.997  28.438  25.658  1.00  0.00     0.023 C 
BRANCH   2   3
ATOM      3  C   UNL A   1      33.675  28.524  27.148  1.00  0.00     0.116 C 
BRANCH   3   4
ATOM      4  N   UNL A   1      33.635  29.884  27.656  1.00  0.00    -0.352 N 
ATOM      5  O   UNL A   1      34.298  31.736  28.741  1.00  0.00    -0.269 OA
ATOM      6  C   UNL A   1      34.602  30.641  28.272  1.00  0.00     0.251 C 
ATOM      7  H   UNL A   1      32.770  30.340  27.539  1.00  0.00     0.163 HD
BRANCH   6   8
ATOM      8  C   UNL A   1      36.000  30.161  28.402  1.00  0.00     0.039 A 
ATOM      9  C   UNL A   1      36.415  29.643  29.636  1.00  0.00     0.014 A 
ATOM     10  C   UNL A   1      36.926  30.280  27.364  1.00  0.00     0.014 A 
ATOM     11  C   UNL A   1      37.734  29.210  29.810  1.00  0.00     0.010 A 
ATOM     12  C   UNL A   1      38.221  29.776  27.514  1.00  0.00     0.010 A 
ATOM     13  C   UNL A   1      38.647  29.258  28.745  1.00  0.00    -0.014 A 
BRANCH  13  14
ATOM     14  C   UNL A   1      40.063  28.842  28.934  1.00  0.00     0.031 A 
ATOM     15  C   UNL A   1      41.041  29.774  29.599  1.00  0.00     0.074 A 
ATOM     16  C   UNL A   1      40.484  27.637  28.500  1.00  0.00     0.049 A 
ATOM     17  N   UNL A   1      42.319  29.609  29.833  1.00  0.00    -0.248 NA
ATOM     18  C   UNL A   1      40.515  31.077  30.040  1.00  0.00     0.031 C 
ATOM     19  C   UNL A   1      39.661  26.648  27.803  1.00  0.00     0.029 A 
ATOM     20  N   UNL A   1      41.719  27.043  28.584  1.00  0.00    -0.354 N 
ATOM     21  C   UNL A   1      42.749  30.785  30.437  1.00  0.00     0.074 A 
ATOM     22  C   UNL A   1      41.611  31.678  30.478  1.00  0.00     0.031 C 
ATOM     23  C   UNL A   1      40.406  25.560  27.546  1.00  0.00     0.029 A 
ATOM     24  C   UNL A   1      41.762  25.782  28.040  1.00  0.00     0.049 A 
ATOM     25  H   UNL A   1      42.501  27.478  28.995  1.00  0.00     0.167 HD
ATOM     26  C   UNL A   1      43.968  31.088  30.944  1.00  0.00     0.037 A 
ATOM     27  C   UNL A   1      42.778  24.902  27.957  1.00  0.00     0.037 A 
ATOM     28  C   UNL A   1      45.101  30.203  30.933  1.00  0.00     0.049 A 
ATOM     29  C   UNL A   1      44.118  25.255  28.541  1.00  0.00     0.074 A 
ATOM     30  C   UNL A   1      46.374  30.417  31.432  1.00  0.00     0.029 A 
ATOM     31  N   UNL A   1      45.092  28.923  30.400  1.00  0.00    -0.354 N 
ATOM     32  N   UNL A   1      44.497  26.357  29.140  1.00  0.00    -0.248 NA
ATOM     33  C   UNL A   1      45.169  24.231  28.449  1.00  0.00     0.031 C 
ATOM     34  C   UNL A   1      47.141  29.271  31.189  1.00  0.00     0.029 A 
ATOM     35  C   UNL A   1      46.335  28.334  30.564  1.00  0.00     0.049 A 
ATOM     36  H   UNL A   1      44.316  28.496  29.971  1.00  0.00     0.167 HD
ATOM     37  C   UNL A   1      45.818  26.151  29.516  1.00  0.00     0.074 A 
ATOM     38  C   UNL A   1      46.170  24.811  29.096  1.00  0.00     0.031 C 
ATOM     39  C   UNL A   1      46.667  26.996  30.148  1.00  0.00     0.037 A 
BRANCH  26  40
ATOM     40  C   UNL A   1      44.121  32.442  31.573  1.00  0.00     0.057 A 
ATOM     41  C   UNL A   1      44.518  33.550  30.815  1.00  0.00     0.134 A 
ATOM     42  C   UNL A   1      43.869  32.646  32.937  1.00  0.00     0.134 A 
ATOM     43  F   UNL A   1      44.778  33.423  29.505  1.00  0.00    -0.206 F 
ATOM     44  C   UNL A   1      44.651  34.815  31.390  1.00  0.00     0.040 A 
ATOM     45  C   UNL A   1      43.975  33.910  33.517  1.00  0.00     0.040 A 
ATOM     46  F   UNL A   1      43.470  31.628  33.713  1.00  0.00    -0.206 F 
ATOM     47  C   UNL A   1      44.370  35.000  32.743  1.00  0.00     0.006 A 
ENDBRANCH  26  40
BRANCH  27  48
ATOM     48  C   UNL A   1      42.569  23.577  27.323  1.00  0.00     0.057 A 
ATOM     49  C   UNL A   1      42.749  23.388  25.950  1.00  0.00     0.134 A 
ATOM     50  C   UNL A   1      42.225  22.458  28.092  1.00  0.00     0.134 A 
ATOM     51  F   UNL A   1      43.077  24.421  25.161  1.00  0.00    -0.206 F 
ATOM     52  C   UNL A   1      42.599  22.131  25.361  1.00  0.00     0.040 A 
ATOM     53  C   UNL A   1      42.093  21.192  27.521  1.00  0.00     0.040 A 
ATOM     54  F   UNL A   1      42.062  22.575  29.418  1.00  0.00    -0.206 F 
ATOM     55  C   UNL A   1      42.279  21.027  26.150  1.00  0.00     0.006 A 
ENDBRANCH  27  48
BRANCH  39  56
ATOM     56  C   UNL A   1      48.041  26.479  30.450  1.00  0.00     0.057 A 
ATOM     57  C   UNL A   1      49.087  26.657  29.535  1.00  0.00     0.134 A 
ATOM     58  C   UNL A   1      48.331  25.806  31.643  1.00  0.00     0.134 A 
ATOM     59  F   UNL A   1      48.875  27.290  28.372  1.00  0.00    -0.206 F 
ATOM     60  C   UNL A   1      50.375  26.188  29.802  1.00  0.00     0.040 A 
ATOM     61  C   UNL A   1      49.619  25.352  31.930  1.00  0.00     0.040 A 
ATOM     62  F   UNL A   1      47.375  25.617  32.566  1.00  0.00    -0.206 F 
ATOM     63  C   UNL A   1      50.645  25.541  31.005  1.00  0.00     0.006 A 
ENDBRANCH  39  56
ENDBRANCH  13  14
ENDBRANCH   6   8
ENDBRANCH   3   4
ENDBRANCH   2   3
ENDBRANCH   1   2
BRANCH   1  64
ATOM     64  C   UNL A   1      33.198  28.962  23.254  1.00  0.00     0.116 C 
BRANCH  64  65
ATOM     65  N   UNL A   1      31.965  29.256  22.543  1.00  0.00    -0.351 N 
ATOM     66  C   UNL A   1      30.882  28.408  22.365  1.00  0.00     0.261 C 
ATOM     67  H   UNL A   1      31.892  30.152  22.143  1.00  0.00     0.163 HD
ATOM     68  O   UNL A   1      29.865  28.842  21.860  1.00  0.00    -0.268 OA
BRANCH  66  69
ATOM     69  C   UNL A   1      31.043  27.050  22.844  1.00  0.00     0.096 A 
ATOM     70  C   UNL A   1      32.055  26.161  22.554  1.00  0.00     0.072 A 
ATOM     71  S   UNL A   1      29.846  26.351  23.841  1.00  0.00    -0.135 S 
ATOM     72  C   UNL A   1      31.674  24.825  22.867  1.00  0.00     0.131 A 
ATOM     73  C   UNL A   1      30.536  24.794  23.644  1.00  0.00     0.112 A 
BRANCH  72  74
ATOM     74  O   UNL A   1      32.258  23.653  22.510  1.00  0.00    -0.489 OA
BRANCH  74  75
ATOM     75  C   UNL A   1      33.635  23.473  22.891  1.00  0.00     0.275 C 
BRANCH  75  76
ATOM     76  C   UNL A   1      33.826  23.181  24.399  1.00  0.00     0.215 C 
ATOM     77  C   UNL A   1      34.798  24.156  25.098  1.00  0.00     0.088 C 
ATOM     78  O   UNL A   1      34.356  21.837  24.564  1.00  0.00    -0.486 OA
ATOM     79  C   UNL A   1      35.995  23.295  25.244  1.00  0.00     0.001 A 
ATOM     80  C   UNL A   1      35.673  22.000  24.890  1.00  0.00     0.123 A 
ATOM     81  C   UNL A   1      37.264  23.597  25.705  1.00  0.00     0.047 A 
ATOM     82  C   UNL A   1      36.599  20.973  24.906  1.00  0.00     0.050 A 
ATOM     83  C   UNL A   1      38.203  22.565  25.757  1.00  0.00     0.123 A 
ATOM     84  C   UNL A   1      37.888  21.264  25.349  1.00  0.00     0.043 A 
ATOM     85  F   UNL A   1      39.437  22.822  26.210  1.00  0.00    -0.207 F 
ENDBRANCH  75  76
ENDBRANCH  74  75
ENDBRANCH  72  74
ENDBRANCH  66  69
ENDBRANCH  64  65
ENDBRANCH   1  64
TORSDOF 14
ENDMDL
MODEL 2
REMARK VINA RESULT:     -11.2      2.554      7.686
REMARK SMILES O=C(NCCCCNC(=O)c1cc(OC[C@@H]2Cc3cc(F)ccc3O2)cs1)c1ccc(-c2c3nc(c(-c4c(F)cccc4F)c4ccc([nH]4)c(-c4c(F)cccc4F)c4nc(c(-c5c(F)cccc5F)c5ccc2[nH]5)C=C4)C=C3)cc1
REMARK SMILES IDX 6 1 5 2 4 3 3 4 1 5 2 6 28 8 29 9 81 10 30 11 80 12 31 13
REMARK SMILES IDX 32 14 33 15 74 16 34 17 79 18 73 19 75 20 35 21 78 22 72 23
REMARK SMILES IDX 71 24 36 26 62 27 45 28 61 29 46 30 49 31 60 32 76 33 47 34
REMARK SMILES IDX 48 35 59 37 77 38 50 39 37 40 38 41 43 42 39 43 40 44 42 45
REMARK SMILES IDX 44 46 41 47 63 48 64 49 69 50 65 51 66 52 68 53 70 54 67 55
REMARK SMILES IDX 51 56 52 57 57 58 53 59 54 60 56 61 58 62 55 63 7 64 8 65
REMARK SMILES IDX 9 66 10 68 11 69 12 70 27 71 13 72 26 73 14 74 15 75 16 76
REMARK SMILES IDX 17 77 25 78 18 79 24 80 19 81 23 82 20 83 22 84 21 85
REMARK H PARENT 3 7 75 25 49 36 8 67
REMARK Flexibility Score: inf
ROOT
ATOM      1  C   UNL A   1      38.744  22.311  26.219  1.00  0.00     0.023 C 
ENDROOT
BRANCH   1   2
ATOM      2  C   UNL A   1      38.972  21.036  25.407  1.00  0.00     0.023 C 
BRANCH   2   3
ATOM      3  C   UNL A   1      39.262  19.766  26.203  1.00  0.00     0.116 C 
BRANCH   3   4
ATOM      4  N   UNL A   1      40.528  19.143  25.861  1.00  0.00    -0.352 N 
ATOM      5  O   UNL A   1      42.725  18.961  25.424  1.00  0.00    -0.269 OA
ATOM      6  C   UNL A   1      41.810  19.638  25.890  1.00  0.00     0.251 C 
ATOM      7  H   UNL A   1      40.457  18.209  25.559  1.00  0.00     0.163 HD
BRANCH   6   8
ATOM      8  C   UNL A   1      42.114  20.978  26.450  1.00  0.00     0.039 A 
ATOM      9  C   UNL A   1      41.983  21.168  27.832  1.00  0.00     0.014 A 
ATOM     10  C   UNL A   1      42.448  22.064  25.639  1.00  0.00     0.014 A 
ATOM     11  C   UNL A   1      42.228  22.425  28.396  1.00  0.00     0.010 A 
ATOM     12  C   UNL A   1      42.767  23.298  26.210  1.00  0.00     0.010 A 
ATOM     13  C   UNL A   1      42.638  23.500  27.592  1.00  0.00    -0.014 A 
BRANCH  13  14
ATOM     14  C   UNL A   1      42.857  24.850  28.177  1.00  0.00     0.031 A 
ATOM     15  C   UNL A   1      44.235  25.268  28.616  1.00  0.00     0.074 A 
ATOM     16  C   UNL A   1      41.824  25.702  28.332  1.00  0.00     0.049 A 
ATOM     17  N   UNL A   1      44.627  26.389  29.170  1.00  0.00    -0.248 NA
ATOM     18  C   UNL A   1      45.314  24.286  28.426  1.00  0.00     0.031 C 
ATOM     19  C   UNL A   1      40.429  25.420  27.991  1.00  0.00     0.029 A 
ATOM     20  N   UNL A   1      41.794  26.986  28.820  1.00  0.00    -0.354 N 
ATOM     21  C   UNL A   1      45.989  26.241  29.402  1.00  0.00     0.074 A 
ATOM     22  C   UNL A   1      46.344  24.901  28.985  1.00  0.00     0.031 C 
ATOM     23  C   UNL A   1      39.684  26.506  28.256  1.00  0.00     0.029 A 
ATOM     24  C   UNL A   1      40.542  27.552  28.804  1.00  0.00     0.049 A 
ATOM     25  H   UNL A   1      42.593  27.456  29.151  1.00  0.00     0.167 HD
ATOM     26  C   UNL A   1      46.876  27.144  29.885  1.00  0.00     0.037 A 
ATOM     27  C   UNL A   1      40.136  28.779  29.181  1.00  0.00     0.037 A 
ATOM     28  C   UNL A   1      46.543  28.486  30.280  1.00  0.00     0.049 A 
ATOM     29  C   UNL A   1      41.141  29.770  29.699  1.00  0.00     0.074 A 
ATOM     30  C   UNL A   1      47.375  29.477  30.771  1.00  0.00     0.029 A 
ATOM     31  N   UNL A   1      45.269  29.030  30.217  1.00  0.00    -0.354 N 
ATOM     32  N   UNL A   1      42.431  29.625  29.879  1.00  0.00    -0.248 NA
ATOM     33  C   UNL A   1      40.632  31.103  30.054  1.00  0.00     0.031 C 
ATOM     34  C   UNL A   1      46.602  30.618  31.019  1.00  0.00     0.029 A 
ATOM     35  C   UNL A   1      45.294  30.343  30.656  1.00  0.00     0.049 A 
ATOM     36  H   UNL A   1      44.466  28.552  29.906  1.00  0.00     0.167 HD
ATOM     37  C   UNL A   1      42.890  30.851  30.344  1.00  0.00     0.074 A 
ATOM     38  C   UNL A   1      41.744  31.734  30.400  1.00  0.00     0.031 C 
ATOM     39  C   UNL A   1      44.147  31.212  30.697  1.00  0.00     0.037 A 
BRANCH  26  40
ATOM     40  C   UNL A   1      48.306  26.699  29.992  1.00  0.00     0.057 A 
ATOM     41  C   UNL A   1      48.774  26.044  31.137  1.00  0.00     0.134 A 
ATOM     42  C   UNL A   1      49.218  26.918  28.950  1.00  0.00     0.134 A 
ATOM     43  F   UNL A   1      47.954  25.805  32.171  1.00  0.00    -0.206 F 
ATOM     44  C   UNL A   1      50.099  25.614  31.238  1.00  0.00     0.040 A 
ATOM     45  C   UNL A   1      50.537  26.472  29.031  1.00  0.00     0.040 A 
ATOM     46  F   UNL A   1      48.825  27.525  27.821  1.00  0.00    -0.206 F 
ATOM     47  C   UNL A   1      50.982  25.820  30.180  1.00  0.00     0.006 A 
ENDBRANCH  26  40
BRANCH  27  48
ATOM     48  C   UNL A   1      38.709  29.165  29.053  1.00  0.00     0.057 A 
ATOM     49  C   UNL A   1      38.169  29.569  27.829  1.00  0.00     0.134 A 
ATOM     50  C   UNL A   1      37.843  29.094  30.152  1.00  0.00     0.134 A 
ATOM     51  F   UNL A   1      38.948  29.658  26.741  1.00  0.00    -0.206 F 
ATOM     52  C   UNL A   1      36.815  29.885  27.698  1.00  0.00     0.040 A 
ATOM     53  C   UNL A   1      36.484  29.387  30.031  1.00  0.00     0.040 A 
ATOM     54  F   UNL A   1      38.301  28.691  31.346  1.00  0.00    -0.206 F 
ATOM     55  C   UNL A   1      35.967  29.786  28.800  1.00  0.00     0.006 A 
ENDBRANCH  27  48
BRANCH  39  56
ATOM     56  C   UNL A   1      44.346  32.630  31.141  1.00  0.00     0.057 A 
ATOM     57  C   UNL A   1      44.649  33.633  30.212  1.00  0.00     0.134 A 
ATOM     58  C   UNL A   1      44.238  33.004  32.487  1.00  0.00     0.134 A 
ATOM     59  F   UNL A   1      44.771  33.341  28.909  1.00  0.00    -0.206 F 
ATOM     60  C   UNL A   1      44.832  34.960  30.606  1.00  0.00     0.040 A 
ATOM     61  C   UNL A   1      44.397  34.330  32.890  1.00  0.00     0.040 A 
ATOM     62  F   UNL A   1      43.934  32.091  33.423  1.00  0.00    -0.206 F 
ATOM     63  C   UNL A   1      44.697  35.313  31.947  1.00  0.00     0.006 A 
ENDBRANCH  39  56
ENDBRANCH  13  14
ENDBRANCH   6   8
ENDBRANCH   3   4
ENDBRANCH   2   3
ENDBRANCH   1   2
BRANCH   1  64
ATOM     64  C   UNL A   1      37.661  23.247  25.697  1.00  0.00     0.116 C 
BRANCH  64  65
ATOM     65  N   UNL A   1      37.432  23.162  24.264  1.00  0.00    -0.351 N 
ATOM     66  C   UNL A   1      36.222  22.941  23.624  1.00  0.00     0.261 C 
ATOM     67  H   UNL A   1      38.222  23.271  23.687  1.00  0.00     0.163 HD
ATOM     68  O   UNL A   1      36.167  23.029  22.412  1.00  0.00    -0.268 OA
BRANCH  66  69
ATOM     69  C   UNL A   1      35.086  22.657  24.477  1.00  0.00     0.096 A 
ATOM     70  C   UNL A   1      34.073  23.511  24.857  1.00  0.00     0.072 A 
ATOM     71  S   UNL A   1      34.930  21.120  25.204  1.00  0.00    -0.135 S 
ATOM     72  C   UNL A   1      33.378  23.013  25.996  1.00  0.00     0.131 A 
ATOM     73  C   UNL A   1      33.687  21.691  26.236  1.00  0.00     0.112 A 
BRANCH  72  74
ATOM     74  O   UNL A   1      32.507  23.646  26.822  1.00  0.00    -0.489 OA
BRANCH  74  75
ATOM     75  C   UNL A   1      31.128  23.674  26.410  1.00  0.00     0.275 C 
BRANCH  75  76
ATOM     76  C   UNL A   1      30.605  25.096  26.097  1.00  0.00     0.215 C 
ATOM     77  C   UNL A   1      30.813  25.521  24.627  1.00  0.00     0.088 C 
ATOM     78  O   UNL A   1      31.300  26.059  26.936  1.00  0.00    -0.486 OA
ATOM     79  C   UNL A   1      31.948  26.462  24.771  1.00  0.00     0.001 A 
ATOM     80  C   UNL A   1      32.186  26.692  26.111  1.00  0.00     0.123 A 
ATOM     81  C   UNL A   1      32.693  27.121  23.808  1.00  0.00     0.047 A 
ATOM     82  C   UNL A   1      33.205  27.516  26.555  1.00  0.00     0.050 A 
ATOM     83  C   UNL A   1      33.704  27.981  24.238  1.00  0.00     0.123 A 
ATOM     84  C   UNL A   1      33.976  28.172  25.598  1.00  0.00     0.043 A 
ATOM     85  F   UNL A   1      34.435  28.643  23.332  1.00  0.00    -0.207 F 
ENDBRANCH  75  76
ENDBRANCH  74  75
ENDBRANCH  72  74
ENDBRANCH  66  69
ENDBRANCH  64  65
ENDBRANCH   1  64
TORSDOF 14
ENDMDL
MODEL 3
REMARK VINA RESULT:     -11.0      1.900      2.633
REMARK SMILES O=C(NCCCCNC(=O)c1cc(OC[C@@H]2Cc3cc(F)ccc3O2)cs1)c1ccc(-c2c3nc(c(-c4c(F)cccc4F)c4ccc([nH]4)c(-c4c(F)cccc4F)c4nc(c(-c5c(F)cccc5F)c5ccc2[nH]5)C=C4)C=C3)cc1
REMARK SMILES IDX 6 1 5 2 4 3 3 4 1 5 2 6 28 8 29 9 81 10 30 11 80 12 31 13
REMARK SMILES IDX 32 14 33 15 74 16 34 17 79 18 73 19 75 20 35 21 78 22 72 23
REMARK SMILES IDX 71 24 36 26 62 27 45 28 61 29 46 30 49 31 60 32 76 33 47 34
REMARK SMILES IDX 48 35 59 37 77 38 50 39 37 40 38 41 43 42 39 43 40 44 42 45
REMARK SMILES IDX 44 46 41 47 63 48 64 49 69 50 65 51 66 52 68 53 70 54 67 55
REMARK SMILES IDX 51 56 52 57 57 58 53 59 54 60 56 61 58 62 55 63 7 64 8 65
REMARK SMILES IDX 9 66 10 68 11 69 12 70 27 71 13 72 26 73 14 74 15 75 16 76
REMARK SMILES IDX 17 77 25 78 18 79 24 80 19 81 23 82 20 83 22 84 21 85
REMARK H PARENT 3 7 75 25 49 36 8 67
REMARK Flexibility Score: inf
ROOT
ATOM      1  C   UNL A   1      31.639  28.066  26.345  1.00  0.00     0.023 C 
ENDROOT
BRANCH   1   2
ATOM      2  C   UNL A   1      33.118  27.695  26.452  1.00  0.00     0.023 C 
BRANCH   2   3
ATOM      3  C   UNL A   1      34.119  28.765  26.025  1.00  0.00     0.116 C 
BRANCH   3   4
ATOM      4  N   UNL A   1      33.856  30.071  26.603  1.00  0.00    -0.352 N 
ATOM      5  O   UNL A   1      34.028  31.813  28.011  1.00  0.00    -0.269 OA
ATOM      6  C   UNL A   1      34.516  30.767  27.588  1.00  0.00     0.251 C 
ATOM      7  H   UNL A   1      33.075  30.536  26.225  1.00  0.00     0.163 HD
BRANCH   6   8
ATOM      8  C   UNL A   1      35.790  30.276  28.166  1.00  0.00     0.039 A 
ATOM      9  C   UNL A   1      36.984  30.571  27.496  1.00  0.00     0.014 A 
ATOM     10  C   UNL A   1      35.827  29.471  29.307  1.00  0.00     0.014 A 
ATOM     11  C   UNL A   1      38.205  30.099  27.990  1.00  0.00     0.010 A 
ATOM     12  C   UNL A   1      37.052  29.065  29.842  1.00  0.00     0.010 A 
ATOM     13  C   UNL A   1      38.253  29.353  29.178  1.00  0.00    -0.014 A 
BRANCH  13  14
ATOM     14  C   UNL A   1      39.541  28.809  29.686  1.00  0.00     0.031 A 
ATOM     15  C   UNL A   1      40.192  29.420  30.899  1.00  0.00     0.074 A 
ATOM     16  C   UNL A   1      40.141  27.778  29.059  1.00  0.00     0.049 A 
ATOM     17  N   UNL A   1      41.323  29.108  31.482  1.00  0.00    -0.248 NA
ATOM     18  C   UNL A   1      39.487  30.548  31.529  1.00  0.00     0.031 C 
ATOM     19  C   UNL A   1      39.649  27.114  27.852  1.00  0.00     0.029 A 
ATOM     20  N   UNL A   1      41.303  27.109  29.357  1.00  0.00    -0.354 N 
ATOM     21  C   UNL A   1      41.467  30.003  32.534  1.00  0.00     0.074 A 
ATOM     22  C   UNL A   1      40.341  30.909  32.474  1.00  0.00     0.031 C 
ATOM     23  C   UNL A   1      40.489  26.116  27.527  1.00  0.00     0.029 A 
ATOM     24  C   UNL A   1      41.587  26.084  28.488  1.00  0.00     0.049 A 
ATOM     25  H   UNL A   1      41.878  27.342  30.122  1.00  0.00     0.167 HD
ATOM     26  C   UNL A   1      42.429  30.053  33.488  1.00  0.00     0.037 A 
ATOM     27  C   UNL A   1      42.613  25.211  28.475  1.00  0.00     0.037 A 
ATOM     28  C   UNL A   1      43.541  29.145  33.575  1.00  0.00     0.049 A 
ATOM     29  C   UNL A   1      43.659  25.275  29.553  1.00  0.00     0.074 A 
ATOM     30  C   UNL A   1      44.559  29.108  34.511  1.00  0.00     0.029 A 
ATOM     31  N   UNL A   1      43.773  28.100  32.693  1.00  0.00    -0.354 N 
ATOM     32  N   UNL A   1      43.761  26.106  30.561  1.00  0.00    -0.248 NA
ATOM     33  C   UNL A   1      44.727  24.267  29.496  1.00  0.00     0.031 C 
ATOM     34  C   UNL A   1      45.417  28.050  34.188  1.00  0.00     0.029 A 
ATOM     35  C   UNL A   1      44.915  27.412  33.066  1.00  0.00     0.049 A 
ATOM     36  H   UNL A   1      43.208  27.881  31.917  1.00  0.00     0.167 HD
ATOM     37  C   UNL A   1      44.887  25.707  31.270  1.00  0.00     0.074 A 
ATOM     38  C   UNL A   1      45.423  24.548  30.589  1.00  0.00     0.031 C 
ATOM     39  C   UNL A   1      45.431  26.254  32.383  1.00  0.00     0.037 A 
BRANCH  26  40
ATOM     40  C   UNL A   1      42.296  31.127  34.528  1.00  0.00     0.057 A 
ATOM     41  C   UNL A   1      41.532  30.923  35.683  1.00  0.00     0.134 A 
ATOM     42  C   UNL A   1      42.934  32.366  34.382  1.00  0.00     0.134 A 
ATOM     43  F   UNL A   1      40.893  29.759  35.882  1.00  0.00    -0.206 F 
ATOM     44  C   UNL A   1      41.414  31.911  36.661  1.00  0.00     0.040 A 
ATOM     45  C   UNL A   1      42.843  33.353  35.365  1.00  0.00     0.040 A 
ATOM     46  F   UNL A   1      43.694  32.617  33.306  1.00  0.00    -0.206 F 
ATOM     47  C   UNL A   1      42.078  33.127  36.508  1.00  0.00     0.006 A 
ENDBRANCH  26  40
BRANCH  27  48
ATOM     48  C   UNL A   1      42.693  24.169  27.421  1.00  0.00     0.057 A 
ATOM     49  C   UNL A   1      42.243  22.865  27.649  1.00  0.00     0.134 A 
ATOM     50  C   UNL A   1      43.183  24.472  26.145  1.00  0.00     0.134 A 
ATOM     51  F   UNL A   1      41.765  22.514  28.851  1.00  0.00    -0.206 F 
ATOM     52  C   UNL A   1      42.273  21.897  26.643  1.00  0.00     0.040 A 
ATOM     53  C   UNL A   1      43.199  23.521  25.124  1.00  0.00     0.040 A 
ATOM     54  F   UNL A   1      43.606  25.713  25.862  1.00  0.00    -0.206 F 
ATOM     55  C   UNL A   1      42.744  22.228  25.373  1.00  0.00     0.006 A 
ENDBRANCH  27  48
BRANCH  39  56
ATOM     56  C   UNL A   1      46.647  25.581  32.945  1.00  0.00     0.057 A 
ATOM     57  C   UNL A   1      47.928  25.932  32.500  1.00  0.00     0.134 A 
ATOM     58  C   UNL A   1      46.552  24.587  33.927  1.00  0.00     0.134 A 
ATOM     59  F   UNL A   1      48.087  26.874  31.558  1.00  0.00    -0.206 F 
ATOM     60  C   UNL A   1      49.071  25.321  33.016  1.00  0.00     0.040 A 
ATOM     61  C   UNL A   1      47.689  23.984  34.466  1.00  0.00     0.040 A 
ATOM     62  F   UNL A   1      45.354  24.217  34.406  1.00  0.00    -0.206 F 
ATOM     63  C   UNL A   1      48.954  24.350  34.008  1.00  0.00     0.006 A 
ENDBRANCH  39  56
ENDBRANCH  13  14
ENDBRANCH   6   8
ENDBRANCH   3   4
ENDBRANCH   2   3
ENDBRANCH   1   2
BRANCH   1  64
ATOM     64  C   UNL A   1      30.841  27.318  25.283  1.00  0.00     0.116 C 
BRANCH  64  65
ATOM     65  N   UNL A   1      30.391  28.146  24.177  1.00  0.00    -0.351 N 
ATOM     66  C   UNL A   1      30.674  27.964  22.831  1.00  0.00     0.261 C 
ATOM     67  H   UNL A   1      29.826  28.918  24.408  1.00  0.00     0.163 HD
ATOM     68  O   UNL A   1      30.114  28.663  22.008  1.00  0.00    -0.268 OA
BRANCH  66  69
ATOM     69  C   UNL A   1      31.605  26.903  22.507  1.00  0.00     0.096 A 
ATOM     70  C   UNL A   1      31.337  25.563  22.328  1.00  0.00     0.072 A 
ATOM     71  S   UNL A   1      33.272  27.244  22.377  1.00  0.00    -0.135 S 
ATOM     72  C   UNL A   1      32.525  24.782  22.425  1.00  0.00     0.131 A 
ATOM     73  C   UNL A   1      33.653  25.572  22.369  1.00  0.00     0.112 A 
BRANCH  72  74
ATOM     74  O   UNL A   1      32.668  23.440  22.561  1.00  0.00    -0.489 OA
BRANCH  74  75
ATOM     75  C   UNL A   1      33.981  22.960  22.906  1.00  0.00     0.275 C 
BRANCH  75  76
ATOM     76  C   UNL A   1      34.126  22.575  24.397  1.00  0.00     0.215 C 
ATOM     77  C   UNL A   1      34.761  23.687  25.262  1.00  0.00     0.088 C 
ATOM     78  O   UNL A   1      34.970  21.396  24.509  1.00  0.00    -0.486 OA
ATOM     79  C   UNL A   1      36.124  23.140  25.458  1.00  0.00     0.001 A 
ATOM     80  C   UNL A   1      36.173  21.847  24.974  1.00  0.00     0.123 A 
ATOM     81  C   UNL A   1      37.235  23.700  26.063  1.00  0.00     0.047 A 
ATOM     82  C   UNL A   1      37.328  21.087  25.000  1.00  0.00     0.050 A 
ATOM     83  C   UNL A   1      38.401  22.935  26.126  1.00  0.00     0.123 A 
ATOM     84  C   UNL A   1      38.461  21.644  25.589  1.00  0.00     0.043 A 
ATOM     85  F   UNL A   1      39.490  23.444  26.716  1.00  0.00    -0.207 F 
ENDBRANCH  75  76
ENDBRANCH  74  75
ENDBRANCH  72  74
ENDBRANCH  66  69
ENDBRANCH  64  65
ENDBRANCH   1  64
TORSDOF 14
ENDMDL
