MODEL 1
REMARK VINA RESULT:     -13.4      0.000      0.000
REMARK SMILES Cc1cc(C[N@H+]2CC[C@@H](C(=O)NCCCCNC(=O)c3ccc(-c4c5nc(c(-c6c(F)cccc6F)c6ccc([nH]6)c(-c6c(F)cccc6F)c6nc(c(-c7c(F)cccc7F)c7ccc4[nH]7)C=C6)C=C5)cc3)[C@@H]2C)ccc1Br
REMARK SMILES IDX 14 1 13 2 12 3 10 4 11 5 9 7 6 8 7 9 74 10 8 12 75 13 5 14
REMARK SMILES IDX 4 15 1 16 2 17 3 18 78 19 77 20 79 21 76 22 15 23 16 24
REMARK SMILES IDX 17 25 18 26 19 28 20 29 21 30 73 31 22 32 72 33 23 34 24 35
REMARK SMILES IDX 25 36 66 37 26 38 71 39 65 40 67 41 27 42 70 43 64 44 63 45
REMARK SMILES IDX 28 47 54 48 37 49 53 50 38 51 41 52 52 53 68 54 39 55 40 56
REMARK SMILES IDX 51 58 69 59 42 60 29 61 30 62 35 63 31 64 32 65 34 66 36 67
REMARK SMILES IDX 33 68 55 69 56 70 61 71 57 72 58 73 60 74 62 75 59 76 43 77
REMARK SMILES IDX 44 78 49 79 45 80 46 81 48 82 50 83 47 84
REMARK H PARENT 12 6 6 11 17 27 67 46 41 57
REMARK Flexibility Score: inf
ROOT
ATOM      1  C   UNL A   1      32.412  30.096  26.887  1.00  0.00     0.023 C 
ENDROOT
BRANCH   1   2
ATOM      2  C   UNL A   1      33.759  28.815  25.726  1.00  0.00     0.116 C 
BRANCH   2   3
ATOM      3  N   UNL A   1      33.546  27.964  24.380  1.00  0.00    -0.356 N 
ATOM      4  C   UNL A   1      32.625  27.087  23.909  1.00  0.00     0.229 C 
ATOM      5  O   UNL A   1      32.827  26.665  22.762  1.00  0.00    -0.275 OA
ATOM      6  H   UNL A   1      34.269  28.120  23.730  1.00  0.00     0.163 HD
BRANCH   4   7
ATOM      7  C   UNL A   1      31.409  26.573  24.674  1.00  0.00     0.142 C 
ATOM      8  N   UNL A   1      30.388  24.404  24.400  1.00  0.00    -0.328 N 
ATOM      9  C   UNL A   1      31.001  24.426  25.730  1.00  0.00     0.263 C 
ATOM     10  C   UNL A   1      30.418  25.763  23.843  1.00  0.00     0.193 C 
ATOM     11  H   UNL A   1      29.417  24.113  24.509  1.00  0.00     0.348 HD
ATOM     12  C   UNL A   1      31.716  25.755  25.913  1.00  0.00     0.081 C 
ATOM     13  C   UNL A   1      28.996  26.328  23.904  1.00  0.00     0.076 C 
BRANCH   8  14
ATOM     14  C   UNL A   1      30.915  23.381  23.499  1.00  0.00     0.299 C 
BRANCH  14  15
ATOM     15  C   UNL A   1      32.191  22.747  23.973  1.00  0.00     0.007 A 
ATOM     16  C   UNL A   1      36.629  23.210  23.500  1.00  0.00     0.045 C 
ATOM     17  C   UNL A   1      35.318  22.607  23.900  1.00  0.00    -0.036 A 
ATOM     18  C   UNL A   1      33.782  23.458  23.484  1.00  0.00     0.014 A 
ATOM     19  C   UNL A   1      35.270  21.062  24.822  1.00  0.00     0.020 A 
ATOM     20  C   UNL A   1      33.702  20.355  25.334  1.00  0.00     0.016 A 
ATOM     21  Br  UNL A   1      36.834  20.004  25.001  1.00  0.00    -0.051 Br
ATOM     22  C   UNL A   1      32.155  21.217  24.953  1.00  0.00     0.011 A 
ENDBRANCH  14  15
ENDBRANCH   8  14
ENDBRANCH   4   7
ENDBRANCH   2   3
ENDBRANCH   1   2
BRANCH   1  23
ATOM     23  C   UNL A   1      31.910  31.744  26.876  1.00  0.00     0.023 C 
BRANCH  23  24
ATOM     24  C   UNL A   1      32.934  32.765  27.358  1.00  0.00     0.116 C 
BRANCH  24  25
ATOM     25  N   UNL A   1      32.389  34.078  27.666  1.00  0.00    -0.352 N 
ATOM     26  C   UNL A   1      32.926  35.006  28.525  1.00  0.00     0.251 C 
ATOM     27  H   UNL A   1      31.550  34.328  27.213  1.00  0.00     0.163 HD
ATOM     28  O   UNL A   1      32.385  36.079  28.751  1.00  0.00    -0.269 OA
BRANCH  26  29
ATOM     29  C   UNL A   1      34.150  34.608  29.240  1.00  0.00     0.039 A 
ATOM     30  C   UNL A   1      34.014  33.828  30.386  1.00  0.00     0.014 A 
ATOM     31  C   UNL A   1      35.396  34.829  28.654  1.00  0.00     0.014 A 
ATOM     32  C   UNL A   1      35.141  33.210  30.917  1.00  0.00     0.010 A 
ATOM     33  C   UNL A   1      36.499  34.129  29.126  1.00  0.00     0.010 A 
ATOM     34  C   UNL A   1      36.383  33.323  30.269  1.00  0.00    -0.014 A 
BRANCH  34  35
ATOM     35  C   UNL A   1      37.571  32.627  30.816  1.00  0.00     0.031 A 
ATOM     36  C   UNL A   1      38.148  33.074  32.129  1.00  0.00     0.074 A 
ATOM     37  C   UNL A   1      38.127  31.607  30.131  1.00  0.00     0.049 A 
ATOM     38  N   UNL A   1      39.151  32.572  32.802  1.00  0.00    -0.248 NA
ATOM     39  C   UNL A   1      37.534  34.255  32.762  1.00  0.00     0.031 C 
ATOM     40  C   UNL A   1      37.693  31.132  28.815  1.00  0.00     0.029 A 
ATOM     41  N   UNL A   1      39.174  30.781  30.452  1.00  0.00    -0.354 N 
ATOM     42  C   UNL A   1      39.293  33.383  33.921  1.00  0.00     0.074 A 
ATOM     43  C   UNL A   1      38.318  34.442  33.811  1.00  0.00     0.031 C 
ATOM     44  C   UNL A   1      38.447  30.077  28.457  1.00  0.00     0.029 A 
ATOM     45  C   UNL A   1      39.430  29.819  29.503  1.00  0.00     0.049 A 
ATOM     46  H   UNL A   1      39.693  30.867  31.284  1.00  0.00     0.167 HD
ATOM     47  C   UNL A   1      40.141  33.237  34.964  1.00  0.00     0.037 A 
ATOM     48  C   UNL A   1      40.355  28.839  29.487  1.00  0.00     0.037 A 
ATOM     49  C   UNL A   1      41.077  32.154  35.087  1.00  0.00     0.049 A 
ATOM     50  C   UNL A   1      41.266  28.684  30.675  1.00  0.00     0.074 A 
ATOM     51  C   UNL A   1      41.923  31.864  36.141  1.00  0.00     0.029 A 
ATOM     52  N   UNL A   1      41.292  31.186  34.118  1.00  0.00    -0.354 N 
ATOM     53  N   UNL A   1      41.317  29.393  31.777  1.00  0.00    -0.248 NA
ATOM     54  C   UNL A   1      42.242  27.585  30.626  1.00  0.00     0.031 C 
ATOM     55  C   UNL A   1      42.689  30.749  35.788  1.00  0.00     0.029 A 
ATOM     56  C   UNL A   1      42.280  30.312  34.538  1.00  0.00     0.049 A 
ATOM     57  H   UNL A   1      40.813  31.128  33.259  1.00  0.00     0.167 HD
ATOM     58  C   UNL A   1      42.306  28.812  32.561  1.00  0.00     0.074 A 
ATOM     59  C   UNL A   1      42.813  27.678  31.817  1.00  0.00     0.031 C 
ATOM     60  C   UNL A   1      42.759  29.184  33.782  1.00  0.00     0.037 A 
BRANCH  47  61
ATOM     61  C   UNL A   1      40.091  34.265  36.054  1.00  0.00     0.057 A 
ATOM     62  C   UNL A   1      39.292  34.099  37.194  1.00  0.00     0.134 A 
ATOM     63  C   UNL A   1      40.888  35.414  35.983  1.00  0.00     0.134 A 
ATOM     64  F   UNL A   1      38.492  33.029  37.315  1.00  0.00    -0.206 F 
ATOM     65  C   UNL A   1      39.277  35.049  38.216  1.00  0.00     0.040 A 
ATOM     66  C   UNL A   1      40.900  36.356  37.012  1.00  0.00     0.040 A 
ATOM     67  F   UNL A   1      41.675  35.632  34.919  1.00  0.00    -0.206 F 
ATOM     68  C   UNL A   1      40.090  36.177  38.131  1.00  0.00     0.006 A 
ENDBRANCH  47  61
BRANCH  48  69
ATOM     69  C   UNL A   1      40.465  27.920  28.322  1.00  0.00     0.057 A 
ATOM     70  C   UNL A   1      39.837  26.668  28.315  1.00  0.00     0.134 A 
ATOM     71  C   UNL A   1      41.238  28.255  27.203  1.00  0.00     0.134 A 
ATOM     72  F   UNL A   1      39.095  26.279  29.363  1.00  0.00    -0.206 F 
ATOM     73  C   UNL A   1      40.002  25.771  27.257  1.00  0.00     0.040 A 
ATOM     74  C   UNL A   1      41.388  27.379  26.126  1.00  0.00     0.040 A 
ATOM     75  F   UNL A   1      41.859  29.442  27.140  1.00  0.00    -0.206 F 
ATOM     76  C   UNL A   1      40.778  26.127  26.157  1.00  0.00     0.006 A 
ENDBRANCH  48  69
BRANCH  60  77
ATOM     77  C   UNL A   1      43.831  28.340  34.404  1.00  0.00     0.057 A 
ATOM     78  C   UNL A   1      45.190  28.650  34.265  1.00  0.00     0.134 A 
ATOM     79  C   UNL A   1      43.496  27.232  35.194  1.00  0.00     0.134 A 
ATOM     80  F   UNL A   1      45.576  29.692  33.513  1.00  0.00    -0.206 F 
ATOM     81  C   UNL A   1      46.179  27.873  34.868  1.00  0.00     0.040 A 
ATOM     82  C   UNL A   1      44.473  26.466  35.827  1.00  0.00     0.040 A 
ATOM     83  F   UNL A   1      42.212  26.889  35.378  1.00  0.00    -0.206 F 
ATOM     84  C   UNL A   1      45.821  26.782  35.660  1.00  0.00     0.006 A 
ENDBRANCH  60  77
ENDBRANCH  34  35
ENDBRANCH  26  29
ENDBRANCH  24  25
ENDBRANCH  23  24
ENDBRANCH   1  23
TORSDOF 13
ENDMDL
MODEL 2
REMARK VINA RESULT:     -13.4      1.016      1.600
REMARK SMILES Cc1cc(C[N@H+]2CC[C@@H](C(=O)NCCCCNC(=O)c3ccc(-c4c5nc(c(-c6c(F)cccc6F)c6ccc([nH]6)c(-c6c(F)cccc6F)c6nc(c(-c7c(F)cccc7F)c7ccc4[nH]7)C=C6)C=C5)cc3)[C@@H]2C)ccc1Br
REMARK SMILES IDX 14 1 13 2 12 3 10 4 11 5 9 7 6 8 7 9 74 10 8 12 75 13 5 14
REMARK SMILES IDX 4 15 1 16 2 17 3 18 78 19 77 20 79 21 76 22 15 23 16 24
REMARK SMILES IDX 17 25 18 26 19 28 20 29 21 30 73 31 22 32 72 33 23 34 24 35
REMARK SMILES IDX 25 36 66 37 26 38 71 39 65 40 67 41 27 42 70 43 64 44 63 45
REMARK SMILES IDX 28 47 54 48 37 49 53 50 38 51 41 52 52 53 68 54 39 55 40 56
REMARK SMILES IDX 51 58 69 59 42 60 29 61 30 62 35 63 31 64 32 65 34 66 36 67
REMARK SMILES IDX 33 68 55 69 56 70 61 71 57 72 58 73 60 74 62 75 59 76 43 77
REMARK SMILES IDX 44 78 49 79 45 80 46 81 48 82 50 83 47 84
REMARK H PARENT 12 6 6 11 17 27 67 46 41 57
REMARK Flexibility Score: inf
ROOT
ATOM      1  C   UNL A   1      32.446  29.862  26.649  1.00  0.00     0.023 C 
ENDROOT
BRANCH   1   2
ATOM      2  C   UNL A   1      33.935  28.669  25.571  1.00  0.00     0.116 C 
BRANCH   2   3
ATOM      3  N   UNL A   1      34.305  28.557  24.012  1.00  0.00    -0.356 N 
ATOM      4  C   UNL A   1      33.671  28.162  22.879  1.00  0.00     0.229 C 
ATOM      5  O   UNL A   1      34.331  28.264  21.835  1.00  0.00    -0.275 OA
ATOM      6  H   UNL A   1      35.227  28.850  23.832  1.00  0.00     0.163 HD
BRANCH   4   7
ATOM      7  C   UNL A   1      32.258  27.594  22.798  1.00  0.00     0.142 C 
ATOM      8  N   UNL A   1      31.164  26.298  24.514  1.00  0.00    -0.328 N 
ATOM      9  C   UNL A   1      30.467  27.583  24.438  1.00  0.00     0.263 C 
ATOM     10  C   UNL A   1      32.091  26.193  23.379  1.00  0.00     0.193 C 
ATOM     11  H   UNL A   1      30.465  25.559  24.439  1.00  0.00     0.348 HD
ATOM     12  C   UNL A   1      31.173  28.457  23.413  1.00  0.00     0.081 C 
ATOM     13  C   UNL A   1      31.494  25.205  22.374  1.00  0.00     0.076 C 
BRANCH   8  14
ATOM     14  C   UNL A   1      31.776  26.008  25.810  1.00  0.00     0.299 C 
BRANCH  14  15
ATOM     15  C   UNL A   1      32.659  24.794  25.812  1.00  0.00     0.007 A 
ATOM     16  C   UNL A   1      36.988  23.705  25.368  1.00  0.00     0.045 C 
ATOM     17  C   UNL A   1      35.506  23.533  25.483  1.00  0.00    -0.036 A 
ATOM     18  C   UNL A   1      34.451  24.987  25.658  1.00  0.00     0.014 A 
ATOM     19  C   UNL A   1      34.777  21.887  25.487  1.00  0.00     0.020 A 
ATOM     20  C   UNL A   1      33.003  21.677  25.661  1.00  0.00     0.016 A 
ATOM     21  Br  UNL A   1      35.817  20.378  25.001  1.00  0.00    -0.051 Br
ATOM     22  C   UNL A   1      31.937  23.127  25.872  1.00  0.00     0.011 A 
ENDBRANCH  14  15
ENDBRANCH   8  14
ENDBRANCH   4   7
ENDBRANCH   2   3
ENDBRANCH   1   2
BRANCH   1  23
ATOM     23  C   UNL A   1      31.974  31.517  26.741  1.00  0.00     0.023 C 
BRANCH  23  24
ATOM     24  C   UNL A   1      33.014  32.485  27.293  1.00  0.00     0.116 C 
BRANCH  24  25
ATOM     25  N   UNL A   1      32.507  33.810  27.611  1.00  0.00    -0.352 N 
ATOM     26  C   UNL A   1      33.043  34.697  28.513  1.00  0.00     0.251 C 
ATOM     27  H   UNL A   1      31.697  34.102  27.132  1.00  0.00     0.163 HD
ATOM     28  O   UNL A   1      32.533  35.785  28.744  1.00  0.00    -0.269 OA
BRANCH  26  29
ATOM     29  C   UNL A   1      34.222  34.237  29.265  1.00  0.00     0.039 A 
ATOM     30  C   UNL A   1      34.027  33.303  30.280  1.00  0.00     0.014 A 
ATOM     31  C   UNL A   1      35.501  34.570  28.818  1.00  0.00     0.014 A 
ATOM     32  C   UNL A   1      35.132  32.647  30.813  1.00  0.00     0.010 A 
ATOM     33  C   UNL A   1      36.589  33.842  29.280  1.00  0.00     0.010 A 
ATOM     34  C   UNL A   1      36.415  32.882  30.290  1.00  0.00    -0.014 A 
BRANCH  34  35
ATOM     35  C   UNL A   1      37.583  32.150  30.833  1.00  0.00     0.031 A 
ATOM     36  C   UNL A   1      38.079  32.471  32.214  1.00  0.00     0.074 A 
ATOM     37  C   UNL A   1      38.193  31.208  30.085  1.00  0.00     0.049 A 
ATOM     38  N   UNL A   1      39.050  31.917  32.891  1.00  0.00    -0.248 NA
ATOM     39  C   UNL A   1      37.411  33.577  32.923  1.00  0.00     0.031 C 
ATOM     40  C   UNL A   1      37.841  30.860  28.706  1.00  0.00     0.029 A 
ATOM     41  N   UNL A   1      39.234  30.366  30.382  1.00  0.00    -0.354 N 
ATOM     42  C   UNL A   1      39.117  32.614  34.090  1.00  0.00     0.074 A 
ATOM     43  C   UNL A   1      38.131  33.669  34.029  1.00  0.00     0.031 C 
ATOM     44  C   UNL A   1      38.632  29.855  28.290  1.00  0.00     0.029 A 
ATOM     45  C   UNL A   1      39.559  29.506  29.360  1.00  0.00     0.049 A 
ATOM     46  H   UNL A   1      39.705  30.376  31.246  1.00  0.00     0.167 HD
ATOM     47  C   UNL A   1      39.908  32.376  35.160  1.00  0.00     0.037 A 
ATOM     48  C   UNL A   1      40.500  28.543  29.300  1.00  0.00     0.037 A 
ATOM     49  C   UNL A   1      40.854  31.297  35.230  1.00  0.00     0.049 A 
ATOM     50  C   UNL A   1      41.347  28.282  30.518  1.00  0.00     0.074 A 
ATOM     51  C   UNL A   1      41.645  30.914  36.297  1.00  0.00     0.029 A 
ATOM     52  N   UNL A   1      41.139  30.432  34.184  1.00  0.00    -0.354 N 
ATOM     53  N   UNL A   1      41.324  28.879  31.684  1.00  0.00    -0.248 NA
ATOM     54  C   UNL A   1      42.341  27.204  30.417  1.00  0.00     0.031 C 
ATOM     55  C   UNL A   1      42.448  29.849  35.881  1.00  0.00     0.029 A 
ATOM     56  C   UNL A   1      42.116  29.533  34.572  1.00  0.00     0.049 A 
ATOM     57  H   UNL A   1      40.709  30.454  33.298  1.00  0.00     0.167 HD
ATOM     58  C   UNL A   1      42.277  28.235  32.463  1.00  0.00     0.074 A 
ATOM     59  C   UNL A   1      42.844  27.186  31.642  1.00  0.00     0.031 C 
ATOM     60  C   UNL A   1      42.655  28.490  33.739  1.00  0.00     0.037 A 
BRANCH  47  61
ATOM     61  C   UNL A   1      39.780  33.291  36.341  1.00  0.00     0.057 A 
ATOM     62  C   UNL A   1      38.879  33.035  37.384  1.00  0.00     0.134 A 
ATOM     63  C   UNL A   1      40.602  34.418  36.457  1.00  0.00     0.134 A 
ATOM     64  F   UNL A   1      38.051  31.981  37.325  1.00  0.00    -0.206 F 
ATOM     65  C   UNL A   1      38.790  33.878  38.493  1.00  0.00     0.040 A 
ATOM     66  C   UNL A   1      40.540  35.253  37.575  1.00  0.00     0.040 A 
ATOM     67  F   UNL A   1      41.485  34.720  35.494  1.00  0.00    -0.206 F 
ATOM     68  C   UNL A   1      39.630  34.985  38.594  1.00  0.00     0.006 A 
ENDBRANCH  47  61
BRANCH  48  69
ATOM     69  C   UNL A   1      40.690  27.744  28.059  1.00  0.00     0.057 A 
ATOM     70  C   UNL A   1      40.077  26.496  27.890  1.00  0.00     0.134 A 
ATOM     71  C   UNL A   1      41.526  28.192  27.028  1.00  0.00     0.134 A 
ATOM     72  F   UNL A   1      39.278  26.001  28.847  1.00  0.00    -0.206 F 
ATOM     73  C   UNL A   1      40.315  25.709  26.761  1.00  0.00     0.040 A 
ATOM     74  C   UNL A   1      41.749  27.428  25.881  1.00  0.00     0.040 A 
ATOM     75  F   UNL A   1      42.137  29.382  27.121  1.00  0.00    -0.206 F 
ATOM     76  C   UNL A   1      41.152  26.177  25.751  1.00  0.00     0.006 A 
ENDBRANCH  48  69
BRANCH  60  77
ATOM     77  C   UNL A   1      43.706  27.601  34.335  1.00  0.00     0.057 A 
ATOM     78  C   UNL A   1      43.382  26.383  34.948  1.00  0.00     0.134 A 
ATOM     79  C   UNL A   1      45.061  27.945  34.250  1.00  0.00     0.134 A 
ATOM     80  F   UNL A   1      42.102  26.002  35.070  1.00  0.00    -0.206 F 
ATOM     81  C   UNL A   1      44.369  25.551  35.477  1.00  0.00     0.040 A 
ATOM     82  C   UNL A   1      46.058  27.107  34.748  1.00  0.00     0.040 A 
ATOM     83  F   UNL A   1      45.438  29.091  33.664  1.00  0.00    -0.206 F 
ATOM     84  C   UNL A   1      45.713  25.909  35.370  1.00  0.00     0.006 A 
ENDBRANCH  60  77
ENDBRANCH  34  35
ENDBRANCH  26  29
ENDBRANCH  24  25
ENDBRANCH  23  24
ENDBRANCH   1  23
TORSDOF 13
ENDMDL
MODEL 3
REMARK VINA RESULT:     -13.3      1.516      2.274
REMARK SMILES Cc1cc(C[N@H+]2CC[C@@H](C(=O)NCCCCNC(=O)c3ccc(-c4c5nc(c(-c6c(F)cccc6F)c6ccc([nH]6)c(-c6c(F)cccc6F)c6nc(c(-c7c(F)cccc7F)c7ccc4[nH]7)C=C6)C=C5)cc3)[C@@H]2C)ccc1Br
REMARK SMILES IDX 14 1 13 2 12 3 10 4 11 5 9 7 6 8 7 9 74 10 8 12 75 13 5 14
REMARK SMILES IDX 4 15 1 16 2 17 3 18 78 19 77 20 79 21 76 22 15 23 16 24
REMARK SMILES IDX 17 25 18 26 19 28 20 29 21 30 73 31 22 32 72 33 23 34 24 35
REMARK SMILES IDX 25 36 66 37 26 38 71 39 65 40 67 41 27 42 70 43 64 44 63 45
REMARK SMILES IDX 28 47 54 48 37 49 53 50 38 51 41 52 52 53 68 54 39 55 40 56
REMARK SMILES IDX 51 58 69 59 42 60 29 61 30 62 35 63 31 64 32 65 34 66 36 67
REMARK SMILES IDX 33 68 55 69 56 70 61 71 57 72 58 73 60 74 62 75 59 76 43 77
REMARK SMILES IDX 44 78 49 79 45 80 46 81 48 82 50 83 47 84
REMARK H PARENT 12 6 6 11 17 27 67 46 41 57
REMARK Flexibility Score: inf
ROOT
ATOM      1  C   UNL A   1      31.702  30.480  26.217  1.00  0.00     0.023 C 
ENDROOT
BRANCH   1   2
ATOM      2  C   UNL A   1      31.928  28.483  27.092  1.00  0.00     0.116 C 
BRANCH   2   3
ATOM      3  N   UNL A   1      31.012  27.165  27.022  1.00  0.00    -0.356 N 
ATOM      4  C   UNL A   1      30.817  26.151  26.142  1.00  0.00     0.229 C 
ATOM      5  O   UNL A   1      30.009  25.282  26.499  1.00  0.00    -0.275 OA
ATOM      6  H   UNL A   1      30.449  27.066  27.824  1.00  0.00     0.163 HD
BRANCH   4   7
ATOM      7  C   UNL A   1      31.477  26.018  24.773  1.00  0.00     0.142 C 
ATOM      8  N   UNL A   1      32.976  24.251  24.100  1.00  0.00    -0.328 N 
ATOM      9  C   UNL A   1      31.742  24.083  23.331  1.00  0.00     0.263 C 
ATOM     10  C   UNL A   1      32.927  25.542  24.799  1.00  0.00     0.193 C 
ATOM     11  H   UNL A   1      33.755  24.261  23.443  1.00  0.00     0.348 HD
ATOM     12  C   UNL A   1      30.744  25.139  23.778  1.00  0.00     0.081 C 
ATOM     13  C   UNL A   1      33.876  26.503  24.079  1.00  0.00     0.076 C 
BRANCH   8  14
ATOM     14  C   UNL A   1      33.318  23.121  24.963  1.00  0.00     0.299 C 
BRANCH  14  15
ATOM     15  C   UNL A   1      34.794  22.886  25.106  1.00  0.00     0.007 A 
ATOM     16  C   UNL A   1      37.789  19.570  24.700  1.00  0.00     0.045 C 
ATOM     17  C   UNL A   1      37.225  20.913  25.043  1.00  0.00    -0.036 A 
ATOM     18  C   UNL A   1      35.486  21.261  24.710  1.00  0.00     0.014 A 
ATOM     19  C   UNL A   1      38.279  22.191  25.749  1.00  0.00     0.020 A 
ATOM     20  C   UNL A   1      37.614  23.814  26.127  1.00  0.00     0.016 A 
ATOM     21  Br  UNL A   1      40.012  21.758  26.387  1.00  0.00    -0.051 Br
ATOM     22  C   UNL A   1      35.878  24.187  25.765  1.00  0.00     0.011 A 
ENDBRANCH  14  15
ENDBRANCH   8  14
ENDBRANCH   4   7
ENDBRANCH   2   3
ENDBRANCH   1   2
BRANCH   1  23
ATOM     23  C   UNL A   1      31.406  32.082  26.778  1.00  0.00     0.023 C 
BRANCH  23  24
ATOM     24  C   UNL A   1      32.617  33.004  26.858  1.00  0.00     0.116 C 
BRANCH  24  25
ATOM     25  N   UNL A   1      32.453  34.153  27.733  1.00  0.00    -0.352 N 
ATOM     26  C   UNL A   1      33.298  34.536  28.747  1.00  0.00     0.251 C 
ATOM     27  H   UNL A   1      31.657  34.714  27.585  1.00  0.00     0.163 HD
ATOM     28  O   UNL A   1      33.069  35.504  29.459  1.00  0.00    -0.269 OA
BRANCH  26  29
ATOM     29  C   UNL A   1      34.458  33.667  29.000  1.00  0.00     0.039 A 
ATOM     30  C   UNL A   1      35.727  34.168  28.714  1.00  0.00     0.014 A 
ATOM     31  C   UNL A   1      34.289  32.475  29.704  1.00  0.00     0.014 A 
ATOM     32  C   UNL A   1      36.842  33.491  29.196  1.00  0.00     0.010 A 
ATOM     33  C   UNL A   1      35.398  31.860  30.269  1.00  0.00     0.010 A 
ATOM     34  C   UNL A   1      36.685  32.357  30.010  1.00  0.00    -0.014 A 
BRANCH  34  35
ATOM     35  C   UNL A   1      37.876  31.665  30.556  1.00  0.00     0.031 A 
ATOM     36  C   UNL A   1      38.325  31.965  31.958  1.00  0.00     0.074 A 
ATOM     37  C   UNL A   1      38.548  30.779  29.793  1.00  0.00     0.049 A 
ATOM     38  N   UNL A   1      39.308  31.437  32.640  1.00  0.00    -0.248 NA
ATOM     39  C   UNL A   1      37.587  33.013  32.686  1.00  0.00     0.031 C 
ATOM     40  C   UNL A   1      38.244  30.459  28.396  1.00  0.00     0.029 A 
ATOM     41  N   UNL A   1      39.623  29.979  30.088  1.00  0.00    -0.354 N 
ATOM     42  C   UNL A   1      39.313  32.097  33.861  1.00  0.00     0.074 A 
ATOM     43  C   UNL A   1      38.278  33.104  33.810  1.00  0.00     0.031 C 
ATOM     44  C   UNL A   1      39.092  29.507  27.967  1.00  0.00     0.029 A 
ATOM     45  C   UNL A   1      40.013  29.169  29.047  1.00  0.00     0.049 A 
ATOM     46  H   UNL A   1      40.073  29.984  30.964  1.00  0.00     0.167 HD
ATOM     47  C   UNL A   1      40.091  31.863  34.942  1.00  0.00     0.037 A 
ATOM     48  C   UNL A   1      41.001  28.256  28.980  1.00  0.00     0.037 A 
ATOM     49  C   UNL A   1      41.088  30.830  35.000  1.00  0.00     0.049 A 
ATOM     50  C   UNL A   1      41.832  27.997  30.208  1.00  0.00     0.074 A 
ATOM     51  C   UNL A   1      41.873  30.451  36.073  1.00  0.00     0.029 A 
ATOM     52  N   UNL A   1      41.438  30.014  33.935  1.00  0.00    -0.354 N 
ATOM     53  N   UNL A   1      41.754  28.554  31.392  1.00  0.00    -0.248 NA
ATOM     54  C   UNL A   1      42.881  26.973  30.097  1.00  0.00     0.031 C 
ATOM     55  C   UNL A   1      42.737  29.440  35.642  1.00  0.00     0.029 A 
ATOM     56  C   UNL A   1      42.450  29.151  34.317  1.00  0.00     0.049 A 
ATOM     57  H   UNL A   1      41.027  30.044  33.040  1.00  0.00     0.167 HD
ATOM     58  C   UNL A   1      42.721  27.933  32.172  1.00  0.00     0.074 A 
ATOM     59  C   UNL A   1      43.357  26.939  31.332  1.00  0.00     0.031 C 
ATOM     60  C   UNL A   1      43.058  28.164  33.464  1.00  0.00     0.037 A 
BRANCH  47  61
ATOM     61  C   UNL A   1      39.892  32.732  36.147  1.00  0.00     0.057 A 
ATOM     62  C   UNL A   1      38.910  32.454  37.108  1.00  0.00     0.134 A 
ATOM     63  C   UNL A   1      40.725  33.834  36.373  1.00  0.00     0.134 A 
ATOM     64  F   UNL A   1      38.067  31.423  36.942  1.00  0.00    -0.206 F 
ATOM     65  C   UNL A   1      38.754  33.253  38.242  1.00  0.00     0.040 A 
ATOM     66  C   UNL A   1      40.596  34.623  37.517  1.00  0.00     0.040 A 
ATOM     67  F   UNL A   1      41.685  34.154  35.493  1.00  0.00    -0.206 F 
ATOM     68  C   UNL A   1      39.605  34.335  38.453  1.00  0.00     0.006 A 
ENDBRANCH  47  61
BRANCH  48  69
ATOM     69  C   UNL A   1      41.257  27.508  27.719  1.00  0.00     0.057 A 
ATOM     70  C   UNL A   1      40.653  26.270  27.466  1.00  0.00     0.134 A 
ATOM     71  C   UNL A   1      42.148  27.996  26.754  1.00  0.00     0.134 A 
ATOM     72  F   UNL A   1      39.803  25.739  28.357  1.00  0.00    -0.206 F 
ATOM     73  C   UNL A   1      40.951  25.529  26.320  1.00  0.00     0.040 A 
ATOM     74  C   UNL A   1      42.433  27.279  25.591  1.00  0.00     0.040 A 
ATOM     75  F   UNL A   1      42.754  29.179  26.929  1.00  0.00    -0.206 F 
ATOM     76  C   UNL A   1      41.843  26.036  25.377  1.00  0.00     0.006 A 
ENDBRANCH  48  69
BRANCH  60  77
ATOM     77  C   UNL A   1      44.138  27.308  34.057  1.00  0.00     0.057 A 
ATOM     78  C   UNL A   1      43.867  26.040  34.589  1.00  0.00     0.134 A 
ATOM     79  C   UNL A   1      45.471  27.737  34.049  1.00  0.00     0.134 A 
ATOM     80  F   UNL A   1      42.610  25.576  34.635  1.00  0.00    -0.206 F 
ATOM     81  C   UNL A   1      44.882  25.241  35.115  1.00  0.00     0.040 A 
ATOM     82  C   UNL A   1      46.498  26.935  34.544  1.00  0.00     0.040 A 
ATOM     83  F   UNL A   1      45.798  28.936  33.542  1.00  0.00    -0.206 F 
ATOM     84  C   UNL A   1      46.204  25.685  35.085  1.00  0.00     0.006 A 
ENDBRANCH  60  77
ENDBRANCH  34  35
ENDBRANCH  26  29
ENDBRANCH  24  25
ENDBRANCH  23  24
ENDBRANCH   1  23
TORSDOF 13
ENDMDL
