MODEL 1
REMARK VINA RESULT:     -10.9      0.000      0.000
REMARK SMILES C[C@H]([NH2+][C@@H]1CCOC2(CCC2)C1)C(=O)NCCCCNC(=O)c1ccc(-c2c3nc(c(-c4c(F)cccc4F)c4ccc([nH]4)c(-c4c(F)cccc4F)c4nc(c(-c5c(F)cccc5F)c5ccc2[nH]5)C=C4)C=C3)cc1
REMARK SMILES IDX 17 1 16 2 15 3 13 4 14 5 2 7 1 8 3 9 4 12 5 13 12 14 6 15
REMARK SMILES IDX 8 16 7 17 9 18 11 19 10 20 18 21 19 22 20 23 21 24 22 26
REMARK SMILES IDX 23 27 24 28 76 29 25 30 75 31 26 32 27 33 28 34 69 35 29 36
REMARK SMILES IDX 74 37 68 38 70 39 30 40 73 41 67 42 66 43 31 45 57 46 40 47
REMARK SMILES IDX 56 48 41 49 44 50 55 51 71 52 42 53 43 54 54 56 72 57 45 58
REMARK SMILES IDX 32 59 33 60 38 61 34 62 35 63 37 64 39 65 36 66 58 67 59 68
REMARK SMILES IDX 64 69 60 70 61 71 63 72 65 73 62 74 46 75 47 76 52 77 48 78
REMARK SMILES IDX 49 79 51 80 53 81 50 82
REMARK H PARENT 15 6 3 10 3 11 20 25 70 44 44 55
REMARK Flexibility Score: inf
ROOT
ATOM      1  C   UNL A   1      31.729  30.786  26.116  1.00  0.00     0.023 C 
ENDROOT
BRANCH   1   2
ATOM      2  C   UNL A   1      32.575  29.823  26.941  1.00  0.00     0.116 C 
BRANCH   2   3
ATOM      3  N   UNL A   1      31.831  28.631  27.269  1.00  0.00    -0.351 N 
ATOM      4  C   UNL A   1      31.854  27.406  26.683  1.00  0.00     0.277 C 
ATOM      5  O   UNL A   1      31.014  26.583  27.058  1.00  0.00    -0.268 OA
ATOM      6  H   UNL A   1      31.215  28.719  28.031  1.00  0.00     0.163 HD
BRANCH   4   7
ATOM      7  C   UNL A   1      32.885  27.059  25.593  1.00  0.00     0.269 C 
ATOM      8  C   UNL A   1      32.509  27.571  24.206  1.00  0.00     0.086 C 
BRANCH   7   9
ATOM      9  N   UNL A   1      33.246  25.644  25.693  1.00  0.00    -0.334 N 
ATOM     10  H   UNL A   1      32.606  25.219  26.363  1.00  0.00     0.347 HD
ATOM     11  H   UNL A   1      34.232  25.660  25.952  1.00  0.00     0.347 HD
BRANCH   9  12
ATOM     12  C   UNL A   1      33.212  24.816  24.481  1.00  0.00     0.188 C 
ATOM     13  C   UNL A   1      32.464  23.521  24.842  1.00  0.00     0.093 C 
ATOM     14  C   UNL A   1      34.521  24.466  23.740  1.00  0.00     0.100 C 
ATOM     15  C   UNL A   1      33.382  22.579  25.608  1.00  0.00     0.167 C 
ATOM     16  C   UNL A   1      35.355  23.366  24.411  1.00  0.00     0.074 C 
ATOM     17  O   UNL A   1      34.497  22.253  24.781  1.00  0.00    -0.375 OA
ATOM     18  C   UNL A   1      36.547  22.944  23.490  1.00  0.00     0.036 C 
ATOM     19  C   UNL A   1      36.467  23.734  25.455  1.00  0.00     0.036 C 
ATOM     20  C   UNL A   1      37.382  22.717  24.763  1.00  0.00     0.006 C 
ENDBRANCH   9  12
ENDBRANCH   7   9
ENDBRANCH   4   7
ENDBRANCH   2   3
ENDBRANCH   1   2
BRANCH   1  21
ATOM     21  C   UNL A   1      31.427  32.118  26.808  1.00  0.00     0.023 C 
BRANCH  21  22
ATOM     22  C   UNL A   1      32.652  32.909  27.249  1.00  0.00     0.116 C 
BRANCH  22  23
ATOM     23  N   UNL A   1      32.333  34.259  27.684  1.00  0.00    -0.352 N 
ATOM     24  C   UNL A   1      32.979  35.033  28.617  1.00  0.00     0.251 C 
ATOM     25  H   UNL A   1      31.550  34.673  27.254  1.00  0.00     0.163 HD
ATOM     26  O   UNL A   1      32.542  36.127  28.933  1.00  0.00    -0.269 OA
BRANCH  24  27
ATOM     27  C   UNL A   1      34.189  34.491  29.262  1.00  0.00     0.039 A 
ATOM     28  C   UNL A   1      34.048  33.806  30.470  1.00  0.00     0.014 A 
ATOM     29  C   UNL A   1      35.436  34.608  28.643  1.00  0.00     0.014 A 
ATOM     30  C   UNL A   1      35.159  33.181  31.033  1.00  0.00     0.010 A 
ATOM     31  C   UNL A   1      36.527  33.929  29.171  1.00  0.00     0.010 A 
ATOM     32  C   UNL A   1      36.398  33.210  30.370  1.00  0.00    -0.014 A 
BRANCH  32  33
ATOM     33  C   UNL A   1      37.572  32.495  30.923  1.00  0.00     0.031 A 
ATOM     34  C   UNL A   1      38.235  33.001  32.172  1.00  0.00     0.074 A 
ATOM     35  C   UNL A   1      38.070  31.430  30.268  1.00  0.00     0.049 A 
ATOM     36  N   UNL A   1      39.301  32.550  32.781  1.00  0.00    -0.248 NA
ATOM     37  C   UNL A   1      37.637  34.188  32.804  1.00  0.00     0.031 C 
ATOM     38  C   UNL A   1      37.540  30.878  29.019  1.00  0.00     0.029 A 
ATOM     39  N   UNL A   1      39.142  30.625  30.558  1.00  0.00    -0.354 N 
ATOM     40  C   UNL A   1      39.511  33.407  33.854  1.00  0.00     0.074 A 
ATOM     41  C   UNL A   1      38.493  34.432  33.785  1.00  0.00     0.031 C 
ATOM     42  C   UNL A   1      38.274  29.810  28.665  1.00  0.00     0.029 A 
ATOM     43  C   UNL A   1      39.343  29.623  29.641  1.00  0.00     0.049 A 
ATOM     44  H   UNL A   1      39.714  30.754  31.349  1.00  0.00     0.167 HD
ATOM     45  C   UNL A   1      40.454  33.330  34.821  1.00  0.00     0.037 A 
ATOM     46  C   UNL A   1      40.285  28.663  29.595  1.00  0.00     0.037 A 
ATOM     47  C   UNL A   1      41.443  32.289  34.904  1.00  0.00     0.049 A 
ATOM     48  C   UNL A   1      41.317  28.596  30.687  1.00  0.00     0.074 A 
ATOM     49  C   UNL A   1      42.397  32.081  35.883  1.00  0.00     0.029 A 
ATOM     50  N   UNL A   1      41.602  31.279  33.966  1.00  0.00    -0.354 N 
ATOM     51  N   UNL A   1      41.459  29.369  31.737  1.00  0.00    -0.248 NA
ATOM     52  C   UNL A   1      42.315  27.522  30.590  1.00  0.00     0.031 C 
ATOM     53  C   UNL A   1      43.161  30.967  35.519  1.00  0.00     0.029 A 
ATOM     54  C   UNL A   1      42.653  30.456  34.335  1.00  0.00     0.049 A 
ATOM     55  H   UNL A   1      41.051  31.164  33.160  1.00  0.00     0.167 HD
ATOM     56  C   UNL A   1      42.542  28.858  32.440  1.00  0.00     0.074 A 
ATOM     57  C   UNL A   1      43.011  27.703  31.703  1.00  0.00     0.031 C 
ATOM     58  C   UNL A   1      43.097  29.304  33.593  1.00  0.00     0.037 A 
BRANCH  45  59
ATOM     59  C   UNL A   1      40.453  34.401  35.873  1.00  0.00     0.057 A 
ATOM     60  C   UNL A   1      39.715  34.274  37.057  1.00  0.00     0.134 A 
ATOM     61  C   UNL A   1      41.221  35.561  35.711  1.00  0.00     0.134 A 
ATOM     62  F   UNL A   1      38.947  33.193  37.267  1.00  0.00    -0.206 F 
ATOM     63  C   UNL A   1      39.722  35.272  38.032  1.00  0.00     0.040 A 
ATOM     64  C   UNL A   1      41.256  36.555  36.691  1.00  0.00     0.040 A 
ATOM     65  F   UNL A   1      41.953  35.745  34.602  1.00  0.00    -0.206 F 
ATOM     66  C   UNL A   1      40.499  36.414  37.853  1.00  0.00     0.006 A 
ENDBRANCH  45  59
BRANCH  46  67
ATOM     67  C   UNL A   1      40.281  27.667  28.494  1.00  0.00     0.057 A 
ATOM     68  C   UNL A   1      39.609  26.446  28.631  1.00  0.00     0.134 A 
ATOM     69  C   UNL A   1      40.953  27.902  27.290  1.00  0.00     0.134 A 
ATOM     70  F   UNL A   1      38.962  26.157  29.770  1.00  0.00    -0.206 F 
ATOM     71  C   UNL A   1      39.621  25.487  27.618  1.00  0.00     0.040 A 
ATOM     72  C   UNL A   1      40.955  26.961  26.258  1.00  0.00     0.040 A 
ATOM     73  F   UNL A   1      41.609  29.055  27.094  1.00  0.00    -0.206 F 
ATOM     74  C   UNL A   1      40.294  25.745  26.425  1.00  0.00     0.006 A 
ENDBRANCH  46  67
BRANCH  58  75
ATOM     75  C   UNL A   1      44.250  28.520  34.145  1.00  0.00     0.057 A 
ATOM     76  C   UNL A   1      45.578  28.851  33.847  1.00  0.00     0.134 A 
ATOM     77  C   UNL A   1      44.028  27.447  35.016  1.00  0.00     0.134 A 
ATOM     78  F   UNL A   1      45.856  29.861  33.008  1.00  0.00    -0.206 F 
ATOM     79  C   UNL A   1      46.645  28.128  34.384  1.00  0.00     0.040 A 
ATOM     80  C   UNL A   1      45.086  26.733  35.578  1.00  0.00     0.040 A 
ATOM     81  F   UNL A   1      42.779  27.086  35.348  1.00  0.00    -0.206 F 
ATOM     82  C   UNL A   1      46.400  27.070  35.257  1.00  0.00     0.006 A 
ENDBRANCH  58  75
ENDBRANCH  32  33
ENDBRANCH  24  27
ENDBRANCH  22  23
ENDBRANCH  21  22
ENDBRANCH   1  21
TORSDOF 13
ENDMDL
MODEL 2
REMARK VINA RESULT:     -10.9      3.534      4.975
REMARK SMILES C[C@H]([NH2+][C@@H]1CCOC2(CCC2)C1)C(=O)NCCCCNC(=O)c1ccc(-c2c3nc(c(-c4c(F)cccc4F)c4ccc([nH]4)c(-c4c(F)cccc4F)c4nc(c(-c5c(F)cccc5F)c5ccc2[nH]5)C=C4)C=C3)cc1
REMARK SMILES IDX 17 1 16 2 15 3 13 4 14 5 2 7 1 8 3 9 4 12 5 13 12 14 6 15
REMARK SMILES IDX 8 16 7 17 9 18 11 19 10 20 18 21 19 22 20 23 21 24 22 26
REMARK SMILES IDX 23 27 24 28 76 29 25 30 75 31 26 32 27 33 28 34 69 35 29 36
REMARK SMILES IDX 74 37 68 38 70 39 30 40 73 41 67 42 66 43 31 45 57 46 40 47
REMARK SMILES IDX 56 48 41 49 44 50 55 51 71 52 42 53 43 54 54 56 72 57 45 58
REMARK SMILES IDX 32 59 33 60 38 61 34 62 35 63 37 64 39 65 36 66 58 67 59 68
REMARK SMILES IDX 64 69 60 70 61 71 63 72 65 73 62 74 46 75 47 76 52 77 48 78
REMARK SMILES IDX 49 79 51 80 53 81 50 82
REMARK H PARENT 15 6 3 10 3 11 20 25 70 44 44 55
REMARK Flexibility Score: inf
ROOT
ATOM      1  C   UNL A   1      31.568  28.111  26.055  1.00  0.00     0.023 C 
ENDROOT
BRANCH   1   2
ATOM      2  C   UNL A   1      30.890  26.862  25.503  1.00  0.00     0.116 C 
BRANCH   2   3
ATOM      3  N   UNL A   1      30.946  25.779  26.456  1.00  0.00    -0.351 N 
ATOM      4  C   UNL A   1      31.165  24.455  26.250  1.00  0.00     0.277 C 
ATOM      5  O   UNL A   1      31.023  23.700  27.217  1.00  0.00    -0.268 OA
ATOM      6  H   UNL A   1      30.805  26.039  27.394  1.00  0.00     0.163 HD
BRANCH   4   7
ATOM      7  C   UNL A   1      31.573  23.916  24.867  1.00  0.00     0.269 C 
ATOM      8  C   UNL A   1      30.624  24.323  23.744  1.00  0.00     0.086 C 
BRANCH   7   9
ATOM      9  N   UNL A   1      31.890  22.490  24.970  1.00  0.00    -0.334 N 
ATOM     10  H   UNL A   1      31.003  21.988  25.003  1.00  0.00     0.347 HD
ATOM     11  H   UNL A   1      32.478  22.430  25.801  1.00  0.00     0.347 HD
BRANCH   9  12
ATOM     12  C   UNL A   1      32.700  21.865  23.917  1.00  0.00     0.188 C 
ATOM     13  C   UNL A   1      33.099  20.469  24.426  1.00  0.00     0.093 C 
ATOM     14  C   UNL A   1      33.947  22.587  23.362  1.00  0.00     0.100 C 
ATOM     15  C   UNL A   1      34.249  20.579  25.416  1.00  0.00     0.167 C 
ATOM     16  C   UNL A   1      35.176  22.525  24.278  1.00  0.00     0.074 C 
ATOM     17  O   UNL A   1      35.368  21.167  24.756  1.00  0.00    -0.375 OA
ATOM     18  C   UNL A   1      36.434  23.104  23.548  1.00  0.00     0.036 C 
ATOM     19  C   UNL A   1      35.439  23.654  25.337  1.00  0.00     0.036 C 
ATOM     20  C   UNL A   1      36.911  23.644  24.908  1.00  0.00     0.006 C 
ENDBRANCH   9  12
ENDBRANCH   7   9
ENDBRANCH   4   7
ENDBRANCH   2   3
ENDBRANCH   1   2
BRANCH   1  21
ATOM     21  C   UNL A   1      32.481  27.858  27.258  1.00  0.00     0.023 C 
BRANCH  21  22
ATOM     22  C   UNL A   1      33.814  28.595  27.225  1.00  0.00     0.116 C 
BRANCH  22  23
ATOM     23  N   UNL A   1      33.731  29.946  27.754  1.00  0.00    -0.352 N 
ATOM     24  C   UNL A   1      34.708  30.681  28.380  1.00  0.00     0.251 C 
ATOM     25  H   UNL A   1      32.860  30.394  27.650  1.00  0.00     0.163 HD
ATOM     26  O   UNL A   1      34.462  31.784  28.842  1.00  0.00    -0.269 OA
BRANCH  24  27
ATOM     27  C   UNL A   1      36.051  30.089  28.522  1.00  0.00     0.039 A 
ATOM     28  C   UNL A   1      36.938  30.191  27.449  1.00  0.00     0.014 A 
ATOM     29  C   UNL A   1      36.442  29.498  29.726  1.00  0.00     0.014 A 
ATOM     30  C   UNL A   1      38.250  29.748  27.605  1.00  0.00     0.010 A 
ATOM     31  C   UNL A   1      37.768  29.119  29.900  1.00  0.00     0.010 A 
ATOM     32  C   UNL A   1      38.682  29.240  28.842  1.00  0.00    -0.014 A 
BRANCH  32  33
ATOM     33  C   UNL A   1      40.090  28.827  29.043  1.00  0.00     0.031 A 
ATOM     34  C   UNL A   1      41.067  29.781  29.669  1.00  0.00     0.074 A 
ATOM     35  C   UNL A   1      40.497  27.619  28.610  1.00  0.00     0.049 A 
ATOM     36  N   UNL A   1      42.348  29.630  29.880  1.00  0.00    -0.248 NA
ATOM     37  C   UNL A   1      40.538  31.090  30.085  1.00  0.00     0.031 C 
ATOM     38  C   UNL A   1      39.650  26.627  27.943  1.00  0.00     0.029 A 
ATOM     39  N   UNL A   1      41.731  27.022  28.659  1.00  0.00    -0.354 N 
ATOM     40  C   UNL A   1      42.782  30.826  30.436  1.00  0.00     0.074 A 
ATOM     41  C   UNL A   1      41.638  31.711  30.484  1.00  0.00     0.031 C 
ATOM     42  C   UNL A   1      40.384  25.537  27.668  1.00  0.00     0.029 A 
ATOM     43  C   UNL A   1      41.757  25.764  28.109  1.00  0.00     0.049 A 
ATOM     44  H   UNL A   1      42.524  27.455  29.051  1.00  0.00     0.167 HD
ATOM     45  C   UNL A   1      44.016  31.148  30.888  1.00  0.00     0.037 A 
ATOM     46  C   UNL A   1      42.776  24.895  27.974  1.00  0.00     0.037 A 
ATOM     47  C   UNL A   1      45.141  30.252  30.869  1.00  0.00     0.049 A 
ATOM     48  C   UNL A   1      44.135  25.275  28.491  1.00  0.00     0.074 A 
ATOM     49  C   UNL A   1      46.415  30.457  31.366  1.00  0.00     0.029 A 
ATOM     50  N   UNL A   1      45.123  28.978  30.320  1.00  0.00    -0.354 N 
ATOM     51  N   UNL A   1      44.514  26.383  29.082  1.00  0.00    -0.248 NA
ATOM     52  C   UNL A   1      45.208  24.284  28.326  1.00  0.00     0.031 C 
ATOM     53  C   UNL A   1      47.181  29.321  31.084  1.00  0.00     0.029 A 
ATOM     54  C   UNL A   1      46.371  28.392  30.450  1.00  0.00     0.049 A 
ATOM     55  H   UNL A   1      44.341  28.553  29.902  1.00  0.00     0.167 HD
ATOM     56  C   UNL A   1      45.858  26.210  29.386  1.00  0.00     0.074 A 
ATOM     57  C   UNL A   1      46.224  24.888  28.924  1.00  0.00     0.031 C 
ATOM     58  C   UNL A   1      46.712  27.069  29.993  1.00  0.00     0.037 A 
BRANCH  45  59
ATOM     59  C   UNL A   1      44.209  32.527  31.447  1.00  0.00     0.057 A 
ATOM     60  C   UNL A   1      44.005  32.810  32.803  1.00  0.00     0.134 A 
ATOM     61  C   UNL A   1      44.630  33.579  30.624  1.00  0.00     0.134 A 
ATOM     62  F   UNL A   1      43.587  31.849  33.643  1.00  0.00    -0.206 F 
ATOM     63  C   UNL A   1      44.190  34.094  33.318  1.00  0.00     0.040 A 
ATOM     64  C   UNL A   1      44.843  34.862  31.131  1.00  0.00     0.040 A 
ATOM     65  F   UNL A   1      44.847  33.376  29.315  1.00  0.00    -0.206 F 
ATOM     66  C   UNL A   1      44.616  35.123  32.481  1.00  0.00     0.006 A 
ENDBRANCH  45  59
BRANCH  46  67
ATOM     67  C   UNL A   1      42.545  23.568  27.352  1.00  0.00     0.057 A 
ATOM     68  C   UNL A   1      42.161  22.466  28.127  1.00  0.00     0.134 A 
ATOM     69  C   UNL A   1      42.713  23.362  25.978  1.00  0.00     0.134 A 
ATOM     70  F   UNL A   1      42.001  22.598  29.451  1.00  0.00    -0.206 F 
ATOM     71  C   UNL A   1      41.970  21.205  27.561  1.00  0.00     0.040 A 
ATOM     72  C   UNL A   1      42.504  22.111  25.395  1.00  0.00     0.040 A 
ATOM     73  F   UNL A   1      43.074  24.378  25.180  1.00  0.00    -0.206 F 
ATOM     74  C   UNL A   1      42.139  21.026  26.189  1.00  0.00     0.006 A 
ENDBRANCH  46  67
BRANCH  58  75
ATOM     75  C   UNL A   1      48.114  26.591  30.224  1.00  0.00     0.057 A 
ATOM     76  C   UNL A   1      49.141  26.845  29.307  1.00  0.00     0.134 A 
ATOM     77  C   UNL A   1      48.447  25.904  31.399  1.00  0.00     0.134 A 
ATOM     78  F   UNL A   1      48.884  27.486  28.158  1.00  0.00    -0.206 F 
ATOM     79  C   UNL A   1      50.449  26.413  29.542  1.00  0.00     0.040 A 
ATOM     80  C   UNL A   1      49.754  25.490  31.656  1.00  0.00     0.040 A 
ATOM     81  F   UNL A   1      47.510  25.638  32.321  1.00  0.00    -0.206 F 
ATOM     82  C   UNL A   1      50.758  25.740  30.723  1.00  0.00     0.006 A 
ENDBRANCH  58  75
ENDBRANCH  32  33
ENDBRANCH  24  27
ENDBRANCH  22  23
ENDBRANCH  21  22
ENDBRANCH   1  21
TORSDOF 13
ENDMDL
MODEL 3
REMARK VINA RESULT:     -10.9      0.542      6.528
REMARK SMILES C[C@H]([NH2+][C@@H]1CCOC2(CCC2)C1)C(=O)NCCCCNC(=O)c1ccc(-c2c3nc(c(-c4c(F)cccc4F)c4ccc([nH]4)c(-c4c(F)cccc4F)c4nc(c(-c5c(F)cccc5F)c5ccc2[nH]5)C=C4)C=C3)cc1
REMARK SMILES IDX 17 1 16 2 15 3 13 4 14 5 2 7 1 8 3 9 4 12 5 13 12 14 6 15
REMARK SMILES IDX 8 16 7 17 9 18 11 19 10 20 18 21 19 22 20 23 21 24 22 26
REMARK SMILES IDX 23 27 24 28 76 29 25 30 75 31 26 32 27 33 28 34 69 35 29 36
REMARK SMILES IDX 74 37 68 38 70 39 30 40 73 41 67 42 66 43 31 45 57 46 40 47
REMARK SMILES IDX 56 48 41 49 44 50 55 51 71 52 42 53 43 54 54 56 72 57 45 58
REMARK SMILES IDX 32 59 33 60 38 61 34 62 35 63 37 64 39 65 36 66 58 67 59 68
REMARK SMILES IDX 64 69 60 70 61 71 63 72 65 73 62 74 46 75 47 76 52 77 48 78
REMARK SMILES IDX 49 79 51 80 53 81 50 82
REMARK H PARENT 15 6 3 10 3 11 20 25 70 44 44 55
REMARK Flexibility Score: inf
ROOT
ATOM      1  C   UNL A   1      31.967  30.451  26.175  1.00  0.00     0.023 C 
ENDROOT
BRANCH   1   2
ATOM      2  C   UNL A   1      32.542  29.542  27.255  1.00  0.00     0.116 C 
BRANCH   2   3
ATOM      3  N   UNL A   1      31.774  28.325  27.371  1.00  0.00    -0.351 N 
ATOM      4  C   UNL A   1      31.896  27.155  26.694  1.00  0.00     0.277 C 
ATOM      5  O   UNL A   1      31.021  26.302  26.874  1.00  0.00    -0.268 OA
ATOM      6  H   UNL A   1      31.054  28.348  28.042  1.00  0.00     0.163 HD
BRANCH   4   7
ATOM      7  C   UNL A   1      33.077  26.902  25.739  1.00  0.00     0.269 C 
ATOM      8  C   UNL A   1      32.754  27.183  24.275  1.00  0.00     0.086 C 
BRANCH   7   9
ATOM      9  N   UNL A   1      33.680  25.602  26.038  1.00  0.00    -0.334 N 
ATOM     10  H   UNL A   1      33.259  25.270  26.906  1.00  0.00     0.347 HD
ATOM     11  H   UNL A   1      34.681  25.797  26.062  1.00  0.00     0.347 HD
BRANCH   9  12
ATOM     12  C   UNL A   1      33.553  24.518  25.057  1.00  0.00     0.188 C 
ATOM     13  C   UNL A   1      32.903  23.328  25.783  1.00  0.00     0.093 C 
ATOM     14  C   UNL A   1      34.790  24.029  24.272  1.00  0.00     0.100 C 
ATOM     15  C   UNL A   1      33.935  22.602  26.634  1.00  0.00     0.167 C 
ATOM     16  C   UNL A   1      35.735  23.126  25.076  1.00  0.00     0.074 C 
ATOM     17  O   UNL A   1      34.969  22.114  25.782  1.00  0.00    -0.375 OA
ATOM     18  C   UNL A   1      36.841  22.525  24.146  1.00  0.00     0.036 C 
ATOM     19  C   UNL A   1      36.936  23.743  25.878  1.00  0.00     0.036 C 
ATOM     20  C   UNL A   1      37.814  22.610  25.335  1.00  0.00     0.006 C 
ENDBRANCH   9  12
ENDBRANCH   7   9
ENDBRANCH   4   7
ENDBRANCH   2   3
ENDBRANCH   1   2
BRANCH   1  21
ATOM     21  C   UNL A   1      31.591  31.853  26.661  1.00  0.00     0.023 C 
BRANCH  21  22
ATOM     22  C   UNL A   1      32.735  32.655  27.270  1.00  0.00     0.116 C 
BRANCH  22  23
ATOM     23  N   UNL A   1      32.368  34.028  27.576  1.00  0.00    -0.352 N 
ATOM     24  C   UNL A   1      32.963  34.895  28.461  1.00  0.00     0.251 C 
ATOM     25  H   UNL A   1      31.592  34.383  27.086  1.00  0.00     0.163 HD
ATOM     26  O   UNL A   1      32.489  36.000  28.667  1.00  0.00    -0.269 OA
BRANCH  24  27
ATOM     27  C   UNL A   1      34.162  34.442  29.190  1.00  0.00     0.039 A 
ATOM     28  C   UNL A   1      33.989  33.783  30.408  1.00  0.00     0.014 A 
ATOM     29  C   UNL A   1      35.434  34.614  28.639  1.00  0.00     0.014 A 
ATOM     30  C   UNL A   1      35.098  33.239  31.052  1.00  0.00     0.010 A 
ATOM     31  C   UNL A   1      36.528  34.013  29.250  1.00  0.00     0.010 A 
ATOM     32  C   UNL A   1      36.370  33.322  30.461  1.00  0.00    -0.014 A 
BRANCH  32  33
ATOM     33  C   UNL A   1      37.548  32.692  31.102  1.00  0.00     0.031 A 
ATOM     34  C   UNL A   1      38.182  31.484  30.474  1.00  0.00     0.074 A 
ATOM     35  C   UNL A   1      38.004  33.173  32.273  1.00  0.00     0.049 A 
ATOM     36  N   UNL A   1      39.181  30.758  30.905  1.00  0.00    -0.248 NA
ATOM     37  C   UNL A   1      37.597  31.012  29.208  1.00  0.00     0.031 C 
ATOM     38  C   UNL A   1      37.438  34.310  33.002  1.00  0.00     0.029 A 
ATOM     39  N   UNL A   1      39.047  32.759  33.062  1.00  0.00    -0.354 N 
ATOM     40  C   UNL A   1      39.333  29.737  29.976  1.00  0.00     0.074 A 
ATOM     41  C   UNL A   1      38.293  29.907  28.985  1.00  0.00     0.031 C 
ATOM     42  C   UNL A   1      38.155  34.518  34.117  1.00  0.00     0.029 A 
ATOM     43  C   UNL A   1      39.209  33.511  34.200  1.00  0.00     0.049 A 
ATOM     44  H   UNL A   1      39.624  31.995  32.835  1.00  0.00     0.167 HD
ATOM     45  C   UNL A   1      40.269  28.761  29.942  1.00  0.00     0.037 A 
ATOM     46  C   UNL A   1      40.107  33.398  35.196  1.00  0.00     0.037 A 
ATOM     47  C   UNL A   1      41.321  28.618  30.912  1.00  0.00     0.049 A 
ATOM     48  C   UNL A   1      41.141  32.308  35.129  1.00  0.00     0.074 A 
ATOM     49  C   UNL A   1      42.361  27.706  30.929  1.00  0.00     0.029 A 
ATOM     50  N   UNL A   1      41.465  29.412  32.041  1.00  0.00    -0.354 N 
ATOM     51  N   UNL A   1      41.319  31.394  34.206  1.00  0.00    -0.248 NA
ATOM     52  C   UNL A   1      42.102  32.238  36.239  1.00  0.00     0.031 C 
ATOM     53  C   UNL A   1      43.113  27.922  32.088  1.00  0.00     0.029 A 
ATOM     54  C   UNL A   1      42.566  28.997  32.771  1.00  0.00     0.049 A 
ATOM     55  H   UNL A   1      40.872  30.158  32.286  1.00  0.00     0.167 HD
ATOM     56  C   UNL A   1      42.427  30.660  34.608  1.00  0.00     0.074 A 
ATOM     57  C   UNL A   1      42.886  31.243  35.851  1.00  0.00     0.031 C 
ATOM     58  C   UNL A   1      43.012  29.598  34.002  1.00  0.00     0.037 A 
BRANCH  45  59
ATOM     59  C   UNL A   1      40.199  27.776  28.812  1.00  0.00     0.057 A 
ATOM     60  C   UNL A   1      40.861  27.998  27.597  1.00  0.00     0.134 A 
ATOM     61  C   UNL A   1      39.484  26.580  28.950  1.00  0.00     0.134 A 
ATOM     62  F   UNL A   1      41.552  29.131  27.395  1.00  0.00    -0.206 F 
ATOM     63  C   UNL A   1      40.795  27.076  26.551  1.00  0.00     0.040 A 
ATOM     64  C   UNL A   1      39.431  25.639  27.920  1.00  0.00     0.040 A 
ATOM     65  F   UNL A   1      38.829  26.305  30.088  1.00  0.00    -0.206 F 
ATOM     66  C   UNL A   1      40.083  25.890  26.714  1.00  0.00     0.006 A 
ENDBRANCH  45  59
BRANCH  46  67
ATOM     67  C   UNL A   1      40.090  34.358  36.327  1.00  0.00     0.057 A 
ATOM     68  C   UNL A   1      40.829  35.548  36.272  1.00  0.00     0.134 A 
ATOM     69  C   UNL A   1      39.351  34.111  37.489  1.00  0.00     0.134 A 
ATOM     70  F   UNL A   1      41.570  35.831  35.191  1.00  0.00    -0.206 F 
ATOM     71  C   UNL A   1      40.848  36.446  37.339  1.00  0.00     0.040 A 
ATOM     72  C   UNL A   1      39.343  35.013  38.556  1.00  0.00     0.040 A 
ATOM     73  F   UNL A   1      38.618  32.994  37.600  1.00  0.00    -0.206 F 
ATOM     74  C   UNL A   1      40.100  36.181  38.485  1.00  0.00     0.006 A 
ENDBRANCH  46  67
BRANCH  58  75
ATOM     75  C   UNL A   1      44.233  29.024  34.656  1.00  0.00     0.057 A 
ATOM     76  C   UNL A   1      44.151  27.972  35.577  1.00  0.00     0.134 A 
ATOM     77  C   UNL A   1      45.507  29.504  34.329  1.00  0.00     0.134 A 
ATOM     78  F   UNL A   1      42.958  27.478  35.941  1.00  0.00    -0.206 F 
ATOM     79  C   UNL A   1      45.296  27.430  36.165  1.00  0.00     0.040 A 
ATOM     80  C   UNL A   1      46.660  28.953  34.891  1.00  0.00     0.040 A 
ATOM     81  F   UNL A   1      45.654  30.504  33.447  1.00  0.00    -0.206 F 
ATOM     82  C   UNL A   1      46.554  27.917  35.816  1.00  0.00     0.006 A 
ENDBRANCH  58  75
ENDBRANCH  32  33
ENDBRANCH  24  27
ENDBRANCH  22  23
ENDBRANCH  21  22
ENDBRANCH   1  21
TORSDOF 13
ENDMDL
