MODEL 1
REMARK VINA RESULT:     -12.3      0.000      0.000
REMARK SMILES COC(=O)c1ccc(Cl)c(-c2ccc(C(=O)NCCCCNC(=O)c3ccc(-c4c5nc(c(-c6c(F)cccc6F)c6ccc([nH]6)c(-c6c(F)cccc6F)c6nc(c(-c7c(F)cccc7F)c7ccc4[nH]7)C=C6)C=C5)cc3)c(F)c2)c1
REMARK SMILES IDX 19 1 18 2 17 3 15 4 16 5 14 7 11 8 12 9 81 10 13 11 79 12
REMARK SMILES IDX 80 13 10 14 5 15 6 16 82 17 7 18 8 19 9 20 3 21 4 22 2 23
REMARK SMILES IDX 1 24 20 25 21 26 22 27 23 28 24 30 25 31 26 32 78 33 27 34
REMARK SMILES IDX 77 35 28 36 29 37 30 38 71 39 31 40 76 41 70 42 72 43 32 44
REMARK SMILES IDX 75 45 69 46 68 47 33 49 59 50 42 51 58 52 43 53 46 54 57 55
REMARK SMILES IDX 73 56 44 57 45 58 56 60 74 61 47 62 34 63 35 64 40 65 36 66
REMARK SMILES IDX 37 67 39 68 41 69 38 70 60 71 61 72 66 73 62 74 63 75 65 76
REMARK SMILES IDX 67 77 64 78 48 79 49 80 54 81 50 82 51 83 53 84 55 85 52 86
REMARK H PARENT 17 6 22 29 72 48 46 59
REMARK Flexibility Score: inf
ROOT
ATOM      1  C   UNL A   1      37.066  21.509  24.503  1.00  0.00     0.023 C 
ENDROOT
BRANCH   1   2
ATOM      2  C   UNL A   1      35.537  21.419  24.547  1.00  0.00     0.116 C 
BRANCH   2   3
ATOM      3  N   UNL A   1      35.074  21.277  25.911  1.00  0.00    -0.352 N 
ATOM      4  C   UNL A   1      34.355  22.100  26.737  1.00  0.00     0.254 C 
ATOM      5  O   UNL A   1      34.123  21.669  27.870  1.00  0.00    -0.269 OA
ATOM      6  H   UNL A   1      35.324  20.420  26.326  1.00  0.00     0.163 HD
BRANCH   4   7
ATOM      7  C   UNL A   1      33.793  23.429  26.361  1.00  0.00     0.075 A 
ATOM      8  C   UNL A   1      32.501  25.899  25.774  1.00  0.00    -0.014 A 
ATOM      9  C   UNL A   1      31.794  24.854  26.375  1.00  0.00     0.010 A 
ATOM     10  C   UNL A   1      33.855  25.698  25.489  1.00  0.00     0.048 A 
ATOM     11  C   UNL A   1      32.432  23.636  26.659  1.00  0.00     0.017 A 
ATOM     12  C   UNL A   1      34.489  24.498  25.803  1.00  0.00     0.136 A 
ATOM     13  F   UNL A   1      35.805  24.475  25.584  1.00  0.00    -0.206 F 
BRANCH   8  14
ATOM     14  C   UNL A   1      31.891  27.195  25.458  1.00  0.00     0.001 A 
ATOM     15  C   UNL A   1      30.478  28.493  23.940  1.00  0.00     0.060 A 
ATOM     16  C   UNL A   1      30.871  29.676  24.573  1.00  0.00     0.017 A 
ATOM     17  C   UNL A   1      30.970  27.263  24.395  1.00  0.00     0.026 A 
ATOM     18  C   UNL A   1      31.756  29.623  25.652  1.00  0.00     0.022 A 
ATOM     19  C   UNL A   1      32.268  28.395  26.088  1.00  0.00     0.048 A 
ATOM     20  Cl  UNL A   1      33.416  28.425  27.382  1.00  0.00    -0.084 Cl
BRANCH  15  21
ATOM     21  C   UNL A   1      29.574  28.485  22.762  1.00  0.00     0.337 C 
ATOM     22  O   UNL A   1      29.862  28.976  21.691  1.00  0.00    -0.246 OA
BRANCH  21  23
ATOM     23  O   UNL A   1      28.381  27.938  23.108  1.00  0.00    -0.465 OA
ATOM     24  C   UNL A   1      27.294  28.866  23.088  1.00  0.00     0.282 C 
ENDBRANCH  21  23
ENDBRANCH  15  21
ENDBRANCH   8  14
ENDBRANCH   4   7
ENDBRANCH   2   3
ENDBRANCH   1   2
BRANCH   1  25
ATOM     25  C   UNL A   1      37.794  20.254  24.983  1.00  0.00     0.023 C 
BRANCH  25  26
ATOM     26  C   UNL A   1      39.021  20.519  25.845  1.00  0.00     0.116 C 
BRANCH  26  27
ATOM     27  N   UNL A   1      40.006  19.448  25.802  1.00  0.00    -0.352 N 
ATOM     28  C   UNL A   1      41.344  19.513  26.110  1.00  0.00     0.251 C 
ATOM     29  H   UNL A   1      39.673  18.566  25.516  1.00  0.00     0.163 HD
ATOM     30  O   UNL A   1      42.078  18.548  25.938  1.00  0.00    -0.269 OA
BRANCH  28  31
ATOM     31  C   UNL A   1      41.893  20.789  26.610  1.00  0.00     0.039 A 
ATOM     32  C   UNL A   1      42.361  21.725  25.687  1.00  0.00     0.014 A 
ATOM     33  C   UNL A   1      41.879  21.079  27.976  1.00  0.00     0.014 A 
ATOM     34  C   UNL A   1      42.749  22.989  26.131  1.00  0.00     0.010 A 
ATOM     35  C   UNL A   1      42.196  22.363  28.408  1.00  0.00     0.010 A 
ATOM     36  C   UNL A   1      42.628  23.331  27.490  1.00  0.00    -0.014 A 
BRANCH  36  37
ATOM     37  C   UNL A   1      42.931  24.703  27.964  1.00  0.00     0.031 A 
ATOM     38  C   UNL A   1      44.347  25.099  28.272  1.00  0.00     0.074 A 
ATOM     39  C   UNL A   1      41.921  25.570  28.180  1.00  0.00     0.049 A 
ATOM     40  N   UNL A   1      44.799  26.227  28.757  1.00  0.00    -0.248 NA
ATOM     41  C   UNL A   1      45.390  24.089  28.029  1.00  0.00     0.031 C 
ATOM     42  C   UNL A   1      40.501  25.282  27.971  1.00  0.00     0.029 A 
ATOM     43  N   UNL A   1      41.934  26.865  28.633  1.00  0.00    -0.354 N 
ATOM     44  C   UNL A   1      46.171  26.058  28.888  1.00  0.00     0.074 A 
ATOM     45  C   UNL A   1      46.474  24.704  28.481  1.00  0.00     0.031 C 
ATOM     46  C   UNL A   1      39.782  26.375  28.272  1.00  0.00     0.029 A 
ATOM     47  C   UNL A   1      40.684  27.428  28.731  1.00  0.00     0.049 A 
ATOM     48  H   UNL A   1      42.760  27.346  28.867  1.00  0.00     0.167 HD
ATOM     49  C   UNL A   1      47.096  26.959  29.290  1.00  0.00     0.037 A 
ATOM     50  C   UNL A   1      40.304  28.651  29.149  1.00  0.00     0.037 A 
ATOM     51  C   UNL A   1      46.794  28.317  29.657  1.00  0.00     0.049 A 
ATOM     52  C   UNL A   1      41.354  29.636  29.583  1.00  0.00     0.074 A 
ATOM     53  C   UNL A   1      47.675  29.327  30.002  1.00  0.00     0.029 A 
ATOM     54  N   UNL A   1      45.518  28.854  29.725  1.00  0.00    -0.354 N 
ATOM     55  N   UNL A   1      42.655  29.484  29.634  1.00  0.00    -0.248 NA
ATOM     56  C   UNL A   1      40.887  30.962  30.014  1.00  0.00     0.031 C 
ATOM     57  C   UNL A   1      46.928  30.462  30.328  1.00  0.00     0.029 A 
ATOM     58  C   UNL A   1      45.586  30.176  30.132  1.00  0.00     0.049 A 
ATOM     59  H   UNL A   1      44.688  28.368  29.514  1.00  0.00     0.167 HD
ATOM     60  C   UNL A   1      43.164  30.697  30.080  1.00  0.00     0.074 A 
ATOM     61  C   UNL A   1      42.033  31.580  30.271  1.00  0.00     0.031 C 
ATOM     62  C   UNL A   1      44.452  31.044  30.312  1.00  0.00     0.037 A 
BRANCH  49  63
ATOM     63  C   UNL A   1      48.530  26.525  29.336  1.00  0.00     0.057 A 
ATOM     64  C   UNL A   1      49.061  25.935  30.491  1.00  0.00     0.134 A 
ATOM     65  C   UNL A   1      49.410  26.774  28.275  1.00  0.00     0.134 A 
ATOM     66  F   UNL A   1      48.273  25.674  31.546  1.00  0.00    -0.206 F 
ATOM     67  C   UNL A   1      50.417  25.626  30.595  1.00  0.00     0.040 A 
ATOM     68  C   UNL A   1      50.763  26.446  28.357  1.00  0.00     0.040 A 
ATOM     69  F   UNL A   1      48.962  27.327  27.137  1.00  0.00    -0.206 F 
ATOM     70  C   UNL A   1      51.273  25.881  29.524  1.00  0.00     0.006 A 
ENDBRANCH  49  63
BRANCH  50  71
ATOM     71  C   UNL A   1      38.865  29.015  29.157  1.00  0.00     0.057 A 
ATOM     72  C   UNL A   1      38.230  29.515  28.013  1.00  0.00     0.134 A 
ATOM     73  C   UNL A   1      38.093  28.886  30.317  1.00  0.00     0.134 A 
ATOM     74  F   UNL A   1      38.916  29.671  26.871  1.00  0.00    -0.206 F 
ATOM     75  C   UNL A   1      36.885  29.888  28.028  1.00  0.00     0.040 A 
ATOM     76  C   UNL A   1      36.740  29.230  30.339  1.00  0.00     0.040 A 
ATOM     77  F   UNL A   1      38.639  28.395  31.440  1.00  0.00    -0.206 F 
ATOM     78  C   UNL A   1      36.135  29.740  29.192  1.00  0.00     0.006 A 
ENDBRANCH  50  71
BRANCH  62  79
ATOM     79  C   UNL A   1      44.724  32.444  30.782  1.00  0.00     0.057 A 
ATOM     80  C   UNL A   1      44.686  32.757  32.147  1.00  0.00     0.134 A 
ATOM     81  C   UNL A   1      44.932  33.493  29.880  1.00  0.00     0.134 A 
ATOM     82  F   UNL A   1      44.479  31.798  33.061  1.00  0.00    -0.206 F 
ATOM     83  C   UNL A   1      44.826  34.071  32.597  1.00  0.00     0.040 A 
ATOM     84  C   UNL A   1      45.099  34.807  30.320  1.00  0.00     0.040 A 
ATOM     85  F   UNL A   1      44.988  33.256  28.561  1.00  0.00    -0.206 F 
ATOM     86  C   UNL A   1      45.034  35.100  31.681  1.00  0.00     0.006 A 
ENDBRANCH  62  79
ENDBRANCH  36  37
ENDBRANCH  28  31
ENDBRANCH  26  27
ENDBRANCH  25  26
ENDBRANCH   1  25
TORSDOF 14
ENDMDL
MODEL 2
REMARK VINA RESULT:     -12.3      3.808      9.156
REMARK SMILES COC(=O)c1ccc(Cl)c(-c2ccc(C(=O)NCCCCNC(=O)c3ccc(-c4c5nc(c(-c6c(F)cccc6F)c6ccc([nH]6)c(-c6c(F)cccc6F)c6nc(c(-c7c(F)cccc7F)c7ccc4[nH]7)C=C6)C=C5)cc3)c(F)c2)c1
REMARK SMILES IDX 19 1 18 2 17 3 15 4 16 5 14 7 11 8 12 9 81 10 13 11 79 12
REMARK SMILES IDX 80 13 10 14 5 15 6 16 82 17 7 18 8 19 9 20 3 21 4 22 2 23
REMARK SMILES IDX 1 24 20 25 21 26 22 27 23 28 24 30 25 31 26 32 78 33 27 34
REMARK SMILES IDX 77 35 28 36 29 37 30 38 71 39 31 40 76 41 70 42 72 43 32 44
REMARK SMILES IDX 75 45 69 46 68 47 33 49 59 50 42 51 58 52 43 53 46 54 57 55
REMARK SMILES IDX 73 56 44 57 45 58 56 60 74 61 47 62 34 63 35 64 40 65 36 66
REMARK SMILES IDX 37 67 39 68 41 69 38 70 60 71 61 72 66 73 62 74 63 75 65 76
REMARK SMILES IDX 67 77 64 78 48 79 49 80 54 81 50 82 51 83 53 84 55 85 52 86
REMARK H PARENT 17 6 22 29 72 48 46 59
REMARK Flexibility Score: inf
ROOT
ATOM      1  C   UNL A   1      31.832  29.853  26.725  1.00  0.00     0.023 C 
ENDROOT
BRANCH   1   2
ATOM      2  C   UNL A   1      31.431  29.056  25.480  1.00  0.00     0.116 C 
BRANCH   2   3
ATOM      3  N   UNL A   1      32.306  29.370  24.370  1.00  0.00    -0.352 N 
ATOM      4  C   UNL A   1      33.243  28.636  23.692  1.00  0.00     0.254 C 
ATOM      5  O   UNL A   1      33.831  29.215  22.774  1.00  0.00    -0.269 OA
ATOM      6  H   UNL A   1      32.208  30.291  24.037  1.00  0.00     0.163 HD
BRANCH   4   7
ATOM      7  C   UNL A   1      33.563  27.200  23.936  1.00  0.00     0.075 A 
ATOM      8  C   UNL A   1      34.181  24.427  24.140  1.00  0.00    -0.014 A 
ATOM      9  C   UNL A   1      33.874  24.996  22.901  1.00  0.00     0.010 A 
ATOM     10  C   UNL A   1      34.190  25.261  25.262  1.00  0.00     0.048 A 
ATOM     11  C   UNL A   1      33.565  26.361  22.804  1.00  0.00     0.017 A 
ATOM     12  C   UNL A   1      33.914  26.622  25.153  1.00  0.00     0.136 A 
ATOM     13  F   UNL A   1      34.067  27.326  26.276  1.00  0.00    -0.206 F 
BRANCH   8  14
ATOM     14  C   UNL A   1      34.516  23.008  24.304  1.00  0.00     0.001 A 
ATOM     15  C   UNL A   1      33.709  20.704  24.468  1.00  0.00     0.060 A 
ATOM     16  C   UNL A   1      34.977  20.281  24.876  1.00  0.00     0.017 A 
ATOM     17  C   UNL A   1      33.490  22.054  24.165  1.00  0.00     0.026 A 
ATOM     18  C   UNL A   1      36.015  21.208  24.986  1.00  0.00     0.022 A 
ATOM     19  C   UNL A   1      35.787  22.561  24.708  1.00  0.00     0.048 A 
ATOM     20  Cl  UNL A   1      37.109  23.655  24.939  1.00  0.00    -0.084 Cl
BRANCH  15  21
ATOM     21  C   UNL A   1      32.553  19.777  24.373  1.00  0.00     0.337 C 
ATOM     22  O   UNL A   1      32.091  19.181  25.324  1.00  0.00    -0.246 OA
BRANCH  21  23
ATOM     23  O   UNL A   1      32.181  19.644  23.075  1.00  0.00    -0.465 OA
ATOM     24  C   UNL A   1      32.352  18.323  22.557  1.00  0.00     0.282 C 
ENDBRANCH  21  23
ENDBRANCH  15  21
ENDBRANCH   8  14
ENDBRANCH   4   7
ENDBRANCH   2   3
ENDBRANCH   1   2
BRANCH   1  25
ATOM     25  C   UNL A   1      31.723  31.370  26.577  1.00  0.00     0.023 C 
BRANCH  25  26
ATOM     26  C   UNL A   1      32.867  32.157  27.202  1.00  0.00     0.116 C 
BRANCH  26  27
ATOM     27  N   UNL A   1      32.507  33.519  27.565  1.00  0.00    -0.352 N 
ATOM     28  C   UNL A   1      33.166  34.372  28.419  1.00  0.00     0.251 C 
ATOM     29  H   UNL A   1      31.689  33.876  27.148  1.00  0.00     0.163 HD
ATOM     30  O   UNL A   1      32.695  35.466  28.705  1.00  0.00    -0.269 OA
BRANCH  28  31
ATOM     31  C   UNL A   1      34.435  33.924  29.024  1.00  0.00     0.039 A 
ATOM     32  C   UNL A   1      34.388  33.136  30.175  1.00  0.00     0.014 A 
ATOM     33  C   UNL A   1      35.656  34.227  28.417  1.00  0.00     0.014 A 
ATOM     34  C   UNL A   1      35.568  32.587  30.677  1.00  0.00     0.010 A 
ATOM     35  C   UNL A   1      36.820  33.619  28.875  1.00  0.00     0.010 A 
ATOM     36  C   UNL A   1      36.786  32.789  30.005  1.00  0.00    -0.014 A 
BRANCH  36  37
ATOM     37  C   UNL A   1      38.032  32.124  30.460  1.00  0.00     0.031 A 
ATOM     38  C   UNL A   1      38.874  32.753  31.533  1.00  0.00     0.074 A 
ATOM     39  C   UNL A   1      38.435  30.987  29.859  1.00  0.00     0.049 A 
ATOM     40  N   UNL A   1      40.024  32.357  32.015  1.00  0.00    -0.248 NA
ATOM     41  C   UNL A   1      38.374  34.005  32.124  1.00  0.00     0.031 C 
ATOM     42  C   UNL A   1      37.731  30.311  28.768  1.00  0.00     0.029 A 
ATOM     43  N   UNL A   1      39.543  30.205  30.074  1.00  0.00    -0.354 N 
ATOM     44  C   UNL A   1      40.389  33.314  32.952  1.00  0.00     0.074 A 
ATOM     45  C   UNL A   1      39.367  34.336  32.938  1.00  0.00     0.031 C 
ATOM     46  C   UNL A   1      38.409  29.204  28.426  1.00  0.00     0.029 A 
ATOM     47  C   UNL A   1      39.615  29.111  29.244  1.00  0.00     0.049 A 
ATOM     48  H   UNL A   1      40.221  30.407  30.757  1.00  0.00     0.167 HD
ATOM     49  C   UNL A   1      41.469  33.325  33.767  1.00  0.00     0.037 A 
ATOM     50  C   UNL A   1      40.549  28.146  29.148  1.00  0.00     0.037 A 
ATOM     51  C   UNL A   1      42.463  32.286  33.804  1.00  0.00     0.049 A 
ATOM     52  C   UNL A   1      41.735  28.178  30.072  1.00  0.00     0.074 A 
ATOM     53  C   UNL A   1      43.551  32.171  34.652  1.00  0.00     0.029 A 
ATOM     54  N   UNL A   1      42.491  31.186  32.961  1.00  0.00    -0.354 N 
ATOM     55  N   UNL A   1      42.030  29.052  31.003  1.00  0.00    -0.248 NA
ATOM     56  C   UNL A   1      42.716  27.091  29.936  1.00  0.00     0.031 C 
ATOM     57  C   UNL A   1      44.265  31.027  34.289  1.00  0.00     0.029 A 
ATOM     58  C   UNL A   1      43.593  30.400  33.252  1.00  0.00     0.049 A 
ATOM     59  H   UNL A   1      41.826  30.992  32.262  1.00  0.00     0.167 HD
ATOM     60  C   UNL A   1      43.215  28.612  31.578  1.00  0.00     0.074 A 
ATOM     61  C   UNL A   1      43.578  27.384  30.902  1.00  0.00     0.031 C 
ATOM     62  C   UNL A   1      43.938  29.177  32.574  1.00  0.00     0.037 A 
BRANCH  49  63
ATOM     63  C   UNL A   1      41.631  34.482  34.707  1.00  0.00     0.057 A 
ATOM     64  C   UNL A   1      41.042  34.457  35.978  1.00  0.00     0.134 A 
ATOM     65  C   UNL A   1      42.290  35.657  34.323  1.00  0.00     0.134 A 
ATOM     66  F   UNL A   1      40.392  33.364  36.406  1.00  0.00    -0.206 F 
ATOM     67  C   UNL A   1      41.086  35.566  36.824  1.00  0.00     0.040 A 
ATOM     68  C   UNL A   1      42.362  36.763  35.169  1.00  0.00     0.040 A 
ATOM     69  F   UNL A   1      42.884  35.741  33.122  1.00  0.00    -0.206 F 
ATOM     70  C   UNL A   1      41.749  36.723  36.419  1.00  0.00     0.006 A 
ENDBRANCH  49  63
BRANCH  50  71
ATOM     71  C   UNL A   1      40.386  27.058  28.151  1.00  0.00     0.057 A 
ATOM     72  C   UNL A   1      39.611  25.924  28.424  1.00  0.00     0.134 A 
ATOM     73  C   UNL A   1      41.019  27.119  26.904  1.00  0.00     0.134 A 
ATOM     74  F   UNL A   1      38.986  25.800  29.605  1.00  0.00    -0.206 F 
ATOM     75  C   UNL A   1      39.482  24.886  27.501  1.00  0.00     0.040 A 
ATOM     76  C   UNL A   1      40.878  26.101  25.960  1.00  0.00     0.040 A 
ATOM     77  F   UNL A   1      41.760  28.187  26.575  1.00  0.00    -0.206 F 
ATOM     78  C   UNL A   1      40.113  24.975  26.262  1.00  0.00     0.006 A 
ENDBRANCH  50  71
BRANCH  62  79
ATOM     79  C   UNL A   1      45.187  28.473  33.017  1.00  0.00     0.057 A 
ATOM     80  C   UNL A   1      46.415  28.745  32.400  1.00  0.00     0.134 A 
ATOM     81  C   UNL A   1      45.157  27.464  33.987  1.00  0.00     0.134 A 
ATOM     82  F   UNL A   1      46.508  29.691  31.455  1.00  0.00    -0.206 F 
ATOM     83  C   UNL A   1      47.566  28.024  32.720  1.00  0.00     0.040 A 
ATOM     84  C   UNL A   1      46.306  26.753  34.333  1.00  0.00     0.040 A 
ATOM     85  F   UNL A   1      44.013  27.163  34.620  1.00  0.00    -0.206 F 
ATOM     86  C   UNL A   1      47.513  27.024  33.690  1.00  0.00     0.006 A 
ENDBRANCH  62  79
ENDBRANCH  36  37
ENDBRANCH  28  31
ENDBRANCH  26  27
ENDBRANCH  25  26
ENDBRANCH   1  25
TORSDOF 14
ENDMDL
MODEL 3
REMARK VINA RESULT:     -12.2      4.035      9.091
REMARK SMILES COC(=O)c1ccc(Cl)c(-c2ccc(C(=O)NCCCCNC(=O)c3ccc(-c4c5nc(c(-c6c(F)cccc6F)c6ccc([nH]6)c(-c6c(F)cccc6F)c6nc(c(-c7c(F)cccc7F)c7ccc4[nH]7)C=C6)C=C5)cc3)c(F)c2)c1
REMARK SMILES IDX 19 1 18 2 17 3 15 4 16 5 14 7 11 8 12 9 81 10 13 11 79 12
REMARK SMILES IDX 80 13 10 14 5 15 6 16 82 17 7 18 8 19 9 20 3 21 4 22 2 23
REMARK SMILES IDX 1 24 20 25 21 26 22 27 23 28 24 30 25 31 26 32 78 33 27 34
REMARK SMILES IDX 77 35 28 36 29 37 30 38 71 39 31 40 76 41 70 42 72 43 32 44
REMARK SMILES IDX 75 45 69 46 68 47 33 49 59 50 42 51 58 52 43 53 46 54 57 55
REMARK SMILES IDX 73 56 44 57 45 58 56 60 74 61 47 62 34 63 35 64 40 65 36 66
REMARK SMILES IDX 37 67 39 68 41 69 38 70 60 71 61 72 66 73 62 74 63 75 65 76
REMARK SMILES IDX 67 77 64 78 48 79 49 80 54 81 50 82 51 83 53 84 55 85 52 86
REMARK H PARENT 17 6 22 29 72 48 46 59
REMARK Flexibility Score: inf
ROOT
ATOM      1  C   UNL A   1      31.864  29.739  26.816  1.00  0.00     0.023 C 
ENDROOT
BRANCH   1   2
ATOM      2  C   UNL A   1      31.515  28.853  25.616  1.00  0.00     0.116 C 
BRANCH   2   3
ATOM      3  N   UNL A   1      32.372  29.159  24.490  1.00  0.00    -0.352 N 
ATOM      4  C   UNL A   1      33.296  28.419  23.800  1.00  0.00     0.254 C 
ATOM      5  O   UNL A   1      33.869  28.992  22.869  1.00  0.00    -0.269 OA
ATOM      6  H   UNL A   1      32.270  30.078  24.154  1.00  0.00     0.163 HD
BRANCH   4   7
ATOM      7  C   UNL A   1      33.617  26.984  24.047  1.00  0.00     0.075 A 
ATOM      8  C   UNL A   1      34.245  24.214  24.256  1.00  0.00    -0.014 A 
ATOM      9  C   UNL A   1      33.970  24.786  23.012  1.00  0.00     0.010 A 
ATOM     10  C   UNL A   1      34.217  25.042  25.382  1.00  0.00     0.048 A 
ATOM     11  C   UNL A   1      33.656  26.151  22.912  1.00  0.00     0.017 A 
ATOM     12  C   UNL A   1      33.937  26.403  25.271  1.00  0.00     0.136 A 
ATOM     13  F   UNL A   1      34.054  27.102  26.401  1.00  0.00    -0.206 F 
BRANCH   8  14
ATOM     14  C   UNL A   1      34.583  22.796  24.423  1.00  0.00     0.001 A 
ATOM     15  C   UNL A   1      33.783  20.489  24.577  1.00  0.00     0.060 A 
ATOM     16  C   UNL A   1      35.048  20.071  24.999  1.00  0.00     0.017 A 
ATOM     17  C   UNL A   1      33.562  21.838  24.272  1.00  0.00     0.026 A 
ATOM     18  C   UNL A   1      36.081  21.001  25.121  1.00  0.00     0.022 A 
ATOM     19  C   UNL A   1      35.851  22.354  24.842  1.00  0.00     0.048 A 
ATOM     20  Cl  UNL A   1      37.166  23.452  25.088  1.00  0.00    -0.084 Cl
BRANCH  15  21
ATOM     21  C   UNL A   1      32.631  19.557  24.468  1.00  0.00     0.337 C 
ATOM     22  O   UNL A   1      32.154  18.967  25.415  1.00  0.00    -0.246 OA
BRANCH  21  23
ATOM     23  O   UNL A   1      32.283  19.414  23.165  1.00  0.00    -0.465 OA
ATOM     24  C   UNL A   1      32.526  18.106  22.642  1.00  0.00     0.282 C 
ENDBRANCH  21  23
ENDBRANCH  15  21
ENDBRANCH   8  14
ENDBRANCH   4   7
ENDBRANCH   2   3
ENDBRANCH   1   2
BRANCH   1  25
ATOM     25  C   UNL A   1      31.777  31.241  26.549  1.00  0.00     0.023 C 
BRANCH  25  26
ATOM     26  C   UNL A   1      32.859  32.074  27.223  1.00  0.00     0.116 C 
BRANCH  26  27
ATOM     27  N   UNL A   1      32.443  33.435  27.527  1.00  0.00    -0.352 N 
ATOM     28  C   UNL A   1      33.044  34.336  28.373  1.00  0.00     0.251 C 
ATOM     29  H   UNL A   1      31.629  33.750  27.071  1.00  0.00     0.163 HD
ATOM     30  O   UNL A   1      32.528  35.422  28.606  1.00  0.00    -0.269 OA
BRANCH  28  31
ATOM     31  C   UNL A   1      34.305  33.951  29.037  1.00  0.00     0.039 A 
ATOM     32  C   UNL A   1      34.243  33.182  30.200  1.00  0.00     0.014 A 
ATOM     33  C   UNL A   1      35.536  34.292  28.472  1.00  0.00     0.014 A 
ATOM     34  C   UNL A   1      35.423  32.690  30.758  1.00  0.00     0.010 A 
ATOM     35  C   UNL A   1      36.704  33.740  28.987  1.00  0.00     0.010 A 
ATOM     36  C   UNL A   1      36.658  32.929  30.131  1.00  0.00    -0.014 A 
BRANCH  36  37
ATOM     37  C   UNL A   1      37.909  32.324  30.647  1.00  0.00     0.031 A 
ATOM     38  C   UNL A   1      38.452  31.068  30.027  1.00  0.00     0.074 A 
ATOM     39  C   UNL A   1      38.519  32.871  31.718  1.00  0.00     0.049 A 
ATOM     40  N   UNL A   1      39.492  30.357  30.381  1.00  0.00    -0.248 NA
ATOM     41  C   UNL A   1      37.716  30.521  28.876  1.00  0.00     0.031 C 
ATOM     42  C   UNL A   1      38.057  34.058  32.440  1.00  0.00     0.029 A 
ATOM     43  N   UNL A   1      39.654  32.494  32.391  1.00  0.00    -0.354 N 
ATOM     44  C   UNL A   1      39.527  29.279  29.508  1.00  0.00     0.074 A 
ATOM     45  C   UNL A   1      38.377  29.398  28.638  1.00  0.00     0.031 C 
ATOM     46  C   UNL A   1      38.912  34.326  33.439  1.00  0.00     0.029 A 
ATOM     47  C   UNL A   1      39.962  33.310  33.454  1.00  0.00     0.049 A 
ATOM     48  H   UNL A   1      40.197  31.714  32.138  1.00  0.00     0.167 HD
ATOM     49  C   UNL A   1      40.449  28.293  29.425  1.00  0.00     0.037 A 
ATOM     50  C   UNL A   1      40.970  33.245  34.345  1.00  0.00     0.037 A 
ATOM     51  C   UNL A   1      41.611  28.201  30.266  1.00  0.00     0.049 A 
ATOM     52  C   UNL A   1      41.985  32.143  34.223  1.00  0.00     0.074 A 
ATOM     53  C   UNL A   1      42.643  27.281  30.205  1.00  0.00     0.029 A 
ATOM     54  N   UNL A   1      41.897  29.057  31.319  1.00  0.00    -0.354 N 
ATOM     55  N   UNL A   1      42.045  31.170  33.347  1.00  0.00    -0.248 NA
ATOM     56  C   UNL A   1      43.075  32.128  35.211  1.00  0.00     0.031 C 
ATOM     57  C   UNL A   1      43.528  27.550  31.252  1.00  0.00     0.029 A 
ATOM     58  C   UNL A   1      43.077  28.670  31.931  1.00  0.00     0.049 A 
ATOM     59  H   UNL A   1      41.343  29.826  31.589  1.00  0.00     0.167 HD
ATOM     60  C   UNL A   1      43.185  30.442  33.661  1.00  0.00     0.074 A 
ATOM     61  C   UNL A   1      43.797  31.094  34.800  1.00  0.00     0.031 C 
ATOM     62  C   UNL A   1      43.677  29.332  33.061  1.00  0.00     0.037 A 
BRANCH  49  63
ATOM     63  C   UNL A   1      40.261  27.239  28.375  1.00  0.00     0.057 A 
ATOM     64  C   UNL A   1      39.522  26.080  28.650  1.00  0.00     0.134 A 
ATOM     65  C   UNL A   1      40.886  27.325  27.124  1.00  0.00     0.134 A 
ATOM     66  F   UNL A   1      38.903  25.933  29.830  1.00  0.00    -0.206 F 
ATOM     67  C   UNL A   1      39.429  25.039  27.726  1.00  0.00     0.040 A 
ATOM     68  C   UNL A   1      40.779  26.301  26.183  1.00  0.00     0.040 A 
ATOM     69  F   UNL A   1      41.599  28.413  26.795  1.00  0.00    -0.206 F 
ATOM     70  C   UNL A   1      40.059  25.148  26.488  1.00  0.00     0.006 A 
ENDBRANCH  49  63
BRANCH  50  71
ATOM     71  C   UNL A   1      41.077  34.269  35.415  1.00  0.00     0.057 A 
ATOM     72  C   UNL A   1      40.505  34.071  36.678  1.00  0.00     0.134 A 
ATOM     73  C   UNL A   1      41.741  35.480  35.192  1.00  0.00     0.134 A 
ATOM     74  F   UNL A   1      39.847  32.935  36.952  1.00  0.00    -0.206 F 
ATOM     75  C   UNL A   1      40.577  35.045  37.674  1.00  0.00     0.040 A 
ATOM     76  C   UNL A   1      41.844  36.453  36.188  1.00  0.00     0.040 A 
ATOM     77  F   UNL A   1      42.326  35.722  34.009  1.00  0.00    -0.206 F 
ATOM     78  C   UNL A   1      41.253  36.238  37.432  1.00  0.00     0.006 A 
ENDBRANCH  50  71
BRANCH  62  79
ATOM     79  C   UNL A   1      44.950  28.752  33.602  1.00  0.00     0.057 A 
ATOM     80  C   UNL A   1      44.919  27.792  34.623  1.00  0.00     0.134 A 
ATOM     81  C   UNL A   1      46.204  29.208  33.179  1.00  0.00     0.134 A 
ATOM     82  F   UNL A   1      43.749  27.323  35.081  1.00  0.00    -0.206 F 
ATOM     83  C   UNL A   1      46.090  27.322  35.216  1.00  0.00     0.040 A 
ATOM     84  C   UNL A   1      47.383  28.726  33.747  1.00  0.00     0.040 A 
ATOM     85  F   UNL A   1      46.301  30.119  32.199  1.00  0.00    -0.206 F 
ATOM     86  C   UNL A   1      47.328  27.788  34.777  1.00  0.00     0.006 A 
ENDBRANCH  62  79
ENDBRANCH  36  37
ENDBRANCH  28  31
ENDBRANCH  26  27
ENDBRANCH  25  26
ENDBRANCH   1  25
TORSDOF 14
ENDMDL
