MODEL 1
REMARK VINA RESULT:      -9.4      0.000      0.000
REMARK SMILES O=C(C[C@@H](c1ccccc1)[NH+]1CCCCC1)NCCCCNC(=O)c1ccc(-c2c3nc(c(-c4c(F)cccc4F)c4ccc([nH]4)c(-c4c(F)cccc4F)c4nc(c(-c5c(F)cccc5F)c5ccc2[nH]5)C=C4)C=C3)cc1
REMARK SMILES IDX 19 1 18 2 17 3 1 4 2 5 3 7 4 8 5 9 6 10 10 11 7 12 9 13 8 14
REMARK SMILES IDX 11 15 12 16 16 17 13 19 15 20 14 21 20 22 21 23 22 24 23 25
REMARK SMILES IDX 24 27 25 28 26 29 78 30 27 31 77 32 28 33 29 34 30 35 71 36
REMARK SMILES IDX 31 37 76 38 70 39 72 40 32 41 75 42 69 43 68 44 33 46 59 47
REMARK SMILES IDX 42 48 58 49 43 50 46 51 57 52 73 53 44 54 45 55 56 57 74 58
REMARK SMILES IDX 47 59 34 60 35 61 40 62 36 63 37 64 39 65 41 66 38 67 60 68
REMARK SMILES IDX 61 69 66 70 62 71 63 72 65 73 67 74 64 75 48 76 49 77 54 78
REMARK SMILES IDX 50 79 51 80 53 81 55 82 52 83
REMARK H PARENT 17 6 11 18 22 26 72 45 46 56
REMARK Flexibility Score: inf
ROOT
ATOM      1  C   UNL A   1      33.265  35.495  32.198  1.00  0.00     0.023 C 
ENDROOT
BRANCH   1   2
ATOM      2  C   UNL A   1      34.157  36.009  33.326  1.00  0.00     0.116 C 
BRANCH   2   3
ATOM      3  N   UNL A   1      35.456  35.374  33.308  1.00  0.00    -0.356 N 
ATOM      4  O   UNL A   1      34.855  33.508  34.497  1.00  0.00    -0.275 OA
ATOM      5  C   UNL A   1      35.708  34.162  33.907  1.00  0.00     0.226 C 
ATOM      6  H   UNL A   1      36.195  35.830  32.844  1.00  0.00     0.163 HD
BRANCH   5   7
ATOM      7  C   UNL A   1      37.159  33.720  33.832  1.00  0.00     0.170 C 
BRANCH   7   8
ATOM      8  C   UNL A   1      37.563  32.670  34.894  1.00  0.00     0.224 C 
BRANCH   8   9
ATOM      9  C   UNL A   1      38.304  31.496  34.237  1.00  0.00     0.010 A 
ATOM     10  C   UNL A   1      39.674  31.313  34.503  1.00  0.00     0.010 A 
ATOM     11  C   UNL A   1      37.662  30.586  33.382  1.00  0.00     0.010 A 
ATOM     12  C   UNL A   1      40.385  30.272  33.905  1.00  0.00     0.001 A 
ATOM     13  C   UNL A   1      38.380  29.554  32.772  1.00  0.00     0.001 A 
ATOM     14  C   UNL A   1      39.741  29.401  33.030  1.00  0.00     0.000 A 
ENDBRANCH   8   9
BRANCH   8  15
ATOM     15  N   UNL A   1      38.231  33.230  36.116  1.00  0.00    -0.328 N 
ATOM     16  C   UNL A   1      38.764  34.593  35.962  1.00  0.00     0.262 C 
ATOM     17  C   UNL A   1      37.543  33.021  37.392  1.00  0.00     0.262 C 
ATOM     18  H   UNL A   1      39.047  32.623  36.187  1.00  0.00     0.348 HD
ATOM     19  C   UNL A   1      39.596  35.067  37.155  1.00  0.00     0.062 C 
ATOM     20  C   UNL A   1      38.390  33.451  38.593  1.00  0.00     0.062 C 
ATOM     21  C   UNL A   1      38.835  34.897  38.460  1.00  0.00     0.012 C 
ENDBRANCH   8  15
ENDBRANCH   7   8
ENDBRANCH   5   7
ENDBRANCH   2   3
ENDBRANCH   1   2
BRANCH   1  22
ATOM     22  C   UNL A   1      32.784  36.560  31.206  1.00  0.00     0.023 C 
BRANCH  22  23
ATOM     23  C   UNL A   1      33.383  36.465  29.807  1.00  0.00     0.116 C 
BRANCH  23  24
ATOM     24  N   UNL A   1      32.714  35.472  28.980  1.00  0.00    -0.352 N 
ATOM     25  C   UNL A   1      33.190  34.294  28.465  1.00  0.00     0.251 C 
ATOM     26  H   UNL A   1      31.777  35.678  28.758  1.00  0.00     0.163 HD
ATOM     27  O   UNL A   1      32.511  33.664  27.653  1.00  0.00    -0.269 OA
BRANCH  25  28
ATOM     28  C   UNL A   1      34.523  33.782  28.851  1.00  0.00     0.039 A 
ATOM     29  C   UNL A   1      34.643  33.048  30.034  1.00  0.00     0.014 A 
ATOM     30  C   UNL A   1      35.657  34.038  28.073  1.00  0.00     0.014 A 
ATOM     31  C   UNL A   1      35.881  32.513  30.401  1.00  0.00     0.010 A 
ATOM     32  C   UNL A   1      36.875  33.445  28.403  1.00  0.00     0.010 A 
ATOM     33  C   UNL A   1      37.000  32.675  29.569  1.00  0.00    -0.014 A 
BRANCH  33  34
ATOM     34  C   UNL A   1      38.301  32.033  29.900  1.00  0.00     0.031 A 
ATOM     35  C   UNL A   1      39.321  32.760  30.733  1.00  0.00     0.074 A 
ATOM     36  C   UNL A   1      38.590  30.817  29.397  1.00  0.00     0.049 A 
ATOM     37  N   UNL A   1      40.532  32.388  31.069  1.00  0.00    -0.248 NA
ATOM     38  C   UNL A   1      38.942  34.089  31.235  1.00  0.00     0.031 C 
ATOM     39  C   UNL A   1      37.706  30.021  28.544  1.00  0.00     0.029 A 
ATOM     40  N   UNL A   1      39.715  30.038  29.525  1.00  0.00    -0.354 N 
ATOM     41  C   UNL A   1      41.061  33.440  31.806  1.00  0.00     0.074 A 
ATOM     42  C   UNL A   1      40.059  34.484  31.826  1.00  0.00     0.031 C 
ATOM     43  C   UNL A   1      38.309  28.859  28.247  1.00  0.00     0.029 A 
ATOM     44  C   UNL A   1      39.638  28.843  28.850  1.00  0.00     0.049 A 
ATOM     45  H   UNL A   1      40.502  30.311  30.050  1.00  0.00     0.167 HD
ATOM     46  C   UNL A   1      42.263  33.520  32.426  1.00  0.00     0.037 A 
ATOM     47  C   UNL A   1      40.539  27.850  28.724  1.00  0.00     0.037 A 
ATOM     48  C   UNL A   1      43.249  32.472  32.426  1.00  0.00     0.049 A 
ATOM     49  C   UNL A   1      41.872  27.973  29.408  1.00  0.00     0.074 A 
ATOM     50  C   UNL A   1      44.469  32.436  33.079  1.00  0.00     0.029 A 
ATOM     51  N   UNL A   1      43.132  31.275  31.734  1.00  0.00    -0.354 N 
ATOM     52  N   UNL A   1      42.332  28.945  30.158  1.00  0.00    -0.248 NA
ATOM     53  C   UNL A   1      42.813  26.857  29.229  1.00  0.00     0.031 C 
ATOM     54  C   UNL A   1      45.113  31.241  32.741  1.00  0.00     0.029 A 
ATOM     55  C   UNL A   1      44.270  30.507  31.922  1.00  0.00     0.049 A 
ATOM     56  H   UNL A   1      42.355  31.011  31.190  1.00  0.00     0.167 HD
ATOM     57  C   UNL A   1      43.598  28.545  30.567  1.00  0.00     0.074 A 
ATOM     58  C   UNL A   1      43.829  27.237  29.991  1.00  0.00     0.031 C 
ATOM     59  C   UNL A   1      44.487  29.203  31.350  1.00  0.00     0.037 A 
BRANCH  46  60
ATOM     60  C   UNL A   1      42.582  34.792  33.159  1.00  0.00     0.057 A 
ATOM     61  C   UNL A   1      43.085  35.922  32.500  1.00  0.00     0.134 A 
ATOM     62  C   UNL A   1      42.344  34.902  34.536  1.00  0.00     0.134 A 
ATOM     63  F   UNL A   1      43.344  35.882  31.184  1.00  0.00    -0.206 F 
ATOM     64  C   UNL A   1      43.366  37.105  33.188  1.00  0.00     0.040 A 
ATOM     65  C   UNL A   1      42.594  36.088  35.229  1.00  0.00     0.040 A 
ATOM     66  F   UNL A   1      41.855  33.862  35.228  1.00  0.00    -0.206 F 
ATOM     67  C   UNL A   1      43.113  37.192  34.555  1.00  0.00     0.006 A 
ENDBRANCH  46  60
BRANCH  47  68
ATOM     68  C   UNL A   1      40.205  26.637  27.933  1.00  0.00     0.057 A 
ATOM     69  C   UNL A   1      39.388  25.633  28.465  1.00  0.00     0.134 A 
ATOM     70  C   UNL A   1      40.704  26.447  26.639  1.00  0.00     0.134 A 
ATOM     71  F   UNL A   1      38.898  25.750  29.707  1.00  0.00    -0.206 F 
ATOM     72  C   UNL A   1      39.097  24.471  27.748  1.00  0.00     0.040 A 
ATOM     73  C   UNL A   1      40.399  25.303  25.900  1.00  0.00     0.040 A 
ATOM     74  F   UNL A   1      41.486  27.375  26.070  1.00  0.00    -0.206 F 
ATOM     75  C   UNL A   1      39.600  24.306  26.458  1.00  0.00     0.006 A 
ENDBRANCH  47  68
BRANCH  59  76
ATOM     76  C   UNL A   1      45.778  28.503  31.665  1.00  0.00     0.057 A 
ATOM     77  C   UNL A   1      46.908  28.625  30.846  1.00  0.00     0.134 A 
ATOM     78  C   UNL A   1      45.902  27.724  32.823  1.00  0.00     0.134 A 
ATOM     79  F   UNL A   1      46.853  29.345  29.715  1.00  0.00    -0.206 F 
ATOM     80  C   UNL A   1      48.107  27.980  31.155  1.00  0.00     0.040 A 
ATOM     81  C   UNL A   1      47.103  27.098  33.158  1.00  0.00     0.040 A 
ATOM     82  F   UNL A   1      44.860  27.572  33.656  1.00  0.00    -0.206 F 
ATOM     83  C   UNL A   1      48.208  27.220  32.320  1.00  0.00     0.006 A 
ENDBRANCH  59  76
ENDBRANCH  33  34
ENDBRANCH  25  28
ENDBRANCH  23  24
ENDBRANCH  22  23
ENDBRANCH   1  22
TORSDOF 14
ENDMDL
MODEL 2
REMARK VINA RESULT:      -9.2      0.655      6.265
REMARK SMILES O=C(C[C@@H](c1ccccc1)[NH+]1CCCCC1)NCCCCNC(=O)c1ccc(-c2c3nc(c(-c4c(F)cccc4F)c4ccc([nH]4)c(-c4c(F)cccc4F)c4nc(c(-c5c(F)cccc5F)c5ccc2[nH]5)C=C4)C=C3)cc1
REMARK SMILES IDX 19 1 18 2 17 3 1 4 2 5 3 7 4 8 5 9 6 10 10 11 7 12 9 13 8 14
REMARK SMILES IDX 11 15 12 16 16 17 13 19 15 20 14 21 20 22 21 23 22 24 23 25
REMARK SMILES IDX 24 27 25 28 26 29 78 30 27 31 77 32 28 33 29 34 30 35 71 36
REMARK SMILES IDX 31 37 76 38 70 39 72 40 32 41 75 42 69 43 68 44 33 46 59 47
REMARK SMILES IDX 42 48 58 49 43 50 46 51 57 52 73 53 44 54 45 55 56 57 74 58
REMARK SMILES IDX 47 59 34 60 35 61 40 62 36 63 37 64 39 65 41 66 38 67 60 68
REMARK SMILES IDX 61 69 66 70 62 71 63 72 65 73 67 74 64 75 48 76 49 77 54 78
REMARK SMILES IDX 50 79 51 80 53 81 55 82 52 83
REMARK H PARENT 17 6 11 18 22 26 72 45 46 56
REMARK Flexibility Score: inf
ROOT
ATOM      1  C   UNL A   1      33.662  34.937  32.579  1.00  0.00     0.023 C 
ENDROOT
BRANCH   1   2
ATOM      2  C   UNL A   1      34.630  35.628  33.539  1.00  0.00     0.116 C 
BRANCH   2   3
ATOM      3  N   UNL A   1      35.884  34.913  33.634  1.00  0.00    -0.356 N 
ATOM      4  O   UNL A   1      35.421  33.829  35.601  1.00  0.00    -0.275 OA
ATOM      5  C   UNL A   1      36.187  34.064  34.672  1.00  0.00     0.226 C 
ATOM      6  H   UNL A   1      36.551  35.040  32.921  1.00  0.00     0.163 HD
BRANCH   5   7
ATOM      7  C   UNL A   1      37.588  33.482  34.611  1.00  0.00     0.170 C 
BRANCH   7   8
ATOM      8  C   UNL A   1      37.820  32.273  35.547  1.00  0.00     0.224 C 
BRANCH   8   9
ATOM      9  C   UNL A   1      38.698  31.217  34.858  1.00  0.00     0.010 A 
ATOM     10  C   UNL A   1      39.941  30.879  35.426  1.00  0.00     0.010 A 
ATOM     11  C   UNL A   1      38.303  30.564  33.679  1.00  0.00     0.010 A 
ATOM     12  C   UNL A   1      40.775  29.943  34.815  1.00  0.00     0.001 A 
ATOM     13  C   UNL A   1      39.147  29.639  33.061  1.00  0.00     0.001 A 
ATOM     14  C   UNL A   1      40.384  29.332  33.626  1.00  0.00     0.000 A 
ENDBRANCH   8   9
BRANCH   8  15
ATOM     15  N   UNL A   1      38.241  32.625  36.944  1.00  0.00    -0.328 N 
ATOM     16  C   UNL A   1      38.644  34.028  37.136  1.00  0.00     0.262 C 
ATOM     17  C   UNL A   1      37.401  32.113  38.029  1.00  0.00     0.262 C 
ATOM     18  H   UNL A   1      39.097  32.079  37.032  1.00  0.00     0.348 HD
ATOM     19  C   UNL A   1      39.239  34.314  38.515  1.00  0.00     0.062 C 
ATOM     20  C   UNL A   1      38.015  32.356  39.411  1.00  0.00     0.062 C 
ATOM     21  C   UNL A   1      38.319  33.828  39.624  1.00  0.00     0.012 C 
ENDBRANCH   8  15
ENDBRANCH   7   8
ENDBRANCH   5   7
ENDBRANCH   2   3
ENDBRANCH   1   2
BRANCH   1  22
ATOM     22  C   UNL A   1      32.784  35.877  31.746  1.00  0.00     0.023 C 
BRANCH  22  23
ATOM     23  C   UNL A   1      33.310  36.195  30.350  1.00  0.00     0.116 C 
BRANCH  23  24
ATOM     24  N   UNL A   1      32.631  35.434  29.313  1.00  0.00    -0.352 N 
ATOM     25  C   UNL A   1      33.074  34.365  28.575  1.00  0.00     0.251 C 
ATOM     26  H   UNL A   1      31.715  35.732  29.109  1.00  0.00     0.163 HD
ATOM     27  O   UNL A   1      32.401  33.958  27.627  1.00  0.00    -0.269 OA
BRANCH  25  28
ATOM     28  C   UNL A   1      34.364  33.713  28.886  1.00  0.00     0.039 A 
ATOM     29  C   UNL A   1      35.476  34.013  28.093  1.00  0.00     0.014 A 
ATOM     30  C   UNL A   1      34.484  32.793  29.934  1.00  0.00     0.014 A 
ATOM     31  C   UNL A   1      36.719  33.446  28.391  1.00  0.00     0.010 A 
ATOM     32  C   UNL A   1      35.737  32.285  30.272  1.00  0.00     0.010 A 
ATOM     33  C   UNL A   1      36.868  32.607  29.507  1.00  0.00    -0.014 A 
BRANCH  33  34
ATOM     34  C   UNL A   1      38.202  32.071  29.890  1.00  0.00     0.031 A 
ATOM     35  C   UNL A   1      38.664  30.734  29.380  1.00  0.00     0.074 A 
ATOM     36  C   UNL A   1      38.975  32.764  30.750  1.00  0.00     0.049 A 
ATOM     37  N   UNL A   1      39.764  30.078  29.656  1.00  0.00    -0.248 NA
ATOM     38  C   UNL A   1      37.762  30.029  28.456  1.00  0.00     0.031 C 
ATOM     39  C   UNL A   1      38.630  34.054  31.349  1.00  0.00     0.029 A 
ATOM     40  N   UNL A   1      40.211  32.475  31.277  1.00  0.00    -0.354 N 
ATOM     41  C   UNL A   1      39.678  28.882  28.955  1.00  0.00     0.074 A 
ATOM     42  C   UNL A   1      38.398  28.881  28.281  1.00  0.00     0.031 C 
ATOM     43  C   UNL A   1      39.637  34.457  32.139  1.00  0.00     0.029 A 
ATOM     44  C   UNL A   1      40.682  33.437  32.138  1.00  0.00     0.049 A 
ATOM     45  H   UNL A   1      40.711  31.656  31.058  1.00  0.00     0.167 HD
ATOM     46  C   UNL A   1      40.591  27.885  28.865  1.00  0.00     0.037 A 
ATOM     47  C   UNL A   1      41.822  33.489  32.853  1.00  0.00     0.037 A 
ATOM     48  C   UNL A   1      41.875  27.897  29.516  1.00  0.00     0.049 A 
ATOM     49  C   UNL A   1      42.810  32.361  32.749  1.00  0.00     0.074 A 
ATOM     50  C   UNL A   1      42.893  26.962  29.433  1.00  0.00     0.029 A 
ATOM     51  N   UNL A   1      42.316  28.892  30.377  1.00  0.00    -0.354 N 
ATOM     52  N   UNL A   1      42.744  31.267  32.028  1.00  0.00    -0.248 NA
ATOM     53  C   UNL A   1      44.033  32.475  33.556  1.00  0.00     0.031 C 
ATOM     54  C   UNL A   1      43.928  27.364  30.284  1.00  0.00     0.029 A 
ATOM     55  C   UNL A   1      43.579  28.578  30.853  1.00  0.00     0.049 A 
ATOM     56  H   UNL A   1      41.807  29.700  30.614  1.00  0.00     0.167 HD
ATOM     57  C   UNL A   1      43.928  30.581  32.269  1.00  0.00     0.074 A 
ATOM     58  C   UNL A   1      44.698  31.388  33.193  1.00  0.00     0.031 C 
ATOM     59  C   UNL A   1      44.340  29.392  31.768  1.00  0.00     0.037 A 
BRANCH  46  60
ATOM     60  C   UNL A   1      40.232  26.689  28.030  1.00  0.00     0.057 A 
ATOM     61  C   UNL A   1      40.731  26.514  26.732  1.00  0.00     0.134 A 
ATOM     62  C   UNL A   1      39.409  25.679  28.545  1.00  0.00     0.134 A 
ATOM     63  F   UNL A   1      41.517  27.448  26.174  1.00  0.00    -0.206 F 
ATOM     64  C   UNL A   1      40.403  25.392  25.968  1.00  0.00     0.040 A 
ATOM     65  C   UNL A   1      39.098  24.538  27.801  1.00  0.00     0.040 A 
ATOM     66  F   UNL A   1      38.903  25.777  29.783  1.00  0.00    -0.206 F 
ATOM     67  C   UNL A   1      39.590  24.397  26.505  1.00  0.00     0.006 A 
ENDBRANCH  46  60
BRANCH  47  68
ATOM     68  C   UNL A   1      42.105  34.663  33.719  1.00  0.00     0.057 A 
ATOM     69  C   UNL A   1      41.780  34.649  35.080  1.00  0.00     0.134 A 
ATOM     70  C   UNL A   1      42.692  35.827  33.207  1.00  0.00     0.134 A 
ATOM     71  F   UNL A   1      41.198  33.570  35.623  1.00  0.00    -0.206 F 
ATOM     72  C   UNL A   1      42.007  35.757  35.898  1.00  0.00     0.040 A 
ATOM     73  C   UNL A   1      42.949  36.932  34.019  1.00  0.00     0.040 A 
ATOM     74  F   UNL A   1      43.034  35.901  31.913  1.00  0.00    -0.206 F 
ATOM     75  C   UNL A   1      42.597  36.903  35.367  1.00  0.00     0.006 A 
ENDBRANCH  47  68
BRANCH  59  76
ATOM     76  C   UNL A   1      45.701  28.905  32.176  1.00  0.00     0.057 A 
ATOM     77  C   UNL A   1      46.856  29.239  31.457  1.00  0.00     0.134 A 
ATOM     78  C   UNL A   1      45.861  28.119  33.324  1.00  0.00     0.134 A 
ATOM     79  F   UNL A   1      46.771  29.978  30.340  1.00  0.00    -0.206 F 
ATOM     80  C   UNL A   1      48.117  28.791  31.853  1.00  0.00     0.040 A 
ATOM     81  C   UNL A   1      47.119  27.689  33.747  1.00  0.00     0.040 A 
ATOM     82  F   UNL A   1      44.797  27.768  34.064  1.00  0.00    -0.206 F 
ATOM     83  C   UNL A   1      48.251  28.020  33.007  1.00  0.00     0.006 A 
ENDBRANCH  59  76
ENDBRANCH  33  34
ENDBRANCH  25  28
ENDBRANCH  23  24
ENDBRANCH  22  23
ENDBRANCH   1  22
TORSDOF 14
ENDMDL
MODEL 3
REMARK VINA RESULT:      -9.1      2.211      3.579
REMARK SMILES O=C(C[C@@H](c1ccccc1)[NH+]1CCCCC1)NCCCCNC(=O)c1ccc(-c2c3nc(c(-c4c(F)cccc4F)c4ccc([nH]4)c(-c4c(F)cccc4F)c4nc(c(-c5c(F)cccc5F)c5ccc2[nH]5)C=C4)C=C3)cc1
REMARK SMILES IDX 19 1 18 2 17 3 1 4 2 5 3 7 4 8 5 9 6 10 10 11 7 12 9 13 8 14
REMARK SMILES IDX 11 15 12 16 16 17 13 19 15 20 14 21 20 22 21 23 22 24 23 25
REMARK SMILES IDX 24 27 25 28 26 29 78 30 27 31 77 32 28 33 29 34 30 35 71 36
REMARK SMILES IDX 31 37 76 38 70 39 72 40 32 41 75 42 69 43 68 44 33 46 59 47
REMARK SMILES IDX 42 48 58 49 43 50 46 51 57 52 73 53 44 54 45 55 56 57 74 58
REMARK SMILES IDX 47 59 34 60 35 61 40 62 36 63 37 64 39 65 41 66 38 67 60 68
REMARK SMILES IDX 61 69 66 70 62 71 63 72 65 73 67 74 64 75 48 76 49 77 54 78
REMARK SMILES IDX 50 79 51 80 53 81 55 82 52 83
REMARK H PARENT 17 6 11 18 22 26 72 45 46 56
REMARK Flexibility Score: inf
ROOT
ATOM      1  C   UNL A   1      33.644  35.429  28.680  1.00  0.00     0.023 C 
ENDROOT
BRANCH   1   2
ATOM      2  C   UNL A   1      33.272  35.317  30.158  1.00  0.00     0.116 C 
BRANCH   2   3
ATOM      3  N   UNL A   1      34.447  35.285  31.000  1.00  0.00    -0.356 N 
ATOM      4  O   UNL A   1      33.589  33.881  32.597  1.00  0.00    -0.275 OA
ATOM      5  C   UNL A   1      34.513  34.566  32.171  1.00  0.00     0.226 C 
ATOM      6  H   UNL A   1      35.238  35.802  30.723  1.00  0.00     0.163 HD
BRANCH   5   7
ATOM      7  C   UNL A   1      35.813  34.739  32.935  1.00  0.00     0.170 C 
BRANCH   7   8
ATOM      8  C   UNL A   1      36.817  33.574  32.761  1.00  0.00     0.224 C 
BRANCH   8   9
ATOM      9  C   UNL A   1      37.719  33.817  31.543  1.00  0.00     0.010 A 
ATOM     10  C   UNL A   1      38.944  34.488  31.716  1.00  0.00     0.010 A 
ATOM     11  C   UNL A   1      37.372  33.384  30.252  1.00  0.00     0.010 A 
ATOM     12  C   UNL A   1      39.778  34.747  30.628  1.00  0.00     0.001 A 
ATOM     13  C   UNL A   1      38.201  33.659  29.162  1.00  0.00     0.001 A 
ATOM     14  C   UNL A   1      39.400  34.344  29.350  1.00  0.00     0.000 A 
ENDBRANCH   8   9
BRANCH   8  15
ATOM     15  N   UNL A   1      37.544  33.173  34.012  1.00  0.00    -0.328 N 
ATOM     16  C   UNL A   1      37.449  34.136  35.121  1.00  0.00     0.262 C 
ATOM     17  C   UNL A   1      37.389  31.782  34.441  1.00  0.00     0.262 C 
ATOM     18  H   UNL A   1      38.512  33.215  33.695  1.00  0.00     0.348 HD
ATOM     19  C   UNL A   1      38.345  33.794  36.312  1.00  0.00     0.062 C 
ATOM     20  C   UNL A   1      38.317  31.420  35.604  1.00  0.00     0.062 C 
ATOM     21  C   UNL A   1      38.119  32.363  36.778  1.00  0.00     0.012 C 
ENDBRANCH   8  15
ENDBRANCH   7   8
ENDBRANCH   5   7
ENDBRANCH   2   3
ENDBRANCH   1   2
BRANCH   1  22
ATOM     22  C   UNL A   1      34.465  34.262  28.121  1.00  0.00     0.023 C 
BRANCH  22  23
ATOM     23  C   UNL A   1      34.281  32.931  28.843  1.00  0.00     0.116 C 
BRANCH  23  24
ATOM     24  N   UNL A   1      33.807  31.879  27.957  1.00  0.00    -0.352 N 
ATOM     25  C   UNL A   1      34.434  30.732  27.541  1.00  0.00     0.251 C 
ATOM     26  H   UNL A   1      32.897  32.010  27.604  1.00  0.00     0.163 HD
ATOM     27  O   UNL A   1      33.922  30.042  26.659  1.00  0.00    -0.269 OA
BRANCH  25  28
ATOM     28  C   UNL A   1      35.735  30.328  28.118  1.00  0.00     0.039 A 
ATOM     29  C   UNL A   1      35.748  29.688  29.360  1.00  0.00     0.014 A 
ATOM     30  C   UNL A   1      36.940  30.595  27.460  1.00  0.00     0.014 A 
ATOM     31  C   UNL A   1      36.958  29.254  29.909  1.00  0.00     0.010 A 
ATOM     32  C   UNL A   1      38.137  30.100  27.975  1.00  0.00     0.010 A 
ATOM     33  C   UNL A   1      38.159  29.422  29.203  1.00  0.00    -0.014 A 
BRANCH  33  34
ATOM     34  C   UNL A   1      39.441  28.883  29.732  1.00  0.00     0.031 A 
ATOM     35  C   UNL A   1      40.128  29.547  30.894  1.00  0.00     0.074 A 
ATOM     36  C   UNL A   1      40.021  27.829  29.124  1.00  0.00     0.049 A 
ATOM     37  N   UNL A   1      41.279  29.259  31.449  1.00  0.00    -0.248 NA
ATOM     38  C   UNL A   1      39.443  30.701  31.498  1.00  0.00     0.031 C 
ATOM     39  C   UNL A   1      39.481  27.117  27.965  1.00  0.00     0.029 A 
ATOM     40  N   UNL A   1      41.199  27.176  29.394  1.00  0.00    -0.354 N 
ATOM     41  C   UNL A   1      41.462  30.202  32.453  1.00  0.00     0.074 A 
ATOM     42  C   UNL A   1      40.328  31.100  32.398  1.00  0.00     0.031 C 
ATOM     43  C   UNL A   1      40.310  26.113  27.639  1.00  0.00     0.029 A 
ATOM     44  C   UNL A   1      41.461  26.134  28.536  1.00  0.00     0.049 A 
ATOM     45  H   UNL A   1      41.799  27.430  30.131  1.00  0.00     0.167 HD
ATOM     46  C   UNL A   1      42.472  30.299  33.351  1.00  0.00     0.037 A 
ATOM     47  C   UNL A   1      42.512  25.295  28.474  1.00  0.00     0.037 A 
ATOM     48  C   UNL A   1      43.587  29.391  33.421  1.00  0.00     0.049 A 
ATOM     49  C   UNL A   1      43.628  25.436  29.471  1.00  0.00     0.074 A 
ATOM     50  C   UNL A   1      44.626  29.370  34.336  1.00  0.00     0.029 A 
ATOM     51  N   UNL A   1      43.814  28.346  32.537  1.00  0.00    -0.354 N 
ATOM     52  N   UNL A   1      43.754  26.290  30.458  1.00  0.00    -0.248 NA
ATOM     53  C   UNL A   1      44.749  24.492  29.349  1.00  0.00     0.031 C 
ATOM     54  C   UNL A   1      45.508  28.346  33.975  1.00  0.00     0.029 A 
ATOM     55  C   UNL A   1      44.990  27.693  32.869  1.00  0.00     0.049 A 
ATOM     56  H   UNL A   1      43.225  28.104  31.785  1.00  0.00     0.167 HD
ATOM     57  C   UNL A   1      44.948  25.967  31.092  1.00  0.00     0.074 A 
ATOM     58  C   UNL A   1      45.502  24.831  30.385  1.00  0.00     0.031 C 
ATOM     59  C   UNL A   1      45.529  26.558  32.163  1.00  0.00     0.037 A 
BRANCH  46  60
ATOM     60  C   UNL A   1      42.419  31.432  34.336  1.00  0.00     0.057 A 
ATOM     61  C   UNL A   1      42.823  32.730  33.995  1.00  0.00     0.134 A 
ATOM     62  C   UNL A   1      41.919  31.231  35.629  1.00  0.00     0.134 A 
ATOM     63  F   UNL A   1      43.320  32.989  32.776  1.00  0.00    -0.206 F 
ATOM     64  C   UNL A   1      42.757  33.780  34.913  1.00  0.00     0.040 A 
ATOM     65  C   UNL A   1      41.821  32.280  36.547  1.00  0.00     0.040 A 
ATOM     66  F   UNL A   1      41.507  30.016  36.020  1.00  0.00    -0.206 F 
ATOM     67  C   UNL A   1      42.248  33.558  36.190  1.00  0.00     0.006 A 
ENDBRANCH  46  60
BRANCH  47  68
ATOM     68  C   UNL A   1      42.554  24.229  27.440  1.00  0.00     0.057 A 
ATOM     69  C   UNL A   1      43.055  24.487  26.159  1.00  0.00     0.134 A 
ATOM     70  C   UNL A   1      42.084  22.936  27.701  1.00  0.00     0.134 A 
ATOM     71  F   UNL A   1      43.501  25.711  25.843  1.00  0.00    -0.206 F 
ATOM     72  C   UNL A   1      43.067  23.506  25.166  1.00  0.00     0.040 A 
ATOM     73  C   UNL A   1      42.115  21.938  26.726  1.00  0.00     0.040 A 
ATOM     74  F   UNL A   1      41.599  22.622  28.910  1.00  0.00    -0.206 F 
ATOM     75  C   UNL A   1      42.599  22.224  25.451  1.00  0.00     0.006 A 
ENDBRANCH  47  68
BRANCH  59  76
ATOM     76  C   UNL A   1      46.814  25.965  32.665  1.00  0.00     0.057 A 
ATOM     77  C   UNL A   1      48.064  26.406  32.209  1.00  0.00     0.134 A 
ATOM     78  C   UNL A   1      46.801  24.962  33.643  1.00  0.00     0.134 A 
ATOM     79  F   UNL A   1      48.146  27.354  31.263  1.00  0.00    -0.206 F 
ATOM     80  C   UNL A   1      49.252  25.855  32.692  1.00  0.00     0.040 A 
ATOM     81  C   UNL A   1      47.983  24.424  34.155  1.00  0.00     0.040 A 
ATOM     82  F   UNL A   1      45.639  24.499  34.128  1.00  0.00    -0.206 F 
ATOM     83  C   UNL A   1      49.213  24.866  33.674  1.00  0.00     0.006 A 
ENDBRANCH  59  76
ENDBRANCH  33  34
ENDBRANCH  25  28
ENDBRANCH  23  24
ENDBRANCH  22  23
ENDBRANCH   1  22
TORSDOF 14
ENDMDL
