MODEL 1
REMARK VINA RESULT:     -11.4      0.000      0.000
REMARK SMILES CC[C@@H](Nc1ccc([N+](=O)[O-])c(N)n1)C(=O)NCCCCNC(=O)c1ccc(-c2c3nc(c(-c4c(F)cccc4F)c4ccc([nH]4)c(-c4c(F)cccc4F)c4nc(c(-c5c(F)cccc5F)c5ccc2[nH]5)C=C4)C=C3)cc1
REMARK SMILES IDX 19 1 18 2 17 3 15 4 16 5 3 7 2 8 1 9 4 10 5 12 6 13 14 14
REMARK SMILES IDX 7 15 12 16 8 17 13 18 9 21 10 22 11 23 20 24 21 25 22 26
REMARK SMILES IDX 23 27 24 29 25 30 26 31 78 32 27 33 77 34 28 35 29 36 30 37
REMARK SMILES IDX 71 38 31 39 76 40 70 41 72 42 32 43 75 44 69 45 68 46 33 48
REMARK SMILES IDX 59 49 42 50 58 51 43 52 46 53 57 54 73 55 44 56 45 57 56 59
REMARK SMILES IDX 74 60 47 61 34 62 35 63 40 64 36 65 37 66 39 67 41 68 38 69
REMARK SMILES IDX 60 70 61 71 66 72 62 73 63 74 65 75 67 76 64 77 48 78 49 79
REMARK SMILES IDX 54 80 50 81 51 82 53 83 55 84 52 85
REMARK H PARENT 17 6 4 11 13 19 13 20 22 28 72 47 46 58
REMARK Flexibility Score: inf
ROOT
ATOM      1  C   UNL A   1      36.447  20.646  25.040  1.00  0.00     0.023 C 
ENDROOT
BRANCH   1   2
ATOM      2  C   UNL A   1      36.385  22.164  24.927  1.00  0.00     0.116 C 
BRANCH   2   3
ATOM      3  N   UNL A   1      35.821  22.643  23.691  1.00  0.00    -0.354 N 
ATOM      4  C   UNL A   1      34.567  23.123  23.441  1.00  0.00     0.242 C 
ATOM      5  O   UNL A   1      34.412  23.714  22.365  1.00  0.00    -0.273 OA
ATOM      6  H   UNL A   1      36.426  22.621  22.916  1.00  0.00     0.163 HD
BRANCH   4   7
ATOM      7  C   UNL A   1      33.349  22.882  24.377  1.00  0.00     0.169 C 
BRANCH   7   8
ATOM      8  C   UNL A   1      32.757  24.202  24.860  1.00  0.00     0.031 C 
ATOM      9  C   UNL A   1      33.754  25.052  25.639  1.00  0.00     0.006 C 
ENDBRANCH   7   8
BRANCH   7  10
ATOM     10  N   UNL A   1      32.424  21.836  23.915  1.00  0.00    -0.358 N 
ATOM     11  H   UNL A   1      31.626  22.210  23.475  1.00  0.00     0.162 HD
BRANCH  10  12
ATOM     12  C   UNL A   1      32.405  20.477  23.948  1.00  0.00     0.129 A 
ATOM     13  C   UNL A   1      32.355  19.633  22.849  1.00  0.00     0.054 A 
ATOM     14  N   UNL A   1      32.521  19.970  25.196  1.00  0.00    -0.208 NA
ATOM     15  C   UNL A   1      32.553  18.264  23.016  1.00  0.00     0.093 A 
ATOM     16  C   UNL A   1      32.667  18.636  25.383  1.00  0.00     0.204 A 
ATOM     17  C   UNL A   1      32.734  17.768  24.305  1.00  0.00     0.311 A 
BRANCH  16  18
ATOM     18  N   UNL A   1      32.845  18.263  26.700  1.00  0.00    -0.378 N 
ATOM     19  H   UNL A   1      33.751  18.228  27.084  1.00  0.00     0.158 HD
ATOM     20  H   UNL A   1      32.066  18.030  27.256  1.00  0.00     0.158 HD
ENDBRANCH  16  18
BRANCH  17  21
ATOM     21  N   UNL A   1      32.996  16.353  24.482  1.00  0.00     0.066 N 
ATOM     22  O   UNL A   1      33.904  15.838  23.811  1.00  0.00    -0.258 OA
ATOM     23  O   UNL A   1      32.316  15.755  25.328  1.00  0.00    -0.258 OA
ENDBRANCH  17  21
ENDBRANCH  10  12
ENDBRANCH   7  10
ENDBRANCH   4   7
ENDBRANCH   2   3
ENDBRANCH   1   2
BRANCH   1  24
ATOM     24  C   UNL A   1      37.799  20.037  24.680  1.00  0.00     0.023 C 
BRANCH  24  25
ATOM     25  C   UNL A   1      38.904  20.218  25.717  1.00  0.00     0.116 C 
BRANCH  25  26
ATOM     26  N   UNL A   1      39.869  19.130  25.770  1.00  0.00    -0.352 N 
ATOM     27  C   UNL A   1      41.210  19.195  26.087  1.00  0.00     0.251 C 
ATOM     28  H   UNL A   1      39.521  18.235  25.551  1.00  0.00     0.163 HD
ATOM     29  O   UNL A   1      41.919  18.205  26.009  1.00  0.00    -0.269 OA
BRANCH  27  30
ATOM     30  C   UNL A   1      41.794  20.499  26.472  1.00  0.00     0.039 A 
ATOM     31  C   UNL A   1      42.213  21.371  25.465  1.00  0.00     0.014 A 
ATOM     32  C   UNL A   1      41.873  20.879  27.814  1.00  0.00     0.014 A 
ATOM     33  C   UNL A   1      42.639  22.657  25.802  1.00  0.00     0.010 A 
ATOM     34  C   UNL A   1      42.216  22.186  28.140  1.00  0.00     0.010 A 
ATOM     35  C   UNL A   1      42.603  23.088  27.138  1.00  0.00    -0.014 A 
BRANCH  35  36
ATOM     36  C   UNL A   1      42.978  24.475  27.508  1.00  0.00     0.031 A 
ATOM     37  C   UNL A   1      44.418  24.903  27.465  1.00  0.00     0.074 A 
ATOM     38  C   UNL A   1      42.032  25.329  27.947  1.00  0.00     0.049 A 
ATOM     39  N   UNL A   1      44.950  26.054  27.791  1.00  0.00    -0.248 NA
ATOM     40  C   UNL A   1      45.395  23.894  27.027  1.00  0.00     0.031 C 
ATOM     41  C   UNL A   1      40.609  25.017  28.095  1.00  0.00     0.029 A 
ATOM     42  N   UNL A   1      42.128  26.637  28.353  1.00  0.00    -0.354 N 
ATOM     43  C   UNL A   1      46.319  25.898  27.621  1.00  0.00     0.074 A 
ATOM     44  C   UNL A   1      46.542  24.526  27.218  1.00  0.00     0.031 C 
ATOM     45  C   UNL A   1      39.961  26.113  28.521  1.00  0.00     0.029 A 
ATOM     46  C   UNL A   1      40.924  27.195  28.706  1.00  0.00     0.049 A 
ATOM     47  H   UNL A   1      42.981  27.129  28.387  1.00  0.00     0.167 HD
ATOM     48  C   UNL A   1      47.302  26.819  27.760  1.00  0.00     0.037 A 
ATOM     49  C   UNL A   1      40.630  28.441  29.123  1.00  0.00     0.037 A 
ATOM     50  C   UNL A   1      47.073  28.193  28.119  1.00  0.00     0.049 A 
ATOM     51  C   UNL A   1      41.735  29.453  29.245  1.00  0.00     0.074 A 
ATOM     52  C   UNL A   1      47.991  29.225  28.210  1.00  0.00     0.029 A 
ATOM     53  N   UNL A   1      45.836  28.727  28.443  1.00  0.00    -0.354 N 
ATOM     54  N   UNL A   1      43.016  29.314  29.004  1.00  0.00    -0.248 NA
ATOM     55  C   UNL A   1      41.349  30.800  29.689  1.00  0.00     0.031 C 
ATOM     56  C   UNL A   1      47.313  30.377  28.625  1.00  0.00     0.029 A 
ATOM     57  C   UNL A   1      45.967  30.071  28.752  1.00  0.00     0.049 A 
ATOM     58  H   UNL A   1      44.989  28.226  28.453  1.00  0.00     0.167 HD
ATOM     59  C   UNL A   1      43.583  30.560  29.233  1.00  0.00     0.074 A 
ATOM     60  C   UNL A   1      42.506  31.445  29.625  1.00  0.00     0.031 C 
ATOM     61  C   UNL A   1      44.881  30.939  29.128  1.00  0.00     0.037 A 
BRANCH  48  62
ATOM     62  C   UNL A   1      48.710  26.365  27.513  1.00  0.00     0.057 A 
ATOM     63  C   UNL A   1      49.524  25.880  28.546  1.00  0.00     0.134 A 
ATOM     64  C   UNL A   1      49.257  26.405  26.224  1.00  0.00     0.134 A 
ATOM     65  F   UNL A   1      49.065  25.829  29.805  1.00  0.00    -0.206 F 
ATOM     66  C   UNL A   1      50.842  25.483  28.313  1.00  0.00     0.040 A 
ATOM     67  C   UNL A   1      50.564  25.984  25.974  1.00  0.00     0.040 A 
ATOM     68  F   UNL A   1      48.532  26.853  25.188  1.00  0.00    -0.206 F 
ATOM     69  C   UNL A   1      51.363  25.529  27.022  1.00  0.00     0.006 A 
ENDBRANCH  48  62
BRANCH  49  70
ATOM     70  C   UNL A   1      39.224  28.820  29.405  1.00  0.00     0.057 A 
ATOM     71  C   UNL A   1      38.663  28.599  30.669  1.00  0.00     0.134 A 
ATOM     72  C   UNL A   1      38.405  29.397  28.428  1.00  0.00     0.134 A 
ATOM     73  F   UNL A   1      39.392  28.032  31.641  1.00  0.00    -0.206 F 
ATOM     74  C   UNL A   1      37.333  28.920  30.946  1.00  0.00     0.040 A 
ATOM     75  C   UNL A   1      37.080  29.743  28.697  1.00  0.00     0.040 A 
ATOM     76  F   UNL A   1      38.886  29.639  27.200  1.00  0.00    -0.206 F 
ATOM     77  C   UNL A   1      36.538  29.499  29.958  1.00  0.00     0.006 A 
ENDBRANCH  49  70
BRANCH  61  78
ATOM     78  C   UNL A   1      45.196  32.380  29.399  1.00  0.00     0.057 A 
ATOM     79  C   UNL A   1      45.622  32.821  30.658  1.00  0.00     0.134 A 
ATOM     80  C   UNL A   1      45.100  33.333  28.375  1.00  0.00     0.134 A 
ATOM     81  F   UNL A   1      45.721  31.959  31.681  1.00  0.00    -0.206 F 
ATOM     82  C   UNL A   1      45.919  34.163  30.896  1.00  0.00     0.040 A 
ATOM     83  C   UNL A   1      45.419  34.673  28.596  1.00  0.00     0.040 A 
ATOM     84  F   UNL A   1      44.706  32.974  27.145  1.00  0.00    -0.206 F 
ATOM     85  C   UNL A   1      45.822  35.092  29.862  1.00  0.00     0.006 A 
ENDBRANCH  61  78
ENDBRANCH  35  36
ENDBRANCH  27  30
ENDBRANCH  25  26
ENDBRANCH  24  25
ENDBRANCH   1  24
TORSDOF 16
ENDMDL
MODEL 2
REMARK VINA RESULT:     -11.4      1.296      2.003
REMARK SMILES CC[C@@H](Nc1ccc([N+](=O)[O-])c(N)n1)C(=O)NCCCCNC(=O)c1ccc(-c2c3nc(c(-c4c(F)cccc4F)c4ccc([nH]4)c(-c4c(F)cccc4F)c4nc(c(-c5c(F)cccc5F)c5ccc2[nH]5)C=C4)C=C3)cc1
REMARK SMILES IDX 19 1 18 2 17 3 15 4 16 5 3 7 2 8 1 9 4 10 5 12 6 13 14 14
REMARK SMILES IDX 7 15 12 16 8 17 13 18 9 21 10 22 11 23 20 24 21 25 22 26
REMARK SMILES IDX 23 27 24 29 25 30 26 31 78 32 27 33 77 34 28 35 29 36 30 37
REMARK SMILES IDX 71 38 31 39 76 40 70 41 72 42 32 43 75 44 69 45 68 46 33 48
REMARK SMILES IDX 59 49 42 50 58 51 43 52 46 53 57 54 73 55 44 56 45 57 56 59
REMARK SMILES IDX 74 60 47 61 34 62 35 63 40 64 36 65 37 66 39 67 41 68 38 69
REMARK SMILES IDX 60 70 61 71 66 72 62 73 63 74 65 75 67 76 64 77 48 78 49 79
REMARK SMILES IDX 54 80 50 81 51 82 53 83 55 84 52 85
REMARK H PARENT 17 6 4 11 13 19 13 20 22 28 72 47 46 58
REMARK Flexibility Score: inf
ROOT
ATOM      1  C   UNL A   1      36.067  21.134  25.464  1.00  0.00     0.023 C 
ENDROOT
BRANCH   1   2
ATOM      2  C   UNL A   1      36.025  22.573  24.969  1.00  0.00     0.116 C 
BRANCH   2   3
ATOM      3  N   UNL A   1      35.450  22.732  23.657  1.00  0.00    -0.354 N 
ATOM      4  C   UNL A   1      34.182  23.099  23.308  1.00  0.00     0.242 C 
ATOM      5  O   UNL A   1      34.010  23.416  22.124  1.00  0.00    -0.273 OA
ATOM      6  H   UNL A   1      36.058  22.550  22.906  1.00  0.00     0.163 HD
BRANCH   4   7
ATOM      7  C   UNL A   1      32.968  23.042  24.279  1.00  0.00     0.169 C 
BRANCH   7   8
ATOM      8  C   UNL A   1      32.365  24.427  24.486  1.00  0.00     0.031 C 
ATOM      9  C   UNL A   1      33.109  25.250  25.531  1.00  0.00     0.006 C 
ENDBRANCH   7   8
BRANCH   7  10
ATOM     10  N   UNL A   1      32.053  21.915  24.044  1.00  0.00    -0.358 N 
ATOM     11  H   UNL A   1      31.119  22.208  23.933  1.00  0.00     0.162 HD
BRANCH  10  12
ATOM     12  C   UNL A   1      32.184  20.565  23.943  1.00  0.00     0.129 A 
ATOM     13  C   UNL A   1      32.212  19.833  22.766  1.00  0.00     0.054 A 
ATOM     14  N   UNL A   1      32.372  19.954  25.133  1.00  0.00    -0.208 NA
ATOM     15  C   UNL A   1      32.562  18.485  22.795  1.00  0.00     0.093 A 
ATOM     16  C   UNL A   1      32.666  18.632  25.187  1.00  0.00     0.204 A 
ATOM     17  C   UNL A   1      32.813  17.888  24.028  1.00  0.00     0.311 A 
BRANCH  16  18
ATOM     18  N   UNL A   1      32.902  18.154  26.460  1.00  0.00    -0.378 N 
ATOM     19  H   UNL A   1      33.664  17.553  26.628  1.00  0.00     0.158 HD
ATOM     20  H   UNL A   1      32.308  18.413  27.202  1.00  0.00     0.158 HD
ENDBRANCH  16  18
BRANCH  17  21
ATOM     21  N   UNL A   1      33.233  16.500  24.063  1.00  0.00     0.066 N 
ATOM     22  O   UNL A   1      32.694  15.747  24.887  1.00  0.00    -0.258 OA
ATOM     23  O   UNL A   1      34.082  16.147  23.232  1.00  0.00    -0.258 OA
ENDBRANCH  17  21
ENDBRANCH  10  12
ENDBRANCH   7  10
ENDBRANCH   4   7
ENDBRANCH   2   3
ENDBRANCH   1   2
BRANCH   1  24
ATOM     24  C   UNL A   1      37.236  20.311  24.926  1.00  0.00     0.023 C 
BRANCH  24  25
ATOM     25  C   UNL A   1      38.617  20.711  25.439  1.00  0.00     0.116 C 
BRANCH  25  26
ATOM     26  N   UNL A   1      39.578  19.620  25.501  1.00  0.00    -0.352 N 
ATOM     27  C   UNL A   1      40.868  19.648  25.988  1.00  0.00     0.251 C 
ATOM     28  H   UNL A   1      39.268  18.752  25.152  1.00  0.00     0.163 HD
ATOM     29  O   UNL A   1      41.591  18.668  25.900  1.00  0.00    -0.269 OA
BRANCH  27  30
ATOM     30  C   UNL A   1      41.388  20.905  26.572  1.00  0.00     0.039 A 
ATOM     31  C   UNL A   1      41.969  21.849  25.724  1.00  0.00     0.014 A 
ATOM     32  C   UNL A   1      41.251  21.170  27.936  1.00  0.00     0.014 A 
ATOM     33  C   UNL A   1      42.340  23.095  26.233  1.00  0.00     0.010 A 
ATOM     34  C   UNL A   1      41.542  22.438  28.424  1.00  0.00     0.010 A 
ATOM     35  C   UNL A   1      42.090  23.414  27.578  1.00  0.00    -0.014 A 
BRANCH  35  36
ATOM     36  C   UNL A   1      42.406  24.759  28.120  1.00  0.00     0.031 A 
ATOM     37  C   UNL A   1      43.813  25.094  28.528  1.00  0.00     0.074 A 
ATOM     38  C   UNL A   1      41.416  25.654  28.307  1.00  0.00     0.049 A 
ATOM     39  N   UNL A   1      44.280  26.195  29.062  1.00  0.00    -0.248 NA
ATOM     40  C   UNL A   1      44.825  24.042  28.342  1.00  0.00     0.031 C 
ATOM     41  C   UNL A   1      40.000  25.429  28.011  1.00  0.00     0.029 A 
ATOM     42  N   UNL A   1      41.452  26.935  28.797  1.00  0.00    -0.354 N 
ATOM     43  C   UNL A   1      45.628  25.957  29.295  1.00  0.00     0.074 A 
ATOM     44  C   UNL A   1      45.893  24.591  28.899  1.00  0.00     0.031 C 
ATOM     45  C   UNL A   1      39.310  26.547  28.287  1.00  0.00     0.029 A 
ATOM     46  C   UNL A   1      40.226  27.556  28.810  1.00  0.00     0.049 A 
ATOM     47  H   UNL A   1      42.279  27.370  29.109  1.00  0.00     0.167 HD
ATOM     48  C   UNL A   1      46.569  26.807  29.771  1.00  0.00     0.037 A 
ATOM     49  C   UNL A   1      39.884  28.800  29.191  1.00  0.00     0.037 A 
ATOM     50  C   UNL A   1      46.313  28.177  30.124  1.00  0.00     0.049 A 
ATOM     51  C   UNL A   1      40.951  29.734  29.691  1.00  0.00     0.074 A 
ATOM     52  C   UNL A   1      47.212  29.144  30.540  1.00  0.00     0.029 A 
ATOM     53  N   UNL A   1      45.063  28.777  30.098  1.00  0.00    -0.354 N 
ATOM     54  N   UNL A   1      42.237  29.522  29.832  1.00  0.00    -0.248 NA
ATOM     55  C   UNL A   1      40.518  31.084  30.078  1.00  0.00     0.031 C 
ATOM     56  C   UNL A   1      46.499  30.320  30.801  1.00  0.00     0.029 A 
ATOM     57  C   UNL A   1      45.163  30.096  30.507  1.00  0.00     0.049 A 
ATOM     58  H   UNL A   1      44.228  28.331  29.828  1.00  0.00     0.167 HD
ATOM     59  C   UNL A   1      42.772  30.719  30.289  1.00  0.00     0.074 A 
ATOM     60  C   UNL A   1      41.672  31.656  30.395  1.00  0.00     0.031 C 
ATOM     61  C   UNL A   1      44.059  31.017  30.593  1.00  0.00     0.037 A 
BRANCH  48  62
ATOM     62  C   UNL A   1      47.963  26.273  29.926  1.00  0.00     0.057 A 
ATOM     63  C   UNL A   1      48.422  25.744  31.139  1.00  0.00     0.134 A 
ATOM     64  C   UNL A   1      48.854  26.280  28.845  1.00  0.00     0.134 A 
ATOM     65  F   UNL A   1      47.624  25.720  32.216  1.00  0.00    -0.206 F 
ATOM     66  C   UNL A   1      49.728  25.272  31.282  1.00  0.00     0.040 A 
ATOM     67  C   UNL A   1      50.153  25.785  28.969  1.00  0.00     0.040 A 
ATOM     68  F   UNL A   1      48.478  26.769  27.653  1.00  0.00    -0.206 F 
ATOM     69  C   UNL A   1      50.596  25.287  30.193  1.00  0.00     0.006 A 
ENDBRANCH  48  62
BRANCH  49  70
ATOM     70  C   UNL A   1      38.478  29.258  29.066  1.00  0.00     0.057 A 
ATOM     71  C   UNL A   1      37.983  29.722  27.841  1.00  0.00     0.134 A 
ATOM     72  C   UNL A   1      37.602  29.255  30.156  1.00  0.00     0.134 A 
ATOM     73  F   UNL A   1      38.781  29.766  26.764  1.00  0.00    -0.206 F 
ATOM     74  C   UNL A   1      36.673  30.185  27.710  1.00  0.00     0.040 A 
ATOM     75  C   UNL A   1      36.283  29.695  30.034  1.00  0.00     0.040 A 
ATOM     76  F   UNL A   1      38.014  28.816  31.355  1.00  0.00    -0.206 F 
ATOM     77  C   UNL A   1      35.817  30.168  28.809  1.00  0.00     0.006 A 
ENDBRANCH  49  70
BRANCH  61  78
ATOM     78  C   UNL A   1      44.350  32.423  31.027  1.00  0.00     0.057 A 
ATOM     79  C   UNL A   1      44.629  33.440  30.105  1.00  0.00     0.134 A 
ATOM     80  C   UNL A   1      44.321  32.768  32.385  1.00  0.00     0.134 A 
ATOM     81  F   UNL A   1      44.685  33.170  28.792  1.00  0.00    -0.206 F 
ATOM     82  C   UNL A   1      44.893  34.745  30.521  1.00  0.00     0.040 A 
ATOM     83  C   UNL A   1      44.558  34.076  32.810  1.00  0.00     0.040 A 
ATOM     84  F   UNL A   1      44.052  31.843  33.318  1.00  0.00    -0.206 F 
ATOM     85  C   UNL A   1      44.852  35.067  31.876  1.00  0.00     0.006 A 
ENDBRANCH  61  78
ENDBRANCH  35  36
ENDBRANCH  27  30
ENDBRANCH  25  26
ENDBRANCH  24  25
ENDBRANCH   1  24
TORSDOF 16
ENDMDL
MODEL 3
REMARK VINA RESULT:     -11.3      1.356      6.387
REMARK SMILES CC[C@@H](Nc1ccc([N+](=O)[O-])c(N)n1)C(=O)NCCCCNC(=O)c1ccc(-c2c3nc(c(-c4c(F)cccc4F)c4ccc([nH]4)c(-c4c(F)cccc4F)c4nc(c(-c5c(F)cccc5F)c5ccc2[nH]5)C=C4)C=C3)cc1
REMARK SMILES IDX 19 1 18 2 17 3 15 4 16 5 3 7 2 8 1 9 4 10 5 12 6 13 14 14
REMARK SMILES IDX 7 15 12 16 8 17 13 18 9 21 10 22 11 23 20 24 21 25 22 26
REMARK SMILES IDX 23 27 24 29 25 30 26 31 78 32 27 33 77 34 28 35 29 36 30 37
REMARK SMILES IDX 71 38 31 39 76 40 70 41 72 42 32 43 75 44 69 45 68 46 33 48
REMARK SMILES IDX 59 49 42 50 58 51 43 52 46 53 57 54 73 55 44 56 45 57 56 59
REMARK SMILES IDX 74 60 47 61 34 62 35 63 40 64 36 65 37 66 39 67 41 68 38 69
REMARK SMILES IDX 60 70 61 71 66 72 62 73 63 74 65 75 67 76 64 77 48 78 49 79
REMARK SMILES IDX 54 80 50 81 51 82 53 83 55 84 52 85
REMARK H PARENT 17 6 4 11 13 19 13 20 22 28 72 47 46 58
REMARK Flexibility Score: inf
ROOT
ATOM      1  C   UNL A   1      36.113  21.448  25.092  1.00  0.00     0.023 C 
ENDROOT
BRANCH   1   2
ATOM      2  C   UNL A   1      35.858  22.886  24.659  1.00  0.00     0.116 C 
BRANCH   2   3
ATOM      3  N   UNL A   1      35.295  23.016  23.339  1.00  0.00    -0.354 N 
ATOM      4  C   UNL A   1      33.984  23.014  22.954  1.00  0.00     0.242 C 
ATOM      5  O   UNL A   1      33.752  23.403  21.802  1.00  0.00    -0.273 OA
ATOM      6  H   UNL A   1      35.948  23.121  22.611  1.00  0.00     0.163 HD
BRANCH   4   7
ATOM      7  C   UNL A   1      32.826  22.472  23.837  1.00  0.00     0.169 C 
BRANCH   7   8
ATOM      8  C   UNL A   1      31.930  23.606  24.326  1.00  0.00     0.031 C 
ATOM      9  C   UNL A   1      30.696  23.808  23.454  1.00  0.00     0.006 C 
ENDBRANCH   7   8
BRANCH   7  10
ATOM     10  N   UNL A   1      32.182  21.255  23.319  1.00  0.00    -0.358 N 
ATOM     11  H   UNL A   1      31.487  21.455  22.652  1.00  0.00     0.162 HD
BRANCH  10  12
ATOM     12  C   UNL A   1      32.318  19.920  23.539  1.00  0.00     0.129 A 
ATOM     13  C   UNL A   1      32.459  18.942  22.566  1.00  0.00     0.054 A 
ATOM     14  N   UNL A   1      32.385  19.596  24.849  1.00  0.00    -0.208 NA
ATOM     15  C   UNL A   1      32.798  17.642  22.933  1.00  0.00     0.093 A 
ATOM     16  C   UNL A   1      32.667  18.326  25.229  1.00  0.00     0.204 A 
ATOM     17  C   UNL A   1      32.924  17.343  24.287  1.00  0.00     0.311 A 
BRANCH  16  18
ATOM     18  N   UNL A   1      32.774  18.152  26.594  1.00  0.00    -0.378 N 
ATOM     19  H   UNL A   1      32.990  18.918  27.173  1.00  0.00     0.158 HD
ATOM     20  H   UNL A   1      32.637  17.260  26.989  1.00  0.00     0.158 HD
ENDBRANCH  16  18
BRANCH  17  21
ATOM     21  N   UNL A   1      33.333  16.006  24.676  1.00  0.00     0.066 N 
ATOM     22  O   UNL A   1      32.505  15.288  25.256  1.00  0.00    -0.258 OA
ATOM     23  O   UNL A   1      34.479  15.654  24.363  1.00  0.00    -0.258 OA
ENDBRANCH  17  21
ENDBRANCH  10  12
ENDBRANCH   7  10
ENDBRANCH   4   7
ENDBRANCH   2   3
ENDBRANCH   1   2
BRANCH   1  24
ATOM     24  C   UNL A   1      37.461  20.883  24.653  1.00  0.00     0.023 C 
BRANCH  24  25
ATOM     25  C   UNL A   1      38.563  20.902  25.709  1.00  0.00     0.116 C 
BRANCH  25  26
ATOM     26  N   UNL A   1      39.501  19.792  25.625  1.00  0.00    -0.352 N 
ATOM     27  C   UNL A   1      40.832  19.774  25.984  1.00  0.00     0.251 C 
ATOM     28  H   UNL A   1      39.140  18.949  25.266  1.00  0.00     0.163 HD
ATOM     29  O   UNL A   1      41.522  18.788  25.778  1.00  0.00    -0.269 OA
BRANCH  27  30
ATOM     30  C   UNL A   1      41.434  20.991  26.574  1.00  0.00     0.039 A 
ATOM     31  C   UNL A   1      41.961  21.961  25.720  1.00  0.00     0.014 A 
ATOM     32  C   UNL A   1      41.425  21.195  27.956  1.00  0.00     0.014 A 
ATOM     33  C   UNL A   1      42.407  23.174  26.249  1.00  0.00     0.010 A 
ATOM     34  C   UNL A   1      41.791  22.432  28.471  1.00  0.00     0.010 A 
ATOM     35  C   UNL A   1      42.286  23.435  27.624  1.00  0.00    -0.014 A 
BRANCH  35  36
ATOM     36  C   UNL A   1      42.683  24.745  28.195  1.00  0.00     0.031 A 
ATOM     37  C   UNL A   1      41.647  25.810  28.426  1.00  0.00     0.074 A 
ATOM     38  C   UNL A   1      43.982  25.001  28.443  1.00  0.00     0.049 A 
ATOM     39  N   UNL A   1      41.801  27.031  28.874  1.00  0.00    -0.248 NA
ATOM     40  C   UNL A   1      40.259  25.469  28.077  1.00  0.00     0.031 C 
ATOM     41  C   UNL A   1      45.092  24.075  28.204  1.00  0.00     0.029 A 
ATOM     42  N   UNL A   1      44.591  26.122  28.951  1.00  0.00    -0.354 N 
ATOM     43  C   UNL A   1      40.538  27.607  28.837  1.00  0.00     0.074 A 
ATOM     44  C   UNL A   1      39.640  26.624  28.271  1.00  0.00     0.031 C 
ATOM     45  C   UNL A   1      46.238  24.651  28.600  1.00  0.00     0.029 A 
ATOM     46  C   UNL A   1      45.952  25.995  29.091  1.00  0.00     0.049 A 
ATOM     47  H   UNL A   1      44.098  26.940  29.192  1.00  0.00     0.167 HD
ATOM     48  C   UNL A   1      40.152  28.834  29.261  1.00  0.00     0.037 A 
ATOM     49  C   UNL A   1      46.862  26.863  29.570  1.00  0.00     0.037 A 
ATOM     50  C   UNL A   1      41.039  29.793  29.863  1.00  0.00     0.049 A 
ATOM     51  C   UNL A   1      46.406  28.209  30.059  1.00  0.00     0.074 A 
ATOM     52  C   UNL A   1      40.733  31.033  30.398  1.00  0.00     0.029 A 
ATOM     53  N   UNL A   1      42.406  29.617  30.012  1.00  0.00    -0.354 N 
ATOM     54  N   UNL A   1      45.196  28.712  30.093  1.00  0.00    -0.248 NA
ATOM     55  C   UNL A   1      47.445  29.107  30.586  1.00  0.00     0.031 C 
ATOM     56  C   UNL A   1      41.923  31.623  30.839  1.00  0.00     0.029 A 
ATOM     57  C   UNL A   1      42.962  30.733  30.616  1.00  0.00     0.049 A 
ATOM     58  H   UNL A   1      42.907  28.819  29.731  1.00  0.00     0.167 HD
ATOM     59  C   UNL A   1      45.321  29.967  30.674  1.00  0.00     0.074 A 
ATOM     60  C   UNL A   1      46.724  30.146  30.984  1.00  0.00     0.031 C 
ATOM     61  C   UNL A   1      44.360  30.888  30.929  1.00  0.00     0.037 A 
BRANCH  48  62
ATOM     62  C   UNL A   1      38.706  29.196  29.094  1.00  0.00     0.057 A 
ATOM     63  C   UNL A   1      37.802  29.143  30.163  1.00  0.00     0.134 A 
ATOM     64  C   UNL A   1      38.213  29.611  27.850  1.00  0.00     0.134 A 
ATOM     65  F   UNL A   1      38.206  28.740  31.376  1.00  0.00    -0.206 F 
ATOM     66  C   UNL A   1      36.452  29.458  29.994  1.00  0.00     0.040 A 
ATOM     67  C   UNL A   1      36.872  29.956  27.677  1.00  0.00     0.040 A 
ATOM     68  F   UNL A   1      39.026  29.689  26.785  1.00  0.00    -0.206 F 
ATOM     69  C   UNL A   1      35.985  29.871  28.749  1.00  0.00     0.006 A 
ENDBRANCH  48  62
BRANCH  49  70
ATOM     70  C   UNL A   1      48.290  26.470  29.663  1.00  0.00     0.057 A 
ATOM     71  C   UNL A   1      48.782  25.827  30.805  1.00  0.00     0.134 A 
ATOM     72  C   UNL A   1      49.195  26.731  28.629  1.00  0.00     0.134 A 
ATOM     73  F   UNL A   1      47.966  25.566  31.837  1.00  0.00    -0.206 F 
ATOM     74  C   UNL A   1      50.128  25.476  30.925  1.00  0.00     0.040 A 
ATOM     75  C   UNL A   1      50.539  26.366  28.726  1.00  0.00     0.040 A 
ATOM     76  F   UNL A   1      48.784  27.338  27.506  1.00  0.00    -0.206 F 
ATOM     77  C   UNL A   1      51.010  25.742  29.879  1.00  0.00     0.006 A 
ENDBRANCH  49  70
BRANCH  61  78
ATOM     78  C   UNL A   1      44.789  32.152  31.613  1.00  0.00     0.057 A 
ATOM     79  C   UNL A   1      45.178  33.288  30.894  1.00  0.00     0.134 A 
ATOM     80  C   UNL A   1      44.783  32.239  33.012  1.00  0.00     0.134 A 
ATOM     81  F   UNL A   1      45.218  33.263  29.553  1.00  0.00    -0.206 F 
ATOM     82  C   UNL A   1      45.570  34.460  31.542  1.00  0.00     0.040 A 
ATOM     83  C   UNL A   1      45.148  33.414  33.670  1.00  0.00     0.040 A 
ATOM     84  F   UNL A   1      44.413  31.189  33.759  1.00  0.00    -0.206 F 
ATOM     85  C   UNL A   1      45.550  34.527  32.934  1.00  0.00     0.006 A 
ENDBRANCH  61  78
ENDBRANCH  35  36
ENDBRANCH  27  30
ENDBRANCH  25  26
ENDBRANCH  24  25
ENDBRANCH   1  24
TORSDOF 16
ENDMDL
