MODEL 1
REMARK VINA RESULT:     -12.1      0.000      0.000
REMARK SMILES CC(=O)N[C@H]1[C@@H](Oc2ccc(C)c(C)c2)O[C@H]2CO[C@H](c3ccco3)O[C@@H]2[C@H]1OCC(=O)NCCCCNC(=O)c1ccc(-c2c3nc(c(-c4c(F)cccc4F)c4ccc([nH]4)c(-c4c(F)cccc4F)c4nc(c(-c5c(F)cccc5F)c5ccc2[nH]5)C=C4)C=C3)cc1
REMARK SMILES IDX 34 1 33 2 31 3 32 4 30 6 29 7 28 8 5 9 6 10 16 11 27 12
REMARK SMILES IDX 17 13 26 14 18 15 20 16 19 17 4 18 1 19 2 20 3 21 7 23 8 24
REMARK SMILES IDX 9 25 15 26 10 27 13 28 11 29 14 30 12 31 21 32 22 33 25 34
REMARK SMILES IDX 23 35 24 36 35 37 36 38 37 39 38 40 39 41 40 43 41 44 42 45
REMARK SMILES IDX 94 46 43 47 93 48 44 49 45 50 46 51 87 52 47 53 92 54 86 55
REMARK SMILES IDX 88 56 48 57 91 58 85 59 84 60 49 62 75 63 58 64 74 65 59 66
REMARK SMILES IDX 62 67 73 68 89 69 60 70 61 71 72 73 90 74 63 75 50 76 51 77
REMARK SMILES IDX 56 78 52 79 53 80 55 81 57 82 54 83 76 84 77 85 82 86 78 87
REMARK SMILES IDX 79 88 81 89 83 90 80 91 64 92 65 93 70 94 66 95 67 96 69 97
REMARK SMILES IDX 71 98 68 99
REMARK H PARENT 33 5 4 22 38 42 88 61 62 72
REMARK Flexibility Score: inf
ROOT
ATOM      1  C   UNL A   1      35.860  21.924  25.855  1.00  0.00     0.116 C 
ENDROOT
BRANCH   1   2
ATOM      2  N   UNL A   1      34.773  21.221  26.480  1.00  0.00    -0.354 N 
ATOM      3  C   UNL A   1      33.855  21.802  27.295  1.00  0.00     0.246 C 
ATOM      4  O   UNL A   1      33.295  21.075  28.111  1.00  0.00    -0.272 OA
ATOM      5  H   UNL A   1      34.689  20.256  26.305  1.00  0.00     0.163 HD
BRANCH   3   6
ATOM      6  C   UNL A   1      33.581  23.316  27.114  1.00  0.00     0.260 C 
BRANCH   6   7
ATOM      7  O   UNL A   1      32.305  23.815  26.820  1.00  0.00    -0.363 OA
BRANCH   7   8
ATOM      8  C   UNL A   1      31.918  23.952  25.457  1.00  0.00     0.179 C 
ATOM      9  C   UNL A   1      31.992  25.460  25.053  1.00  0.00     0.182 C 
ATOM     10  C   UNL A   1      31.595  25.580  23.506  1.00  0.00     0.333 C 
ATOM     11  O   UNL A   1      32.060  24.547  22.632  1.00  0.00    -0.332 OA
ATOM     12  C   UNL A   1      32.416  22.941  24.375  1.00  0.00     0.184 C 
ATOM     13  C   UNL A   1      31.705  23.244  23.056  1.00  0.00     0.180 C 
ATOM     14  O   UNL A   1      32.197  21.563  24.726  1.00  0.00    -0.337 OA
ATOM     15  C   UNL A   1      32.126  22.220  21.995  1.00  0.00     0.199 C 
ATOM     16  C   UNL A   1      32.706  20.722  23.677  1.00  0.00     0.319 C 
ATOM     17  O   UNL A   1      31.957  20.887  22.478  1.00  0.00    -0.343 OA
BRANCH   9  18
ATOM     18  N   UNL A   1      33.185  26.307  25.389  1.00  0.00    -0.345 N 
ATOM     19  C   UNL A   1      32.977  28.119  27.160  1.00  0.00     0.114 C 
ATOM     20  C   UNL A   1      33.654  27.372  26.059  1.00  0.00     0.217 C 
ATOM     21  O   UNL A   1      34.780  27.757  25.711  1.00  0.00    -0.275 OA
ATOM     22  H   UNL A   1      33.954  25.913  24.917  1.00  0.00     0.164 HD
ENDBRANCH   9  18
BRANCH  10  23
ATOM     23  O   UNL A   1      31.827  26.876  22.925  1.00  0.00    -0.463 OA
BRANCH  23  24
ATOM     24  C   UNL A   1      30.786  27.742  22.696  1.00  0.00     0.123 A 
ATOM     25  C   UNL A   1      30.881  29.066  22.269  1.00  0.00     0.047 A 
ATOM     26  C   UNL A   1      29.551  27.263  23.133  1.00  0.00     0.050 A 
ATOM     27  C   UNL A   1      29.791  29.929  22.416  1.00  0.00     0.007 A 
ATOM     28  C   UNL A   1      28.436  28.112  23.257  1.00  0.00    -0.045 A 
ATOM     29  C   UNL A   1      28.575  29.477  22.949  1.00  0.00    -0.048 A 
ATOM     30  C   UNL A   1      27.157  27.509  23.768  1.00  0.00     0.045 C 
ATOM     31  C   UNL A   1      27.481  30.475  23.204  1.00  0.00     0.044 C 
ENDBRANCH  23  24
ENDBRANCH  10  23
BRANCH  16  32
ATOM     32  C   UNL A   1      32.668  19.279  24.069  1.00  0.00     0.159 A 
ATOM     33  C   UNL A   1      32.878  18.121  23.340  1.00  0.00     0.051 A 
ATOM     34  O   UNL A   1      32.544  18.961  25.394  1.00  0.00    -0.464 OA
ATOM     35  C   UNL A   1      32.921  17.052  24.268  1.00  0.00     0.042 A 
ATOM     36  C   UNL A   1      32.696  17.615  25.501  1.00  0.00     0.195 A 
ENDBRANCH  16  32
ENDBRANCH   7   8
ENDBRANCH   6   7
ENDBRANCH   3   6
ENDBRANCH   1   2
BRANCH   1  37
ATOM     37  C   UNL A   1      36.331  21.153  24.620  1.00  0.00     0.023 C 
BRANCH  37  38
ATOM     38  C   UNL A   1      37.378  20.074  24.919  1.00  0.00     0.023 C 
BRANCH  38  39
ATOM     39  C   UNL A   1      38.637  20.603  25.583  1.00  0.00     0.116 C 
BRANCH  39  40
ATOM     40  N   UNL A   1      39.670  19.584  25.657  1.00  0.00    -0.352 N 
ATOM     41  C   UNL A   1      40.976  19.702  26.039  1.00  0.00     0.251 C 
ATOM     42  H   UNL A   1      39.389  18.677  25.394  1.00  0.00     0.163 HD
ATOM     43  O   UNL A   1      41.752  18.769  25.899  1.00  0.00    -0.269 OA
BRANCH  41  44
ATOM     44  C   UNL A   1      41.429  20.983  26.595  1.00  0.00     0.039 A 
ATOM     45  C   UNL A   1      41.941  21.938  25.717  1.00  0.00     0.014 A 
ATOM     46  C   UNL A   1      41.320  21.239  27.964  1.00  0.00     0.014 A 
ATOM     47  C   UNL A   1      42.326  23.176  26.216  1.00  0.00     0.010 A 
ATOM     48  C   UNL A   1      41.633  22.501  28.448  1.00  0.00     0.010 A 
ATOM     49  C   UNL A   1      42.156  23.469  27.580  1.00  0.00    -0.014 A 
BRANCH  49  50
ATOM     50  C   UNL A   1      42.571  24.778  28.123  1.00  0.00     0.031 A 
ATOM     51  C   UNL A   1      41.542  25.852  28.326  1.00  0.00     0.074 A 
ATOM     52  C   UNL A   1      43.871  25.001  28.393  1.00  0.00     0.049 A 
ATOM     53  N   UNL A   1      41.702  27.079  28.746  1.00  0.00    -0.248 NA
ATOM     54  C   UNL A   1      40.150  25.510  27.985  1.00  0.00     0.031 C 
ATOM     55  C   UNL A   1      44.956  24.038  28.188  1.00  0.00     0.029 A 
ATOM     56  N   UNL A   1      44.498  26.108  28.898  1.00  0.00    -0.354 N 
ATOM     57  C   UNL A   1      40.439  27.655  28.709  1.00  0.00     0.074 A 
ATOM     58  C   UNL A   1      39.533  26.667  28.169  1.00  0.00     0.031 C 
ATOM     59  C   UNL A   1      46.113  24.590  28.590  1.00  0.00     0.029 A 
ATOM     60  C   UNL A   1      45.853  25.950  29.051  1.00  0.00     0.049 A 
ATOM     61  H   UNL A   1      44.022  26.938  29.129  1.00  0.00     0.167 HD
ATOM     62  C   UNL A   1      40.066  28.890  29.117  1.00  0.00     0.037 A 
ATOM     63  C   UNL A   1      46.777  26.811  29.514  1.00  0.00     0.037 A 
ATOM     64  C   UNL A   1      40.971  29.853  29.682  1.00  0.00     0.049 A 
ATOM     65  C   UNL A   1      46.330  28.171  29.975  1.00  0.00     0.074 A 
ATOM     66  C   UNL A   1      40.695  31.122  30.159  1.00  0.00     0.029 A 
ATOM     67  N   UNL A   1      42.331  29.644  29.855  1.00  0.00    -0.354 N 
ATOM     68  N   UNL A   1      45.124  28.687  29.982  1.00  0.00    -0.248 NA
ATOM     69  C   UNL A   1      47.369  29.064  30.504  1.00  0.00     0.031 C 
ATOM     70  C   UNL A   1      41.895  31.691  30.598  1.00  0.00     0.029 A 
ATOM     71  C   UNL A   1      42.909  30.762  30.431  1.00  0.00     0.049 A 
ATOM     72  H   UNL A   1      42.814  28.823  29.605  1.00  0.00     0.167 HD
ATOM     73  C   UNL A   1      45.253  29.947  30.549  1.00  0.00     0.074 A 
ATOM     74  C   UNL A   1      46.653  30.113  30.882  1.00  0.00     0.031 C 
ATOM     75  C   UNL A   1      44.302  30.887  30.775  1.00  0.00     0.037 A 
BRANCH  62  76
ATOM     76  C   UNL A   1      38.617  29.253  28.985  1.00  0.00     0.057 A 
ATOM     77  C   UNL A   1      38.075  29.679  27.765  1.00  0.00     0.134 A 
ATOM     78  C   UNL A   1      37.748  29.148  30.076  1.00  0.00     0.134 A 
ATOM     79  F   UNL A   1      38.858  29.819  26.685  1.00  0.00    -0.206 F 
ATOM     80  C   UNL A   1      36.724  30.004  27.640  1.00  0.00     0.040 A 
ATOM     81  C   UNL A   1      36.389  29.446  29.958  1.00  0.00     0.040 A 
ATOM     82  F   UNL A   1      38.201  28.746  31.274  1.00  0.00    -0.206 F 
ATOM     83  C   UNL A   1      35.875  29.879  28.737  1.00  0.00     0.006 A 
ENDBRANCH  62  76
BRANCH  63  84
ATOM     84  C   UNL A   1      48.202  26.409  29.602  1.00  0.00     0.057 A 
ATOM     85  C   UNL A   1      49.081  26.634  28.537  1.00  0.00     0.134 A 
ATOM     86  C   UNL A   1      48.714  25.772  30.738  1.00  0.00     0.134 A 
ATOM     87  F   UNL A   1      48.646  27.229  27.417  1.00  0.00    -0.206 F 
ATOM     88  C   UNL A   1      50.411  26.212  28.584  1.00  0.00     0.040 A 
ATOM     89  C   UNL A   1      50.049  25.367  30.810  1.00  0.00     0.040 A 
ATOM     90  F   UNL A   1      47.926  25.540  31.799  1.00  0.00    -0.206 F 
ATOM     91  C   UNL A   1      50.898  25.578  29.725  1.00  0.00     0.006 A 
ENDBRANCH  63  84
BRANCH  75  92
ATOM     92  C   UNL A   1      44.737  32.145  31.462  1.00  0.00     0.057 A 
ATOM     93  C   UNL A   1      45.165  33.270  30.746  1.00  0.00     0.134 A 
ATOM     94  C   UNL A   1      44.690  32.241  32.858  1.00  0.00     0.134 A 
ATOM     95  F   UNL A   1      45.242  33.234  29.407  1.00  0.00    -0.206 F 
ATOM     96  C   UNL A   1      45.556  34.439  31.397  1.00  0.00     0.040 A 
ATOM     97  C   UNL A   1      45.055  33.414  33.519  1.00  0.00     0.040 A 
ATOM     98  F   UNL A   1      44.280  31.201  33.600  1.00  0.00    -0.206 F 
ATOM     99  C   UNL A   1      45.495  34.516  32.788  1.00  0.00     0.006 A 
ENDBRANCH  75  92
ENDBRANCH  49  50
ENDBRANCH  41  44
ENDBRANCH  39  40
ENDBRANCH  38  39
ENDBRANCH  37  38
ENDBRANCH   1  37
TORSDOF 17
ENDMDL
MODEL 2
REMARK VINA RESULT:     -12.1      0.630      5.875
REMARK SMILES CC(=O)N[C@H]1[C@@H](Oc2ccc(C)c(C)c2)O[C@H]2CO[C@H](c3ccco3)O[C@@H]2[C@H]1OCC(=O)NCCCCNC(=O)c1ccc(-c2c3nc(c(-c4c(F)cccc4F)c4ccc([nH]4)c(-c4c(F)cccc4F)c4nc(c(-c5c(F)cccc5F)c5ccc2[nH]5)C=C4)C=C3)cc1
REMARK SMILES IDX 34 1 33 2 31 3 32 4 30 6 29 7 28 8 5 9 6 10 16 11 27 12
REMARK SMILES IDX 17 13 26 14 18 15 20 16 19 17 4 18 1 19 2 20 3 21 7 23 8 24
REMARK SMILES IDX 9 25 15 26 10 27 13 28 11 29 14 30 12 31 21 32 22 33 25 34
REMARK SMILES IDX 23 35 24 36 35 37 36 38 37 39 38 40 39 41 40 43 41 44 42 45
REMARK SMILES IDX 94 46 43 47 93 48 44 49 45 50 46 51 87 52 47 53 92 54 86 55
REMARK SMILES IDX 88 56 48 57 91 58 85 59 84 60 49 62 75 63 58 64 74 65 59 66
REMARK SMILES IDX 62 67 73 68 89 69 60 70 61 71 72 73 90 74 63 75 50 76 51 77
REMARK SMILES IDX 56 78 52 79 53 80 55 81 57 82 54 83 76 84 77 85 82 86 78 87
REMARK SMILES IDX 79 88 81 89 83 90 80 91 64 92 65 93 70 94 66 95 67 96 69 97
REMARK SMILES IDX 71 98 68 99
REMARK H PARENT 33 5 4 22 38 42 88 61 62 72
REMARK Flexibility Score: inf
ROOT
ATOM      1  C   UNL A   1      36.307  21.983  25.422  1.00  0.00     0.116 C 
ENDROOT
BRANCH   1   2
ATOM      2  N   UNL A   1      35.387  21.105  26.092  1.00  0.00    -0.354 N 
ATOM      3  C   UNL A   1      34.441  21.519  26.975  1.00  0.00     0.246 C 
ATOM      4  O   UNL A   1      34.056  20.698  27.803  1.00  0.00    -0.272 OA
ATOM      5  H   UNL A   1      35.445  20.142  25.896  1.00  0.00     0.163 HD
BRANCH   3   6
ATOM      6  C   UNL A   1      33.921  22.973  26.851  1.00  0.00     0.260 C 
BRANCH   6   7
ATOM      7  O   UNL A   1      32.558  23.269  26.710  1.00  0.00    -0.363 OA
BRANCH   7   8
ATOM      8  C   UNL A   1      31.976  23.224  25.412  1.00  0.00     0.179 C 
ATOM      9  C   UNL A   1      31.787  24.683  24.884  1.00  0.00     0.182 C 
ATOM     10  C   UNL A   1      31.172  24.601  23.408  1.00  0.00     0.333 C 
ATOM     11  O   UNL A   1      31.652  23.555  22.558  1.00  0.00    -0.332 OA
ATOM     12  C   UNL A   1      32.457  22.183  24.352  1.00  0.00     0.184 C 
ATOM     13  C   UNL A   1      31.540  22.265  23.131  1.00  0.00     0.180 C 
ATOM     14  O   UNL A   1      32.479  20.829  24.838  1.00  0.00    -0.337 OA
ATOM     15  C   UNL A   1      31.951  21.203  22.104  1.00  0.00     0.199 C 
ATOM     16  C   UNL A   1      32.953  19.960  23.795  1.00  0.00     0.319 C 
ATOM     17  O   UNL A   1      32.033  19.912  22.709  1.00  0.00    -0.343 OA
BRANCH   9  18
ATOM     18  N   UNL A   1      32.887  25.701  24.974  1.00  0.00    -0.345 N 
ATOM     19  C   UNL A   1      32.678  27.632  26.615  1.00  0.00     0.114 C 
ATOM     20  C   UNL A   1      33.293  26.875  25.485  1.00  0.00     0.217 C 
ATOM     21  O   UNL A   1      34.296  27.364  24.945  1.00  0.00    -0.275 OA
ATOM     22  H   UNL A   1      33.630  25.363  24.423  1.00  0.00     0.164 HD
ENDBRANCH   9  18
BRANCH  10  23
ATOM     23  O   UNL A   1      31.143  25.854  22.699  1.00  0.00    -0.463 OA
BRANCH  23  24
ATOM     24  C   UNL A   1      30.244  26.834  23.037  1.00  0.00     0.123 A 
ATOM     25  C   UNL A   1      29.040  26.663  23.718  1.00  0.00     0.047 A 
ATOM     26  C   UNL A   1      30.514  28.071  22.450  1.00  0.00     0.050 A 
ATOM     27  C   UNL A   1      28.067  27.666  23.685  1.00  0.00     0.007 A 
ATOM     28  C   UNL A   1      29.557  29.102  22.435  1.00  0.00    -0.045 A 
ATOM     29  C   UNL A   1      28.294  28.874  23.010  1.00  0.00    -0.048 A 
ATOM     30  C   UNL A   1      29.930  30.386  21.748  1.00  0.00     0.045 C 
ATOM     31  C   UNL A   1      27.168  29.863  22.897  1.00  0.00     0.044 C 
ENDBRANCH  23  24
ENDBRANCH  10  23
BRANCH  16  32
ATOM     32  C   UNL A   1      33.166  18.569  24.301  1.00  0.00     0.159 A 
ATOM     33  C   UNL A   1      34.240  17.701  24.185  1.00  0.00     0.051 A 
ATOM     34  O   UNL A   1      32.242  18.030  25.155  1.00  0.00    -0.464 OA
ATOM     35  C   UNL A   1      33.973  16.601  25.036  1.00  0.00     0.042 A 
ATOM     36  C   UNL A   1      32.739  16.843  25.590  1.00  0.00     0.195 A 
ENDBRANCH  16  32
ENDBRANCH   7   8
ENDBRANCH   6   7
ENDBRANCH   3   6
ENDBRANCH   1   2
BRANCH   1  37
ATOM     37  C   UNL A   1      37.089  21.201  24.365  1.00  0.00     0.023 C 
BRANCH  37  38
ATOM     38  C   UNL A   1      37.786  19.946  24.903  1.00  0.00     0.023 C 
BRANCH  38  39
ATOM     39  C   UNL A   1      38.822  20.228  25.977  1.00  0.00     0.116 C 
BRANCH  39  40
ATOM     40  N   UNL A   1      39.978  19.358  25.845  1.00  0.00    -0.352 N 
ATOM     41  C   UNL A   1      41.300  19.641  26.036  1.00  0.00     0.251 C 
ATOM     42  H   UNL A   1      39.780  18.431  25.580  1.00  0.00     0.163 HD
ATOM     43  O   UNL A   1      42.160  18.827  25.735  1.00  0.00    -0.269 OA
BRANCH  41  44
ATOM     44  C   UNL A   1      41.663  20.954  26.584  1.00  0.00     0.039 A 
ATOM     45  C   UNL A   1      42.175  21.914  25.712  1.00  0.00     0.014 A 
ATOM     46  C   UNL A   1      41.470  21.232  27.940  1.00  0.00     0.014 A 
ATOM     47  C   UNL A   1      42.473  23.179  26.201  1.00  0.00     0.010 A 
ATOM     48  C   UNL A   1      41.696  22.517  28.410  1.00  0.00     0.010 A 
ATOM     49  C   UNL A   1      42.219  23.492  27.548  1.00  0.00    -0.014 A 
BRANCH  49  50
ATOM     50  C   UNL A   1      42.542  24.831  28.081  1.00  0.00     0.031 A 
ATOM     51  C   UNL A   1      43.964  25.161  28.430  1.00  0.00     0.074 A 
ATOM     52  C   UNL A   1      41.552  25.720  28.280  1.00  0.00     0.049 A 
ATOM     53  N   UNL A   1      44.451  26.256  28.951  1.00  0.00    -0.248 NA
ATOM     54  C   UNL A   1      44.969  24.112  28.188  1.00  0.00     0.031 C 
ATOM     55  C   UNL A   1      40.131  25.480  28.016  1.00  0.00     0.029 A 
ATOM     56  N   UNL A   1      41.591  27.005  28.752  1.00  0.00    -0.354 N 
ATOM     57  C   UNL A   1      45.811  26.022  29.108  1.00  0.00     0.074 A 
ATOM     58  C   UNL A   1      46.064  24.664  28.685  1.00  0.00     0.031 C 
ATOM     59  C   UNL A   1      39.438  26.594  28.305  1.00  0.00     0.029 A 
ATOM     60  C   UNL A   1      40.360  27.611  28.801  1.00  0.00     0.049 A 
ATOM     61  H   UNL A   1      42.423  27.452  29.030  1.00  0.00     0.167 HD
ATOM     62  C   UNL A   1      46.768  26.878  29.539  1.00  0.00     0.037 A 
ATOM     63  C   UNL A   1      40.022  28.850  29.200  1.00  0.00     0.037 A 
ATOM     64  C   UNL A   1      46.509  28.237  29.927  1.00  0.00     0.049 A 
ATOM     65  C   UNL A   1      41.108  29.783  29.659  1.00  0.00     0.074 A 
ATOM     66  C   UNL A   1      47.407  29.201  30.348  1.00  0.00     0.029 A 
ATOM     67  N   UNL A   1      45.254  28.827  29.928  1.00  0.00    -0.354 N 
ATOM     68  N   UNL A   1      42.398  29.567  29.755  1.00  0.00    -0.248 NA
ATOM     69  C   UNL A   1      40.694  31.136  30.054  1.00  0.00     0.031 C 
ATOM     70  C   UNL A   1      46.690  30.369  30.629  1.00  0.00     0.029 A 
ATOM     71  C   UNL A   1      45.353  30.143  30.345  1.00  0.00     0.049 A 
ATOM     72  H   UNL A   1      44.416  28.377  29.672  1.00  0.00     0.167 HD
ATOM     73  C   UNL A   1      42.953  30.764  30.183  1.00  0.00     0.074 A 
ATOM     74  C   UNL A   1      41.860  31.706  30.319  1.00  0.00     0.031 C 
ATOM     75  C   UNL A   1      44.250  31.063  30.444  1.00  0.00     0.037 A 
BRANCH  62  76
ATOM     76  C   UNL A   1      48.178  26.369  29.590  1.00  0.00     0.057 A 
ATOM     77  C   UNL A   1      49.053  26.520  28.506  1.00  0.00     0.134 A 
ATOM     78  C   UNL A   1      48.677  25.752  30.743  1.00  0.00     0.134 A 
ATOM     79  F   UNL A   1      48.632  27.086  27.366  1.00  0.00    -0.206 F 
ATOM     80  C   UNL A   1      50.369  26.058  28.560  1.00  0.00     0.040 A 
ATOM     81  C   UNL A   1      49.999  25.309  30.819  1.00  0.00     0.040 A 
ATOM     82  F   UNL A   1      47.893  25.577  31.817  1.00  0.00    -0.206 F 
ATOM     83  C   UNL A   1      50.847  25.457  29.723  1.00  0.00     0.006 A 
ENDBRANCH  62  76
BRANCH  63  84
ATOM     84  C   UNL A   1      38.607  29.295  29.151  1.00  0.00     0.057 A 
ATOM     85  C   UNL A   1      37.796  29.243  30.290  1.00  0.00     0.134 A 
ATOM     86  C   UNL A   1      38.027  29.760  27.965  1.00  0.00     0.134 A 
ATOM     87  F   UNL A   1      38.292  28.795  31.452  1.00  0.00    -0.206 F 
ATOM     88  C   UNL A   1      36.449  29.607  30.246  1.00  0.00     0.040 A 
ATOM     89  C   UNL A   1      36.688  30.151  27.912  1.00  0.00     0.040 A 
ATOM     90  F   UNL A   1      38.755  29.846  26.842  1.00  0.00    -0.206 F 
ATOM     91  C   UNL A   1      35.892  30.065  29.053  1.00  0.00     0.006 A 
ENDBRANCH  63  84
BRANCH  75  92
ATOM     92  C   UNL A   1      44.557  32.475  30.843  1.00  0.00     0.057 A 
ATOM     93  C   UNL A   1      44.604  32.871  32.185  1.00  0.00     0.134 A 
ATOM     94  C   UNL A   1      44.846  33.437  29.868  1.00  0.00     0.134 A 
ATOM     95  F   UNL A   1      44.325  31.996  33.162  1.00  0.00    -0.206 F 
ATOM     96  C   UNL A   1      44.903  34.185  32.543  1.00  0.00     0.040 A 
ATOM     97  C   UNL A   1      45.171  34.748  30.216  1.00  0.00     0.040 A 
ATOM     98  F   UNL A   1      44.827  33.117  28.565  1.00  0.00    -0.206 F 
ATOM     99  C   UNL A   1      45.194  35.127  31.556  1.00  0.00     0.006 A 
ENDBRANCH  75  92
ENDBRANCH  49  50
ENDBRANCH  41  44
ENDBRANCH  39  40
ENDBRANCH  38  39
ENDBRANCH  37  38
ENDBRANCH   1  37
TORSDOF 17
ENDMDL
MODEL 3
REMARK VINA RESULT:     -12.0      4.233      8.146
REMARK SMILES CC(=O)N[C@H]1[C@@H](Oc2ccc(C)c(C)c2)O[C@H]2CO[C@H](c3ccco3)O[C@@H]2[C@H]1OCC(=O)NCCCCNC(=O)c1ccc(-c2c3nc(c(-c4c(F)cccc4F)c4ccc([nH]4)c(-c4c(F)cccc4F)c4nc(c(-c5c(F)cccc5F)c5ccc2[nH]5)C=C4)C=C3)cc1
REMARK SMILES IDX 34 1 33 2 31 3 32 4 30 6 29 7 28 8 5 9 6 10 16 11 27 12
REMARK SMILES IDX 17 13 26 14 18 15 20 16 19 17 4 18 1 19 2 20 3 21 7 23 8 24
REMARK SMILES IDX 9 25 15 26 10 27 13 28 11 29 14 30 12 31 21 32 22 33 25 34
REMARK SMILES IDX 23 35 24 36 35 37 36 38 37 39 38 40 39 41 40 43 41 44 42 45
REMARK SMILES IDX 94 46 43 47 93 48 44 49 45 50 46 51 87 52 47 53 92 54 86 55
REMARK SMILES IDX 88 56 48 57 91 58 85 59 84 60 49 62 75 63 58 64 74 65 59 66
REMARK SMILES IDX 62 67 73 68 89 69 60 70 61 71 72 73 90 74 63 75 50 76 51 77
REMARK SMILES IDX 56 78 52 79 53 80 55 81 57 82 54 83 76 84 77 85 82 86 78 87
REMARK SMILES IDX 79 88 81 89 83 90 80 91 64 92 65 93 70 94 66 95 67 96 69 97
REMARK SMILES IDX 71 98 68 99
REMARK H PARENT 33 5 4 22 38 42 88 61 62 72
REMARK Flexibility Score: inf
ROOT
ATOM      1  C   UNL A   1      37.719  23.923  26.002  1.00  0.00     0.116 C 
ENDROOT
BRANCH   1   2
ATOM      2  N   UNL A   1      37.825  22.562  25.550  1.00  0.00    -0.354 N 
ATOM      3  C   UNL A   1      37.161  22.060  24.477  1.00  0.00     0.246 C 
ATOM      4  O   UNL A   1      36.955  20.850  24.466  1.00  0.00    -0.272 OA
ATOM      5  H   UNL A   1      38.419  21.956  26.049  1.00  0.00     0.163 HD
BRANCH   3   6
ATOM      6  C   UNL A   1      36.740  23.047  23.359  1.00  0.00     0.260 C 
BRANCH   6   7
ATOM      7  O   UNL A   1      35.407  23.191  22.952  1.00  0.00    -0.363 OA
BRANCH   7   8
ATOM      8  C   UNL A   1      34.410  23.437  23.939  1.00  0.00     0.179 C 
ATOM      9  C   UNL A   1      33.987  24.941  23.876  1.00  0.00     0.182 C 
ATOM     10  C   UNL A   1      32.836  25.179  24.964  1.00  0.00     0.333 C 
ATOM     11  O   UNL A   1      31.870  24.137  25.130  1.00  0.00    -0.332 OA
ATOM     12  C   UNL A   1      33.247  22.422  24.176  1.00  0.00     0.184 C 
ATOM     13  C   UNL A   1      32.444  22.871  25.398  1.00  0.00     0.180 C 
ATOM     14  O   UNL A   1      33.692  21.068  24.373  1.00  0.00    -0.337 OA
ATOM     15  C   UNL A   1      31.338  21.850  25.693  1.00  0.00     0.199 C 
ATOM     16  C   UNL A   1      32.547  20.217  24.562  1.00  0.00     0.319 C 
ATOM     17  O   UNL A   1      31.872  20.529  25.775  1.00  0.00    -0.343 OA
BRANCH   9  18
ATOM     18  N   UNL A   1      33.670  25.616  22.573  1.00  0.00    -0.345 N 
ATOM     19  C   UNL A   1      34.101  28.107  22.313  1.00  0.00     0.114 C 
ATOM     20  C   UNL A   1      33.567  26.775  21.904  1.00  0.00     0.217 C 
ATOM     21  O   UNL A   1      32.961  26.706  20.824  1.00  0.00    -0.275 OA
ATOM     22  H   UNL A   1      33.440  24.902  21.934  1.00  0.00     0.164 HD
ENDBRANCH   9  18
BRANCH  10  23
ATOM     23  O   UNL A   1      32.187  26.461  24.880  1.00  0.00    -0.463 OA
BRANCH  23  24
ATOM     24  C   UNL A   1      32.786  27.588  25.384  1.00  0.00     0.123 A 
ATOM     25  C   UNL A   1      33.986  27.651  26.092  1.00  0.00     0.047 A 
ATOM     26  C   UNL A   1      31.981  28.727  25.324  1.00  0.00     0.050 A 
ATOM     27  C   UNL A   1      34.298  28.787  26.844  1.00  0.00     0.007 A 
ATOM     28  C   UNL A   1      32.298  29.890  26.050  1.00  0.00    -0.045 A 
ATOM     29  C   UNL A   1      33.442  29.898  26.867  1.00  0.00    -0.048 A 
ATOM     30  C   UNL A   1      31.351  31.052  25.947  1.00  0.00     0.045 C 
ATOM     31  C   UNL A   1      33.762  31.039  27.792  1.00  0.00     0.044 C 
ENDBRANCH  23  24
ENDBRANCH  10  23
BRANCH  16  32
ATOM     32  C   UNL A   1      32.941  18.775  24.591  1.00  0.00     0.159 A 
ATOM     33  C   UNL A   1      34.112  18.133  24.225  1.00  0.00     0.051 A 
ATOM     34  O   UNL A   1      32.106  17.877  25.199  1.00  0.00    -0.464 OA
ATOM     35  C   UNL A   1      34.000  16.791  24.663  1.00  0.00     0.042 A 
ATOM     36  C   UNL A   1      32.755  16.684  25.234  1.00  0.00     0.195 A 
ENDBRANCH  16  32
ENDBRANCH   7   8
ENDBRANCH   6   7
ENDBRANCH   3   6
ENDBRANCH   1   2
BRANCH   1  37
ATOM     37  C   UNL A   1      38.579  24.118  27.253  1.00  0.00     0.023 C 
BRANCH  37  38
ATOM     38  C   UNL A   1      39.572  25.282  27.154  1.00  0.00     0.023 C 
BRANCH  38  39
ATOM     39  C   UNL A   1      40.672  25.069  26.128  1.00  0.00     0.116 C 
BRANCH  39  40
ATOM     40  N   UNL A   1      41.318  23.779  26.298  1.00  0.00    -0.352 N 
ATOM     41  C   UNL A   1      42.648  23.476  26.338  1.00  0.00     0.251 C 
ATOM     42  H   UNL A   1      40.709  23.011  26.398  1.00  0.00     0.163 HD
ATOM     43  O   UNL A   1      43.023  22.313  26.337  1.00  0.00    -0.269 OA
BRANCH  41  44
ATOM     44  C   UNL A   1      43.616  24.580  26.356  1.00  0.00     0.039 A 
ATOM     45  C   UNL A   1      44.015  25.127  25.136  1.00  0.00     0.014 A 
ATOM     46  C   UNL A   1      44.098  25.081  27.568  1.00  0.00     0.014 A 
ATOM     47  C   UNL A   1      44.889  26.206  25.134  1.00  0.00     0.010 A 
ATOM     48  C   UNL A   1      44.909  26.205  27.566  1.00  0.00     0.010 A 
ATOM     49  C   UNL A   1      45.325  26.762  26.349  1.00  0.00    -0.014 A 
BRANCH  49  50
ATOM     50  C   UNL A   1      46.263  27.903  26.358  1.00  0.00     0.031 A 
ATOM     51  C   UNL A   1      47.738  27.646  26.248  1.00  0.00     0.074 A 
ATOM     52  C   UNL A   1      45.783  29.152  26.501  1.00  0.00     0.049 A 
ATOM     53  N   UNL A   1      48.727  28.499  26.282  1.00  0.00    -0.248 NA
ATOM     54  C   UNL A   1      48.159  26.242  26.110  1.00  0.00     0.031 C 
ATOM     55  C   UNL A   1      44.369  29.504  26.661  1.00  0.00     0.029 A 
ATOM     56  N   UNL A   1      46.432  30.357  26.536  1.00  0.00    -0.354 N 
ATOM     57  C   UNL A   1      49.883  27.736  26.182  1.00  0.00     0.074 A 
ATOM     58  C   UNL A   1      49.478  26.349  26.147  1.00  0.00     0.031 C 
ATOM     59  C   UNL A   1      44.258  30.840  26.750  1.00  0.00     0.029 A 
ATOM     60  C   UNL A   1      45.590  31.431  26.683  1.00  0.00     0.049 A 
ATOM     61  H   UNL A   1      47.410  30.444  26.462  1.00  0.00     0.167 HD
ATOM     62  C   UNL A   1      51.166  28.158  26.096  1.00  0.00     0.037 A 
ATOM     63  C   UNL A   1      45.870  32.745  26.752  1.00  0.00     0.037 A 
ATOM     64  C   UNL A   1      51.554  29.542  26.100  1.00  0.00     0.049 A 
ATOM     65  C   UNL A   1      47.303  33.186  26.640  1.00  0.00     0.074 A 
ATOM     66  C   UNL A   1      52.821  30.085  25.986  1.00  0.00     0.029 A 
ATOM     67  N   UNL A   1      50.669  30.604  26.214  1.00  0.00    -0.354 N 
ATOM     68  N   UNL A   1      48.384  32.457  26.493  1.00  0.00    -0.248 NA
ATOM     69  C   UNL A   1      47.556  34.632  26.688  1.00  0.00     0.031 C 
ATOM     70  C   UNL A   1      52.706  31.477  26.057  1.00  0.00     0.029 A 
ATOM     71  C   UNL A   1      51.363  31.801  26.174  1.00  0.00     0.049 A 
ATOM     72  H   UNL A   1      49.692  30.520  26.309  1.00  0.00     0.167 HD
ATOM     73  C   UNL A   1      49.438  33.354  26.395  1.00  0.00     0.074 A 
ATOM     74  C   UNL A   1      48.865  34.682  26.487  1.00  0.00     0.031 C 
ATOM     75  C   UNL A   1      50.762  33.107  26.242  1.00  0.00     0.037 A 
BRANCH  62  76
ATOM     76  C   UNL A   1      52.232  27.111  25.970  1.00  0.00     0.057 A 
ATOM     77  C   UNL A   1      52.898  26.603  27.094  1.00  0.00     0.134 A 
ATOM     78  C   UNL A   1      52.574  26.581  24.721  1.00  0.00     0.134 A 
ATOM     79  F   UNL A   1      52.629  27.081  28.318  1.00  0.00    -0.206 F 
ATOM     80  C   UNL A   1      53.881  25.619  26.977  1.00  0.00     0.040 A 
ATOM     81  C   UNL A   1      53.538  25.578  24.594  1.00  0.00     0.040 A 
ATOM     82  F   UNL A   1      51.975  27.022  23.605  1.00  0.00    -0.206 F 
ATOM     83  C   UNL A   1      54.197  25.098  25.724  1.00  0.00     0.006 A 
ENDBRANCH  62  76
BRANCH  63  84
ATOM     84  C   UNL A   1      44.778  33.739  26.901  1.00  0.00     0.057 A 
ATOM     85  C   UNL A   1      44.063  34.196  25.788  1.00  0.00     0.134 A 
ATOM     86  C   UNL A   1      44.438  34.271  28.150  1.00  0.00     0.134 A 
ATOM     87  F   UNL A   1      44.352  33.732  24.564  1.00  0.00    -0.206 F 
ATOM     88  C   UNL A   1      43.071  35.170  25.905  1.00  0.00     0.040 A 
ATOM     89  C   UNL A   1      43.430  35.228  28.286  1.00  0.00     0.040 A 
ATOM     90  F   UNL A   1      45.076  33.864  29.257  1.00  0.00    -0.206 F 
ATOM     91  C   UNL A   1      42.751  35.688  27.159  1.00  0.00     0.006 A 
ENDBRANCH  63  84
BRANCH  75  92
ATOM     92  C   UNL A   1      51.666  34.295  26.109  1.00  0.00     0.057 A 
ATOM     93  C   UNL A   1      52.200  34.948  27.226  1.00  0.00     0.134 A 
ATOM     94  C   UNL A   1      52.032  34.766  24.842  1.00  0.00     0.134 A 
ATOM     95  F   UNL A   1      51.876  34.550  28.466  1.00  0.00    -0.206 F 
ATOM     96  C   UNL A   1      53.050  36.045  27.088  1.00  0.00     0.040 A 
ATOM     97  C   UNL A   1      52.901  35.846  24.692  1.00  0.00     0.040 A 
ATOM     98  F   UNL A   1      51.561  34.177  23.733  1.00  0.00    -0.206 F 
ATOM     99  C   UNL A   1      53.408  36.493  25.817  1.00  0.00     0.006 A 
ENDBRANCH  75  92
ENDBRANCH  49  50
ENDBRANCH  41  44
ENDBRANCH  39  40
ENDBRANCH  38  39
ENDBRANCH  37  38
ENDBRANCH   1  37
TORSDOF 17
ENDMDL
