MODEL 1
REMARK VINA RESULT:     -10.4      0.000      0.000
REMARK SMILES CCC1C[NH+]([C@H](C(=O)NCCCCNC(=O)c2ccc(-c3c4nc(c(-c5c(F)cccc5F)c5ccc([nH]5)c(-c5c(F)cccc5F)c5nc(c(-c6c(F)cccc6F)c6ccc3[nH]6)C=C5)C=C4)cc2)C(C)C)C1
REMARK SMILES IDX 11 1 10 2 9 3 7 4 8 5 6 7 5 8 3 9 4 10 74 11 2 13 1 14 71 15
REMARK SMILES IDX 72 16 73 17 12 18 13 19 14 20 15 21 16 23 17 24 18 25 70 26
REMARK SMILES IDX 19 27 69 28 20 29 21 30 22 31 63 32 23 33 68 34 62 35 64 36
REMARK SMILES IDX 24 37 67 38 61 39 60 40 25 42 51 43 34 44 50 45 35 46 38 47
REMARK SMILES IDX 49 48 65 49 36 50 37 51 48 53 66 54 39 55 26 56 27 57 32 58
REMARK SMILES IDX 28 59 29 60 31 61 33 62 30 63 52 64 53 65 58 66 54 67 55 68
REMARK SMILES IDX 57 69 59 70 56 71 40 72 41 73 46 74 42 75 43 76 45 77 47 78
REMARK SMILES IDX 44 79
REMARK H PARENT 9 6 5 12 14 22 64 41 38 52
REMARK Flexibility Score: inf
ROOT
ATOM      1  C   UNL A   1      31.527  30.488  25.732  1.00  0.00     0.023 C 
ENDROOT
BRANCH   1   2
ATOM      2  C   UNL A   1      32.728  29.583  26.000  1.00  0.00     0.116 C 
BRANCH   2   3
ATOM      3  N   UNL A   1      33.654  29.447  24.884  1.00  0.00    -0.351 N 
ATOM      4  C   UNL A   1      33.634  28.562  23.829  1.00  0.00     0.278 C 
ATOM      5  O   UNL A   1      34.403  28.797  22.892  1.00  0.00    -0.268 OA
ATOM      6  H   UNL A   1      34.406  30.082  24.884  1.00  0.00     0.163 HD
BRANCH   4   7
ATOM      7  C   UNL A   1      32.682  27.331  23.837  1.00  0.00     0.276 C 
BRANCH   7   8
ATOM      8  N   UNL A   1      31.458  27.485  22.999  1.00  0.00    -0.324 N 
ATOM      9  C   UNL A   1      29.754  28.672  22.653  1.00  0.00     0.099 C 
ATOM     10  C   UNL A   1      31.283  28.820  22.376  1.00  0.00     0.272 C 
ATOM     11  C   UNL A   1      30.214  27.696  23.746  1.00  0.00     0.272 C 
ATOM     12  H   UNL A   1      31.586  26.653  22.424  1.00  0.00     0.348 HD
BRANCH   9  13
ATOM     13  C   UNL A   1      29.005  29.852  23.267  1.00  0.00     0.012 C 
ATOM     14  C   UNL A   1      27.653  30.051  22.617  1.00  0.00     0.004 C 
ENDBRANCH   9  13
ENDBRANCH   7   8
BRANCH   7  15
ATOM     15  C   UNL A   1      33.423  26.011  23.423  1.00  0.00     0.051 C 
ATOM     16  C   UNL A   1      33.444  24.947  24.530  1.00  0.00     0.014 C 
ATOM     17  C   UNL A   1      32.790  25.375  22.172  1.00  0.00     0.014 C 
ENDBRANCH   7  15
ENDBRANCH   4   7
ENDBRANCH   2   3
ENDBRANCH   1   2
BRANCH   1  18
ATOM     18  C   UNL A   1      31.391  31.734  26.615  1.00  0.00     0.023 C 
BRANCH  18  19
ATOM     19  C   UNL A   1      32.672  32.484  26.982  1.00  0.00     0.116 C 
BRANCH  19  20
ATOM     20  N   UNL A   1      32.449  33.838  27.466  1.00  0.00    -0.352 N 
ATOM     21  C   UNL A   1      33.096  34.558  28.446  1.00  0.00     0.251 C 
ATOM     22  H   UNL A   1      31.716  34.319  27.020  1.00  0.00     0.163 HD
ATOM     23  O   UNL A   1      32.682  35.673  28.755  1.00  0.00    -0.269 OA
BRANCH  21  24
ATOM     24  C   UNL A   1      34.261  33.992  29.167  1.00  0.00     0.039 A 
ATOM     25  C   UNL A   1      34.029  33.192  30.292  1.00  0.00     0.014 A 
ATOM     26  C   UNL A   1      35.570  34.242  28.755  1.00  0.00     0.014 A 
ATOM     27  C   UNL A   1      35.101  32.567  30.936  1.00  0.00     0.010 A 
ATOM     28  C   UNL A   1      36.629  33.555  29.348  1.00  0.00     0.010 A 
ATOM     29  C   UNL A   1      36.407  32.698  30.438  1.00  0.00    -0.014 A 
BRANCH  29  30
ATOM     30  C   UNL A   1      37.540  31.929  31.021  1.00  0.00     0.031 A 
ATOM     31  C   UNL A   1      38.040  32.232  32.408  1.00  0.00     0.074 A 
ATOM     32  C   UNL A   1      38.172  31.001  30.273  1.00  0.00     0.049 A 
ATOM     33  N   UNL A   1      39.061  31.722  33.050  1.00  0.00    -0.248 NA
ATOM     34  C   UNL A   1      37.313  33.265  33.162  1.00  0.00     0.031 C 
ATOM     35  C   UNL A   1      37.822  30.641  28.897  1.00  0.00     0.029 A 
ATOM     36  N   UNL A   1      39.250  30.199  30.559  1.00  0.00    -0.354 N 
ATOM     37  C   UNL A   1      39.107  32.378  34.274  1.00  0.00     0.074 A 
ATOM     38  C   UNL A   1      38.045  33.361  34.263  1.00  0.00     0.031 C 
ATOM     39  C   UNL A   1      38.654  29.678  28.469  1.00  0.00     0.029 A 
ATOM     40  C   UNL A   1      39.623  29.381  29.519  1.00  0.00     0.049 A 
ATOM     41  H   UNL A   1      39.714  30.210  31.428  1.00  0.00     0.167 HD
ATOM     42  C   UNL A   1      39.942  32.167  35.320  1.00  0.00     0.037 A 
ATOM     43  C   UNL A   1      40.635  28.500  29.416  1.00  0.00     0.037 A 
ATOM     44  C   UNL A   1      40.988  31.177  35.338  1.00  0.00     0.049 A 
ATOM     45  C   UNL A   1      41.560  28.296  30.585  1.00  0.00     0.074 A 
ATOM     46  C   UNL A   1      41.846  30.849  36.374  1.00  0.00     0.029 A 
ATOM     47  N   UNL A   1      41.322  30.359  34.270  1.00  0.00    -0.354 N 
ATOM     48  N   UNL A   1      41.544  28.874  31.762  1.00  0.00    -0.248 NA
ATOM     49  C   UNL A   1      42.639  27.313  30.413  1.00  0.00     0.031 C 
ATOM     50  C   UNL A   1      42.733  29.870  35.916  1.00  0.00     0.029 A 
ATOM     51  C   UNL A   1      42.391  29.546  34.613  1.00  0.00     0.049 A 
ATOM     52  H   UNL A   1      40.868  30.356  33.397  1.00  0.00     0.167 HD
ATOM     53  C   UNL A   1      42.588  28.304  32.479  1.00  0.00     0.074 A 
ATOM     54  C   UNL A   1      43.208  27.324  31.611  1.00  0.00     0.031 C 
ATOM     55  C   UNL A   1      42.996  28.568  33.744  1.00  0.00     0.037 A 
BRANCH  42  56
ATOM     56  C   UNL A   1      39.759  33.028  36.537  1.00  0.00     0.057 A 
ATOM     57  C   UNL A   1      38.840  32.702  37.543  1.00  0.00     0.134 A 
ATOM     58  C   UNL A   1      40.538  34.177  36.726  1.00  0.00     0.134 A 
ATOM     59  F   UNL A   1      38.056  31.619  37.423  1.00  0.00    -0.206 F 
ATOM     60  C   UNL A   1      38.681  33.501  38.677  1.00  0.00     0.040 A 
ATOM     61  C   UNL A   1      40.411  34.968  37.869  1.00  0.00     0.040 A 
ATOM     62  F   UNL A   1      41.445  34.544  35.808  1.00  0.00    -0.206 F 
ATOM     63  C   UNL A   1      39.475  34.635  38.846  1.00  0.00     0.006 A 
ENDBRANCH  42  56
BRANCH  43  64
ATOM     64  C   UNL A   1      40.825  27.726  28.161  1.00  0.00     0.057 A 
ATOM     65  C   UNL A   1      41.594  28.236  27.107  1.00  0.00     0.134 A 
ATOM     66  C   UNL A   1      40.232  26.471  27.975  1.00  0.00     0.134 A 
ATOM     67  F   UNL A   1      42.171  29.441  27.214  1.00  0.00    -0.206 F 
ATOM     68  C   UNL A   1      41.748  27.537  25.907  1.00  0.00     0.040 A 
ATOM     69  C   UNL A   1      40.400  25.749  26.793  1.00  0.00     0.040 A 
ATOM     70  F   UNL A   1      39.489  25.924  28.948  1.00  0.00    -0.206 F 
ATOM     71  C   UNL A   1      41.153  26.286  25.751  1.00  0.00     0.006 A 
ENDBRANCH  43  64
BRANCH  55  72
ATOM     72  C   UNL A   1      44.140  27.758  34.285  1.00  0.00     0.057 A 
ATOM     73  C   UNL A   1      45.462  28.217  34.238  1.00  0.00     0.134 A 
ATOM     74  C   UNL A   1      43.907  26.520  34.897  1.00  0.00     0.134 A 
ATOM     75  F   UNL A   1      45.756  29.389  33.655  1.00  0.00    -0.206 F 
ATOM     76  C   UNL A   1      46.515  27.462  34.758  1.00  0.00     0.040 A 
ATOM     77  C   UNL A   1      44.947  25.769  35.447  1.00  0.00     0.040 A 
ATOM     78  F   UNL A   1      42.663  26.025  34.985  1.00  0.00    -0.206 F 
ATOM     79  C   UNL A   1      46.257  26.237  35.373  1.00  0.00     0.006 A 
ENDBRANCH  55  72
ENDBRANCH  29  30
ENDBRANCH  21  24
ENDBRANCH  19  20
ENDBRANCH  18  19
ENDBRANCH   1  18
TORSDOF 14
ENDMDL
MODEL 2
REMARK VINA RESULT:     -10.4      0.401      6.528
REMARK SMILES CCC1C[NH+]([C@H](C(=O)NCCCCNC(=O)c2ccc(-c3c4nc(c(-c5c(F)cccc5F)c5ccc([nH]5)c(-c5c(F)cccc5F)c5nc(c(-c6c(F)cccc6F)c6ccc3[nH]6)C=C5)C=C4)cc2)C(C)C)C1
REMARK SMILES IDX 11 1 10 2 9 3 7 4 8 5 6 7 5 8 3 9 4 10 74 11 2 13 1 14 71 15
REMARK SMILES IDX 72 16 73 17 12 18 13 19 14 20 15 21 16 23 17 24 18 25 70 26
REMARK SMILES IDX 19 27 69 28 20 29 21 30 22 31 63 32 23 33 68 34 62 35 64 36
REMARK SMILES IDX 24 37 67 38 61 39 60 40 25 42 51 43 34 44 50 45 35 46 38 47
REMARK SMILES IDX 49 48 65 49 36 50 37 51 48 53 66 54 39 55 26 56 27 57 32 58
REMARK SMILES IDX 28 59 29 60 31 61 33 62 30 63 52 64 53 65 58 66 54 67 55 68
REMARK SMILES IDX 57 69 59 70 56 71 40 72 41 73 46 74 42 75 43 76 45 77 47 78
REMARK SMILES IDX 44 79
REMARK H PARENT 9 6 5 12 14 22 64 41 38 52
REMARK Flexibility Score: inf
ROOT
ATOM      1  C   UNL A   1      31.683  30.459  25.738  1.00  0.00     0.023 C 
ENDROOT
BRANCH   1   2
ATOM      2  C   UNL A   1      32.855  29.508  25.970  1.00  0.00     0.116 C 
BRANCH   2   3
ATOM      3  N   UNL A   1      33.737  29.331  24.823  1.00  0.00    -0.351 N 
ATOM      4  C   UNL A   1      33.648  28.441  23.776  1.00  0.00     0.278 C 
ATOM      5  O   UNL A   1      34.393  28.640  22.812  1.00  0.00    -0.268 OA
ATOM      6  H   UNL A   1      34.511  29.937  24.793  1.00  0.00     0.163 HD
BRANCH   4   7
ATOM      7  C   UNL A   1      32.652  27.245  23.827  1.00  0.00     0.276 C 
BRANCH   7   8
ATOM      8  N   UNL A   1      31.415  27.431  23.014  1.00  0.00    -0.324 N 
ATOM      9  C   UNL A   1      29.747  28.674  22.688  1.00  0.00     0.099 C 
ATOM     10  C   UNL A   1      31.274  28.762  22.375  1.00  0.00     0.272 C 
ATOM     11  C   UNL A   1      30.197  27.697  23.785  1.00  0.00     0.272 C 
ATOM     12  H   UNL A   1      31.501  26.587  22.448  1.00  0.00     0.348 HD
BRANCH   9  13
ATOM     13  C   UNL A   1      29.055  29.889  23.301  1.00  0.00     0.012 C 
ATOM     14  C   UNL A   1      27.658  30.070  22.748  1.00  0.00     0.004 C 
ENDBRANCH   9  13
ENDBRANCH   7   8
BRANCH   7  15
ATOM     15  C   UNL A   1      33.334  25.892  23.417  1.00  0.00     0.051 C 
ATOM     16  C   UNL A   1      33.337  24.844  24.539  1.00  0.00     0.014 C 
ATOM     17  C   UNL A   1      32.654  25.265  22.188  1.00  0.00     0.014 C 
ENDBRANCH   7  15
ENDBRANCH   4   7
ENDBRANCH   2   3
ENDBRANCH   1   2
BRANCH   1  18
ATOM     18  C   UNL A   1      31.508  31.599  26.748  1.00  0.00     0.023 C 
BRANCH  18  19
ATOM     19  C   UNL A   1      32.744  32.428  27.100  1.00  0.00     0.116 C 
BRANCH  19  20
ATOM     20  N   UNL A   1      32.446  33.786  27.528  1.00  0.00    -0.352 N 
ATOM     21  C   UNL A   1      33.045  34.576  28.484  1.00  0.00     0.251 C 
ATOM     22  H   UNL A   1      31.692  34.209  27.059  1.00  0.00     0.163 HD
ATOM     23  O   UNL A   1      32.569  35.679  28.746  1.00  0.00    -0.269 OA
BRANCH  21  24
ATOM     24  C   UNL A   1      34.231  34.102  29.235  1.00  0.00     0.039 A 
ATOM     25  C   UNL A   1      34.032  33.358  30.403  1.00  0.00     0.014 A 
ATOM     26  C   UNL A   1      35.529  34.385  28.808  1.00  0.00     0.014 A 
ATOM     27  C   UNL A   1      35.128  32.815  31.080  1.00  0.00     0.010 A 
ATOM     28  C   UNL A   1      36.616  33.778  29.438  1.00  0.00     0.010 A 
ATOM     29  C   UNL A   1      36.428  32.974  30.574  1.00  0.00    -0.014 A 
BRANCH  29  30
ATOM     30  C   UNL A   1      37.592  32.288  31.199  1.00  0.00     0.031 A 
ATOM     31  C   UNL A   1      38.321  31.193  30.468  1.00  0.00     0.074 A 
ATOM     32  C   UNL A   1      37.951  32.600  32.461  1.00  0.00     0.049 A 
ATOM     33  N   UNL A   1      39.304  30.433  30.882  1.00  0.00    -0.248 NA
ATOM     34  C   UNL A   1      37.868  30.896  29.101  1.00  0.00     0.031 C 
ATOM     35  C   UNL A   1      37.301  33.607  33.303  1.00  0.00     0.029 A 
ATOM     36  N   UNL A   1      38.944  32.092  33.264  1.00  0.00    -0.354 N 
ATOM     37  C   UNL A   1      39.576  29.562  29.835  1.00  0.00     0.074 A 
ATOM     38  C   UNL A   1      38.620  29.850  28.788  1.00  0.00     0.031 C 
ATOM     39  C   UNL A   1      37.924  33.658  34.491  1.00  0.00     0.029 A 
ATOM     40  C   UNL A   1      38.989  32.660  34.515  1.00  0.00     0.049 A 
ATOM     41  H   UNL A   1      39.566  31.387  32.970  1.00  0.00     0.167 HD
ATOM     42  C   UNL A   1      40.548  28.620  29.743  1.00  0.00     0.037 A 
ATOM     43  C   UNL A   1      39.788  32.401  35.568  1.00  0.00     0.037 A 
ATOM     44  C   UNL A   1      41.511  28.344  30.779  1.00  0.00     0.049 A 
ATOM     45  C   UNL A   1      40.847  31.340  35.448  1.00  0.00     0.074 A 
ATOM     46  C   UNL A   1      42.569  27.451  30.754  1.00  0.00     0.029 A 
ATOM     47  N   UNL A   1      41.530  28.951  32.024  1.00  0.00    -0.354 N 
ATOM     48  N   UNL A   1      41.138  30.574  34.425  1.00  0.00    -0.248 NA
ATOM     49  C   UNL A   1      41.693  31.111  36.628  1.00  0.00     0.031 C 
ATOM     50  C   UNL A   1      43.196  27.480  32.004  1.00  0.00     0.029 A 
ATOM     51  C   UNL A   1      42.566  28.434  32.787  1.00  0.00     0.049 A 
ATOM     52  H   UNL A   1      40.902  29.648  32.323  1.00  0.00     0.167 HD
ATOM     53  C   UNL A   1      42.217  29.797  34.825  1.00  0.00     0.074 A 
ATOM     54  C   UNL A   1      42.539  30.193  36.180  1.00  0.00     0.031 C 
ATOM     55  C   UNL A   1      42.883  28.841  34.132  1.00  0.00     0.037 A 
BRANCH  42  56
ATOM     56  C   UNL A   1      40.617  27.817  28.476  1.00  0.00     0.057 A 
ATOM     57  C   UNL A   1      41.372  28.237  27.373  1.00  0.00     0.134 A 
ATOM     58  C   UNL A   1      39.953  26.587  28.371  1.00  0.00     0.134 A 
ATOM     59  F   UNL A   1      42.027  29.408  27.404  1.00  0.00    -0.206 F 
ATOM     60  C   UNL A   1      41.441  27.480  26.202  1.00  0.00     0.040 A 
ATOM     61  C   UNL A   1      40.038  25.807  27.216  1.00  0.00     0.040 A 
ATOM     62  F   UNL A   1      39.219  26.119  29.391  1.00  0.00    -0.206 F 
ATOM     63  C   UNL A   1      40.777  26.257  26.125  1.00  0.00     0.006 A 
ENDBRANCH  42  56
BRANCH  43  64
ATOM     64  C   UNL A   1      39.630  33.170  36.830  1.00  0.00     0.057 A 
ATOM     65  C   UNL A   1      40.401  34.312  37.082  1.00  0.00     0.134 A 
ATOM     66  C   UNL A   1      38.721  32.776  37.820  1.00  0.00     0.134 A 
ATOM     67  F   UNL A   1      41.303  34.729  36.182  1.00  0.00    -0.206 F 
ATOM     68  C   UNL A   1      40.290  35.020  38.281  1.00  0.00     0.040 A 
ATOM     69  C   UNL A   1      38.580  33.491  39.011  1.00  0.00     0.040 A 
ATOM     70  F   UNL A   1      37.948  31.696  37.638  1.00  0.00    -0.206 F 
ATOM     71  C   UNL A   1      39.373  34.612  39.247  1.00  0.00     0.006 A 
ENDBRANCH  43  64
BRANCH  55  72
ATOM     72  C   UNL A   1      44.053  28.185  34.808  1.00  0.00     0.057 A 
ATOM     73  C   UNL A   1      43.917  27.003  35.547  1.00  0.00     0.134 A 
ATOM     74  C   UNL A   1      45.340  28.725  34.685  1.00  0.00     0.134 A 
ATOM     75  F   UNL A   1      42.711  26.440  35.715  1.00  0.00    -0.206 F 
ATOM     76  C   UNL A   1      45.015  26.394  36.158  1.00  0.00     0.040 A 
ATOM     77  C   UNL A   1      46.449  28.110  35.266  1.00  0.00     0.040 A 
ATOM     78  F   UNL A   1      45.542  29.851  33.983  1.00  0.00    -0.206 F 
ATOM     79  C   UNL A   1      46.288  26.944  36.011  1.00  0.00     0.006 A 
ENDBRANCH  55  72
ENDBRANCH  29  30
ENDBRANCH  21  24
ENDBRANCH  19  20
ENDBRANCH  18  19
ENDBRANCH   1  18
TORSDOF 14
ENDMDL
MODEL 3
REMARK VINA RESULT:     -10.3      0.254      1.440
REMARK SMILES CCC1C[NH+]([C@H](C(=O)NCCCCNC(=O)c2ccc(-c3c4nc(c(-c5c(F)cccc5F)c5ccc([nH]5)c(-c5c(F)cccc5F)c5nc(c(-c6c(F)cccc6F)c6ccc3[nH]6)C=C5)C=C4)cc2)C(C)C)C1
REMARK SMILES IDX 11 1 10 2 9 3 7 4 8 5 6 7 5 8 3 9 4 10 74 11 2 13 1 14 71 15
REMARK SMILES IDX 72 16 73 17 12 18 13 19 14 20 15 21 16 23 17 24 18 25 70 26
REMARK SMILES IDX 19 27 69 28 20 29 21 30 22 31 63 32 23 33 68 34 62 35 64 36
REMARK SMILES IDX 24 37 67 38 61 39 60 40 25 42 51 43 34 44 50 45 35 46 38 47
REMARK SMILES IDX 49 48 65 49 36 50 37 51 48 53 66 54 39 55 26 56 27 57 32 58
REMARK SMILES IDX 28 59 29 60 31 61 33 62 30 63 52 64 53 65 58 66 54 67 55 68
REMARK SMILES IDX 57 69 59 70 56 71 40 72 41 73 46 74 42 75 43 76 45 77 47 78
REMARK SMILES IDX 44 79
REMARK H PARENT 9 6 5 12 14 22 64 41 38 52
REMARK Flexibility Score: inf
ROOT
ATOM      1  C   UNL A   1      31.543  30.607  25.773  1.00  0.00     0.023 C 
ENDROOT
BRANCH   1   2
ATOM      2  C   UNL A   1      32.711  29.703  26.160  1.00  0.00     0.116 C 
BRANCH   2   3
ATOM      3  N   UNL A   1      33.639  29.402  25.077  1.00  0.00    -0.351 N 
ATOM      4  C   UNL A   1      33.522  28.493  24.049  1.00  0.00     0.278 C 
ATOM      5  O   UNL A   1      34.340  28.586  23.129  1.00  0.00    -0.268 OA
ATOM      6  H   UNL A   1      34.471  29.926  25.081  1.00  0.00     0.163 HD
BRANCH   4   7
ATOM      7  C   UNL A   1      32.407  27.407  24.065  1.00  0.00     0.276 C 
BRANCH   7   8
ATOM      8  N   UNL A   1      31.313  27.623  23.075  1.00  0.00    -0.324 N 
ATOM      9  C   UNL A   1      29.661  28.831  22.580  1.00  0.00     0.099 C 
ATOM     10  C   UNL A   1      31.212  29.001  22.536  1.00  0.00     0.272 C 
ATOM     11  C   UNL A   1      29.973  27.774  23.650  1.00  0.00     0.272 C 
ATOM     12  H   UNL A   1      31.532  26.838  22.463  1.00  0.00     0.348 HD
BRANCH   9  13
ATOM     13  C   UNL A   1      28.818  29.959  23.169  1.00  0.00     0.012 C 
ATOM     14  C   UNL A   1      27.662  30.321  22.261  1.00  0.00     0.004 C 
ENDBRANCH   9  13
ENDBRANCH   7   8
BRANCH   7  15
ATOM     15  C   UNL A   1      32.990  25.962  23.877  1.00  0.00     0.051 C 
ATOM     16  C   UNL A   1      33.509  25.691  22.457  1.00  0.00     0.014 C 
ATOM     17  C   UNL A   1      34.141  25.683  24.860  1.00  0.00     0.014 C 
ENDBRANCH   7  15
ENDBRANCH   4   7
ENDBRANCH   2   3
ENDBRANCH   1   2
BRANCH   1  18
ATOM     18  C   UNL A   1      31.385  31.909  26.568  1.00  0.00     0.023 C 
BRANCH  18  19
ATOM     19  C   UNL A   1      32.649  32.535  27.159  1.00  0.00     0.116 C 
BRANCH  19  20
ATOM     20  N   UNL A   1      32.475  33.906  27.614  1.00  0.00    -0.352 N 
ATOM     21  C   UNL A   1      33.167  34.631  28.559  1.00  0.00     0.251 C 
ATOM     22  H   UNL A   1      31.742  34.395  27.177  1.00  0.00     0.163 HD
ATOM     23  O   UNL A   1      32.791  35.764  28.850  1.00  0.00    -0.269 OA
BRANCH  21  24
ATOM     24  C   UNL A   1      34.336  34.052  29.261  1.00  0.00     0.039 A 
ATOM     25  C   UNL A   1      34.112  33.207  30.353  1.00  0.00     0.014 A 
ATOM     26  C   UNL A   1      35.644  34.335  28.863  1.00  0.00     0.014 A 
ATOM     27  C   UNL A   1      35.189  32.570  30.976  1.00  0.00     0.010 A 
ATOM     28  C   UNL A   1      36.710  33.638  29.433  1.00  0.00     0.010 A 
ATOM     29  C   UNL A   1      36.495  32.737  30.488  1.00  0.00    -0.014 A 
BRANCH  29  30
ATOM     30  C   UNL A   1      37.636  31.960  31.045  1.00  0.00     0.031 A 
ATOM     31  C   UNL A   1      38.175  32.265  32.417  1.00  0.00     0.074 A 
ATOM     32  C   UNL A   1      38.239  31.023  30.285  1.00  0.00     0.049 A 
ATOM     33  N   UNL A   1      39.208  31.747  33.034  1.00  0.00    -0.248 NA
ATOM     34  C   UNL A   1      37.478  33.307  33.185  1.00  0.00     0.031 C 
ATOM     35  C   UNL A   1      37.850  30.659  28.921  1.00  0.00     0.029 A 
ATOM     36  N   UNL A   1      39.317  30.212  30.546  1.00  0.00    -0.354 N 
ATOM     37  C   UNL A   1      39.292  32.409  34.253  1.00  0.00     0.074 A 
ATOM     38  C   UNL A   1      38.240  33.402  34.265  1.00  0.00     0.031 C 
ATOM     39  C   UNL A   1      38.661  29.687  28.475  1.00  0.00     0.029 A 
ATOM     40  C   UNL A   1      39.654  29.385  29.501  1.00  0.00     0.049 A 
ATOM     41  H   UNL A   1      39.803  30.222  31.403  1.00  0.00     0.167 HD
ATOM     42  C   UNL A   1      40.152  32.195  35.278  1.00  0.00     0.037 A 
ATOM     43  C   UNL A   1      40.655  28.494  29.375  1.00  0.00     0.037 A 
ATOM     44  C   UNL A   1      41.189  31.195  35.273  1.00  0.00     0.049 A 
ATOM     45  C   UNL A   1      41.608  28.286  30.521  1.00  0.00     0.074 A 
ATOM     46  C   UNL A   1      42.071  30.863  36.288  1.00  0.00     0.029 A 
ATOM     47  N   UNL A   1      41.487  30.369  34.201  1.00  0.00    -0.354 N 
ATOM     48  N   UNL A   1      41.629  28.870  31.695  1.00  0.00    -0.248 NA
ATOM     49  C   UNL A   1      42.674  27.293  30.326  1.00  0.00     0.031 C 
ATOM     50  C   UNL A   1      42.937  29.874  35.811  1.00  0.00     0.029 A 
ATOM     51  C   UNL A   1      42.557  29.547  34.520  1.00  0.00     0.049 A 
ATOM     52  H   UNL A   1      41.010  30.366  33.340  1.00  0.00     0.167 HD
ATOM     53  C   UNL A   1      42.686  28.294  32.388  1.00  0.00     0.074 A 
ATOM     54  C   UNL A   1      43.273  27.304  31.508  1.00  0.00     0.031 C 
ATOM     55  C   UNL A   1      43.129  28.559  33.640  1.00  0.00     0.037 A 
BRANCH  42  56
ATOM     56  C   UNL A   1      40.009  33.063  36.495  1.00  0.00     0.057 A 
ATOM     57  C   UNL A   1      40.783  34.217  36.677  1.00  0.00     0.134 A 
ATOM     58  C   UNL A   1      39.057  32.766  37.480  1.00  0.00     0.134 A 
ATOM     59  F   UNL A   1      41.718  34.557  35.777  1.00  0.00    -0.206 F 
ATOM     60  C   UNL A   1      40.638  35.026  37.806  1.00  0.00     0.040 A 
ATOM     61  C   UNL A   1      38.881  33.582  38.598  1.00  0.00     0.040 A 
ATOM     62  F   UNL A   1      38.275  31.681  37.366  1.00  0.00    -0.206 F 
ATOM     63  C   UNL A   1      39.679  34.712  38.768  1.00  0.00     0.006 A 
ENDBRANCH  42  56
BRANCH  43  64
ATOM     64  C   UNL A   1      40.804  27.713  28.120  1.00  0.00     0.057 A 
ATOM     65  C   UNL A   1      40.215  26.449  27.980  1.00  0.00     0.134 A 
ATOM     66  C   UNL A   1      41.550  28.197  27.038  1.00  0.00     0.134 A 
ATOM     67  F   UNL A   1      39.506  25.921  28.988  1.00  0.00    -0.206 F 
ATOM     68  C   UNL A   1      40.380  25.688  26.821  1.00  0.00     0.040 A 
ATOM     69  C   UNL A   1      41.700  27.460  25.863  1.00  0.00     0.040 A 
ATOM     70  F   UNL A   1      42.134  29.403  27.105  1.00  0.00    -0.206 F 
ATOM     71  C   UNL A   1      41.121  26.197  25.755  1.00  0.00     0.006 A 
ENDBRANCH  43  64
BRANCH  55  72
ATOM     72  C   UNL A   1      44.280  27.741  34.155  1.00  0.00     0.057 A 
ATOM     73  C   UNL A   1      45.606  28.182  34.060  1.00  0.00     0.134 A 
ATOM     74  C   UNL A   1      44.051  26.513  34.789  1.00  0.00     0.134 A 
ATOM     75  F   UNL A   1      45.896  29.343  33.454  1.00  0.00    -0.206 F 
ATOM     76  C   UNL A   1      46.665  27.420  34.556  1.00  0.00     0.040 A 
ATOM     77  C   UNL A   1      45.098  25.756  35.314  1.00  0.00     0.040 A 
ATOM     78  F   UNL A   1      42.804  26.036  34.921  1.00  0.00    -0.206 F 
ATOM     79  C   UNL A   1      46.411  26.206  35.194  1.00  0.00     0.006 A 
ENDBRANCH  55  72
ENDBRANCH  29  30
ENDBRANCH  21  24
ENDBRANCH  19  20
ENDBRANCH  18  19
ENDBRANCH   1  18
TORSDOF 14
ENDMDL
