MODEL 1
REMARK VINA RESULT:     -13.3      0.000      0.000
REMARK SMILES C/C(=N\NC(N)=O)c1nnn(-c2ccc(C(=O)NCCCCNC(=O)c3ccc(-c4c5nc(c(-c6c(F)cccc6F)c6ccc([nH]6)c(-c6c(F)cccc6F)c6nc(c(-c7c(F)cccc7F)c7ccc4[nH]7)C=C6)C=C5)cc3)cc2)c1C
REMARK SMILES IDX 20 1 19 2 18 3 16 4 17 5 15 7 12 8 13 9 81 10 14 11 80 12
REMARK SMILES IDX 11 13 8 14 9 15 82 16 10 17 83 18 2 19 1 20 3 21 4 22 5 23
REMARK SMILES IDX 6 25 7 26 21 29 22 30 23 31 24 32 25 34 26 35 27 36 79 37
REMARK SMILES IDX 28 38 78 39 29 40 30 41 31 42 72 43 32 44 77 45 71 46 73 47
REMARK SMILES IDX 33 48 76 49 70 50 69 51 34 53 60 54 43 55 59 56 44 57 47 58
REMARK SMILES IDX 58 59 74 60 45 61 46 62 57 64 75 65 48 66 35 67 36 68 41 69
REMARK SMILES IDX 37 70 38 71 40 72 42 73 39 74 61 75 62 76 67 77 63 78 64 79
REMARK SMILES IDX 66 80 68 81 65 82 49 83 50 84 55 85 51 86 52 87 54 88 56 89
REMARK SMILES IDX 53 90
REMARK H PARENT 18 6 4 24 6 27 6 28 23 33 73 52 47 63
REMARK Flexibility Score: inf
ROOT
ATOM      1  C   UNL A   1      36.748  19.236  24.978  1.00  0.00     0.023 C 
ENDROOT
BRANCH   1   2
ATOM      2  C   UNL A   1      35.600  20.257  24.991  1.00  0.00     0.116 C 
BRANCH   2   3
ATOM      3  N   UNL A   1      34.306  19.607  25.115  1.00  0.00    -0.352 N 
ATOM      4  C   UNL A   1      33.011  20.055  24.990  1.00  0.00     0.251 C 
ATOM      5  O   UNL A   1      32.116  19.218  25.113  1.00  0.00    -0.269 OA
ATOM      6  H   UNL A   1      34.368  18.649  25.334  1.00  0.00     0.163 HD
BRANCH   4   7
ATOM      7  C   UNL A   1      32.640  21.465  24.656  1.00  0.00     0.039 A 
ATOM      8  C   UNL A   1      32.186  24.101  23.824  1.00  0.00     0.067 A 
ATOM      9  C   UNL A   1      32.073  23.068  22.894  1.00  0.00     0.029 A 
ATOM     10  C   UNL A   1      32.405  23.826  25.172  1.00  0.00     0.029 A 
ATOM     11  C   UNL A   1      32.332  21.757  23.311  1.00  0.00     0.016 A 
ATOM     12  C   UNL A   1      32.585  22.507  25.583  1.00  0.00     0.016 A 
BRANCH   8  13
ATOM     13  N   UNL A   1      32.170  25.439  23.399  1.00  0.00    -0.217 N 
ATOM     14  C   UNL A   1      31.638  27.505  22.989  1.00  0.00     0.132 A 
ATOM     15  N   UNL A   1      32.953  27.313  22.656  1.00  0.00    -0.128 NA
ATOM     16  C   UNL A   1      31.111  26.326  23.482  1.00  0.00     0.071 A 
ATOM     17  N   UNL A   1      33.286  26.071  22.984  1.00  0.00    -0.061 NA
ATOM     18  C   UNL A   1      29.818  26.036  24.147  1.00  0.00     0.069 C 
BRANCH  14  19
ATOM     19  C   UNL A   1      31.037  28.827  23.041  1.00  0.00     0.087 C 
ATOM     20  C   UNL A   1      30.975  29.447  24.410  1.00  0.00     0.071 C 
ATOM     21  N   UNL A   1      30.666  29.322  21.896  1.00  0.00    -0.174 NA
BRANCH  21  22
ATOM     22  N   UNL A   1      30.085  30.552  21.758  1.00  0.00    -0.229 N 
ATOM     23  C   UNL A   1      28.816  30.855  21.320  1.00  0.00     0.332 C 
ATOM     24  H   UNL A   1      30.648  31.321  22.003  1.00  0.00     0.195 HD
ATOM     25  N   UNL A   1      28.559  32.194  21.368  1.00  0.00    -0.350 N 
ATOM     26  O   UNL A   1      27.952  30.084  20.928  1.00  0.00    -0.247 OA
ATOM     27  H   UNL A   1      29.253  32.817  21.683  1.00  0.00     0.161 HD
ATOM     28  H   UNL A   1      27.679  32.537  21.089  1.00  0.00     0.161 HD
ENDBRANCH  21  22
ENDBRANCH  14  19
ENDBRANCH   8  13
ENDBRANCH   4   7
ENDBRANCH   2   3
ENDBRANCH   1   2
BRANCH   1  29
ATOM     29  C   UNL A   1      38.126  19.793  24.593  1.00  0.00     0.023 C 
BRANCH  29  30
ATOM     30  C   UNL A   1      39.061  20.053  25.766  1.00  0.00     0.116 C 
BRANCH  30  31
ATOM     31  N   UNL A   1      40.134  19.058  25.889  1.00  0.00    -0.352 N 
ATOM     32  C   UNL A   1      41.504  19.274  26.006  1.00  0.00     0.251 C 
ATOM     33  H   UNL A   1      39.848  18.116  25.890  1.00  0.00     0.163 HD
ATOM     34  O   UNL A   1      42.316  18.411  25.737  1.00  0.00    -0.269 OA
BRANCH  32  35
ATOM     35  C   UNL A   1      41.942  20.585  26.512  1.00  0.00     0.039 A 
ATOM     36  C   UNL A   1      42.549  21.560  25.712  1.00  0.00     0.014 A 
ATOM     37  C   UNL A   1      41.656  20.828  27.847  1.00  0.00     0.014 A 
ATOM     38  C   UNL A   1      42.800  22.815  26.266  1.00  0.00     0.010 A 
ATOM     39  C   UNL A   1      41.662  22.110  28.296  1.00  0.00     0.010 A 
ATOM     40  C   UNL A   1      42.345  23.075  27.563  1.00  0.00    -0.014 A 
BRANCH  40  41
ATOM     41  C   UNL A   1      42.522  24.344  28.250  1.00  0.00     0.031 A 
ATOM     42  C   UNL A   1      41.428  25.335  28.059  1.00  0.00     0.074 A 
ATOM     43  C   UNL A   1      43.410  24.410  29.270  1.00  0.00     0.049 A 
ATOM     44  N   UNL A   1      41.499  26.530  27.572  1.00  0.00    -0.248 NA
ATOM     45  C   UNL A   1      40.050  24.896  28.345  1.00  0.00     0.031 C 
ATOM     46  C   UNL A   1      44.286  23.340  29.786  1.00  0.00     0.029 A 
ATOM     47  N   UNL A   1      43.615  25.405  30.170  1.00  0.00    -0.354 N 
ATOM     48  C   UNL A   1      40.217  27.066  27.689  1.00  0.00     0.074 A 
ATOM     49  C   UNL A   1      39.341  25.959  27.963  1.00  0.00     0.031 C 
ATOM     50  C   UNL A   1      44.729  23.664  31.019  1.00  0.00     0.029 A 
ATOM     51  C   UNL A   1      44.330  25.026  31.303  1.00  0.00     0.049 A 
ATOM     52  H   UNL A   1      43.284  26.323  30.032  1.00  0.00     0.167 HD
ATOM     53  C   UNL A   1      40.015  28.407  27.822  1.00  0.00     0.037 A 
ATOM     54  C   UNL A   1      44.547  25.782  32.406  1.00  0.00     0.037 A 
ATOM     55  C   UNL A   1      41.199  29.145  27.462  1.00  0.00     0.049 A 
ATOM     56  C   UNL A   1      44.270  27.188  32.022  1.00  0.00     0.074 A 
ATOM     57  C   UNL A   1      41.953  29.285  26.313  1.00  0.00     0.029 A 
ATOM     58  N   UNL A   1      41.993  29.599  28.486  1.00  0.00    -0.354 N 
ATOM     59  N   UNL A   1      44.981  27.855  31.156  1.00  0.00    -0.248 NA
ATOM     60  C   UNL A   1      42.924  27.691  32.247  1.00  0.00     0.031 C 
ATOM     61  C   UNL A   1      43.305  29.348  26.768  1.00  0.00     0.029 A 
ATOM     62  C   UNL A   1      43.293  29.309  28.163  1.00  0.00     0.049 A 
ATOM     63  H   UNL A   1      41.684  30.050  29.305  1.00  0.00     0.167 HD
ATOM     64  C   UNL A   1      44.057  28.595  30.428  1.00  0.00     0.074 A 
ATOM     65  C   UNL A   1      42.818  28.517  31.202  1.00  0.00     0.031 C 
ATOM     66  C   UNL A   1      44.305  28.948  29.132  1.00  0.00     0.037 A 
BRANCH  53  67
ATOM     67  C   UNL A   1      38.906  29.036  28.638  1.00  0.00     0.057 A 
ATOM     68  C   UNL A   1      38.817  28.740  30.012  1.00  0.00     0.134 A 
ATOM     69  C   UNL A   1      37.771  29.676  28.097  1.00  0.00     0.134 A 
ATOM     70  F   UNL A   1      39.825  28.127  30.651  1.00  0.00    -0.206 F 
ATOM     71  C   UNL A   1      37.659  28.983  30.762  1.00  0.00     0.040 A 
ATOM     72  C   UNL A   1      36.631  29.972  28.851  1.00  0.00     0.040 A 
ATOM     73  F   UNL A   1      37.653  29.958  26.794  1.00  0.00    -0.206 F 
ATOM     74  C   UNL A   1      36.557  29.594  30.180  1.00  0.00     0.006 A 
ENDBRANCH  53  67
BRANCH  54  75
ATOM     75  C   UNL A   1      44.662  25.345  33.815  1.00  0.00     0.057 A 
ATOM     76  C   UNL A   1      43.525  25.084  34.592  1.00  0.00     0.134 A 
ATOM     77  C   UNL A   1      45.888  24.909  34.350  1.00  0.00     0.134 A 
ATOM     78  F   UNL A   1      42.307  25.427  34.146  1.00  0.00    -0.206 F 
ATOM     79  C   UNL A   1      43.598  24.410  35.818  1.00  0.00     0.040 A 
ATOM     80  C   UNL A   1      45.976  24.237  35.574  1.00  0.00     0.040 A 
ATOM     81  F   UNL A   1      47.030  25.045  33.659  1.00  0.00    -0.206 F 
ATOM     82  C   UNL A   1      44.826  23.973  36.307  1.00  0.00     0.006 A 
ENDBRANCH  54  75
BRANCH  66  83
ATOM     83  C   UNL A   1      45.690  28.708  28.594  1.00  0.00     0.057 A 
ATOM     84  C   UNL A   1      46.066  27.559  27.879  1.00  0.00     0.134 A 
ATOM     85  C   UNL A   1      46.627  29.742  28.650  1.00  0.00     0.134 A 
ATOM     86  F   UNL A   1      45.207  26.556  27.682  1.00  0.00    -0.206 F 
ATOM     87  C   UNL A   1      47.323  27.432  27.278  1.00  0.00     0.040 A 
ATOM     88  C   UNL A   1      47.876  29.642  28.029  1.00  0.00     0.040 A 
ATOM     89  F   UNL A   1      46.321  30.895  29.264  1.00  0.00    -0.206 F 
ATOM     90  C   UNL A   1      48.230  28.481  27.345  1.00  0.00     0.006 A 
ENDBRANCH  66  83
ENDBRANCH  40  41
ENDBRANCH  32  35
ENDBRANCH  30  31
ENDBRANCH  29  30
ENDBRANCH   1  29
TORSDOF 14
ENDMDL
MODEL 2
REMARK VINA RESULT:     -13.1      2.236      5.825
REMARK SMILES C/C(=N\NC(N)=O)c1nnn(-c2ccc(C(=O)NCCCCNC(=O)c3ccc(-c4c5nc(c(-c6c(F)cccc6F)c6ccc([nH]6)c(-c6c(F)cccc6F)c6nc(c(-c7c(F)cccc7F)c7ccc4[nH]7)C=C6)C=C5)cc3)cc2)c1C
REMARK SMILES IDX 20 1 19 2 18 3 16 4 17 5 15 7 12 8 13 9 81 10 14 11 80 12
REMARK SMILES IDX 11 13 8 14 9 15 82 16 10 17 83 18 2 19 1 20 3 21 4 22 5 23
REMARK SMILES IDX 6 25 7 26 21 29 22 30 23 31 24 32 25 34 26 35 27 36 79 37
REMARK SMILES IDX 28 38 78 39 29 40 30 41 31 42 72 43 32 44 77 45 71 46 73 47
REMARK SMILES IDX 33 48 76 49 70 50 69 51 34 53 60 54 43 55 59 56 44 57 47 58
REMARK SMILES IDX 58 59 74 60 45 61 46 62 57 64 75 65 48 66 35 67 36 68 41 69
REMARK SMILES IDX 37 70 38 71 40 72 42 73 39 74 61 75 62 76 67 77 63 78 64 79
REMARK SMILES IDX 66 80 68 81 65 82 49 83 50 84 55 85 51 86 52 87 54 88 56 89
REMARK SMILES IDX 53 90
REMARK H PARENT 18 6 4 24 6 27 6 28 23 33 73 52 47 63
REMARK Flexibility Score: inf
ROOT
ATOM      1  C   UNL A   1      40.005  21.613  26.524  1.00  0.00     0.023 C 
ENDROOT
BRANCH   1   2
ATOM      2  C   UNL A   1      38.700  21.932  25.781  1.00  0.00     0.116 C 
BRANCH   2   3
ATOM      3  N   UNL A   1      38.035  20.724  25.322  1.00  0.00    -0.352 N 
ATOM      4  C   UNL A   1      36.713  20.373  25.179  1.00  0.00     0.251 C 
ATOM      5  O   UNL A   1      36.478  19.261  24.705  1.00  0.00    -0.269 OA
ATOM      6  H   UNL A   1      38.659  20.011  25.057  1.00  0.00     0.163 HD
BRANCH   4   7
ATOM      7  C   UNL A   1      35.565  21.276  25.503  1.00  0.00     0.039 A 
ATOM      8  C   UNL A   1      33.542  23.172  25.903  1.00  0.00     0.067 A 
ATOM      9  C   UNL A   1      33.708  22.615  24.635  1.00  0.00     0.029 A 
ATOM     10  C   UNL A   1      34.289  22.714  26.986  1.00  0.00     0.029 A 
ATOM     11  C   UNL A   1      34.741  21.691  24.437  1.00  0.00     0.016 A 
ATOM     12  C   UNL A   1      35.262  21.737  26.785  1.00  0.00     0.016 A 
BRANCH   8  13
ATOM     13  N   UNL A   1      32.682  24.267  26.086  1.00  0.00    -0.217 N 
ATOM     14  C   UNL A   1      31.774  26.240  26.116  1.00  0.00     0.132 A 
ATOM     15  N   UNL A   1      30.838  25.316  26.501  1.00  0.00    -0.128 NA
ATOM     16  C   UNL A   1      32.963  25.597  25.829  1.00  0.00     0.071 A 
ATOM     17  N   UNL A   1      31.381  24.110  26.402  1.00  0.00    -0.061 NA
ATOM     18  C   UNL A   1      34.214  26.089  25.202  1.00  0.00     0.069 C 
BRANCH  14  19
ATOM     19  C   UNL A   1      31.425  27.619  25.822  1.00  0.00     0.087 C 
ATOM     20  C   UNL A   1      31.700  28.597  26.932  1.00  0.00     0.071 C 
ATOM     21  N   UNL A   1      30.957  27.840  24.628  1.00  0.00    -0.174 NA
BRANCH  21  22
ATOM     22  N   UNL A   1      30.580  29.075  24.182  1.00  0.00    -0.229 N 
ATOM     23  C   UNL A   1      30.114  29.431  22.936  1.00  0.00     0.332 C 
ATOM     24  H   UNL A   1      30.650  29.807  24.836  1.00  0.00     0.195 HD
ATOM     25  N   UNL A   1      29.777  30.751  22.867  1.00  0.00    -0.350 N 
ATOM     26  O   UNL A   1      29.975  28.716  21.954  1.00  0.00    -0.247 OA
ATOM     27  H   UNL A   1      29.888  31.329  23.656  1.00  0.00     0.161 HD
ATOM     28  H   UNL A   1      29.421  31.126  22.029  1.00  0.00     0.161 HD
ENDBRANCH  21  22
ENDBRANCH  14  19
ENDBRANCH   8  13
ENDBRANCH   4   7
ENDBRANCH   2   3
ENDBRANCH   1   2
BRANCH   1  29
ATOM     29  C   UNL A   1      40.696  20.303  26.120  1.00  0.00     0.023 C 
BRANCH  29  30
ATOM     30  C   UNL A   1      41.997  20.012  26.856  1.00  0.00     0.116 C 
BRANCH  30  31
ATOM     31  N   UNL A   1      43.145  19.825  25.960  1.00  0.00    -0.352 N 
ATOM     32  C   UNL A   1      43.830  20.782  25.220  1.00  0.00     0.251 C 
ATOM     33  H   UNL A   1      43.475  18.901  25.873  1.00  0.00     0.163 HD
ATOM     34  O   UNL A   1      44.507  20.488  24.255  1.00  0.00    -0.269 OA
BRANCH  32  35
ATOM     35  C   UNL A   1      43.741  22.180  25.673  1.00  0.00     0.039 A 
ATOM     36  C   UNL A   1      43.000  23.164  25.008  1.00  0.00     0.014 A 
ATOM     37  C   UNL A   1      44.398  22.458  26.862  1.00  0.00     0.014 A 
ATOM     38  C   UNL A   1      42.876  24.421  25.600  1.00  0.00     0.010 A 
ATOM     39  C   UNL A   1      44.064  23.581  27.550  1.00  0.00     0.010 A 
ATOM     40  C   UNL A   1      43.413  24.611  26.877  1.00  0.00    -0.014 A 
BRANCH  40  41
ATOM     41  C   UNL A   1      43.338  25.862  27.615  1.00  0.00     0.031 A 
ATOM     42  C   UNL A   1      44.342  26.893  27.234  1.00  0.00     0.074 A 
ATOM     43  C   UNL A   1      42.196  26.153  28.283  1.00  0.00     0.049 A 
ATOM     44  N   UNL A   1      45.232  27.463  27.978  1.00  0.00    -0.248 NA
ATOM     45  C   UNL A   1      44.443  27.256  25.809  1.00  0.00     0.031 C 
ATOM     46  C   UNL A   1      40.975  25.331  28.400  1.00  0.00     0.029 A 
ATOM     47  N   UNL A   1      41.817  27.313  28.875  1.00  0.00    -0.354 N 
ATOM     48  C   UNL A   1      45.859  28.408  27.165  1.00  0.00     0.074 A 
ATOM     49  C   UNL A   1      45.488  28.085  25.814  1.00  0.00     0.031 C 
ATOM     50  C   UNL A   1      39.942  26.099  28.803  1.00  0.00     0.029 A 
ATOM     51  C   UNL A   1      40.455  27.408  29.150  1.00  0.00     0.049 A 
ATOM     52  H   UNL A   1      42.454  28.031  29.094  1.00  0.00     0.167 HD
ATOM     53  C   UNL A   1      46.410  29.541  27.683  1.00  0.00     0.037 A 
ATOM     54  C   UNL A   1      39.802  28.504  29.604  1.00  0.00     0.037 A 
ATOM     55  C   UNL A   1      46.574  29.427  29.111  1.00  0.00     0.049 A 
ATOM     56  C   UNL A   1      40.832  29.420  30.153  1.00  0.00     0.074 A 
ATOM     57  C   UNL A   1      47.284  28.593  29.951  1.00  0.00     0.029 A 
ATOM     58  N   UNL A   1      45.633  30.039  29.902  1.00  0.00    -0.354 N 
ATOM     59  N   UNL A   1      41.558  29.147  31.202  1.00  0.00    -0.248 NA
ATOM     60  C   UNL A   1      41.381  30.425  29.256  1.00  0.00     0.031 C 
ATOM     61  C   UNL A   1      46.426  28.384  31.073  1.00  0.00     0.029 A 
ATOM     62  C   UNL A   1      45.275  29.151  30.883  1.00  0.00     0.049 A 
ATOM     63  H   UNL A   1      45.280  30.950  29.785  1.00  0.00     0.167 HD
ATOM     64  C   UNL A   1      42.825  29.625  30.894  1.00  0.00     0.074 A 
ATOM     65  C   UNL A   1      42.633  30.475  29.720  1.00  0.00     0.031 C 
ATOM     66  C   UNL A   1      43.942  29.054  31.436  1.00  0.00     0.037 A 
BRANCH  53  67
ATOM     67  C   UNL A   1      46.442  30.884  26.986  1.00  0.00     0.057 A 
ATOM     68  C   UNL A   1      47.649  31.607  26.951  1.00  0.00     0.134 A 
ATOM     69  C   UNL A   1      45.300  31.621  26.607  1.00  0.00     0.134 A 
ATOM     70  F   UNL A   1      48.809  31.026  27.293  1.00  0.00    -0.206 F 
ATOM     71  C   UNL A   1      47.702  32.973  26.648  1.00  0.00     0.040 A 
ATOM     72  C   UNL A   1      45.350  32.972  26.249  1.00  0.00     0.040 A 
ATOM     73  F   UNL A   1      44.063  31.115  26.658  1.00  0.00    -0.206 F 
ATOM     74  C   UNL A   1      46.548  33.663  26.303  1.00  0.00     0.006 A 
ENDBRANCH  53  67
BRANCH  54  75
ATOM     75  C   UNL A   1      38.418  28.940  29.312  1.00  0.00     0.057 A 
ATOM     76  C   UNL A   1      37.467  29.074  30.332  1.00  0.00     0.134 A 
ATOM     77  C   UNL A   1      38.072  29.498  28.068  1.00  0.00     0.134 A 
ATOM     78  F   UNL A   1      37.723  28.608  31.563  1.00  0.00    -0.206 F 
ATOM     79  C   UNL A   1      36.251  29.744  30.135  1.00  0.00     0.040 A 
ATOM     80  C   UNL A   1      36.862  30.167  27.856  1.00  0.00     0.040 A 
ATOM     81  F   UNL A   1      38.937  29.488  27.042  1.00  0.00    -0.206 F 
ATOM     82  C   UNL A   1      35.951  30.304  28.896  1.00  0.00     0.006 A 
ENDBRANCH  54  75
BRANCH  66  83
ATOM     83  C   UNL A   1      43.748  28.048  32.540  1.00  0.00     0.057 A 
ATOM     84  C   UNL A   1      43.768  26.658  32.346  1.00  0.00     0.134 A 
ATOM     85  C   UNL A   1      43.712  28.493  33.863  1.00  0.00     0.134 A 
ATOM     86  F   UNL A   1      43.902  26.131  31.126  1.00  0.00    -0.206 F 
ATOM     87  C   UNL A   1      43.720  25.754  33.413  1.00  0.00     0.040 A 
ATOM     88  C   UNL A   1      43.694  27.604  34.941  1.00  0.00     0.040 A 
ATOM     89  F   UNL A   1      43.751  29.807  34.132  1.00  0.00    -0.206 F 
ATOM     90  C   UNL A   1      43.692  26.229  34.718  1.00  0.00     0.006 A 
ENDBRANCH  66  83
ENDBRANCH  40  41
ENDBRANCH  32  35
ENDBRANCH  30  31
ENDBRANCH  29  30
ENDBRANCH   1  29
TORSDOF 14
ENDMDL
MODEL 3
REMARK VINA RESULT:     -12.9      4.052      9.854
REMARK SMILES C/C(=N\NC(N)=O)c1nnn(-c2ccc(C(=O)NCCCCNC(=O)c3ccc(-c4c5nc(c(-c6c(F)cccc6F)c6ccc([nH]6)c(-c6c(F)cccc6F)c6nc(c(-c7c(F)cccc7F)c7ccc4[nH]7)C=C6)C=C5)cc3)cc2)c1C
REMARK SMILES IDX 20 1 19 2 18 3 16 4 17 5 15 7 12 8 13 9 81 10 14 11 80 12
REMARK SMILES IDX 11 13 8 14 9 15 82 16 10 17 83 18 2 19 1 20 3 21 4 22 5 23
REMARK SMILES IDX 6 25 7 26 21 29 22 30 23 31 24 32 25 34 26 35 27 36 79 37
REMARK SMILES IDX 28 38 78 39 29 40 30 41 31 42 72 43 32 44 77 45 71 46 73 47
REMARK SMILES IDX 33 48 76 49 70 50 69 51 34 53 60 54 43 55 59 56 44 57 47 58
REMARK SMILES IDX 58 59 74 60 45 61 46 62 57 64 75 65 48 66 35 67 36 68 41 69
REMARK SMILES IDX 37 70 38 71 40 72 42 73 39 74 61 75 62 76 67 77 63 78 64 79
REMARK SMILES IDX 66 80 68 81 65 82 49 83 50 84 55 85 51 86 52 87 54 88 56 89
REMARK SMILES IDX 53 90
REMARK H PARENT 18 6 4 24 6 27 6 28 23 33 73 52 47 63
REMARK Flexibility Score: inf
ROOT
ATOM      1  C   UNL A   1      31.429  30.268  26.157  1.00  0.00     0.023 C 
ENDROOT
BRANCH   1   2
ATOM      2  C   UNL A   1      32.860  29.726  26.027  1.00  0.00     0.116 C 
BRANCH   2   3
ATOM      3  N   UNL A   1      33.314  29.735  24.646  1.00  0.00    -0.352 N 
ATOM      4  C   UNL A   1      33.595  28.740  23.740  1.00  0.00     0.251 C 
ATOM      5  O   UNL A   1      33.921  29.092  22.605  1.00  0.00    -0.269 OA
ATOM      6  H   UNL A   1      33.447  30.641  24.285  1.00  0.00     0.163 HD
BRANCH   4   7
ATOM      7  C   UNL A   1      33.467  27.278  24.033  1.00  0.00     0.039 A 
ATOM      8  C   UNL A   1      33.543  24.527  24.552  1.00  0.00     0.067 A 
ATOM      9  C   UNL A   1      34.202  25.398  25.419  1.00  0.00     0.029 A 
ATOM     10  C   UNL A   1      32.761  25.015  23.508  1.00  0.00     0.029 A 
ATOM     11  C   UNL A   1      34.184  26.770  25.135  1.00  0.00     0.016 A 
ATOM     12  C   UNL A   1      32.693  26.389  23.286  1.00  0.00     0.016 A 
BRANCH   8  13
ATOM     13  N   UNL A   1      33.735  23.140  24.665  1.00  0.00    -0.217 N 
ATOM     14  C   UNL A   1      33.467  20.994  24.869  1.00  0.00     0.132 A 
ATOM     15  N   UNL A   1      34.779  21.249  24.565  1.00  0.00    -0.128 NA
ATOM     16  C   UNL A   1      32.768  22.186  24.926  1.00  0.00     0.071 A 
ATOM     17  N   UNL A   1      34.912  22.554  24.366  1.00  0.00    -0.061 NA
ATOM     18  C   UNL A   1      31.315  22.463  25.029  1.00  0.00     0.069 C 
BRANCH  14  19
ATOM     19  C   UNL A   1      32.916  19.650  24.855  1.00  0.00     0.087 C 
ATOM     20  C   UNL A   1      32.326  19.216  23.541  1.00  0.00     0.071 C 
ATOM     21  N   UNL A   1      33.037  18.981  25.963  1.00  0.00    -0.174 NA
BRANCH  21  22
ATOM     22  N   UNL A   1      32.578  17.703  26.128  1.00  0.00    -0.229 N 
ATOM     23  C   UNL A   1      33.190  16.521  25.778  1.00  0.00     0.332 C 
ATOM     24  H   UNL A   1      31.693  17.618  26.552  1.00  0.00     0.195 HD
ATOM     25  N   UNL A   1      32.458  15.431  26.150  1.00  0.00    -0.350 N 
ATOM     26  O   UNL A   1      34.262  16.369  25.211  1.00  0.00    -0.247 OA
ATOM     27  H   UNL A   1      31.594  15.550  26.606  1.00  0.00     0.161 HD
ATOM     28  H   UNL A   1      32.795  14.524  25.963  1.00  0.00     0.161 HD
ENDBRANCH  21  22
ENDBRANCH  14  19
ENDBRANCH   8  13
ENDBRANCH   4   7
ENDBRANCH   2   3
ENDBRANCH   1   2
BRANCH   1  29
ATOM     29  C   UNL A   1      31.313  31.778  26.413  1.00  0.00     0.023 C 
BRANCH  29  30
ATOM     30  C   UNL A   1      32.400  32.360  27.306  1.00  0.00     0.116 C 
BRANCH  30  31
ATOM     31  N   UNL A   1      32.270  33.808  27.516  1.00  0.00    -0.352 N 
ATOM     32  C   UNL A   1      32.932  34.611  28.438  1.00  0.00     0.251 C 
ATOM     33  H   UNL A   1      31.632  34.271  26.925  1.00  0.00     0.163 HD
ATOM     34  O   UNL A   1      32.501  35.696  28.773  1.00  0.00    -0.269 OA
BRANCH  32  35
ATOM     35  C   UNL A   1      34.213  34.117  28.970  1.00  0.00     0.039 A 
ATOM     36  C   UNL A   1      34.368  33.609  30.265  1.00  0.00     0.014 A 
ATOM     37  C   UNL A   1      35.269  34.125  28.071  1.00  0.00     0.014 A 
ATOM     38  C   UNL A   1      35.593  33.044  30.618  1.00  0.00     0.010 A 
ATOM     39  C   UNL A   1      36.356  33.352  28.329  1.00  0.00     0.010 A 
ATOM     40  C   UNL A   1      36.578  32.920  29.633  1.00  0.00    -0.014 A 
BRANCH  40  41
ATOM     41  C   UNL A   1      37.889  32.333  29.860  1.00  0.00     0.031 A 
ATOM     42  C   UNL A   1      38.049  30.925  29.403  1.00  0.00     0.074 A 
ATOM     43  C   UNL A   1      38.937  33.158  30.095  1.00  0.00     0.049 A 
ATOM     44  N   UNL A   1      38.374  29.885  30.097  1.00  0.00    -0.248 NA
ATOM     45  C   UNL A   1      37.691  30.615  28.007  1.00  0.00     0.031 C 
ATOM     46  C   UNL A   1      38.932  34.631  30.190  1.00  0.00     0.029 A 
ATOM     47  N   UNL A   1      40.262  32.873  30.149  1.00  0.00    -0.354 N 
ATOM     48  C   UNL A   1      38.469  28.833  29.186  1.00  0.00     0.074 A 
ATOM     49  C   UNL A   1      37.836  29.289  27.978  1.00  0.00     0.031 C 
ATOM     50  C   UNL A   1      40.188  35.104  30.048  1.00  0.00     0.029 A 
ATOM     51  C   UNL A   1      41.100  33.980  30.041  1.00  0.00     0.049 A 
ATOM     52  H   UNL A   1      40.604  31.955  30.255  1.00  0.00     0.167 HD
ATOM     53  C   UNL A   1      39.298  27.774  29.404  1.00  0.00     0.037 A 
ATOM     54  C   UNL A   1      42.449  33.957  29.925  1.00  0.00     0.037 A 
ATOM     55  C   UNL A   1      39.725  27.728  30.780  1.00  0.00     0.049 A 
ATOM     56  C   UNL A   1      42.894  32.610  30.359  1.00  0.00     0.074 A 
ATOM     57  C   UNL A   1      39.088  27.592  31.998  1.00  0.00     0.029 A 
ATOM     58  N   UNL A   1      40.976  28.215  31.066  1.00  0.00    -0.354 N 
ATOM     59  N   UNL A   1      42.771  32.165  31.579  1.00  0.00    -0.248 NA
ATOM     60  C   UNL A   1      43.038  31.589  29.332  1.00  0.00     0.031 C 
ATOM     61  C   UNL A   1      39.802  28.453  32.884  1.00  0.00     0.029 A 
ATOM     62  C   UNL A   1      40.867  29.013  32.175  1.00  0.00     0.049 A 
ATOM     63  H   UNL A   1      41.802  28.025  30.565  1.00  0.00     0.167 HD
ATOM     64  C   UNL A   1      42.408  30.832  31.439  1.00  0.00     0.074 A 
ATOM     65  C   UNL A   1      42.672  30.514  30.036  1.00  0.00     0.031 C 
ATOM     66  C   UNL A   1      41.658  30.204  32.393  1.00  0.00     0.037 A 
BRANCH  53  67
ATOM     67  C   UNL A   1      40.033  27.015  28.320  1.00  0.00     0.057 A 
ATOM     68  C   UNL A   1      40.855  27.728  27.426  1.00  0.00     0.134 A 
ATOM     69  C   UNL A   1      39.754  25.687  27.935  1.00  0.00     0.134 A 
ATOM     70  F   UNL A   1      41.194  29.003  27.669  1.00  0.00    -0.206 F 
ATOM     71  C   UNL A   1      41.291  27.189  26.209  1.00  0.00     0.040 A 
ATOM     72  C   UNL A   1      40.229  25.122  26.748  1.00  0.00     0.040 A 
ATOM     73  F   UNL A   1      38.927  24.893  28.625  1.00  0.00    -0.206 F 
ATOM     74  C   UNL A   1      40.971  25.884  25.862  1.00  0.00     0.006 A 
ENDBRANCH  53  67
BRANCH  54  75
ATOM     75  C   UNL A   1      43.326  34.888  29.180  1.00  0.00     0.057 A 
ATOM     76  C   UNL A   1      43.478  34.789  27.790  1.00  0.00     0.134 A 
ATOM     77  C   UNL A   1      43.820  36.063  29.773  1.00  0.00     0.134 A 
ATOM     78  F   UNL A   1      43.003  33.723  27.131  1.00  0.00    -0.206 F 
ATOM     79  C   UNL A   1      44.066  35.809  27.030  1.00  0.00     0.040 A 
ATOM     80  C   UNL A   1      44.412  37.089  29.027  1.00  0.00     0.040 A 
ATOM     81  F   UNL A   1      43.665  36.293  31.085  1.00  0.00    -0.206 F 
ATOM     82  C   UNL A   1      44.525  36.970  27.647  1.00  0.00     0.006 A 
ENDBRANCH  54  75
BRANCH  66  83
ATOM     83  C   UNL A   1      41.430  30.929  33.693  1.00  0.00     0.057 A 
ATOM     84  C   UNL A   1      40.311  31.736  33.955  1.00  0.00     0.134 A 
ATOM     85  C   UNL A   1      42.277  30.669  34.771  1.00  0.00     0.134 A 
ATOM     86  F   UNL A   1      39.388  31.964  33.017  1.00  0.00    -0.206 F 
ATOM     87  C   UNL A   1      40.065  32.284  35.218  1.00  0.00     0.040 A 
ATOM     88  C   UNL A   1      42.029  31.183  36.047  1.00  0.00     0.040 A 
ATOM     89  F   UNL A   1      43.335  29.857  34.615  1.00  0.00    -0.206 F 
ATOM     90  C   UNL A   1      40.923  32.000  36.273  1.00  0.00     0.006 A 
ENDBRANCH  66  83
ENDBRANCH  40  41
ENDBRANCH  32  35
ENDBRANCH  30  31
ENDBRANCH  29  30
ENDBRANCH   1  29
TORSDOF 14
ENDMDL
