MODEL 1
REMARK VINA RESULT:     -12.1      0.000      0.000
REMARK SMILES O=C(NCCCCNC(=O)c1cc(-c2ccc(C(F)(F)F)cc2)cc([N+](=O)[O-])c1)c1ccc(-c2c3nc(c(-c4c(F)cccc4F)c4ccc([nH]4)c(-c4c(F)cccc4F)c4nc(c(-c5c(F)cccc5F)c5ccc2[nH]5)C=C4)C=C3)cc1
REMARK SMILES IDX 5 1 4 2 3 3 1 4 2 5 30 7 31 8 83 9 32 10 82 11 33 12 34 13
REMARK SMILES IDX 35 14 76 15 36 16 81 17 75 18 77 19 37 20 80 21 74 22 73 23
REMARK SMILES IDX 38 25 64 26 47 27 63 28 48 29 51 30 62 31 78 32 49 33 50 34
REMARK SMILES IDX 61 36 79 37 52 38 39 39 40 40 45 41 41 42 42 43 44 44 46 45
REMARK SMILES IDX 43 46 65 47 66 48 71 49 67 50 68 51 70 52 72 53 69 54 53 55
REMARK SMILES IDX 54 56 59 57 55 58 56 59 58 60 60 61 57 62 6 63 7 64 8 65
REMARK SMILES IDX 9 66 10 68 11 69 12 70 29 71 13 72 25 73 24 74 14 75 15 76
REMARK SMILES IDX 23 77 16 78 22 79 17 80 18 81 19 82 20 83 21 84 26 85 27 86
REMARK SMILES IDX 28 87
REMARK H PARENT 3 6 77 24 51 35 8 67
REMARK Flexibility Score: inf
ROOT
ATOM      1  C   UNL A   1      32.059  28.690  24.358  1.00  0.00     0.023 C 
ENDROOT
BRANCH   1   2
ATOM      2  C   UNL A   1      33.042  29.397  25.280  1.00  0.00     0.116 C 
BRANCH   2   3
ATOM      3  N   UNL A   1      32.526  30.656  25.793  1.00  0.00    -0.352 N 
ATOM      4  O   UNL A   1      32.297  32.369  27.244  1.00  0.00    -0.269 OA
ATOM      5  C   UNL A   1      32.955  31.405  26.861  1.00  0.00     0.251 C 
ATOM      6  H   UNL A   1      31.757  31.027  25.302  1.00  0.00     0.163 HD
BRANCH   5   7
ATOM      7  C   UNL A   1      34.198  31.035  27.568  1.00  0.00     0.039 A 
ATOM      8  C   UNL A   1      34.413  29.723  28.002  1.00  0.00     0.014 A 
ATOM      9  C   UNL A   1      35.168  32.016  27.791  1.00  0.00     0.014 A 
ATOM     10  C   UNL A   1      35.529  29.424  28.775  1.00  0.00     0.010 A 
ATOM     11  C   UNL A   1      36.327  31.696  28.501  1.00  0.00     0.010 A 
ATOM     12  C   UNL A   1      36.502  30.404  29.023  1.00  0.00    -0.014 A 
BRANCH  12  13
ATOM     13  C   UNL A   1      37.730  30.047  29.774  1.00  0.00     0.031 A 
ATOM     14  C   UNL A   1      37.966  30.560  31.164  1.00  0.00     0.074 A 
ATOM     15  C   UNL A   1      38.643  29.257  29.178  1.00  0.00     0.049 A 
ATOM     16  N   UNL A   1      38.999  30.374  31.946  1.00  0.00    -0.248 NA
ATOM     17  C   UNL A   1      36.911  31.398  31.751  1.00  0.00     0.031 C 
ATOM     18  C   UNL A   1      38.530  28.716  27.822  1.00  0.00     0.029 A 
ATOM     19  N   UNL A   1      39.845  28.777  29.632  1.00  0.00    -0.354 N 
ATOM     20  C   UNL A   1      38.732  31.089  33.106  1.00  0.00     0.074 A 
ATOM     21  C   UNL A   1      37.447  31.729  32.919  1.00  0.00     0.031 C 
ATOM     22  C   UNL A   1      39.609  27.966  27.559  1.00  0.00     0.029 A 
ATOM     23  C   UNL A   1      40.512  28.018  28.704  1.00  0.00     0.049 A 
ATOM     24  H   UNL A   1      40.194  28.958  30.534  1.00  0.00     0.167 HD
ATOM     25  C   UNL A   1      39.490  31.195  34.225  1.00  0.00     0.037 A 
ATOM     26  C   UNL A   1      41.730  27.448  28.753  1.00  0.00     0.037 A 
ATOM     27  C   UNL A   1      40.759  30.541  34.410  1.00  0.00     0.049 A 
ATOM     28  C   UNL A   1      42.554  27.591  29.996  1.00  0.00     0.074 A 
ATOM     29  C   UNL A   1      41.573  30.537  35.529  1.00  0.00     0.029 A 
ATOM     30  N   UNL A   1      41.405  29.783  33.444  1.00  0.00    -0.354 N 
ATOM     31  N   UNL A   1      42.267  28.228  31.105  1.00  0.00    -0.248 NA
ATOM     32  C   UNL A   1      43.871  26.940  29.996  1.00  0.00     0.031 C 
ATOM     33  C   UNL A   1      42.732  29.813  35.227  1.00  0.00     0.029 A 
ATOM     34  C   UNL A   1      42.621  29.331  33.932  1.00  0.00     0.049 A 
ATOM     35  H   UNL A   1      41.053  29.593  32.545  1.00  0.00     0.167 HD
ATOM     36  C   UNL A   1      43.360  28.048  31.940  1.00  0.00     0.074 A 
ATOM     37  C   UNL A   1      44.310  27.228  31.214  1.00  0.00     0.031 C 
ATOM     38  C   UNL A   1      43.558  28.522  33.194  1.00  0.00     0.037 A 
BRANCH  25  39
ATOM     39  C   UNL A   1      38.974  32.071  35.329  1.00  0.00     0.057 A 
ATOM     40  C   UNL A   1      38.235  31.556  36.402  1.00  0.00     0.134 A 
ATOM     41  C   UNL A   1      39.247  33.445  35.333  1.00  0.00     0.134 A 
ATOM     42  F   UNL A   1      37.931  30.250  36.454  1.00  0.00    -0.206 F 
ATOM     43  C   UNL A   1      37.766  32.380  37.427  1.00  0.00     0.040 A 
ATOM     44  C   UNL A   1      38.802  34.276  36.364  1.00  0.00     0.040 A 
ATOM     45  F   UNL A   1      39.954  34.002  34.340  1.00  0.00    -0.206 F 
ATOM     46  C   UNL A   1      38.053  33.744  37.412  1.00  0.00     0.006 A 
ENDBRANCH  25  39
BRANCH  26  47
ATOM     47  C   UNL A   1      42.229  26.709  27.570  1.00  0.00     0.057 A 
ATOM     48  C   UNL A   1      41.979  25.342  27.409  1.00  0.00     0.134 A 
ATOM     49  C   UNL A   1      42.920  27.367  26.545  1.00  0.00     0.134 A 
ATOM     50  F   UNL A   1      41.333  24.658  28.365  1.00  0.00    -0.206 F 
ATOM     51  C   UNL A   1      42.399  24.655  26.269  1.00  0.00     0.040 A 
ATOM     52  C   UNL A   1      43.325  26.698  25.390  1.00  0.00     0.040 A 
ATOM     53  F   UNL A   1      43.178  28.680  26.637  1.00  0.00    -0.206 F 
ATOM     54  C   UNL A   1      43.065  25.336  25.252  1.00  0.00     0.006 A 
ENDBRANCH  26  47
BRANCH  38  55
ATOM     55  C   UNL A   1      44.846  28.152  33.866  1.00  0.00     0.057 A 
ATOM     56  C   UNL A   1      45.976  28.976  33.790  1.00  0.00     0.134 A 
ATOM     57  C   UNL A   1      44.943  26.984  34.631  1.00  0.00     0.134 A 
ATOM     58  F   UNL A   1      45.950  30.101  33.059  1.00  0.00    -0.206 F 
ATOM     59  C   UNL A   1      47.164  28.641  34.441  1.00  0.00     0.040 A 
ATOM     60  C   UNL A   1      46.119  26.650  35.304  1.00  0.00     0.040 A 
ATOM     61  F   UNL A   1      43.893  26.156  34.746  1.00  0.00    -0.206 F 
ATOM     62  C   UNL A   1      47.235  27.478  35.208  1.00  0.00     0.006 A 
ENDBRANCH  38  55
ENDBRANCH  12  13
ENDBRANCH   5   7
ENDBRANCH   2   3
ENDBRANCH   1   2
BRANCH   1  63
ATOM     63  C   UNL A   1      32.401  28.751  22.870  1.00  0.00     0.023 C 
BRANCH  63  64
ATOM     64  C   UNL A   1      33.624  27.945  22.446  1.00  0.00     0.116 C 
BRANCH  64  65
ATOM     65  N   UNL A   1      33.282  26.793  21.629  1.00  0.00    -0.352 N 
ATOM     66  C   UNL A   1      33.281  25.462  21.954  1.00  0.00     0.251 C 
ATOM     67  H   UNL A   1      33.012  27.000  20.706  1.00  0.00     0.163 HD
ATOM     68  O   UNL A   1      33.092  24.616  21.084  1.00  0.00    -0.269 OA
BRANCH  66  69
ATOM     69  C   UNL A   1      33.525  25.033  23.346  1.00  0.00     0.047 A 
ATOM     70  C   UNL A   1      34.782  24.511  23.674  1.00  0.00     0.023 A 
ATOM     71  C   UNL A   1      32.510  25.079  24.303  1.00  0.00     0.099 A 
ATOM     72  C   UNL A   1      35.061  24.068  24.977  1.00  0.00    -0.011 A 
ATOM     73  C   UNL A   1      32.795  24.693  25.614  1.00  0.00     0.270 A 
ATOM     74  C   UNL A   1      34.060  24.196  25.955  1.00  0.00     0.094 A 
BRANCH  72  75
ATOM     75  C   UNL A   1      36.338  23.415  25.290  1.00  0.00    -0.018 A 
ATOM     76  C   UNL A   1      36.617  22.099  24.893  1.00  0.00     0.009 A 
ATOM     77  C   UNL A   1      37.305  24.101  26.043  1.00  0.00     0.009 A 
ATOM     78  C   UNL A   1      37.824  21.486  25.249  1.00  0.00     0.014 A 
ATOM     79  C   UNL A   1      38.508  23.492  26.401  1.00  0.00     0.014 A 
ATOM     80  C   UNL A   1      38.779  22.174  26.014  1.00  0.00     0.056 A 
BRANCH  80  81
ATOM     81  C   UNL A   1      40.065  21.496  26.419  1.00  0.00     0.416 C 
ATOM     82  F   UNL A   1      40.426  21.789  27.699  1.00  0.00    -0.166 F 
ATOM     83  F   UNL A   1      39.982  20.139  26.354  1.00  0.00    -0.166 F 
ATOM     84  F   UNL A   1      41.131  21.843  25.644  1.00  0.00    -0.166 F 
ENDBRANCH  80  81
ENDBRANCH  72  75
BRANCH  73  85
ATOM     85  N   UNL A   1      31.755  24.811  26.642  1.00  0.00     0.062 N 
ATOM     86  O   UNL A   1      31.114  25.868  26.696  1.00  0.00    -0.258 OA
ATOM     87  O   UNL A   1      31.575  23.837  27.388  1.00  0.00    -0.258 OA
ENDBRANCH  73  85
ENDBRANCH  66  69
ENDBRANCH  64  65
ENDBRANCH  63  64
ENDBRANCH   1  63
TORSDOF 14
ENDMDL
MODEL 2
REMARK VINA RESULT:     -12.0      3.443      7.445
REMARK SMILES O=C(NCCCCNC(=O)c1cc(-c2ccc(C(F)(F)F)cc2)cc([N+](=O)[O-])c1)c1ccc(-c2c3nc(c(-c4c(F)cccc4F)c4ccc([nH]4)c(-c4c(F)cccc4F)c4nc(c(-c5c(F)cccc5F)c5ccc2[nH]5)C=C4)C=C3)cc1
REMARK SMILES IDX 5 1 4 2 3 3 1 4 2 5 30 7 31 8 83 9 32 10 82 11 33 12 34 13
REMARK SMILES IDX 35 14 76 15 36 16 81 17 75 18 77 19 37 20 80 21 74 22 73 23
REMARK SMILES IDX 38 25 64 26 47 27 63 28 48 29 51 30 62 31 78 32 49 33 50 34
REMARK SMILES IDX 61 36 79 37 52 38 39 39 40 40 45 41 41 42 42 43 44 44 46 45
REMARK SMILES IDX 43 46 65 47 66 48 71 49 67 50 68 51 70 52 72 53 69 54 53 55
REMARK SMILES IDX 54 56 59 57 55 58 56 59 58 60 60 61 57 62 6 63 7 64 8 65
REMARK SMILES IDX 9 66 10 68 11 69 12 70 29 71 13 72 25 73 24 74 14 75 15 76
REMARK SMILES IDX 23 77 16 78 22 79 17 80 18 81 19 82 20 83 21 84 26 85 27 86
REMARK SMILES IDX 28 87
REMARK H PARENT 3 6 77 24 51 35 8 67
REMARK Flexibility Score: inf
ROOT
ATOM      1  C   UNL A   1      37.686  23.024  25.898  1.00  0.00     0.023 C 
ENDROOT
BRANCH   1   2
ATOM      2  C   UNL A   1      38.462  24.181  26.513  1.00  0.00     0.116 C 
BRANCH   2   3
ATOM      3  N   UNL A   1      39.733  24.420  25.850  1.00  0.00    -0.352 N 
ATOM      4  O   UNL A   1      41.593  25.564  25.277  1.00  0.00    -0.269 OA
ATOM      5  C   UNL A   1      40.640  25.434  26.042  1.00  0.00     0.251 C 
ATOM      6  H   UNL A   1      39.981  23.760  25.163  1.00  0.00     0.163 HD
BRANCH   5   7
ATOM      7  C   UNL A   1      40.456  26.387  27.156  1.00  0.00     0.039 A 
ATOM      8  C   UNL A   1      40.992  27.676  27.092  1.00  0.00     0.014 A 
ATOM      9  C   UNL A   1      39.726  25.984  28.277  1.00  0.00     0.014 A 
ATOM     10  C   UNL A   1      40.915  28.513  28.200  1.00  0.00     0.010 A 
ATOM     11  C   UNL A   1      39.583  26.854  29.359  1.00  0.00     0.010 A 
ATOM     12  C   UNL A   1      40.202  28.114  29.340  1.00  0.00    -0.014 A 
BRANCH  12  13
ATOM     13  C   UNL A   1      40.055  29.052  30.479  1.00  0.00     0.031 A 
ATOM     14  C   UNL A   1      39.012  30.132  30.466  1.00  0.00     0.074 A 
ATOM     15  C   UNL A   1      40.886  28.924  31.531  1.00  0.00     0.049 A 
ATOM     16  N   UNL A   1      38.773  31.055  31.362  1.00  0.00    -0.248 NA
ATOM     17  C   UNL A   1      38.131  30.190  29.291  1.00  0.00     0.031 C 
ATOM     18  C   UNL A   1      41.950  27.925  31.645  1.00  0.00     0.029 A 
ATOM     19  N   UNL A   1      40.970  29.639  32.698  1.00  0.00    -0.354 N 
ATOM     20  C   UNL A   1      37.731  31.819  30.851  1.00  0.00     0.074 A 
ATOM     21  C   UNL A   1      37.397  31.262  29.557  1.00  0.00     0.031 C 
ATOM     22  C   UNL A   1      42.571  28.079  32.823  1.00  0.00     0.029 A 
ATOM     23  C   UNL A   1      41.985  29.219  33.520  1.00  0.00     0.049 A 
ATOM     24  H   UNL A   1      40.363  30.380  32.924  1.00  0.00     0.167 HD
ATOM     25  C   UNL A   1      37.110  32.883  31.415  1.00  0.00     0.037 A 
ATOM     26  C   UNL A   1      42.420  29.712  34.694  1.00  0.00     0.037 A 
ATOM     27  C   UNL A   1      37.438  33.421  32.710  1.00  0.00     0.049 A 
ATOM     28  C   UNL A   1      41.725  30.898  35.292  1.00  0.00     0.074 A 
ATOM     29  C   UNL A   1      36.826  34.456  33.395  1.00  0.00     0.029 A 
ATOM     30  N   UNL A   1      38.476  32.970  33.513  1.00  0.00    -0.354 N 
ATOM     31  N   UNL A   1      40.708  31.579  34.822  1.00  0.00    -0.248 NA
ATOM     32  C   UNL A   1      42.237  31.386  36.579  1.00  0.00     0.031 C 
ATOM     33  C   UNL A   1      37.522  34.662  34.592  1.00  0.00     0.029 A 
ATOM     34  C   UNL A   1      38.541  33.726  34.673  1.00  0.00     0.049 A 
ATOM     35  H   UNL A   1      39.078  32.223  33.292  1.00  0.00     0.167 HD
ATOM     36  C   UNL A   1      40.450  32.570  35.757  1.00  0.00     0.074 A 
ATOM     37  C   UNL A   1      41.409  32.391  36.830  1.00  0.00     0.031 C 
ATOM     38  C   UNL A   1      39.505  33.541  35.727  1.00  0.00     0.037 A 
BRANCH  25  39
ATOM     39  C   UNL A   1      36.026  33.552  30.622  1.00  0.00     0.057 A 
ATOM     40  C   UNL A   1      34.687  33.537  31.034  1.00  0.00     0.134 A 
ATOM     41  C   UNL A   1      36.332  34.247  29.445  1.00  0.00     0.134 A 
ATOM     42  F   UNL A   1      34.325  32.882  32.147  1.00  0.00    -0.206 F 
ATOM     43  C   UNL A   1      33.688  34.169  30.290  1.00  0.00     0.040 A 
ATOM     44  C   UNL A   1      35.345  34.902  28.704  1.00  0.00     0.040 A 
ATOM     45  F   UNL A   1      37.594  34.307  28.997  1.00  0.00    -0.206 F 
ATOM     46  C   UNL A   1      34.017  34.858  29.123  1.00  0.00     0.006 A 
ENDBRANCH  25  39
BRANCH  26  47
ATOM     47  C   UNL A   1      43.585  29.080  35.356  1.00  0.00     0.057 A 
ATOM     48  C   UNL A   1      43.424  28.000  36.231  1.00  0.00     0.134 A 
ATOM     49  C   UNL A   1      44.891  29.505  35.084  1.00  0.00     0.134 A 
ATOM     50  F   UNL A   1      42.196  27.558  36.539  1.00  0.00    -0.206 F 
ATOM     51  C   UNL A   1      44.523  27.365  36.812  1.00  0.00     0.040 A 
ATOM     52  C   UNL A   1      45.998  28.865  35.638  1.00  0.00     0.040 A 
ATOM     53  F   UNL A   1      45.108  30.527  34.243  1.00  0.00    -0.206 F 
ATOM     54  C   UNL A   1      45.815  27.791  36.508  1.00  0.00     0.006 A 
ENDBRANCH  26  47
BRANCH  38  55
ATOM     55  C   UNL A   1      39.453  34.476  36.897  1.00  0.00     0.057 A 
ATOM     56  C   UNL A   1      38.820  34.120  38.094  1.00  0.00     0.134 A 
ATOM     57  C   UNL A   1      40.081  35.726  36.840  1.00  0.00     0.134 A 
ATOM     58  F   UNL A   1      38.188  32.942  38.205  1.00  0.00    -0.206 F 
ATOM     59  C   UNL A   1      38.800  34.984  39.190  1.00  0.00     0.040 A 
ATOM     60  C   UNL A   1      40.086  36.589  37.936  1.00  0.00     0.040 A 
ATOM     61  F   UNL A   1      40.709  36.123  35.723  1.00  0.00    -0.206 F 
ATOM     62  C   UNL A   1      39.442  36.220  39.115  1.00  0.00     0.006 A 
ENDBRANCH  38  55
ENDBRANCH  12  13
ENDBRANCH   5   7
ENDBRANCH   2   3
ENDBRANCH   1   2
BRANCH   1  63
ATOM     63  C   UNL A   1      36.209  23.302  25.624  1.00  0.00     0.023 C 
BRANCH  63  64
ATOM     64  C   UNL A   1      35.489  22.248  24.790  1.00  0.00     0.116 C 
BRANCH  64  65
ATOM     65  N   UNL A   1      35.062  22.751  23.495  1.00  0.00    -0.352 N 
ATOM     66  C   UNL A   1      33.991  23.543  23.177  1.00  0.00     0.251 C 
ATOM     67  H   UNL A   1      35.626  22.482  22.735  1.00  0.00     0.163 HD
ATOM     68  O   UNL A   1      33.710  23.756  22.000  1.00  0.00    -0.269 OA
BRANCH  66  69
ATOM     69  C   UNL A   1      33.154  24.133  24.242  1.00  0.00     0.047 A 
ATOM     70  C   UNL A   1      33.403  25.455  24.631  1.00  0.00     0.023 A 
ATOM     71  C   UNL A   1      32.181  23.378  24.897  1.00  0.00     0.099 A 
ATOM     72  C   UNL A   1      32.653  26.059  25.652  1.00  0.00    -0.011 A 
ATOM     73  C   UNL A   1      31.393  23.987  25.875  1.00  0.00     0.270 A 
ATOM     74  C   UNL A   1      31.619  25.319  26.250  1.00  0.00     0.094 A 
BRANCH  72  75
ATOM     75  C   UNL A   1      32.992  27.403  26.138  1.00  0.00    -0.018 A 
ATOM     76  C   UNL A   1      34.319  27.845  26.236  1.00  0.00     0.009 A 
ATOM     77  C   UNL A   1      31.970  28.269  26.558  1.00  0.00     0.009 A 
ATOM     78  C   UNL A   1      34.613  29.114  26.749  1.00  0.00     0.014 A 
ATOM     79  C   UNL A   1      32.260  29.533  27.074  1.00  0.00     0.014 A 
ATOM     80  C   UNL A   1      33.587  29.968  27.181  1.00  0.00     0.056 A 
BRANCH  80  81
ATOM     81  C   UNL A   1      33.914  31.323  27.761  1.00  0.00     0.416 C 
ATOM     82  F   UNL A   1      35.033  31.867  27.208  1.00  0.00    -0.166 F 
ATOM     83  F   UNL A   1      32.918  32.229  27.562  1.00  0.00    -0.166 F 
ATOM     84  F   UNL A   1      34.137  31.300  29.105  1.00  0.00    -0.166 F 
ENDBRANCH  80  81
ENDBRANCH  72  75
BRANCH  73  85
ATOM     85  N   UNL A   1      30.318  23.221  26.515  1.00  0.00     0.062 N 
ATOM     86  O   UNL A   1      30.209  22.024  26.221  1.00  0.00    -0.258 OA
ATOM     87  O   UNL A   1      29.591  23.818  27.321  1.00  0.00    -0.258 OA
ENDBRANCH  73  85
ENDBRANCH  66  69
ENDBRANCH  64  65
ENDBRANCH  63  64
ENDBRANCH   1  63
TORSDOF 14
ENDMDL
MODEL 3
REMARK VINA RESULT:     -12.0      0.330      6.075
REMARK SMILES O=C(NCCCCNC(=O)c1cc(-c2ccc(C(F)(F)F)cc2)cc([N+](=O)[O-])c1)c1ccc(-c2c3nc(c(-c4c(F)cccc4F)c4ccc([nH]4)c(-c4c(F)cccc4F)c4nc(c(-c5c(F)cccc5F)c5ccc2[nH]5)C=C4)C=C3)cc1
REMARK SMILES IDX 5 1 4 2 3 3 1 4 2 5 30 7 31 8 83 9 32 10 82 11 33 12 34 13
REMARK SMILES IDX 35 14 76 15 36 16 81 17 75 18 77 19 37 20 80 21 74 22 73 23
REMARK SMILES IDX 38 25 64 26 47 27 63 28 48 29 51 30 62 31 78 32 49 33 50 34
REMARK SMILES IDX 61 36 79 37 52 38 39 39 40 40 45 41 41 42 42 43 44 44 46 45
REMARK SMILES IDX 43 46 65 47 66 48 71 49 67 50 68 51 70 52 72 53 69 54 53 55
REMARK SMILES IDX 54 56 59 57 55 58 56 59 58 60 60 61 57 62 6 63 7 64 8 65
REMARK SMILES IDX 9 66 10 68 11 69 12 70 29 71 13 72 25 73 24 74 14 75 15 76
REMARK SMILES IDX 23 77 16 78 22 79 17 80 18 81 19 82 20 83 21 84 26 85 27 86
REMARK SMILES IDX 28 87
REMARK H PARENT 3 6 77 24 51 35 8 67
REMARK Flexibility Score: inf
ROOT
ATOM      1  C   UNL A   1      31.942  28.625  24.555  1.00  0.00     0.023 C 
ENDROOT
BRANCH   1   2
ATOM      2  C   UNL A   1      32.945  29.428  25.372  1.00  0.00     0.116 C 
BRANCH   2   3
ATOM      3  N   UNL A   1      32.398  30.685  25.855  1.00  0.00    -0.352 N 
ATOM      4  O   UNL A   1      32.149  32.441  27.250  1.00  0.00    -0.269 OA
ATOM      5  C   UNL A   1      32.831  31.488  26.882  1.00  0.00     0.251 C 
ATOM      6  H   UNL A   1      31.601  31.009  25.376  1.00  0.00     0.163 HD
BRANCH   5   7
ATOM      7  C   UNL A   1      34.108  31.190  27.562  1.00  0.00     0.039 A 
ATOM      8  C   UNL A   1      34.406  29.894  27.991  1.00  0.00     0.014 A 
ATOM      9  C   UNL A   1      35.025  32.225  27.763  1.00  0.00     0.014 A 
ATOM     10  C   UNL A   1      35.554  29.660  28.740  1.00  0.00     0.010 A 
ATOM     11  C   UNL A   1      36.215  31.972  28.447  1.00  0.00     0.010 A 
ATOM     12  C   UNL A   1      36.475  30.694  28.966  1.00  0.00    -0.014 A 
BRANCH  12  13
ATOM     13  C   UNL A   1      37.737  30.408  29.690  1.00  0.00     0.031 A 
ATOM     14  C   UNL A   1      38.812  29.562  29.072  1.00  0.00     0.074 A 
ATOM     15  C   UNL A   1      37.901  30.915  30.926  1.00  0.00     0.049 A 
ATOM     16  N   UNL A   1      39.957  29.185  29.580  1.00  0.00    -0.248 NA
ATOM     17  C   UNL A   1      38.565  29.064  27.711  1.00  0.00     0.031 C 
ATOM     18  C   UNL A   1      36.916  31.734  31.636  1.00  0.00     0.029 A 
ATOM     19  N   UNL A   1      38.948  30.814  31.805  1.00  0.00    -0.354 N 
ATOM     20  C   UNL A   1      40.559  28.389  28.614  1.00  0.00     0.074 A 
ATOM     21  C   UNL A   1      39.642  28.320  27.496  1.00  0.00     0.031 C 
ATOM     22  C   UNL A   1      37.411  32.074  32.834  1.00  0.00     0.029 A 
ATOM     23  C   UNL A   1      38.721  31.454  32.997  1.00  0.00     0.049 A 
ATOM     24  H   UNL A   1      39.780  30.329  31.601  1.00  0.00     0.167 HD
ATOM     25  C   UNL A   1      41.768  27.778  28.658  1.00  0.00     0.037 A 
ATOM     26  C   UNL A   1      39.469  31.513  34.114  1.00  0.00     0.037 A 
ATOM     27  C   UNL A   1      42.681  27.865  29.768  1.00  0.00     0.049 A 
ATOM     28  C   UNL A   1      40.797  30.818  34.143  1.00  0.00     0.074 A 
ATOM     29  C   UNL A   1      43.954  27.334  29.882  1.00  0.00     0.029 A 
ATOM     30  N   UNL A   1      42.414  28.521  30.961  1.00  0.00    -0.354 N 
ATOM     31  N   UNL A   1      41.375  30.110  33.203  1.00  0.00    -0.248 NA
ATOM     32  C   UNL A   1      41.574  30.925  35.384  1.00  0.00     0.031 C 
ATOM     33  C   UNL A   1      44.439  27.629  31.161  1.00  0.00     0.029 A 
ATOM     34  C   UNL A   1      43.486  28.381  31.828  1.00  0.00     0.049 A 
ATOM     35  H   UNL A   1      41.586  29.013  31.163  1.00  0.00     0.167 HD
ATOM     36  C   UNL A   1      42.588  29.695  33.733  1.00  0.00     0.074 A 
ATOM     37  C   UNL A   1      42.668  30.244  35.072  1.00  0.00     0.031 C 
ATOM     38  C   UNL A   1      43.547  28.927  33.161  1.00  0.00     0.037 A 
BRANCH  25  39
ATOM     39  C   UNL A   1      42.162  26.939  27.477  1.00  0.00     0.057 A 
ATOM     40  C   UNL A   1      41.864  25.572  27.405  1.00  0.00     0.134 A 
ATOM     41  C   UNL A   1      42.822  27.515  26.384  1.00  0.00     0.134 A 
ATOM     42  F   UNL A   1      41.242  24.957  28.422  1.00  0.00    -0.206 F 
ATOM     43  C   UNL A   1      42.230  24.803  26.298  1.00  0.00     0.040 A 
ATOM     44  C   UNL A   1      43.174  26.761  25.262  1.00  0.00     0.040 A 
ATOM     45  F   UNL A   1      43.131  28.820  26.385  1.00  0.00    -0.206 F 
ATOM     46  C   UNL A   1      42.883  25.399  25.221  1.00  0.00     0.006 A 
ENDBRANCH  25  39
BRANCH  26  47
ATOM     47  C   UNL A   1      38.953  32.250  35.291  1.00  0.00     0.057 A 
ATOM     48  C   UNL A   1      38.274  31.590  36.320  1.00  0.00     0.134 A 
ATOM     49  C   UNL A   1      39.178  33.624  35.439  1.00  0.00     0.134 A 
ATOM     50  F   UNL A   1      38.018  30.277  36.226  1.00  0.00    -0.206 F 
ATOM     51  C   UNL A   1      37.836  32.272  37.457  1.00  0.00     0.040 A 
ATOM     52  C   UNL A   1      38.768  34.313  36.580  1.00  0.00     0.040 A 
ATOM     53  F   UNL A   1      39.836  34.308  34.491  1.00  0.00    -0.206 F 
ATOM     54  C   UNL A   1      38.092  33.635  37.593  1.00  0.00     0.006 A 
ENDBRANCH  26  47
BRANCH  38  55
ATOM     55  C   UNL A   1      44.772  28.647  33.977  1.00  0.00     0.057 A 
ATOM     56  C   UNL A   1      45.868  29.518  33.979  1.00  0.00     0.134 A 
ATOM     57  C   UNL A   1      44.837  27.519  34.803  1.00  0.00     0.134 A 
ATOM     58  F   UNL A   1      45.873  30.608  33.196  1.00  0.00    -0.206 F 
ATOM     59  C   UNL A   1      46.995  29.267  34.763  1.00  0.00     0.040 A 
ATOM     60  C   UNL A   1      45.948  27.269  35.609  1.00  0.00     0.040 A 
ATOM     61  F   UNL A   1      43.816  26.650  34.850  1.00  0.00    -0.206 F 
ATOM     62  C   UNL A   1      47.033  28.143  35.588  1.00  0.00     0.006 A 
ENDBRANCH  38  55
ENDBRANCH  12  13
ENDBRANCH   5   7
ENDBRANCH   2   3
ENDBRANCH   1   2
BRANCH   1  63
ATOM     63  C   UNL A   1      32.190  28.613  23.047  1.00  0.00     0.023 C 
BRANCH  63  64
ATOM     64  C   UNL A   1      33.489  27.950  22.603  1.00  0.00     0.116 C 
BRANCH  64  65
ATOM     65  N   UNL A   1      33.267  26.790  21.756  1.00  0.00    -0.352 N 
ATOM     66  C   UNL A   1      33.340  25.458  22.066  1.00  0.00     0.251 C 
ATOM     67  H   UNL A   1      33.030  26.992  20.823  1.00  0.00     0.163 HD
ATOM     68  O   UNL A   1      33.252  24.613  21.179  1.00  0.00    -0.269 OA
BRANCH  66  69
ATOM     69  C   UNL A   1      33.541  25.025  23.465  1.00  0.00     0.047 A 
ATOM     70  C   UNL A   1      34.787  24.499  23.828  1.00  0.00     0.023 A 
ATOM     71  C   UNL A   1      32.499  25.073  24.391  1.00  0.00     0.099 A 
ATOM     72  C   UNL A   1      35.025  24.054  25.138  1.00  0.00    -0.011 A 
ATOM     73  C   UNL A   1      32.744  24.684  25.710  1.00  0.00     0.270 A 
ATOM     74  C   UNL A   1      33.997  24.182  26.087  1.00  0.00     0.094 A 
BRANCH  72  75
ATOM     75  C   UNL A   1      36.291  23.396  25.487  1.00  0.00    -0.018 A 
ATOM     76  C   UNL A   1      37.344  24.088  26.102  1.00  0.00     0.009 A 
ATOM     77  C   UNL A   1      36.484  22.042  25.167  1.00  0.00     0.009 A 
ATOM     78  C   UNL A   1      38.557  23.446  26.378  1.00  0.00     0.014 A 
ATOM     79  C   UNL A   1      37.693  21.401  25.438  1.00  0.00     0.014 A 
ATOM     80  C   UNL A   1      38.747  22.098  26.042  1.00  0.00     0.056 A 
BRANCH  80  81
ATOM     81  C   UNL A   1      40.068  21.421  26.315  1.00  0.00     0.416 C 
ATOM     82  F   UNL A   1      40.029  20.084  26.057  1.00  0.00    -0.166 F 
ATOM     83  F   UNL A   1      41.078  21.921  25.552  1.00  0.00    -0.166 F 
ATOM     84  F   UNL A   1      40.482  21.538  27.608  1.00  0.00    -0.166 F 
ENDBRANCH  80  81
ENDBRANCH  72  75
BRANCH  73  85
ATOM     85  N   UNL A   1      31.675  24.803  26.707  1.00  0.00     0.062 N 
ATOM     86  O   UNL A   1      31.377  23.793  27.357  1.00  0.00    -0.258 OA
ATOM     87  O   UNL A   1      31.142  25.913  26.844  1.00  0.00    -0.258 OA
ENDBRANCH  73  85
ENDBRANCH  66  69
ENDBRANCH  64  65
ENDBRANCH  63  64
ENDBRANCH   1  63
TORSDOF 14
ENDMDL
