MODEL 1
REMARK VINA RESULT:     -13.9      0.000      0.000
REMARK SMILES O=C(NCCCCNC(=O)[C@H]1CCCCN1c1cc(-c2ccccc2)nc(-c2cccc(Cl)c2)n1)c1ccc(-c2c3nc(c(-c4c(F)cccc4F)c4ccc([nH]4)c(-c4c(F)cccc4F)c4nc(c(-c5c(F)cccc5F)c5ccc2[nH]5)C=C4)C=C3)cc1
REMARK SMILES IDX 5 1 4 2 3 3 1 4 2 5 36 7 37 8 89 9 38 10 88 11 39 12 40 13
REMARK SMILES IDX 41 14 82 15 42 16 87 17 81 18 83 19 43 20 86 21 80 22 79 23
REMARK SMILES IDX 44 25 70 26 53 27 69 28 54 29 57 30 68 31 84 32 55 33 56 34
REMARK SMILES IDX 67 36 85 37 58 38 45 39 46 40 51 41 47 42 48 43 50 44 52 45
REMARK SMILES IDX 49 46 71 47 72 48 77 49 73 50 74 51 76 52 78 53 75 54 59 55
REMARK SMILES IDX 60 56 65 57 61 58 62 59 64 60 66 61 63 62 6 63 7 64 8 65
REMARK SMILES IDX 9 66 10 68 11 69 12 70 16 71 13 72 15 73 14 74 17 75 18 76
REMARK SMILES IDX 35 77 19 78 27 79 26 80 20 81 21 82 25 83 22 84 24 85 23 86
REMARK SMILES IDX 28 87 29 88 34 89 30 90 32 91 31 92 33 93
REMARK H PARENT 3 6 83 24 57 35 8 67
REMARK Flexibility Score: inf
ROOT
ATOM      1  C   UNL A   1      31.460  29.759  25.332  1.00  0.00     0.023 C 
ENDROOT
BRANCH   1   2
ATOM      2  C   UNL A   1      32.168  30.269  26.582  1.00  0.00     0.116 C 
BRANCH   2   3
ATOM      3  N   UNL A   1      32.007  31.699  26.797  1.00  0.00    -0.352 N 
ATOM      4  O   UNL A   1      32.496  33.749  27.605  1.00  0.00    -0.269 OA
ATOM      5  C   UNL A   1      32.848  32.585  27.428  1.00  0.00     0.251 C 
ATOM      6  H   UNL A   1      31.175  32.087  26.438  1.00  0.00     0.163 HD
BRANCH   5   7
ATOM      7  C   UNL A   1      34.161  32.129  27.931  1.00  0.00     0.039 A 
ATOM      8  C   UNL A   1      34.364  30.799  28.306  1.00  0.00     0.014 A 
ATOM      9  C   UNL A   1      35.202  33.056  28.049  1.00  0.00     0.014 A 
ATOM     10  C   UNL A   1      35.544  30.438  28.949  1.00  0.00     0.010 A 
ATOM     11  C   UNL A   1      36.418  32.669  28.621  1.00  0.00     0.010 A 
ATOM     12  C   UNL A   1      36.582  31.369  29.121  1.00  0.00    -0.014 A 
BRANCH  12  13
ATOM     13  C   UNL A   1      37.825  30.951  29.820  1.00  0.00     0.031 A 
ATOM     14  C   UNL A   1      38.054  31.293  31.268  1.00  0.00     0.074 A 
ATOM     15  C   UNL A   1      38.730  30.209  29.154  1.00  0.00     0.049 A 
ATOM     16  N   UNL A   1      39.050  30.951  32.048  1.00  0.00    -0.248 NA
ATOM     17  C   UNL A   1      37.042  32.133  31.927  1.00  0.00     0.031 C 
ATOM     18  C   UNL A   1      38.631  29.825  27.745  1.00  0.00     0.029 A 
ATOM     19  N   UNL A   1      39.895  29.623  29.578  1.00  0.00    -0.354 N 
ATOM     20  C   UNL A   1      38.799  31.551  33.275  1.00  0.00     0.074 A 
ATOM     21  C   UNL A   1      37.568  32.299  33.134  1.00  0.00     0.031 C 
ATOM     22  C   UNL A   1      39.658  29.020  27.436  1.00  0.00     0.029 A 
ATOM     23  C   UNL A   1      40.513  28.872  28.608  1.00  0.00     0.049 A 
ATOM     24  H   UNL A   1      40.254  29.730  30.488  1.00  0.00     0.167 HD
ATOM     25  C   UNL A   1      39.523  31.481  34.419  1.00  0.00     0.037 A 
ATOM     26  C   UNL A   1      41.643  28.143  28.657  1.00  0.00     0.037 A 
ATOM     27  C   UNL A   1      40.733  30.712  34.570  1.00  0.00     0.049 A 
ATOM     28  C   UNL A   1      42.418  28.071  29.939  1.00  0.00     0.074 A 
ATOM     29  C   UNL A   1      41.511  30.544  35.703  1.00  0.00     0.029 A 
ATOM     30  N   UNL A   1      41.337  29.982  33.559  1.00  0.00    -0.354 N 
ATOM     31  N   UNL A   1      42.147  28.615  31.100  1.00  0.00    -0.248 NA
ATOM     32  C   UNL A   1      43.659  27.284  29.916  1.00  0.00     0.031 C 
ATOM     33  C   UNL A   1      42.606  29.739  35.367  1.00  0.00     0.029 A 
ATOM     34  C   UNL A   1      42.487  29.374  34.036  1.00  0.00     0.049 A 
ATOM     35  H   UNL A   1      40.998  29.905  32.638  1.00  0.00     0.167 HD
ATOM     36  C   UNL A   1      43.170  28.222  31.951  1.00  0.00     0.074 A 
ATOM     37  C   UNL A   1      44.058  27.379  31.177  1.00  0.00     0.031 C 
ATOM     38  C   UNL A   1      43.358  28.534  33.256  1.00  0.00     0.037 A 
BRANCH  25  39
ATOM     39  C   UNL A   1      39.036  32.269  35.600  1.00  0.00     0.057 A 
ATOM     40  C   UNL A   1      38.243  31.692  36.600  1.00  0.00     0.134 A 
ATOM     41  C   UNL A   1      39.406  33.610  35.761  1.00  0.00     0.134 A 
ATOM     42  F   UNL A   1      37.845  30.415  36.499  1.00  0.00    -0.206 F 
ATOM     43  C   UNL A   1      37.818  32.427  37.708  1.00  0.00     0.040 A 
ATOM     44  C   UNL A   1      39.005  34.350  36.876  1.00  0.00     0.040 A 
ATOM     45  F   UNL A   1      40.170  34.221  34.844  1.00  0.00    -0.206 F 
ATOM     46  C   UNL A   1      38.204  33.759  37.851  1.00  0.00     0.006 A 
ENDBRANCH  25  39
BRANCH  26  47
ATOM     47  C   UNL A   1      42.094  27.404  27.452  1.00  0.00     0.057 A 
ATOM     48  C   UNL A   1      42.742  28.064  26.402  1.00  0.00     0.134 A 
ATOM     49  C   UNL A   1      41.899  26.024  27.327  1.00  0.00     0.134 A 
ATOM     50  F   UNL A   1      42.942  29.389  26.459  1.00  0.00    -0.206 F 
ATOM     51  C   UNL A   1      43.170  27.379  25.264  1.00  0.00     0.040 A 
ATOM     52  C   UNL A   1      42.343  25.323  26.206  1.00  0.00     0.040 A 
ATOM     53  F   UNL A   1      41.290  25.336  28.304  1.00  0.00    -0.206 F 
ATOM     54  C   UNL A   1      42.977  26.002  25.168  1.00  0.00     0.006 A 
ENDBRANCH  26  47
BRANCH  38  55
ATOM     55  C   UNL A   1      44.553  27.932  33.932  1.00  0.00     0.057 A 
ATOM     56  C   UNL A   1      45.786  28.595  33.977  1.00  0.00     0.134 A 
ATOM     57  C   UNL A   1      44.464  26.682  34.557  1.00  0.00     0.134 A 
ATOM     58  F   UNL A   1      45.938  29.788  33.383  1.00  0.00    -0.206 F 
ATOM     59  C   UNL A   1      46.897  28.023  34.599  1.00  0.00     0.040 A 
ATOM     60  C   UNL A   1      45.562  26.111  35.202  1.00  0.00     0.040 A 
ATOM     61  F   UNL A   1      43.310  26.000  34.554  1.00  0.00    -0.206 F 
ATOM     62  C   UNL A   1      46.784  26.779  35.218  1.00  0.00     0.006 A 
ENDBRANCH  38  55
ENDBRANCH  12  13
ENDBRANCH   5   7
ENDBRANCH   2   3
ENDBRANCH   1   2
BRANCH   1  63
ATOM     63  C   UNL A   1      32.369  29.320  24.182  1.00  0.00     0.023 C 
BRANCH  63  64
ATOM     64  C   UNL A   1      33.263  28.118  24.482  1.00  0.00     0.116 C 
BRANCH  64  65
ATOM     65  N   UNL A   1      33.568  27.357  23.286  1.00  0.00    -0.354 N 
ATOM     66  C   UNL A   1      33.558  26.014  23.048  1.00  0.00     0.242 C 
ATOM     67  H   UNL A   1      33.830  27.905  22.512  1.00  0.00     0.163 HD
ATOM     68  O   UNL A   1      33.898  25.661  21.913  1.00  0.00    -0.273 OA
BRANCH  66  69
ATOM     69  C   UNL A   1      33.138  25.004  24.146  1.00  0.00     0.173 C 
ATOM     70  C   UNL A   1      31.789  25.403  24.754  1.00  0.00     0.035 C 
ATOM     71  N   UNL A   1      33.084  23.646  23.583  1.00  0.00    -0.344 N 
ATOM     72  C   UNL A   1      30.598  25.076  23.856  1.00  0.00     0.004 C 
ATOM     73  C   UNL A   1      31.970  23.283  22.714  1.00  0.00     0.119 C 
ATOM     74  C   UNL A   1      30.643  23.623  23.393  1.00  0.00     0.022 C 
BRANCH  71  75
ATOM     75  C   UNL A   1      33.869  22.664  24.148  1.00  0.00     0.133 A 
ATOM     76  C   UNL A   1      33.418  21.360  24.194  1.00  0.00     0.076 A 
ATOM     77  N   UNL A   1      35.089  22.991  24.597  1.00  0.00    -0.211 NA
ATOM     78  C   UNL A   1      34.281  20.400  24.686  1.00  0.00     0.076 A 
ATOM     79  C   UNL A   1      35.849  22.004  25.104  1.00  0.00     0.162 A 
ATOM     80  N   UNL A   1      35.504  20.708  25.158  1.00  0.00    -0.228 NA
BRANCH  78  81
ATOM     81  C   UNL A   1      33.933  18.975  24.690  1.00  0.00     0.000 A 
ATOM     82  C   UNL A   1      32.649  18.546  25.063  1.00  0.00     0.010 A 
ATOM     83  C   UNL A   1      34.879  17.998  24.330  1.00  0.00     0.010 A 
ATOM     84  C   UNL A   1      32.314  17.189  25.057  1.00  0.00     0.001 A 
ATOM     85  C   UNL A   1      34.548  16.640  24.333  1.00  0.00     0.001 A 
ATOM     86  C   UNL A   1      33.265  16.238  24.692  1.00  0.00     0.000 A 
ENDBRANCH  78  81
BRANCH  79  87
ATOM     87  C   UNL A   1      37.166  22.372  25.629  1.00  0.00     0.021 A 
ATOM     88  C   UNL A   1      37.437  23.689  26.042  1.00  0.00     0.012 A 
ATOM     89  C   UNL A   1      38.195  21.420  25.730  1.00  0.00     0.032 A 
ATOM     90  C   UNL A   1      38.692  24.046  26.545  1.00  0.00     0.002 A 
ATOM     91  C   UNL A   1      39.452  21.784  26.214  1.00  0.00     0.041 A 
ATOM     92  C   UNL A   1      39.703  23.091  26.625  1.00  0.00     0.020 A 
ATOM     93  Cl  UNL A   1      40.708  20.610  26.291  1.00  0.00    -0.084 Cl
ENDBRANCH  79  87
ENDBRANCH  71  75
ENDBRANCH  66  69
ENDBRANCH  64  65
ENDBRANCH  63  64
ENDBRANCH   1  63
TORSDOF 14
ENDMDL
MODEL 2
REMARK VINA RESULT:     -13.8      4.027      9.677
REMARK SMILES O=C(NCCCCNC(=O)[C@H]1CCCCN1c1cc(-c2ccccc2)nc(-c2cccc(Cl)c2)n1)c1ccc(-c2c3nc(c(-c4c(F)cccc4F)c4ccc([nH]4)c(-c4c(F)cccc4F)c4nc(c(-c5c(F)cccc5F)c5ccc2[nH]5)C=C4)C=C3)cc1
REMARK SMILES IDX 5 1 4 2 3 3 1 4 2 5 36 7 37 8 89 9 38 10 88 11 39 12 40 13
REMARK SMILES IDX 41 14 82 15 42 16 87 17 81 18 83 19 43 20 86 21 80 22 79 23
REMARK SMILES IDX 44 25 70 26 53 27 69 28 54 29 57 30 68 31 84 32 55 33 56 34
REMARK SMILES IDX 67 36 85 37 58 38 45 39 46 40 51 41 47 42 48 43 50 44 52 45
REMARK SMILES IDX 49 46 71 47 72 48 77 49 73 50 74 51 76 52 78 53 75 54 59 55
REMARK SMILES IDX 60 56 65 57 61 58 62 59 64 60 66 61 63 62 6 63 7 64 8 65
REMARK SMILES IDX 9 66 10 68 11 69 12 70 16 71 13 72 15 73 14 74 17 75 18 76
REMARK SMILES IDX 35 77 19 78 27 79 26 80 20 81 21 82 25 83 22 84 24 85 23 86
REMARK SMILES IDX 28 87 29 88 34 89 30 90 32 91 31 92 33 93
REMARK H PARENT 3 6 83 24 57 35 8 67
REMARK Flexibility Score: inf
ROOT
ATOM      1  C   UNL A   1      35.571  21.276  25.327  1.00  0.00     0.023 C 
ENDROOT
BRANCH   1   2
ATOM      2  C   UNL A   1      36.992  21.809  25.475  1.00  0.00     0.116 C 
BRANCH   2   3
ATOM      3  N   UNL A   1      37.988  20.763  25.652  1.00  0.00    -0.352 N 
ATOM      4  O   UNL A   1      40.011  19.874  26.109  1.00  0.00    -0.269 OA
ATOM      5  C   UNL A   1      39.275  20.857  26.126  1.00  0.00     0.251 C 
ATOM      6  H   UNL A   1      37.697  19.857  25.394  1.00  0.00     0.163 HD
BRANCH   5   7
ATOM      7  C   UNL A   1      39.789  22.153  26.620  1.00  0.00     0.039 A 
ATOM      8  C   UNL A   1      39.303  23.359  26.111  1.00  0.00     0.014 A 
ATOM      9  C   UNL A   1      40.791  22.157  27.596  1.00  0.00     0.014 A 
ATOM     10  C   UNL A   1      39.931  24.553  26.453  1.00  0.00     0.010 A 
ATOM     11  C   UNL A   1      41.365  23.367  27.999  1.00  0.00     0.010 A 
ATOM     12  C   UNL A   1      40.973  24.571  27.395  1.00  0.00    -0.014 A 
BRANCH  12  13
ATOM     13  C   UNL A   1      41.628  25.863  27.730  1.00  0.00     0.031 A 
ATOM     14  C   UNL A   1      42.977  26.219  27.167  1.00  0.00     0.074 A 
ATOM     15  C   UNL A   1      40.970  26.745  28.507  1.00  0.00     0.049 A 
ATOM     16  N   UNL A   1      43.660  27.329  27.304  1.00  0.00    -0.248 NA
ATOM     17  C   UNL A   1      43.655  25.199  26.353  1.00  0.00     0.031 C 
ATOM     18  C   UNL A   1      39.664  26.512  29.126  1.00  0.00     0.029 A 
ATOM     19  N   UNL A   1      41.296  28.022  28.887  1.00  0.00    -0.354 N 
ATOM     20  C   UNL A   1      44.852  27.132  26.618  1.00  0.00     0.074 A 
ATOM     21  C   UNL A   1      44.812  25.788  26.082  1.00  0.00     0.031 C 
ATOM     22  C   UNL A   1      39.273  27.628  29.758  1.00  0.00     0.029 A 
ATOM     23  C   UNL A   1      40.319  28.636  29.632  1.00  0.00     0.049 A 
ATOM     24  H   UNL A   1      42.146  28.456  28.649  1.00  0.00     0.167 HD
ATOM     25  C   UNL A   1      45.883  27.995  26.442  1.00  0.00     0.037 A 
ATOM     26  C   UNL A   1      40.269  29.875  30.155  1.00  0.00     0.037 A 
ATOM     27  C   UNL A   1      45.911  29.344  26.948  1.00  0.00     0.049 A 
ATOM     28  C   UNL A   1      41.418  30.814  29.935  1.00  0.00     0.074 A 
ATOM     29  C   UNL A   1      46.893  30.306  26.782  1.00  0.00     0.029 A 
ATOM     30  N   UNL A   1      44.911  29.921  27.715  1.00  0.00    -0.354 N 
ATOM     31  N   UNL A   1      42.521  30.623  29.252  1.00  0.00    -0.248 NA
ATOM     32  C   UNL A   1      41.316  32.140  30.559  1.00  0.00     0.031 C 
ATOM     33  C   UNL A   1      46.502  31.455  27.479  1.00  0.00     0.029 A 
ATOM     34  C   UNL A   1      45.260  31.221  28.045  1.00  0.00     0.049 A 
ATOM     35  H   UNL A   1      44.077  29.474  27.985  1.00  0.00     0.167 HD
ATOM     36  C   UNL A   1      43.235  31.809  29.348  1.00  0.00     0.074 A 
ATOM     37  C   UNL A   1      42.432  32.719  30.140  1.00  0.00     0.031 C 
ATOM     38  C   UNL A   1      44.448  32.116  28.829  1.00  0.00     0.037 A 
BRANCH  25  39
ATOM     39  C   UNL A   1      47.079  27.502  25.680  1.00  0.00     0.057 A 
ATOM     40  C   UNL A   1      47.189  27.655  24.292  1.00  0.00     0.134 A 
ATOM     41  C   UNL A   1      48.155  26.909  26.352  1.00  0.00     0.134 A 
ATOM     42  F   UNL A   1      46.188  28.205  23.588  1.00  0.00    -0.206 F 
ATOM     43  C   UNL A   1      48.319  27.218  23.597  1.00  0.00     0.040 A 
ATOM     44  C   UNL A   1      49.299  26.487  25.672  1.00  0.00     0.040 A 
ATOM     45  F   UNL A   1      48.118  26.739  27.682  1.00  0.00    -0.206 F 
ATOM     46  C   UNL A   1      49.381  26.637  24.289  1.00  0.00     0.006 A 
ENDBRANCH  25  39
BRANCH  26  47
ATOM     47  C   UNL A   1      39.074  30.302  30.922  1.00  0.00     0.057 A 
ATOM     48  C   UNL A   1      38.901  29.923  32.259  1.00  0.00     0.134 A 
ATOM     49  C   UNL A   1      38.085  31.105  30.344  1.00  0.00     0.134 A 
ATOM     50  F   UNL A   1      39.808  29.140  32.861  1.00  0.00    -0.206 F 
ATOM     51  C   UNL A   1      37.781  30.319  32.990  1.00  0.00     0.040 A 
ATOM     52  C   UNL A   1      36.972  31.528  31.070  1.00  0.00     0.040 A 
ATOM     53  F   UNL A   1      38.199  31.506  29.070  1.00  0.00    -0.206 F 
ATOM     54  C   UNL A   1      36.815  31.131  32.396  1.00  0.00     0.006 A 
ENDBRANCH  26  47
BRANCH  38  55
ATOM     55  C   UNL A   1      44.961  33.503  29.076  1.00  0.00     0.057 A 
ATOM     56  C   UNL A   1      44.658  34.565  28.216  1.00  0.00     0.134 A 
ATOM     57  C   UNL A   1      45.755  33.779  30.196  1.00  0.00     0.134 A 
ATOM     58  F   UNL A   1      43.915  34.361  27.118  1.00  0.00    -0.206 F 
ATOM     59  C   UNL A   1      45.149  35.851  28.447  1.00  0.00     0.040 A 
ATOM     60  C   UNL A   1      46.232  35.066  30.450  1.00  0.00     0.040 A 
ATOM     61  F   UNL A   1      46.075  32.806  31.062  1.00  0.00    -0.206 F 
ATOM     62  C   UNL A   1      45.935  36.104  29.570  1.00  0.00     0.006 A 
ENDBRANCH  38  55
ENDBRANCH  12  13
ENDBRANCH   5   7
ENDBRANCH   2   3
ENDBRANCH   1   2
BRANCH   1  63
ATOM     63  C   UNL A   1      34.645  21.502  26.525  1.00  0.00     0.023 C 
BRANCH  63  64
ATOM     64  C   UNL A   1      34.395  22.965  26.887  1.00  0.00     0.116 C 
BRANCH  64  65
ATOM     65  N   UNL A   1      33.004  23.212  27.214  1.00  0.00    -0.354 N 
ATOM     66  C   UNL A   1      32.076  24.025  26.633  1.00  0.00     0.242 C 
ATOM     67  H   UNL A   1      32.673  22.706  27.990  1.00  0.00     0.163 HD
ATOM     68  O   UNL A   1      30.960  24.042  27.165  1.00  0.00    -0.273 OA
BRANCH  66  69
ATOM     69  C   UNL A   1      32.415  24.870  25.379  1.00  0.00     0.173 C 
ATOM     70  C   UNL A   1      32.904  23.968  24.241  1.00  0.00     0.035 C 
ATOM     71  N   UNL A   1      31.238  25.650  24.967  1.00  0.00    -0.344 N 
ATOM     72  C   UNL A   1      31.779  23.203  23.546  1.00  0.00     0.004 C 
ATOM     73  C   UNL A   1      30.133  24.968  24.304  1.00  0.00     0.119 C 
ATOM     74  C   UNL A   1      30.655  24.145  23.126  1.00  0.00     0.022 C 
BRANCH  71  75
ATOM     75  C   UNL A   1      31.346  27.024  24.897  1.00  0.00     0.133 A 
ATOM     76  C   UNL A   1      30.512  27.740  24.062  1.00  0.00     0.076 A 
ATOM     77  N   UNL A   1      32.231  27.643  25.691  1.00  0.00    -0.211 NA
ATOM     78  C   UNL A   1      30.599  29.118  24.100  1.00  0.00     0.076 A 
ATOM     79  C   UNL A   1      32.284  28.985  25.632  1.00  0.00     0.162 A 
ATOM     80  N   UNL A   1      31.492  29.761  24.876  1.00  0.00    -0.228 NA
BRANCH  78  81
ATOM     81  C   UNL A   1      29.695  29.973  23.322  1.00  0.00     0.000 A 
ATOM     82  C   UNL A   1      29.353  29.647  21.999  1.00  0.00     0.010 A 
ATOM     83  C   UNL A   1      29.153  31.146  23.876  1.00  0.00     0.010 A 
ATOM     84  C   UNL A   1      28.483  30.455  21.262  1.00  0.00     0.001 A 
ATOM     85  C   UNL A   1      28.292  31.960  23.136  1.00  0.00     0.001 A 
ATOM     86  C   UNL A   1      27.954  31.611  21.832  1.00  0.00     0.000 A 
ENDBRANCH  78  81
BRANCH  79  87
ATOM     87  C   UNL A   1      33.279  29.656  26.473  1.00  0.00     0.021 A 
ATOM     88  C   UNL A   1      34.455  28.992  26.869  1.00  0.00     0.012 A 
ATOM     89  C   UNL A   1      33.084  30.977  26.908  1.00  0.00     0.032 A 
ATOM     90  C   UNL A   1      35.409  29.628  27.670  1.00  0.00     0.002 A 
ATOM     91  C   UNL A   1      34.028  31.602  27.723  1.00  0.00     0.041 A 
ATOM     92  C   UNL A   1      35.191  30.935  28.102  1.00  0.00     0.020 A 
ATOM     93  Cl  UNL A   1      33.748  33.207  28.277  1.00  0.00    -0.084 Cl
ENDBRANCH  79  87
ENDBRANCH  71  75
ENDBRANCH  66  69
ENDBRANCH  64  65
ENDBRANCH  63  64
ENDBRANCH   1  63
TORSDOF 14
ENDMDL
MODEL 3
REMARK VINA RESULT:     -13.7      0.512      5.902
REMARK SMILES O=C(NCCCCNC(=O)[C@H]1CCCCN1c1cc(-c2ccccc2)nc(-c2cccc(Cl)c2)n1)c1ccc(-c2c3nc(c(-c4c(F)cccc4F)c4ccc([nH]4)c(-c4c(F)cccc4F)c4nc(c(-c5c(F)cccc5F)c5ccc2[nH]5)C=C4)C=C3)cc1
REMARK SMILES IDX 5 1 4 2 3 3 1 4 2 5 36 7 37 8 89 9 38 10 88 11 39 12 40 13
REMARK SMILES IDX 41 14 82 15 42 16 87 17 81 18 83 19 43 20 86 21 80 22 79 23
REMARK SMILES IDX 44 25 70 26 53 27 69 28 54 29 57 30 68 31 84 32 55 33 56 34
REMARK SMILES IDX 67 36 85 37 58 38 45 39 46 40 51 41 47 42 48 43 50 44 52 45
REMARK SMILES IDX 49 46 71 47 72 48 77 49 73 50 74 51 76 52 78 53 75 54 59 55
REMARK SMILES IDX 60 56 65 57 61 58 62 59 64 60 66 61 63 62 6 63 7 64 8 65
REMARK SMILES IDX 9 66 10 68 11 69 12 70 16 71 13 72 15 73 14 74 17 75 18 76
REMARK SMILES IDX 35 77 19 78 27 79 26 80 20 81 21 82 25 83 22 84 24 85 23 86
REMARK SMILES IDX 28 87 29 88 34 89 30 90 32 91 31 92 33 93
REMARK H PARENT 3 6 83 24 57 35 8 67
REMARK Flexibility Score: inf
ROOT
ATOM      1  C   UNL A   1      31.481  29.372  25.052  1.00  0.00     0.023 C 
ENDROOT
BRANCH   1   2
ATOM      2  C   UNL A   1      32.126  29.887  26.335  1.00  0.00     0.116 C 
BRANCH   2   3
ATOM      3  N   UNL A   1      31.899  31.305  26.567  1.00  0.00    -0.352 N 
ATOM      4  O   UNL A   1      32.274  33.357  27.429  1.00  0.00    -0.269 OA
ATOM      5  C   UNL A   1      32.679  32.212  27.245  1.00  0.00     0.251 C 
ATOM      6  H   UNL A   1      31.066  31.667  26.184  1.00  0.00     0.163 HD
BRANCH   5   7
ATOM      7  C   UNL A   1      33.991  31.798  27.789  1.00  0.00     0.039 A 
ATOM      8  C   UNL A   1      34.262  30.458  28.069  1.00  0.00     0.014 A 
ATOM      9  C   UNL A   1      34.958  32.776  28.044  1.00  0.00     0.014 A 
ATOM     10  C   UNL A   1      35.426  30.118  28.753  1.00  0.00     0.010 A 
ATOM     11  C   UNL A   1      36.164  32.420  28.657  1.00  0.00     0.010 A 
ATOM     12  C   UNL A   1      36.387  31.096  29.061  1.00  0.00    -0.014 A 
BRANCH  12  13
ATOM     13  C   UNL A   1      37.615  30.700  29.799  1.00  0.00     0.031 A 
ATOM     14  C   UNL A   1      38.715  29.929  29.120  1.00  0.00     0.074 A 
ATOM     15  C   UNL A   1      37.760  31.088  31.081  1.00  0.00     0.049 A 
ATOM     16  N   UNL A   1      39.878  29.560  29.597  1.00  0.00    -0.248 NA
ATOM     17  C   UNL A   1      38.480  29.507  27.731  1.00  0.00     0.031 C 
ATOM     18  C   UNL A   1      36.759  31.825  31.855  1.00  0.00     0.029 A 
ATOM     19  N   UNL A   1      38.811  30.942  31.948  1.00  0.00    -0.354 N 
ATOM     20  C   UNL A   1      40.500  28.846  28.581  1.00  0.00     0.074 A 
ATOM     21  C   UNL A   1      39.578  28.813  27.466  1.00  0.00     0.031 C 
ATOM     22  C   UNL A   1      37.267  32.118  33.061  1.00  0.00     0.029 A 
ATOM     23  C   UNL A   1      38.605  31.549  33.163  1.00  0.00     0.049 A 
ATOM     24  H   UNL A   1      39.633  30.451  31.723  1.00  0.00     0.167 HD
ATOM     25  C   UNL A   1      41.731  28.278  28.572  1.00  0.00     0.037 A 
ATOM     26  C   UNL A   1      39.405  31.638  34.241  1.00  0.00     0.037 A 
ATOM     27  C   UNL A   1      42.663  28.338  29.670  1.00  0.00     0.049 A 
ATOM     28  C   UNL A   1      40.768  31.011  34.201  1.00  0.00     0.074 A 
ATOM     29  C   UNL A   1      43.949  27.830  29.737  1.00  0.00     0.029 A 
ATOM     30  N   UNL A   1      42.408  28.944  30.890  1.00  0.00    -0.354 N 
ATOM     31  N   UNL A   1      41.354  30.372  33.218  1.00  0.00    -0.248 NA
ATOM     32  C   UNL A   1      41.579  31.118  35.421  1.00  0.00     0.031 C 
ATOM     33  C   UNL A   1      44.461  28.099  31.012  1.00  0.00     0.029 A 
ATOM     34  C   UNL A   1      43.507  28.809  31.723  1.00  0.00     0.049 A 
ATOM     35  H   UNL A   1      41.571  29.403  31.129  1.00  0.00     0.167 HD
ATOM     36  C   UNL A   1      42.608  30.016  33.693  1.00  0.00     0.074 A 
ATOM     37  C   UNL A   1      42.704  30.526  35.045  1.00  0.00     0.031 C 
ATOM     38  C   UNL A   1      43.591  29.327  33.065  1.00  0.00     0.037 A 
BRANCH  25  39
ATOM     39  C   UNL A   1      42.141  27.525  27.340  1.00  0.00     0.057 A 
ATOM     40  C   UNL A   1      42.669  28.174  26.216  1.00  0.00     0.134 A 
ATOM     41  C   UNL A   1      42.048  26.129  27.296  1.00  0.00     0.134 A 
ATOM     42  F   UNL A   1      42.774  29.510  26.190  1.00  0.00    -0.206 F 
ATOM     43  C   UNL A   1      43.073  27.460  25.085  1.00  0.00     0.040 A 
ATOM     44  C   UNL A   1      42.468  25.402  26.180  1.00  0.00     0.040 A 
ATOM     45  F   UNL A   1      41.557  25.445  28.341  1.00  0.00    -0.206 F 
ATOM     46  C   UNL A   1      42.978  26.070  25.068  1.00  0.00     0.006 A 
ENDBRANCH  25  39
BRANCH  26  47
ATOM     47  C   UNL A   1      38.941  32.372  35.444  1.00  0.00     0.057 A 
ATOM     48  C   UNL A   1      39.201  33.738  35.600  1.00  0.00     0.134 A 
ATOM     49  C   UNL A   1      38.218  31.731  36.456  1.00  0.00     0.134 A 
ATOM     50  F   UNL A   1      39.904  34.402  34.670  1.00  0.00    -0.206 F 
ATOM     51  C   UNL A   1      38.769  34.439  36.727  1.00  0.00     0.040 A 
ATOM     52  C   UNL A   1      37.759  32.424  37.575  1.00  0.00     0.040 A 
ATOM     53  F   UNL A   1      37.931  30.425  36.358  1.00  0.00    -0.206 F 
ATOM     54  C   UNL A   1      38.038  33.781  37.716  1.00  0.00     0.006 A 
ENDBRANCH  26  47
BRANCH  38  55
ATOM     55  C   UNL A   1      44.865  29.115  33.827  1.00  0.00     0.057 A 
ATOM     56  C   UNL A   1      45.919  30.035  33.770  1.00  0.00     0.134 A 
ATOM     57  C   UNL A   1      45.030  27.985  34.637  1.00  0.00     0.134 A 
ATOM     58  F   UNL A   1      45.827  31.128  32.999  1.00  0.00    -0.206 F 
ATOM     59  C   UNL A   1      47.106  29.824  34.474  1.00  0.00     0.040 A 
ATOM     60  C   UNL A   1      46.203  27.776  35.364  1.00  0.00     0.040 A 
ATOM     61  F   UNL A   1      44.054  27.070  34.739  1.00  0.00    -0.206 F 
ATOM     62  C   UNL A   1      47.248  28.693  35.277  1.00  0.00     0.006 A 
ENDBRANCH  38  55
ENDBRANCH  12  13
ENDBRANCH   5   7
ENDBRANCH   2   3
ENDBRANCH   1   2
BRANCH   1  63
ATOM     63  C   UNL A   1      32.423  29.184  23.861  1.00  0.00     0.023 C 
BRANCH  63  64
ATOM     64  C   UNL A   1      33.529  28.149  24.062  1.00  0.00     0.116 C 
BRANCH  64  65
ATOM     65  N   UNL A   1      33.677  27.283  22.908  1.00  0.00    -0.354 N 
ATOM     66  C   UNL A   1      33.566  25.929  22.781  1.00  0.00     0.242 C 
ATOM     67  H   UNL A   1      33.896  27.753  22.072  1.00  0.00     0.163 HD
ATOM     68  O   UNL A   1      33.778  25.470  21.653  1.00  0.00    -0.273 OA
BRANCH  66  69
ATOM     69  C   UNL A   1      33.192  25.034  23.989  1.00  0.00     0.173 C 
ATOM     70  C   UNL A   1      31.901  25.532  24.648  1.00  0.00     0.035 C 
ATOM     71  N   UNL A   1      33.058  23.635  23.554  1.00  0.00    -0.344 N 
ATOM     72  C   UNL A   1      30.641  25.172  23.863  1.00  0.00     0.004 C 
ATOM     73  C   UNL A   1      31.877  23.239  22.796  1.00  0.00     0.119 C 
ATOM     74  C   UNL A   1      30.610  23.685  23.528  1.00  0.00     0.022 C 
BRANCH  71  75
ATOM     75  C   UNL A   1      33.850  22.677  24.152  1.00  0.00     0.133 A 
ATOM     76  C   UNL A   1      33.413  21.370  24.230  1.00  0.00     0.076 A 
ATOM     77  N   UNL A   1      35.064  23.030  24.598  1.00  0.00    -0.211 NA
ATOM     78  C   UNL A   1      34.283  20.434  24.754  1.00  0.00     0.076 A 
ATOM     79  C   UNL A   1      35.831  22.066  25.138  1.00  0.00     0.162 A 
ATOM     80  N   UNL A   1      35.499  20.768  25.225  1.00  0.00    -0.228 NA
BRANCH  78  81
ATOM     81  C   UNL A   1      33.951  19.006  24.796  1.00  0.00     0.000 A 
ATOM     82  C   UNL A   1      32.745  18.561  25.361  1.00  0.00     0.010 A 
ATOM     83  C   UNL A   1      34.835  18.042  24.279  1.00  0.00     0.010 A 
ATOM     84  C   UNL A   1      32.423  17.201  25.391  1.00  0.00     0.001 A 
ATOM     85  C   UNL A   1      34.520  16.681  24.318  1.00  0.00     0.001 A 
ATOM     86  C   UNL A   1      33.312  16.263  24.869  1.00  0.00     0.000 A 
ENDBRANCH  78  81
BRANCH  79  87
ATOM     87  C   UNL A   1      37.140  22.463  25.660  1.00  0.00     0.021 A 
ATOM     88  C   UNL A   1      37.378  23.782  26.088  1.00  0.00     0.012 A 
ATOM     89  C   UNL A   1      38.195  21.538  25.744  1.00  0.00     0.032 A 
ATOM     90  C   UNL A   1      38.625  24.166  26.589  1.00  0.00     0.002 A 
ATOM     91  C   UNL A   1      39.444  21.930  26.226  1.00  0.00     0.041 A 
ATOM     92  C   UNL A   1      39.663  23.238  26.652  1.00  0.00     0.020 A 
ATOM     93  Cl  UNL A   1      40.733  20.789  26.283  1.00  0.00    -0.084 Cl
ENDBRANCH  79  87
ENDBRANCH  71  75
ENDBRANCH  66  69
ENDBRANCH  64  65
ENDBRANCH  63  64
ENDBRANCH   1  63
TORSDOF 14
ENDMDL
