MODEL 1
REMARK VINA RESULT:     -11.9      0.000      0.000
REMARK SMILES Cc1noc(C)c1[C@@H](C)NC(=O)N[C@H](CO)C(=O)NCCCCNC(=O)c1ccc(-c2c3nc(c(-c4c(F)cccc4F)c4ccc([nH]4)c(-c4c(F)cccc4F)c4nc(c(-c5c(F)cccc5F)c5ccc2[nH]5)C=C4)C=C3)cc1
REMARK SMILES IDX 21 1 20 2 19 3 17 4 18 5 14 7 13 8 10 9 11 10 12 12 8 14
REMARK SMILES IDX 9 15 7 16 1 17 2 18 3 19 4 20 5 21 6 22 15 23 16 24 22 26
REMARK SMILES IDX 23 27 24 28 25 29 26 31 27 32 28 33 80 34 29 35 79 36 30 37
REMARK SMILES IDX 31 38 32 39 73 40 33 41 78 42 72 43 74 44 34 45 77 46 71 47
REMARK SMILES IDX 70 48 35 50 61 51 44 52 60 53 45 54 48 55 59 56 75 57 46 58
REMARK SMILES IDX 47 59 58 61 76 62 49 63 36 64 37 65 42 66 38 67 39 68 41 69
REMARK SMILES IDX 43 70 40 71 62 72 63 73 68 74 64 75 65 76 67 77 69 78 66 79
REMARK SMILES IDX 50 80 51 81 56 82 52 83 53 84 55 85 57 86 54 87
REMARK H PARENT 19 6 10 11 13 13 16 25 24 30 74 49 48 60
REMARK Flexibility Score: inf
ROOT
ATOM      1  C   UNL A   1      31.804  30.503  26.733  1.00  0.00     0.023 C 
ENDROOT
BRANCH   1   2
ATOM      2  C   UNL A   1      31.511  29.782  25.426  1.00  0.00     0.116 C 
BRANCH   2   3
ATOM      3  N   UNL A   1      32.689  29.681  24.582  1.00  0.00    -0.354 N 
ATOM      4  C   UNL A   1      32.957  28.926  23.481  1.00  0.00     0.245 C 
ATOM      5  O   UNL A   1      34.032  29.165  22.915  1.00  0.00    -0.273 OA
ATOM      6  H   UNL A   1      33.430  30.268  24.856  1.00  0.00     0.163 HD
BRANCH   4   7
ATOM      7  C   UNL A   1      31.935  27.972  22.814  1.00  0.00     0.198 C 
BRANCH   7   8
ATOM      8  N   UNL A   1      32.386  26.828  22.016  1.00  0.00    -0.324 N 
ATOM      9  N   UNL A   1      33.044  25.014  23.398  1.00  0.00    -0.331 N 
ATOM     10  C   UNL A   1      32.833  25.593  22.221  1.00  0.00     0.315 C 
ATOM     11  H   UNL A   1      33.143  24.038  23.311  1.00  0.00     0.165 HD
ATOM     12  O   UNL A   1      33.003  24.905  21.211  1.00  0.00    -0.249 OA
ATOM     13  H   UNL A   1      32.347  27.034  21.053  1.00  0.00     0.166 HD
BRANCH   9  14
ATOM     14  C   UNL A   1      33.166  25.446  24.784  1.00  0.00     0.116 C 
ATOM     15  C   UNL A   1      34.572  25.080  25.259  1.00  0.00     0.036 C 
BRANCH  14  16
ATOM     16  C   UNL A   1      32.107  24.828  25.660  1.00  0.00     0.040 A 
ATOM     17  C   UNL A   1      33.342  22.897  26.979  1.00  0.00     0.071 C 
ATOM     18  C   UNL A   1      32.200  23.769  26.622  1.00  0.00     0.086 A 
ATOM     19  N   UNL A   1      31.034  23.566  27.248  1.00  0.00    -0.085 NA
ATOM     20  O   UNL A   1      30.145  24.448  26.690  1.00  0.00    -0.361 OA
ATOM     21  C   UNL A   1      30.772  25.198  25.750  1.00  0.00     0.139 A 
ATOM     22  C   UNL A   1      29.895  26.178  25.082  1.00  0.00     0.091 C 
ENDBRANCH  14  16
ENDBRANCH   9  14
ENDBRANCH   7   8
BRANCH   7  23
ATOM     23  C   UNL A   1      30.733  28.740  22.211  1.00  0.00     0.191 C 
BRANCH  23  24
ATOM     24  O   UNL A   1      31.076  30.031  21.704  1.00  0.00    -0.394 OA
ATOM     25  H   UNL A   1      30.343  30.646  21.862  1.00  0.00     0.210 HD
ENDBRANCH  23  24
ENDBRANCH   7  23
ENDBRANCH   4   7
ENDBRANCH   2   3
ENDBRANCH   1   2
BRANCH   1  26
ATOM     26  C   UNL A   1      31.545  32.000  26.734  1.00  0.00     0.023 C 
BRANCH  26  27
ATOM     27  C   UNL A   1      32.738  32.802  27.201  1.00  0.00     0.116 C 
BRANCH  27  28
ATOM     28  N   UNL A   1      32.407  34.164  27.615  1.00  0.00    -0.352 N 
ATOM     29  C   UNL A   1      33.008  34.959  28.573  1.00  0.00     0.251 C 
ATOM     30  H   UNL A   1      31.647  34.574  27.144  1.00  0.00     0.163 HD
ATOM     31  O   UNL A   1      32.542  36.046  28.858  1.00  0.00    -0.269 OA
BRANCH  29  32
ATOM     32  C   UNL A   1      34.203  34.444  29.285  1.00  0.00     0.039 A 
ATOM     33  C   UNL A   1      34.043  33.736  30.478  1.00  0.00     0.014 A 
ATOM     34  C   UNL A   1      35.471  34.592  28.728  1.00  0.00     0.014 A 
ATOM     35  C   UNL A   1      35.147  33.099  31.051  1.00  0.00     0.010 A 
ATOM     36  C   UNL A   1      36.519  33.821  29.198  1.00  0.00     0.010 A 
ATOM     37  C   UNL A   1      36.382  33.090  30.384  1.00  0.00    -0.014 A 
BRANCH  37  38
ATOM     38  C   UNL A   1      37.570  32.374  30.913  1.00  0.00     0.031 A 
ATOM     39  C   UNL A   1      38.224  32.865  32.181  1.00  0.00     0.074 A 
ATOM     40  C   UNL A   1      38.115  31.360  30.212  1.00  0.00     0.049 A 
ATOM     41  N   UNL A   1      39.344  32.482  32.739  1.00  0.00    -0.248 NA
ATOM     42  C   UNL A   1      37.565  33.982  32.884  1.00  0.00     0.031 C 
ATOM     43  C   UNL A   1      37.630  30.853  28.925  1.00  0.00     0.029 A 
ATOM     44  N   UNL A   1      39.211  30.579  30.479  1.00  0.00    -0.354 N 
ATOM     45  C   UNL A   1      39.537  33.336  33.819  1.00  0.00     0.074 A 
ATOM     46  C   UNL A   1      38.468  34.306  33.795  1.00  0.00     0.031 C 
ATOM     47  C   UNL A   1      38.396  29.822  28.538  1.00  0.00     0.029 A 
ATOM     48  C   UNL A   1      39.454  29.621  29.523  1.00  0.00     0.049 A 
ATOM     49  H   UNL A   1      39.773  30.694  31.279  1.00  0.00     0.167 HD
ATOM     50  C   UNL A   1      40.494  33.291  34.772  1.00  0.00     0.037 A 
ATOM     51  C   UNL A   1      40.422  28.688  29.454  1.00  0.00     0.037 A 
ATOM     52  C   UNL A   1      41.503  32.270  34.837  1.00  0.00     0.049 A 
ATOM     53  C   UNL A   1      41.433  28.614  30.565  1.00  0.00     0.074 A 
ATOM     54  C   UNL A   1      42.459  32.062  35.814  1.00  0.00     0.029 A 
ATOM     55  N   UNL A   1      41.670  31.273  33.887  1.00  0.00    -0.354 N 
ATOM     56  N   UNL A   1      41.553  29.377  31.627  1.00  0.00    -0.248 NA
ATOM     57  C   UNL A   1      42.438  27.546  30.476  1.00  0.00     0.031 C 
ATOM     58  C   UNL A   1      43.230  30.959  35.437  1.00  0.00     0.029 A 
ATOM     59  C   UNL A   1      42.725  30.455  34.249  1.00  0.00     0.049 A 
ATOM     60  H   UNL A   1      41.121  31.165  33.078  1.00  0.00     0.167 HD
ATOM     61  C   UNL A   1      42.628  28.866  32.342  1.00  0.00     0.074 A 
ATOM     62  C   UNL A   1      43.111  27.716  31.605  1.00  0.00     0.031 C 
ATOM     63  C   UNL A   1      43.173  29.309  33.500  1.00  0.00     0.037 A 
BRANCH  50  64
ATOM     64  C   UNL A   1      40.476  34.353  35.835  1.00  0.00     0.057 A 
ATOM     65  C   UNL A   1      41.187  35.554  35.697  1.00  0.00     0.134 A 
ATOM     66  C   UNL A   1      39.712  34.187  36.996  1.00  0.00     0.134 A 
ATOM     67  F   UNL A   1      41.953  35.770  34.617  1.00  0.00    -0.206 F 
ATOM     68  C   UNL A   1      41.159  36.538  36.686  1.00  0.00     0.040 A 
ATOM     69  C   UNL A   1      39.650  35.178  37.978  1.00  0.00     0.040 A 
ATOM     70  F   UNL A   1      39.005  33.065  37.193  1.00  0.00    -0.206 F 
ATOM     71  C   UNL A   1      40.380  36.355  37.827  1.00  0.00     0.006 A 
ENDBRANCH  50  64
BRANCH  51  72
ATOM     72  C   UNL A   1      40.465  27.731  28.318  1.00  0.00     0.057 A 
ATOM     73  C   UNL A   1      39.809  26.495  28.390  1.00  0.00     0.134 A 
ATOM     74  C   UNL A   1      41.172  28.016  27.144  1.00  0.00     0.134 A 
ATOM     75  F   UNL A   1      39.129  26.155  29.494  1.00  0.00    -0.206 F 
ATOM     76  C   UNL A   1      39.880  25.566  27.350  1.00  0.00     0.040 A 
ATOM     77  C   UNL A   1      41.226  27.108  26.084  1.00  0.00     0.040 A 
ATOM     78  F   UNL A   1      41.813  29.185  27.006  1.00  0.00    -0.206 F 
ATOM     79  C   UNL A   1      40.587  25.874  26.190  1.00  0.00     0.006 A 
ENDBRANCH  51  72
BRANCH  63  80
ATOM     80  C   UNL A   1      44.326  28.528  34.056  1.00  0.00     0.057 A 
ATOM     81  C   UNL A   1      45.653  28.872  33.774  1.00  0.00     0.134 A 
ATOM     82  C   UNL A   1      44.102  27.446  34.916  1.00  0.00     0.134 A 
ATOM     83  F   UNL A   1      45.931  29.892  32.948  1.00  0.00    -0.206 F 
ATOM     84  C   UNL A   1      46.720  28.151  34.310  1.00  0.00     0.040 A 
ATOM     85  C   UNL A   1      45.162  26.735  35.481  1.00  0.00     0.040 A 
ATOM     86  F   UNL A   1      42.854  27.074  35.236  1.00  0.00    -0.206 F 
ATOM     87  C   UNL A   1      46.475  27.083  35.172  1.00  0.00     0.006 A 
ENDBRANCH  63  80
ENDBRANCH  37  38
ENDBRANCH  29  32
ENDBRANCH  27  28
ENDBRANCH  26  27
ENDBRANCH   1  26
TORSDOF 16
ENDMDL
MODEL 2
REMARK VINA RESULT:     -11.7      0.867      6.209
REMARK SMILES Cc1noc(C)c1[C@@H](C)NC(=O)N[C@H](CO)C(=O)NCCCCNC(=O)c1ccc(-c2c3nc(c(-c4c(F)cccc4F)c4ccc([nH]4)c(-c4c(F)cccc4F)c4nc(c(-c5c(F)cccc5F)c5ccc2[nH]5)C=C4)C=C3)cc1
REMARK SMILES IDX 21 1 20 2 19 3 17 4 18 5 14 7 13 8 10 9 11 10 12 12 8 14
REMARK SMILES IDX 9 15 7 16 1 17 2 18 3 19 4 20 5 21 6 22 15 23 16 24 22 26
REMARK SMILES IDX 23 27 24 28 25 29 26 31 27 32 28 33 80 34 29 35 79 36 30 37
REMARK SMILES IDX 31 38 32 39 73 40 33 41 78 42 72 43 74 44 34 45 77 46 71 47
REMARK SMILES IDX 70 48 35 50 61 51 44 52 60 53 45 54 48 55 59 56 75 57 46 58
REMARK SMILES IDX 47 59 58 61 76 62 49 63 36 64 37 65 42 66 38 67 39 68 41 69
REMARK SMILES IDX 43 70 40 71 62 72 63 73 68 74 64 75 65 76 67 77 69 78 66 79
REMARK SMILES IDX 50 80 51 81 56 82 52 83 53 84 55 85 57 86 54 87
REMARK H PARENT 19 6 10 11 13 13 16 25 24 30 74 49 48 60
REMARK Flexibility Score: inf
ROOT
ATOM      1  C   UNL A   1      32.142  30.389  26.920  1.00  0.00     0.023 C 
ENDROOT
BRANCH   1   2
ATOM      2  C   UNL A   1      31.811  29.591  25.669  1.00  0.00     0.116 C 
BRANCH   2   3
ATOM      3  N   UNL A   1      32.885  29.636  24.693  1.00  0.00    -0.354 N 
ATOM      4  C   UNL A   1      33.064  28.992  23.505  1.00  0.00     0.245 C 
ATOM      5  O   UNL A   1      34.051  29.346  22.847  1.00  0.00    -0.273 OA
ATOM      6  H   UNL A   1      33.620  30.245  24.933  1.00  0.00     0.163 HD
BRANCH   4   7
ATOM      7  C   UNL A   1      32.025  28.031  22.876  1.00  0.00     0.198 C 
BRANCH   7   8
ATOM      8  N   UNL A   1      32.455  26.896  22.055  1.00  0.00    -0.324 N 
ATOM      9  N   UNL A   1      33.084  25.044  23.400  1.00  0.00    -0.331 N 
ATOM     10  C   UNL A   1      32.881  25.649  22.234  1.00  0.00     0.315 C 
ATOM     11  H   UNL A   1      33.167  24.068  23.294  1.00  0.00     0.165 HD
ATOM     12  O   UNL A   1      33.037  24.978  21.211  1.00  0.00    -0.249 OA
ATOM     13  H   UNL A   1      32.417  27.120  21.096  1.00  0.00     0.166 HD
BRANCH   9  14
ATOM     14  C   UNL A   1      33.218  25.447  24.793  1.00  0.00     0.116 C 
ATOM     15  C   UNL A   1      34.615  25.040  25.260  1.00  0.00     0.036 C 
BRANCH  14  16
ATOM     16  C   UNL A   1      32.144  24.837  25.658  1.00  0.00     0.040 A 
ATOM     17  C   UNL A   1      33.374  22.964  27.064  1.00  0.00     0.071 C 
ATOM     18  C   UNL A   1      32.228  23.807  26.652  1.00  0.00     0.086 A 
ATOM     19  N   UNL A   1      31.050  23.603  27.253  1.00  0.00    -0.085 NA
ATOM     20  O   UNL A   1      30.163  24.455  26.648  1.00  0.00    -0.361 OA
ATOM     21  C   UNL A   1      30.803  25.188  25.703  1.00  0.00     0.139 A 
ATOM     22  C   UNL A   1      29.929  26.135  24.985  1.00  0.00     0.091 C 
ENDBRANCH  14  16
ENDBRANCH   9  14
ENDBRANCH   7   8
BRANCH   7  23
ATOM     23  C   UNL A   1      30.793  28.791  22.325  1.00  0.00     0.191 C 
BRANCH  23  24
ATOM     24  O   UNL A   1      31.129  29.972  21.596  1.00  0.00    -0.394 OA
ATOM     25  H   UNL A   1      31.721  29.741  20.862  1.00  0.00     0.210 HD
ENDBRANCH  23  24
ENDBRANCH   7  23
ENDBRANCH   4   7
ENDBRANCH   2   3
ENDBRANCH   1   2
BRANCH   1  26
ATOM     26  C   UNL A   1      31.798  31.868  26.869  1.00  0.00     0.023 C 
BRANCH  26  27
ATOM     27  C   UNL A   1      32.917  32.749  27.376  1.00  0.00     0.116 C 
BRANCH  27  28
ATOM     28  N   UNL A   1      32.503  34.120  27.666  1.00  0.00    -0.352 N 
ATOM     29  C   UNL A   1      33.004  35.008  28.600  1.00  0.00     0.251 C 
ATOM     30  H   UNL A   1      31.760  34.461  27.118  1.00  0.00     0.163 HD
ATOM     31  O   UNL A   1      32.475  36.090  28.773  1.00  0.00    -0.269 OA
BRANCH  29  32
ATOM     32  C   UNL A   1      34.167  34.600  29.425  1.00  0.00     0.039 A 
ATOM     33  C   UNL A   1      33.961  34.129  30.723  1.00  0.00     0.014 A 
ATOM     34  C   UNL A   1      35.450  34.608  28.883  1.00  0.00     0.014 A 
ATOM     35  C   UNL A   1      35.032  33.578  31.431  1.00  0.00     0.010 A 
ATOM     36  C   UNL A   1      36.464  33.909  29.512  1.00  0.00     0.010 A 
ATOM     37  C   UNL A   1      36.280  33.412  30.809  1.00  0.00    -0.014 A 
BRANCH  37  38
ATOM     38  C   UNL A   1      37.434  32.773  31.490  1.00  0.00     0.031 A 
ATOM     39  C   UNL A   1      38.137  31.617  30.824  1.00  0.00     0.074 A 
ATOM     40  C   UNL A   1      37.780  33.157  32.735  1.00  0.00     0.049 A 
ATOM     41  N   UNL A   1      39.066  30.827  31.296  1.00  0.00    -0.248 NA
ATOM     42  C   UNL A   1      37.692  31.259  29.464  1.00  0.00     0.031 C 
ATOM     43  C   UNL A   1      37.117  34.200  33.523  1.00  0.00     0.029 A 
ATOM     44  N   UNL A   1      38.774  32.702  33.565  1.00  0.00    -0.354 N 
ATOM     45  C   UNL A   1      39.277  29.865  30.315  1.00  0.00     0.074 A 
ATOM     46  C   UNL A   1      38.328  30.117  29.257  1.00  0.00     0.031 C 
ATOM     47  C   UNL A   1      37.748  34.334  34.700  1.00  0.00     0.029 A 
ATOM     48  C   UNL A   1      38.831  33.359  34.771  1.00  0.00     0.049 A 
ATOM     49  H   UNL A   1      39.388  31.973  33.319  1.00  0.00     0.167 HD
ATOM     50  C   UNL A   1      40.206  28.883  30.278  1.00  0.00     0.037 A 
ATOM     51  C   UNL A   1      39.665  33.189  35.815  1.00  0.00     0.037 A 
ATOM     52  C   UNL A   1      41.202  28.694  31.296  1.00  0.00     0.049 A 
ATOM     53  C   UNL A   1      40.736  32.137  35.718  1.00  0.00     0.074 A 
ATOM     54  C   UNL A   1      42.258  27.802  31.315  1.00  0.00     0.029 A 
ATOM     55  N   UNL A   1      41.270  29.429  32.471  1.00  0.00    -0.354 N 
ATOM     56  N   UNL A   1      40.977  31.288  34.746  1.00  0.00    -0.248 NA
ATOM     57  C   UNL A   1      41.657  32.023  36.856  1.00  0.00     0.031 C 
ATOM     58  C   UNL A   1      42.946  27.971  32.519  1.00  0.00     0.029 A 
ATOM     59  C   UNL A   1      42.344  28.999  33.229  1.00  0.00     0.049 A 
ATOM     60  H   UNL A   1      40.648  30.147  32.726  1.00  0.00     0.167 HD
ATOM     61  C   UNL A   1      42.090  30.561  35.144  1.00  0.00     0.074 A 
ATOM     62  C   UNL A   1      42.489  31.081  36.436  1.00  0.00     0.031 C 
ATOM     63  C   UNL A   1      42.723  29.547  34.506  1.00  0.00     0.037 A 
BRANCH  50  64
ATOM     64  C   UNL A   1      40.210  27.965  29.089  1.00  0.00     0.057 A 
ATOM     65  C   UNL A   1      40.947  28.253  27.931  1.00  0.00     0.134 A 
ATOM     66  C   UNL A   1      39.495  26.762  29.115  1.00  0.00     0.134 A 
ATOM     67  F   UNL A   1      41.639  29.398  27.833  1.00  0.00    -0.206 F 
ATOM     68  C   UNL A   1      40.950  27.392  26.834  1.00  0.00     0.040 A 
ATOM     69  C   UNL A   1      39.517  25.876  28.035  1.00  0.00     0.040 A 
ATOM     70  F   UNL A   1      38.771  26.420  30.191  1.00  0.00    -0.206 F 
ATOM     71  C   UNL A   1      40.242  26.193  26.888  1.00  0.00     0.006 A 
ENDBRANCH  50  64
BRANCH  51  72
ATOM     72  C   UNL A   1      39.546  34.048  37.021  1.00  0.00     0.057 A 
ATOM     73  C   UNL A   1      38.819  33.625  38.141  1.00  0.00     0.134 A 
ATOM     74  C   UNL A   1      40.137  35.316  37.080  1.00  0.00     0.134 A 
ATOM     75  F   UNL A   1      38.215  32.428  38.139  1.00  0.00    -0.206 F 
ATOM     76  C   UNL A   1      38.659  34.441  39.263  1.00  0.00     0.040 A 
ATOM     77  C   UNL A   1      40.010  36.131  38.208  1.00  0.00     0.040 A 
ATOM     78  F   UNL A   1      40.856  35.778  36.047  1.00  0.00    -0.206 F 
ATOM     79  C   UNL A   1      39.260  35.697  39.300  1.00  0.00     0.006 A 
ENDBRANCH  51  72
BRANCH  63  80
ATOM     80  C   UNL A   1      43.930  28.964  35.178  1.00  0.00     0.057 A 
ATOM     81  C   UNL A   1      45.217  29.461  34.940  1.00  0.00     0.134 A 
ATOM     82  C   UNL A   1      43.795  27.925  36.106  1.00  0.00     0.134 A 
ATOM     83  F   UNL A   1      45.413  30.450  34.053  1.00  0.00    -0.206 F 
ATOM     84  C   UNL A   1      46.333  28.926  35.582  1.00  0.00     0.040 A 
ATOM     85  C   UNL A   1      44.900  27.401  36.777  1.00  0.00     0.040 A 
ATOM     86  F   UNL A   1      42.588  27.414  36.388  1.00  0.00    -0.206 F 
ATOM     87  C   UNL A   1      46.174  27.897  36.510  1.00  0.00     0.006 A 
ENDBRANCH  63  80
ENDBRANCH  37  38
ENDBRANCH  29  32
ENDBRANCH  27  28
ENDBRANCH  26  27
ENDBRANCH   1  26
TORSDOF 16
ENDMDL
MODEL 3
REMARK VINA RESULT:     -11.7      1.584      6.503
REMARK SMILES Cc1noc(C)c1[C@@H](C)NC(=O)N[C@H](CO)C(=O)NCCCCNC(=O)c1ccc(-c2c3nc(c(-c4c(F)cccc4F)c4ccc([nH]4)c(-c4c(F)cccc4F)c4nc(c(-c5c(F)cccc5F)c5ccc2[nH]5)C=C4)C=C3)cc1
REMARK SMILES IDX 21 1 20 2 19 3 17 4 18 5 14 7 13 8 10 9 11 10 12 12 8 14
REMARK SMILES IDX 9 15 7 16 1 17 2 18 3 19 4 20 5 21 6 22 15 23 16 24 22 26
REMARK SMILES IDX 23 27 24 28 25 29 26 31 27 32 28 33 80 34 29 35 79 36 30 37
REMARK SMILES IDX 31 38 32 39 73 40 33 41 78 42 72 43 74 44 34 45 77 46 71 47
REMARK SMILES IDX 70 48 35 50 61 51 44 52 60 53 45 54 48 55 59 56 75 57 46 58
REMARK SMILES IDX 47 59 58 61 76 62 49 63 36 64 37 65 42 66 38 67 39 68 41 69
REMARK SMILES IDX 43 70 40 71 62 72 63 73 68 74 64 75 65 76 67 77 69 78 66 79
REMARK SMILES IDX 50 80 51 81 56 82 52 83 53 84 55 85 57 86 54 87
REMARK H PARENT 19 6 10 11 13 13 16 25 24 30 74 49 48 60
REMARK Flexibility Score: inf
ROOT
ATOM      1  C   UNL A   1      32.039  29.982  25.198  1.00  0.00     0.023 C 
ENDROOT
BRANCH   1   2
ATOM      2  C   UNL A   1      33.053  28.854  25.081  1.00  0.00     0.116 C 
BRANCH   2   3
ATOM      3  N   UNL A   1      33.709  28.842  23.785  1.00  0.00    -0.354 N 
ATOM      4  C   UNL A   1      33.620  27.987  22.728  1.00  0.00     0.245 C 
ATOM      5  O   UNL A   1      34.233  28.329  21.709  1.00  0.00    -0.273 OA
ATOM      6  H   UNL A   1      34.332  29.590  23.644  1.00  0.00     0.163 HD
BRANCH   4   7
ATOM      7  C   UNL A   1      32.665  26.768  22.677  1.00  0.00     0.198 C 
BRANCH   7   8
ATOM      8  N   UNL A   1      33.106  25.493  22.106  1.00  0.00    -0.324 N 
ATOM      9  N   UNL A   1      33.757  23.963  23.800  1.00  0.00    -0.331 N 
ATOM     10  C   UNL A   1      33.546  24.315  22.536  1.00  0.00     0.315 C 
ATOM     11  H   UNL A   1      33.850  22.987  23.896  1.00  0.00     0.165 HD
ATOM     12  O   UNL A   1      33.708  23.449  21.671  1.00  0.00    -0.249 OA
ATOM     13  H   UNL A   1      33.065  25.516  21.121  1.00  0.00     0.166 HD
BRANCH   9  14
ATOM     14  C   UNL A   1      33.887  24.645  25.080  1.00  0.00     0.116 C 
ATOM     15  C   UNL A   1      35.308  24.403  25.590  1.00  0.00     0.036 C 
BRANCH  14  16
ATOM     16  C   UNL A   1      32.855  24.175  26.073  1.00  0.00     0.040 A 
ATOM     17  C   UNL A   1      30.860  25.898  25.861  1.00  0.00     0.071 C 
ATOM     18  C   UNL A   1      31.551  24.691  26.370  1.00  0.00     0.086 A 
ATOM     19  N   UNL A   1      30.914  23.935  27.273  1.00  0.00    -0.085 NA
ATOM     20  O   UNL A   1      31.789  22.939  27.618  1.00  0.00    -0.361 OA
ATOM     21  C   UNL A   1      32.939  23.074  26.913  1.00  0.00     0.139 A 
ATOM     22  C   UNL A   1      33.955  22.048  27.220  1.00  0.00     0.091 C 
ENDBRANCH  14  16
ENDBRANCH   9  14
ENDBRANCH   7   8
BRANCH   7  23
ATOM     23  C   UNL A   1      31.222  27.179  22.293  1.00  0.00     0.191 C 
BRANCH  23  24
ATOM     24  O   UNL A   1      31.106  28.543  21.885  1.00  0.00    -0.394 OA
ATOM     25  H   UNL A   1      30.274  28.912  22.222  1.00  0.00     0.210 HD
ENDBRANCH  23  24
ENDBRANCH   7  23
ENDBRANCH   4   7
ENDBRANCH   2   3
ENDBRANCH   1   2
BRANCH   1  26
ATOM     26  C   UNL A   1      31.771  30.485  26.606  1.00  0.00     0.023 C 
BRANCH  26  27
ATOM     27  C   UNL A   1      32.864  31.389  27.124  1.00  0.00     0.116 C 
BRANCH  27  28
ATOM     28  N   UNL A   1      32.416  32.750  27.417  1.00  0.00    -0.352 N 
ATOM     29  C   UNL A   1      33.033  33.734  28.167  1.00  0.00     0.251 C 
ATOM     30  H   UNL A   1      31.550  33.001  27.024  1.00  0.00     0.163 HD
ATOM     31  O   UNL A   1      32.471  34.790  28.387  1.00  0.00    -0.269 OA
BRANCH  29  32
ATOM     32  C   UNL A   1      34.373  33.461  28.742  1.00  0.00     0.039 A 
ATOM     33  C   UNL A   1      34.478  32.750  29.939  1.00  0.00     0.014 A 
ATOM     34  C   UNL A   1      35.523  33.840  28.054  1.00  0.00     0.014 A 
ATOM     35  C   UNL A   1      35.737  32.340  30.385  1.00  0.00     0.010 A 
ATOM     36  C   UNL A   1      36.742  33.288  28.402  1.00  0.00     0.010 A 
ATOM     37  C   UNL A   1      36.874  32.557  29.589  1.00  0.00    -0.014 A 
BRANCH  37  38
ATOM     38  C   UNL A   1      38.225  32.084  29.982  1.00  0.00     0.031 A 
ATOM     39  C   UNL A   1      38.740  30.778  29.429  1.00  0.00     0.074 A 
ATOM     40  C   UNL A   1      38.939  32.765  30.901  1.00  0.00     0.049 A 
ATOM     41  N   UNL A   1      39.820  30.112  29.744  1.00  0.00    -0.248 NA
ATOM     42  C   UNL A   1      37.894  30.095  28.432  1.00  0.00     0.031 C 
ATOM     43  C   UNL A   1      38.509  33.991  31.579  1.00  0.00     0.029 A 
ATOM     44  N   UNL A   1      40.177  32.512  31.435  1.00  0.00    -0.354 N 
ATOM     45  C   UNL A   1      39.755  28.925  29.023  1.00  0.00     0.074 A 
ATOM     46  C   UNL A   1      38.496  28.923  28.316  1.00  0.00     0.031 C 
ATOM     47  C   UNL A   1      39.484  34.406  32.403  1.00  0.00     0.029 A 
ATOM     48  C   UNL A   1      40.588  33.454  32.349  1.00  0.00     0.049 A 
ATOM     49  H   UNL A   1      40.720  31.729  31.188  1.00  0.00     0.167 HD
ATOM     50  C   UNL A   1      40.679  27.944  28.922  1.00  0.00     0.037 A 
ATOM     51  C   UNL A   1      41.728  33.535  33.060  1.00  0.00     0.037 A 
ATOM     52  C   UNL A   1      41.965  27.996  29.561  1.00  0.00     0.049 A 
ATOM     53  C   UNL A   1      42.771  32.466  32.875  1.00  0.00     0.074 A 
ATOM     54  C   UNL A   1      43.022  27.112  29.446  1.00  0.00     0.029 A 
ATOM     55  N   UNL A   1      42.371  29.005  30.422  1.00  0.00    -0.354 N 
ATOM     56  N   UNL A   1      42.730  31.391  32.123  1.00  0.00    -0.248 NA
ATOM     57  C   UNL A   1      44.021  32.624  33.629  1.00  0.00     0.031 C 
ATOM     58  C   UNL A   1      44.057  27.566  30.268  1.00  0.00     0.029 A 
ATOM     59  C   UNL A   1      43.660  28.756  30.859  1.00  0.00     0.049 A 
ATOM     60  H   UNL A   1      41.825  29.780  30.683  1.00  0.00     0.167 HD
ATOM     61  C   UNL A   1      43.955  30.762  32.294  1.00  0.00     0.074 A 
ATOM     62  C   UNL A   1      44.725  31.585  33.203  1.00  0.00     0.031 C 
ATOM     63  C   UNL A   1      44.404  29.602  31.754  1.00  0.00     0.037 A 
BRANCH  50  64
ATOM     64  C   UNL A   1      40.347  26.752  28.070  1.00  0.00     0.057 A 
ATOM     65  C   UNL A   1      40.882  26.588  26.784  1.00  0.00     0.134 A 
ATOM     66  C   UNL A   1      39.510  25.740  28.554  1.00  0.00     0.134 A 
ATOM     67  F   UNL A   1      41.677  27.528  26.253  1.00  0.00    -0.206 F 
ATOM     68  C   UNL A   1      40.574  25.474  26.002  1.00  0.00     0.040 A 
ATOM     69  C   UNL A   1      39.220  24.605  27.793  1.00  0.00     0.040 A 
ATOM     70  F   UNL A   1      38.966  25.830  29.776  1.00  0.00    -0.206 F 
ATOM     71  C   UNL A   1      39.749  24.473  26.510  1.00  0.00     0.006 A 
ENDBRANCH  50  64
BRANCH  51  72
ATOM     72  C   UNL A   1      41.961  34.678  33.980  1.00  0.00     0.057 A 
ATOM     73  C   UNL A   1      42.543  35.867  33.523  1.00  0.00     0.134 A 
ATOM     74  C   UNL A   1      41.627  34.607  35.338  1.00  0.00     0.134 A 
ATOM     75  F   UNL A   1      42.901  35.992  32.236  1.00  0.00    -0.206 F 
ATOM     76  C   UNL A   1      42.811  36.932  34.385  1.00  0.00     0.040 A 
ATOM     77  C   UNL A   1      41.863  35.675  36.206  1.00  0.00     0.040 A 
ATOM     78  F   UNL A   1      41.058  33.501  35.839  1.00  0.00    -0.206 F 
ATOM     79  C   UNL A   1      42.466  36.839  35.732  1.00  0.00     0.006 A 
ENDBRANCH  51  72
BRANCH  63  80
ATOM     80  C   UNL A   1      45.799  29.181  32.106  1.00  0.00     0.057 A 
ATOM     81  C   UNL A   1      46.063  28.348  33.200  1.00  0.00     0.134 A 
ATOM     82  C   UNL A   1      46.883  29.578  31.314  1.00  0.00     0.134 A 
ATOM     83  F   UNL A   1      45.068  27.942  34.003  1.00  0.00    -0.206 F 
ATOM     84  C   UNL A   1      47.362  27.945  33.510  1.00  0.00     0.040 A 
ATOM     85  C   UNL A   1      48.183  29.158  31.597  1.00  0.00     0.040 A 
ATOM     86  F   UNL A   1      46.695  30.364  30.244  1.00  0.00    -0.206 F 
ATOM     87  C   UNL A   1      48.425  28.345  32.702  1.00  0.00     0.006 A 
ENDBRANCH  63  80
ENDBRANCH  37  38
ENDBRANCH  29  32
ENDBRANCH  27  28
ENDBRANCH  26  27
ENDBRANCH   1  26
TORSDOF 16
ENDMDL
