MODEL 1
REMARK VINA RESULT:     -11.8      0.000      0.000
REMARK SMILES CC[C@H]1SC[C@H](C(=O)NCCCCNC(=O)c2ccc(-c3c4nc(c(-c5c(F)cccc5F)c5ccc([nH]5)c(-c5c(F)cccc5F)c5nc(c(-c6c(F)cccc6F)c6ccc3[nH]6)C=C5)C=C4)cc2)N1C(=O)Cc1ccc(F)c(F)c1
REMARK SMILES IDX 11 1 10 2 9 3 7 4 8 5 6 7 3 8 4 9 71 10 5 11 2 12 1 13 72 14
REMARK SMILES IDX 73 15 74 16 75 17 76 18 82 19 77 20 80 21 78 22 81 23 79 24
REMARK SMILES IDX 12 25 13 26 14 27 15 28 16 30 17 31 18 32 70 33 19 34 69 35
REMARK SMILES IDX 20 36 21 37 22 38 63 39 23 40 68 41 62 42 64 43 24 44 67 45
REMARK SMILES IDX 61 46 60 47 25 49 51 50 34 51 50 52 35 53 38 54 49 55 65 56
REMARK SMILES IDX 36 57 37 58 48 60 66 61 39 62 26 63 27 64 32 65 28 66 29 67
REMARK SMILES IDX 31 68 33 69 30 70 52 71 53 72 58 73 54 74 55 75 57 76 59 77
REMARK SMILES IDX 56 78 40 79 41 80 46 81 42 82 43 83 45 84 47 85 44 86
REMARK H PARENT 9 6 14 29 64 48 38 59
REMARK Flexibility Score: inf
ROOT
ATOM      1  C   UNL A   1      31.786  30.591  26.182  1.00  0.00     0.023 C 
ENDROOT
BRANCH   1   2
ATOM      2  C   UNL A   1      32.593  29.598  27.003  1.00  0.00     0.116 C 
BRANCH   2   3
ATOM      3  N   UNL A   1      31.917  28.367  27.324  1.00  0.00    -0.354 N 
ATOM      4  C   UNL A   1      31.997  27.163  26.682  1.00  0.00     0.243 C 
ATOM      5  O   UNL A   1      31.430  26.211  27.236  1.00  0.00    -0.273 OA
ATOM      6  H   UNL A   1      31.321  28.396  28.106  1.00  0.00     0.163 HD
BRANCH   4   7
ATOM      7  C   UNL A   1      32.525  26.999  25.232  1.00  0.00     0.185 C 
ATOM      8  C   UNL A   1      32.584  25.267  23.477  1.00  0.00     0.143 C 
ATOM      9  S   UNL A   1      33.838  24.734  24.676  1.00  0.00    -0.134 SA
ATOM     10  N   UNL A   1      31.766  26.196  24.247  1.00  0.00    -0.318 N 
ATOM     11  C   UNL A   1      33.940  26.399  25.392  1.00  0.00     0.107 C 
BRANCH   8  12
ATOM     12  C   UNL A   1      33.346  25.931  22.305  1.00  0.00     0.033 C 
ATOM     13  C   UNL A   1      32.884  25.582  20.900  1.00  0.00     0.007 C 
ENDBRANCH   8  12
BRANCH  10  14
ATOM     14  C   UNL A   1      30.456  26.528  23.942  1.00  0.00     0.228 C 
ATOM     15  O   UNL A   1      29.507  25.926  24.444  1.00  0.00    -0.274 OA
BRANCH  14  16
ATOM     16  C   UNL A   1      30.234  27.500  22.777  1.00  0.00     0.135 C 
BRANCH  16  17
ATOM     17  C   UNL A   1      29.343  28.674  23.067  1.00  0.00    -0.036 A 
ATOM     18  C   UNL A   1      27.954  28.571  22.902  1.00  0.00     0.007 A 
ATOM     19  C   UNL A   1      29.888  29.889  23.507  1.00  0.00     0.046 A 
ATOM     20  C   UNL A   1      27.134  29.687  23.077  1.00  0.00     0.043 A 
ATOM     21  C   UNL A   1      29.058  30.987  23.714  1.00  0.00     0.159 A 
ATOM     22  C   UNL A   1      27.694  30.893  23.474  1.00  0.00     0.158 A 
ATOM     23  F   UNL A   1      29.589  32.141  24.140  1.00  0.00    -0.204 F 
ATOM     24  F   UNL A   1      26.903  31.964  23.620  1.00  0.00    -0.204 F 
ENDBRANCH  16  17
ENDBRANCH  14  16
ENDBRANCH  10  14
ENDBRANCH   4   7
ENDBRANCH   2   3
ENDBRANCH   1   2
BRANCH   1  25
ATOM     25  C   UNL A   1      31.523  31.936  26.854  1.00  0.00     0.023 C 
BRANCH  25  26
ATOM     26  C   UNL A   1      32.747  32.811  27.101  1.00  0.00     0.116 C 
BRANCH  26  27
ATOM     27  N   UNL A   1      32.423  34.131  27.624  1.00  0.00    -0.352 N 
ATOM     28  C   UNL A   1      33.019  34.857  28.631  1.00  0.00     0.251 C 
ATOM     29  H   UNL A   1      31.659  34.574  27.188  1.00  0.00     0.163 HD
ATOM     30  O   UNL A   1      32.519  35.911  29.000  1.00  0.00    -0.269 OA
BRANCH  28  31
ATOM     31  C   UNL A   1      34.235  34.341  29.298  1.00  0.00     0.039 A 
ATOM     32  C   UNL A   1      34.096  33.557  30.445  1.00  0.00     0.014 A 
ATOM     33  C   UNL A   1      35.507  34.610  28.787  1.00  0.00     0.014 A 
ATOM     34  C   UNL A   1      35.225  32.975  31.028  1.00  0.00     0.010 A 
ATOM     35  C   UNL A   1      36.615  33.944  29.302  1.00  0.00     0.010 A 
ATOM     36  C   UNL A   1      36.490  33.126  30.435  1.00  0.00    -0.014 A 
BRANCH  36  37
ATOM     37  C   UNL A   1      37.687  32.445  30.995  1.00  0.00     0.031 A 
ATOM     38  C   UNL A   1      38.317  32.941  32.269  1.00  0.00     0.074 A 
ATOM     39  C   UNL A   1      38.234  31.404  30.336  1.00  0.00     0.049 A 
ATOM     40  N   UNL A   1      39.359  32.475  32.912  1.00  0.00    -0.248 NA
ATOM     41  C   UNL A   1      37.716  34.133  32.885  1.00  0.00     0.031 C 
ATOM     42  C   UNL A   1      37.755  30.860  29.064  1.00  0.00     0.029 A 
ATOM     43  N   UNL A   1      39.311  30.613  30.651  1.00  0.00    -0.354 N 
ATOM     44  C   UNL A   1      39.538  33.321  34.000  1.00  0.00     0.074 A 
ATOM     45  C   UNL A   1      38.551  34.370  33.886  1.00  0.00     0.031 C 
ATOM     46  C   UNL A   1      38.499  29.792  28.735  1.00  0.00     0.029 A 
ATOM     47  C   UNL A   1      39.531  29.598  29.749  1.00  0.00     0.049 A 
ATOM     48  H   UNL A   1      39.872  30.757  31.446  1.00  0.00     0.167 HD
ATOM     49  C   UNL A   1      40.419  33.215  35.024  1.00  0.00     0.037 A 
ATOM     50  C   UNL A   1      40.452  28.617  29.747  1.00  0.00     0.037 A 
ATOM     51  C   UNL A   1      41.396  32.166  35.140  1.00  0.00     0.049 A 
ATOM     52  C   UNL A   1      41.440  28.534  30.879  1.00  0.00     0.074 A 
ATOM     53  C   UNL A   1      42.307  31.943  36.159  1.00  0.00     0.029 A 
ATOM     54  N   UNL A   1      41.595  31.164  34.200  1.00  0.00    -0.354 N 
ATOM     55  N   UNL A   1      41.548  29.295  31.940  1.00  0.00    -0.248 NA
ATOM     56  C   UNL A   1      42.429  27.449  30.812  1.00  0.00     0.031 C 
ATOM     57  C   UNL A   1      43.091  30.838  35.809  1.00  0.00     0.029 A 
ATOM     58  C   UNL A   1      42.630  30.336  34.603  1.00  0.00     0.049 A 
ATOM     59  H   UNL A   1      41.077  31.060  33.370  1.00  0.00     0.167 HD
ATOM     60  C   UNL A   1      42.591  28.760  32.687  1.00  0.00     0.074 A 
ATOM     61  C   UNL A   1      43.076  27.606  31.959  1.00  0.00     0.031 C 
ATOM     62  C   UNL A   1      43.097  29.185  33.871  1.00  0.00     0.037 A 
BRANCH  49  63
ATOM     63  C   UNL A   1      40.353  34.270  36.093  1.00  0.00     0.057 A 
ATOM     64  C   UNL A   1      41.097  35.456  36.008  1.00  0.00     0.134 A 
ATOM     65  C   UNL A   1      39.543  34.100  37.222  1.00  0.00     0.134 A 
ATOM     66  F   UNL A   1      41.902  35.680  34.960  1.00  0.00    -0.206 F 
ATOM     67  C   UNL A   1      41.073  36.409  37.028  1.00  0.00     0.040 A 
ATOM     68  C   UNL A   1      39.484  35.062  38.232  1.00  0.00     0.040 A 
ATOM     69  F   UNL A   1      38.796  32.994  37.367  1.00  0.00    -0.206 F 
ATOM     70  C   UNL A   1      40.262  36.216  38.142  1.00  0.00     0.006 A 
ENDBRANCH  49  63
BRANCH  50  71
ATOM     71  C   UNL A   1      40.447  27.596  28.669  1.00  0.00     0.057 A 
ATOM     72  C   UNL A   1      39.662  26.441  28.779  1.00  0.00     0.134 A 
ATOM     73  C   UNL A   1      41.216  27.743  27.509  1.00  0.00     0.134 A 
ATOM     74  F   UNL A   1      38.917  26.233  29.875  1.00  0.00    -0.206 F 
ATOM     75  C   UNL A   1      39.655  25.463  27.784  1.00  0.00     0.040 A 
ATOM     76  C   UNL A   1      41.197  26.785  26.494  1.00  0.00     0.040 A 
ATOM     77  F   UNL A   1      41.982  28.830  27.337  1.00  0.00    -0.206 F 
ATOM     78  C   UNL A   1      40.419  25.637  26.633  1.00  0.00     0.006 A 
ENDBRANCH  50  71
BRANCH  62  79
ATOM     79  C   UNL A   1      44.203  28.369  34.479  1.00  0.00     0.057 A 
ATOM     80  C   UNL A   1      45.549  28.586  34.163  1.00  0.00     0.134 A 
ATOM     81  C   UNL A   1      43.913  27.375  35.423  1.00  0.00     0.134 A 
ATOM     82  F   UNL A   1      45.894  29.513  33.257  1.00  0.00    -0.206 F 
ATOM     83  C   UNL A   1      46.566  27.826  34.743  1.00  0.00     0.040 A 
ATOM     84  C   UNL A   1      44.923  26.629  36.033  1.00  0.00     0.040 A 
ATOM     85  F   UNL A   1      42.644  27.121  35.779  1.00  0.00    -0.206 F 
ATOM     86  C   UNL A   1      46.254  26.849  35.687  1.00  0.00     0.006 A 
ENDBRANCH  62  79
ENDBRANCH  36  37
ENDBRANCH  28  31
ENDBRANCH  26  27
ENDBRANCH  25  26
ENDBRANCH   1  25
TORSDOF 15
ENDMDL
MODEL 2
REMARK VINA RESULT:     -11.8      4.566      9.291
REMARK SMILES CC[C@H]1SC[C@H](C(=O)NCCCCNC(=O)c2ccc(-c3c4nc(c(-c5c(F)cccc5F)c5ccc([nH]5)c(-c5c(F)cccc5F)c5nc(c(-c6c(F)cccc6F)c6ccc3[nH]6)C=C5)C=C4)cc2)N1C(=O)Cc1ccc(F)c(F)c1
REMARK SMILES IDX 11 1 10 2 9 3 7 4 8 5 6 7 3 8 4 9 71 10 5 11 2 12 1 13 72 14
REMARK SMILES IDX 73 15 74 16 75 17 76 18 82 19 77 20 80 21 78 22 81 23 79 24
REMARK SMILES IDX 12 25 13 26 14 27 15 28 16 30 17 31 18 32 70 33 19 34 69 35
REMARK SMILES IDX 20 36 21 37 22 38 63 39 23 40 68 41 62 42 64 43 24 44 67 45
REMARK SMILES IDX 61 46 60 47 25 49 51 50 34 51 50 52 35 53 38 54 49 55 65 56
REMARK SMILES IDX 36 57 37 58 48 60 66 61 39 62 26 63 27 64 32 65 28 66 29 67
REMARK SMILES IDX 31 68 33 69 30 70 52 71 53 72 58 73 54 74 55 75 57 76 59 77
REMARK SMILES IDX 56 78 40 79 41 80 46 81 42 82 43 83 45 84 47 85 44 86
REMARK H PARENT 9 6 14 29 64 48 38 59
REMARK Flexibility Score: inf
ROOT
ATOM      1  C   UNL A   1      36.698  20.912  24.672  1.00  0.00     0.023 C 
ENDROOT
BRANCH   1   2
ATOM      2  C   UNL A   1      36.472  21.917  25.790  1.00  0.00     0.116 C 
BRANCH   2   3
ATOM      3  N   UNL A   1      35.209  21.805  26.476  1.00  0.00    -0.354 N 
ATOM      4  C   UNL A   1      33.971  22.183  26.039  1.00  0.00     0.243 C 
ATOM      5  O   UNL A   1      33.015  21.850  26.752  1.00  0.00    -0.273 OA
ATOM      6  H   UNL A   1      35.243  21.404  27.374  1.00  0.00     0.163 HD
BRANCH   4   7
ATOM      7  C   UNL A   1      33.742  23.184  24.874  1.00  0.00     0.185 C 
ATOM      8  C   UNL A   1      31.856  24.323  23.767  1.00  0.00     0.143 C 
ATOM      9  S   UNL A   1      31.763  22.613  23.165  1.00  0.00    -0.134 SA
ATOM     10  N   UNL A   1      32.676  24.206  24.967  1.00  0.00    -0.318 N 
ATOM     11  C   UNL A   1      33.487  22.297  23.635  1.00  0.00     0.107 C 
BRANCH   8  12
ATOM     12  C   UNL A   1      32.514  25.154  22.639  1.00  0.00     0.033 C 
ATOM     13  C   UNL A   1      31.659  26.231  21.992  1.00  0.00     0.007 C 
ENDBRANCH   8  12
BRANCH  10  14
ATOM     14  C   UNL A   1      32.675  25.117  26.011  1.00  0.00     0.228 C 
ATOM     15  O   UNL A   1      31.790  25.113  26.867  1.00  0.00    -0.274 OA
BRANCH  14  16
ATOM     16  C   UNL A   1      33.671  26.280  25.925  1.00  0.00     0.135 C 
BRANCH  16  17
ATOM     17  C   UNL A   1      33.078  27.656  26.023  1.00  0.00    -0.036 A 
ATOM     18  C   UNL A   1      33.491  28.539  27.031  1.00  0.00     0.007 A 
ATOM     19  C   UNL A   1      32.102  28.077  25.107  1.00  0.00     0.046 A 
ATOM     20  C   UNL A   1      32.873  29.781  27.185  1.00  0.00     0.043 A 
ATOM     21  C   UNL A   1      31.517  29.332  25.245  1.00  0.00     0.159 A 
ATOM     22  C   UNL A   1      31.881  30.166  26.293  1.00  0.00     0.158 A 
ATOM     23  F   UNL A   1      30.590  29.726  24.362  1.00  0.00    -0.204 F 
ATOM     24  F   UNL A   1      31.279  31.352  26.459  1.00  0.00    -0.204 F 
ENDBRANCH  16  17
ENDBRANCH  14  16
ENDBRANCH  10  14
ENDBRANCH   4   7
ENDBRANCH   2   3
ENDBRANCH   1   2
BRANCH   1  25
ATOM     25  C   UNL A   1      37.752  19.845  24.953  1.00  0.00     0.023 C 
BRANCH  25  26
ATOM     26  C   UNL A   1      38.965  20.297  25.759  1.00  0.00     0.116 C 
BRANCH  26  27
ATOM     27  N   UNL A   1      40.048  19.324  25.777  1.00  0.00    -0.352 N 
ATOM     28  C   UNL A   1      41.376  19.481  26.104  1.00  0.00     0.251 C 
ATOM     29  H   UNL A   1      39.790  18.410  25.514  1.00  0.00     0.163 HD
ATOM     30  O   UNL A   1      42.158  18.553  25.943  1.00  0.00    -0.269 OA
BRANCH  28  31
ATOM     31  C   UNL A   1      41.868  20.783  26.607  1.00  0.00     0.039 A 
ATOM     32  C   UNL A   1      42.267  21.755  25.687  1.00  0.00     0.014 A 
ATOM     33  C   UNL A   1      41.918  21.055  27.976  1.00  0.00     0.014 A 
ATOM     34  C   UNL A   1      42.634  23.026  26.138  1.00  0.00     0.010 A 
ATOM     35  C   UNL A   1      42.179  22.349  28.415  1.00  0.00     0.010 A 
ATOM     36  C   UNL A   1      42.549  23.349  27.503  1.00  0.00    -0.014 A 
BRANCH  36  37
ATOM     37  C   UNL A   1      42.856  24.720  27.989  1.00  0.00     0.031 A 
ATOM     38  C   UNL A   1      44.283  25.147  28.209  1.00  0.00     0.074 A 
ATOM     39  C   UNL A   1      41.850  25.571  28.271  1.00  0.00     0.049 A 
ATOM     40  N   UNL A   1      44.747  26.300  28.622  1.00  0.00    -0.248 NA
ATOM     41  C   UNL A   1      45.323  24.137  27.961  1.00  0.00     0.031 C 
ATOM     42  C   UNL A   1      40.424  25.264  28.154  1.00  0.00     0.029 A 
ATOM     43  N   UNL A   1      41.875  26.872  28.709  1.00  0.00    -0.354 N 
ATOM     44  C   UNL A   1      46.127  26.149  28.687  1.00  0.00     0.074 A 
ATOM     45  C   UNL A   1      46.417  24.773  28.351  1.00  0.00     0.031 C 
ATOM     46  C   UNL A   1      39.712  26.361  28.459  1.00  0.00     0.029 A 
ATOM     47  C   UNL A   1      40.628  27.437  28.829  1.00  0.00     0.049 A 
ATOM     48  H   UNL A   1      42.707  27.355  28.916  1.00  0.00     0.167 HD
ATOM     49  C   UNL A   1      47.073  27.078  28.966  1.00  0.00     0.037 A 
ATOM     50  C   UNL A   1      40.264  28.683  29.185  1.00  0.00     0.037 A 
ATOM     51  C   UNL A   1      46.784  28.449  29.294  1.00  0.00     0.049 A 
ATOM     52  C   UNL A   1      41.329  29.692  29.519  1.00  0.00     0.074 A 
ATOM     53  C   UNL A   1      47.670  29.481  29.551  1.00  0.00     0.029 A 
ATOM     54  N   UNL A   1      45.506  28.977  29.417  1.00  0.00    -0.354 N 
ATOM     55  N   UNL A   1      42.632  29.556  29.502  1.00  0.00    -0.248 NA
ATOM     56  C   UNL A   1      40.868  31.030  29.915  1.00  0.00     0.031 C 
ATOM     57  C   UNL A   1      46.927  30.620  29.881  1.00  0.00     0.029 A 
ATOM     58  C   UNL A   1      45.581  30.315  29.770  1.00  0.00     0.049 A 
ATOM     59  H   UNL A   1      44.672  28.475  29.275  1.00  0.00     0.167 HD
ATOM     60  C   UNL A   1      43.149  30.800  29.846  1.00  0.00     0.074 A 
ATOM     61  C   UNL A   1      42.016  31.677  30.059  1.00  0.00     0.031 C 
ATOM     62  C   UNL A   1      44.444  31.179  29.971  1.00  0.00     0.037 A 
BRANCH  49  63
ATOM     63  C   UNL A   1      48.507  26.627  28.923  1.00  0.00     0.057 A 
ATOM     64  C   UNL A   1      49.279  26.730  27.756  1.00  0.00     0.134 A 
ATOM     65  C   UNL A   1      49.123  26.081  30.054  1.00  0.00     0.134 A 
ATOM     66  F   UNL A   1      48.749  27.234  26.631  1.00  0.00    -0.206 F 
ATOM     67  C   UNL A   1      50.594  26.263  27.705  1.00  0.00     0.040 A 
ATOM     68  C   UNL A   1      50.449  25.642  30.025  1.00  0.00     0.040 A 
ATOM     69  F   UNL A   1      48.449  25.960  31.208  1.00  0.00    -0.206 F 
ATOM     70  C   UNL A   1      51.184  25.720  28.843  1.00  0.00     0.006 A 
ENDBRANCH  49  63
BRANCH  50  71
ATOM     71  C   UNL A   1      38.829  29.066  29.187  1.00  0.00     0.057 A 
ATOM     72  C   UNL A   1      38.214  29.545  28.023  1.00  0.00     0.134 A 
ATOM     73  C   UNL A   1      38.039  28.964  30.338  1.00  0.00     0.134 A 
ATOM     74  F   UNL A   1      38.922  29.682  26.893  1.00  0.00    -0.206 F 
ATOM     75  C   UNL A   1      36.871  29.923  28.008  1.00  0.00     0.040 A 
ATOM     76  C   UNL A   1      36.688  29.314  30.330  1.00  0.00     0.040 A 
ATOM     77  F   UNL A   1      38.565  28.505  31.483  1.00  0.00    -0.206 F 
ATOM     78  C   UNL A   1      36.101  29.802  29.163  1.00  0.00     0.006 A 
ENDBRANCH  50  71
BRANCH  62  79
ATOM     79  C   UNL A   1      44.709  32.620  30.307  1.00  0.00     0.057 A 
ATOM     80  C   UNL A   1      44.821  33.606  29.320  1.00  0.00     0.134 A 
ATOM     81  C   UNL A   1      44.817  33.027  31.643  1.00  0.00     0.134 A 
ATOM     82  F   UNL A   1      44.741  33.282  28.021  1.00  0.00    -0.206 F 
ATOM     83  C   UNL A   1      45.057  34.943  29.648  1.00  0.00     0.040 A 
ATOM     84  C   UNL A   1      45.022  34.364  31.985  1.00  0.00     0.040 A 
ATOM     85  F   UNL A   1      44.710  32.134  32.639  1.00  0.00    -0.206 F 
ATOM     86  C   UNL A   1      45.151  35.326  30.986  1.00  0.00     0.006 A 
ENDBRANCH  62  79
ENDBRANCH  36  37
ENDBRANCH  28  31
ENDBRANCH  26  27
ENDBRANCH  25  26
ENDBRANCH   1  25
TORSDOF 15
ENDMDL
MODEL 3
REMARK VINA RESULT:     -11.7      1.281      2.249
REMARK SMILES CC[C@H]1SC[C@H](C(=O)NCCCCNC(=O)c2ccc(-c3c4nc(c(-c5c(F)cccc5F)c5ccc([nH]5)c(-c5c(F)cccc5F)c5nc(c(-c6c(F)cccc6F)c6ccc3[nH]6)C=C5)C=C4)cc2)N1C(=O)Cc1ccc(F)c(F)c1
REMARK SMILES IDX 11 1 10 2 9 3 7 4 8 5 6 7 3 8 4 9 71 10 5 11 2 12 1 13 72 14
REMARK SMILES IDX 73 15 74 16 75 17 76 18 82 19 77 20 80 21 78 22 81 23 79 24
REMARK SMILES IDX 12 25 13 26 14 27 15 28 16 30 17 31 18 32 70 33 19 34 69 35
REMARK SMILES IDX 20 36 21 37 22 38 63 39 23 40 68 41 62 42 64 43 24 44 67 45
REMARK SMILES IDX 61 46 60 47 25 49 51 50 34 51 50 52 35 53 38 54 49 55 65 56
REMARK SMILES IDX 36 57 37 58 48 60 66 61 39 62 26 63 27 64 32 65 28 66 29 67
REMARK SMILES IDX 31 68 33 69 30 70 52 71 53 72 58 73 54 74 55 75 57 76 59 77
REMARK SMILES IDX 56 78 40 79 41 80 46 81 42 82 43 83 45 84 47 85 44 86
REMARK H PARENT 9 6 14 29 64 48 38 59
REMARK Flexibility Score: inf
ROOT
ATOM      1  C   UNL A   1      31.824  30.488  26.768  1.00  0.00     0.023 C 
ENDROOT
BRANCH   1   2
ATOM      2  C   UNL A   1      31.607  29.877  25.393  1.00  0.00     0.116 C 
BRANCH   2   3
ATOM      3  N   UNL A   1      32.794  29.735  24.587  1.00  0.00    -0.354 N 
ATOM      4  C   UNL A   1      33.151  28.692  23.781  1.00  0.00     0.243 C 
ATOM      5  O   UNL A   1      34.153  28.866  23.073  1.00  0.00    -0.273 OA
ATOM      6  H   UNL A   1      33.428  30.487  24.620  1.00  0.00     0.163 HD
BRANCH   4   7
ATOM      7  C   UNL A   1      32.536  27.271  23.894  1.00  0.00     0.185 C 
ATOM      8  C   UNL A   1      30.585  26.185  24.941  1.00  0.00     0.143 C 
ATOM      9  S   UNL A   1      31.718  26.500  26.324  1.00  0.00    -0.134 SA
ATOM     10  N   UNL A   1      31.067  27.092  23.907  1.00  0.00    -0.318 N 
ATOM     11  C   UNL A   1      33.128  26.685  25.196  1.00  0.00     0.107 C 
BRANCH   8  12
ATOM     12  C   UNL A   1      30.734  24.688  24.578  1.00  0.00     0.033 C 
ATOM     13  C   UNL A   1      30.853  23.710  25.735  1.00  0.00     0.007 C 
ENDBRANCH   8  12
BRANCH  10  14
ATOM     14  C   UNL A   1      30.302  27.553  22.847  1.00  0.00     0.228 C 
ATOM     15  O   UNL A   1      30.769  27.647  21.711  1.00  0.00    -0.274 OA
BRANCH  14  16
ATOM     16  C   UNL A   1      28.941  28.173  23.184  1.00  0.00     0.135 C 
BRANCH  16  17
ATOM     17  C   UNL A   1      28.754  29.604  22.768  1.00  0.00    -0.036 A 
ATOM     18  C   UNL A   1      29.095  30.649  23.640  1.00  0.00     0.007 A 
ATOM     19  C   UNL A   1      28.235  29.915  21.503  1.00  0.00     0.046 A 
ATOM     20  C   UNL A   1      28.832  31.975  23.295  1.00  0.00     0.043 A 
ATOM     21  C   UNL A   1      28.010  31.243  21.153  1.00  0.00     0.159 A 
ATOM     22  C   UNL A   1      28.282  32.263  22.054  1.00  0.00     0.158 A 
ATOM     23  F   UNL A   1      27.520  31.529  19.940  1.00  0.00    -0.204 F 
ATOM     24  F   UNL A   1      28.014  33.538  21.738  1.00  0.00    -0.204 F 
ENDBRANCH  16  17
ENDBRANCH  14  16
ENDBRANCH  10  14
ENDBRANCH   4   7
ENDBRANCH   2   3
ENDBRANCH   1   2
BRANCH   1  25
ATOM     25  C   UNL A   1      31.533  31.982  26.876  1.00  0.00     0.023 C 
BRANCH  25  26
ATOM     26  C   UNL A   1      32.744  32.887  27.073  1.00  0.00     0.116 C 
BRANCH  26  27
ATOM     27  N   UNL A   1      32.412  34.189  27.634  1.00  0.00    -0.352 N 
ATOM     28  C   UNL A   1      33.022  34.903  28.642  1.00  0.00     0.251 C 
ATOM     29  H   UNL A   1      31.630  34.629  27.229  1.00  0.00     0.163 HD
ATOM     30  O   UNL A   1      32.515  35.940  29.047  1.00  0.00    -0.269 OA
BRANCH  28  31
ATOM     31  C   UNL A   1      34.264  34.394  29.265  1.00  0.00     0.039 A 
ATOM     32  C   UNL A   1      34.172  33.647  30.442  1.00  0.00     0.014 A 
ATOM     33  C   UNL A   1      35.512  34.632  28.686  1.00  0.00     0.014 A 
ATOM     34  C   UNL A   1      35.322  33.069  30.987  1.00  0.00     0.010 A 
ATOM     35  C   UNL A   1      36.636  33.970  29.167  1.00  0.00     0.010 A 
ATOM     36  C   UNL A   1      36.558  33.187  30.329  1.00  0.00    -0.014 A 
BRANCH  36  37
ATOM     37  C   UNL A   1      37.774  32.510  30.852  1.00  0.00     0.031 A 
ATOM     38  C   UNL A   1      38.443  33.009  32.105  1.00  0.00     0.074 A 
ATOM     39  C   UNL A   1      38.302  31.470  30.178  1.00  0.00     0.049 A 
ATOM     40  N   UNL A   1      39.505  32.547  32.716  1.00  0.00    -0.248 NA
ATOM     41  C   UNL A   1      37.858  34.200  32.740  1.00  0.00     0.031 C 
ATOM     42  C   UNL A   1      37.785  30.924  28.922  1.00  0.00     0.029 A 
ATOM     43  N   UNL A   1      39.391  30.682  30.459  1.00  0.00    -0.354 N 
ATOM     44  C   UNL A   1      39.716  33.393  33.797  1.00  0.00     0.074 A 
ATOM     45  C   UNL A   1      38.723  34.441  33.713  1.00  0.00     0.031 C 
ATOM     46  C   UNL A   1      38.521  29.857  28.570  1.00  0.00     0.029 A 
ATOM     47  C   UNL A   1      39.585  29.667  29.552  1.00  0.00     0.049 A 
ATOM     48  H   UNL A   1      39.976  30.828  31.236  1.00  0.00     0.167 HD
ATOM     49  C   UNL A   1      40.629  33.291  34.793  1.00  0.00     0.037 A 
ATOM     50  C   UNL A   1      40.508  28.688  29.522  1.00  0.00     0.037 A 
ATOM     51  C   UNL A   1      41.612  32.244  34.880  1.00  0.00     0.049 A 
ATOM     52  C   UNL A   1      41.531  28.609  30.622  1.00  0.00     0.074 A 
ATOM     53  C   UNL A   1      42.555  32.025  35.869  1.00  0.00     0.029 A 
ATOM     54  N   UNL A   1      41.783  31.243  33.935  1.00  0.00    -0.354 N 
ATOM     55  N   UNL A   1      41.671  29.371  31.679  1.00  0.00    -0.248 NA
ATOM     56  C   UNL A   1      42.521  27.526  30.525  1.00  0.00     0.031 C 
ATOM     57  C   UNL A   1      43.330  30.922  35.496  1.00  0.00     0.029 A 
ATOM     58  C   UNL A   1      42.833  30.417  34.306  1.00  0.00     0.049 A 
ATOM     59  H   UNL A   1      41.240  31.136  33.122  1.00  0.00     0.167 HD
ATOM     60  C   UNL A   1      42.738  28.839  32.394  1.00  0.00     0.074 A 
ATOM     61  C   UNL A   1      43.202  27.686  31.651  1.00  0.00     0.031 C 
ATOM     62  C   UNL A   1      43.279  29.266  33.561  1.00  0.00     0.037 A 
BRANCH  49  63
ATOM     63  C   UNL A   1      40.594  34.346  35.863  1.00  0.00     0.057 A 
ATOM     64  C   UNL A   1      39.736  34.249  36.969  1.00  0.00     0.134 A 
ATOM     65  C   UNL A   1      41.420  35.474  35.789  1.00  0.00     0.134 A 
ATOM     66  F   UNL A   1      38.909  33.201  37.099  1.00  0.00    -0.206 F 
ATOM     67  C   UNL A   1      39.668  35.257  37.934  1.00  0.00     0.040 A 
ATOM     68  C   UNL A   1      41.386  36.471  36.766  1.00  0.00     0.040 A 
ATOM     69  F   UNL A   1      42.273  35.629  34.765  1.00  0.00    -0.206 F 
ATOM     70  C   UNL A   1      40.498  36.370  37.836  1.00  0.00     0.006 A 
ENDBRANCH  49  63
BRANCH  50  71
ATOM     71  C   UNL A   1      40.472  27.666  28.445  1.00  0.00     0.057 A 
ATOM     72  C   UNL A   1      41.189  27.852  27.257  1.00  0.00     0.134 A 
ATOM     73  C   UNL A   1      39.729  26.486  28.571  1.00  0.00     0.134 A 
ATOM     74  F   UNL A   1      41.906  28.969  27.069  1.00  0.00    -0.206 F 
ATOM     75  C   UNL A   1      41.158  26.910  26.227  1.00  0.00     0.040 A 
ATOM     76  C   UNL A   1      39.709  25.524  27.560  1.00  0.00     0.040 A 
ATOM     77  F   UNL A   1      39.026  26.244  29.687  1.00  0.00    -0.206 F 
ATOM     78  C   UNL A   1      40.420  25.738  26.380  1.00  0.00     0.006 A 
ENDBRANCH  50  71
BRANCH  62  79
ATOM     79  C   UNL A   1      44.406  28.454  34.134  1.00  0.00     0.057 A 
ATOM     80  C   UNL A   1      44.180  27.336  34.947  1.00  0.00     0.134 A 
ATOM     81  C   UNL A   1      45.736  28.777  33.836  1.00  0.00     0.134 A 
ATOM     82  F   UNL A   1      42.931  26.980  35.282  1.00  0.00    -0.206 F 
ATOM     83  C   UNL A   1      45.236  26.585  35.464  1.00  0.00     0.040 A 
ATOM     84  C   UNL A   1      46.800  28.016  34.321  1.00  0.00     0.040 A 
ATOM     85  F   UNL A   1      46.023  29.830  33.055  1.00  0.00    -0.206 F 
ATOM     86  C   UNL A   1      46.552  26.921  35.145  1.00  0.00     0.006 A 
ENDBRANCH  62  79
ENDBRANCH  36  37
ENDBRANCH  28  31
ENDBRANCH  26  27
ENDBRANCH  25  26
ENDBRANCH   1  25
TORSDOF 15
ENDMDL
