MODEL 1
REMARK VINA RESULT:     -12.3      0.000      0.000
REMARK SMILES Cc1nnc(C[N@H+]2[C@@H]3CC[C@H]2C[C@H](CC(=O)NCCCCNC(=O)c2ccc(-c4c5nc(c(-c6c(F)cccc6F)c6ccc([nH]6)c(-c6c(F)cccc6F)c6nc(c(-c7c(F)cccc7F)c7ccc4[nH]7)C=C6)C=C5)cc2)C3)n1C
REMARK SMILES IDX 19 1 18 2 17 3 15 4 16 5 14 7 13 8 7 9 8 10 11 11 9 13 79 14
REMARK SMILES IDX 10 15 12 16 6 17 5 18 1 19 2 20 3 21 80 22 4 23 81 24 20 25
REMARK SMILES IDX 21 26 22 27 23 28 24 30 25 31 26 32 78 33 27 34 77 35 28 36
REMARK SMILES IDX 29 37 30 38 71 39 31 40 76 41 70 42 72 43 32 44 75 45 69 46
REMARK SMILES IDX 68 47 33 49 59 50 42 51 58 52 43 53 46 54 57 55 73 56 44 57
REMARK SMILES IDX 45 58 56 60 74 61 47 62 34 63 35 64 40 65 36 66 37 67 39 68
REMARK SMILES IDX 41 69 38 70 60 71 61 72 66 73 62 74 63 75 65 76 67 77 64 78
REMARK SMILES IDX 48 79 49 80 54 81 50 82 51 83 53 84 55 85 52 86
REMARK H PARENT 17 6 7 12 22 29 72 48 46 59
REMARK Flexibility Score: inf
ROOT
ATOM      1  C   UNL A   1      40.107  21.390  26.664  1.00  0.00     0.023 C 
ENDROOT
BRANCH   1   2
ATOM      2  C   UNL A   1      38.893  21.525  25.726  1.00  0.00     0.116 C 
BRANCH   2   3
ATOM      3  N   UNL A   1      38.000  22.613  26.120  1.00  0.00    -0.356 N 
ATOM      4  C   UNL A   1      37.074  23.346  25.435  1.00  0.00     0.220 C 
ATOM      5  O   UNL A   1      36.444  24.195  26.075  1.00  0.00    -0.275 OA
ATOM      6  H   UNL A   1      38.083  22.868  27.068  1.00  0.00     0.163 HD
BRANCH   4   7
ATOM      7  C   UNL A   1      36.780  23.149  23.951  1.00  0.00     0.104 C 
BRANCH   7   8
ATOM      8  C   UNL A   1      35.402  22.525  23.618  1.00  0.00     0.010 C 
ATOM      9  N   UNL A   1      32.782  22.681  25.049  1.00  0.00    -0.324 N 
ATOM     10  C   UNL A   1      32.889  23.196  23.692  1.00  0.00     0.185 C 
ATOM     11  C   UNL A   1      33.483  21.409  25.005  1.00  0.00     0.185 C 
ATOM     12  H   UNL A   1      31.792  22.599  25.280  1.00  0.00     0.348 HD
ATOM     13  C   UNL A   1      32.430  21.946  22.912  1.00  0.00     0.071 C 
ATOM     14  C   UNL A   1      34.329  23.588  23.288  1.00  0.00     0.069 C 
ATOM     15  C   UNL A   1      32.822  20.759  23.793  1.00  0.00     0.071 C 
ATOM     16  C   UNL A   1      34.970  21.592  24.747  1.00  0.00     0.069 C 
BRANCH   9  17
ATOM     17  C   UNL A   1      32.904  23.521  26.240  1.00  0.00     0.341 C 
BRANCH  17  18
ATOM     18  C   UNL A   1      32.080  24.763  26.348  1.00  0.00     0.187 A 
ATOM     19  C   UNL A   1      31.706  28.307  26.934  1.00  0.00     0.090 C 
ATOM     20  C   UNL A   1      31.543  26.876  26.594  1.00  0.00     0.129 A 
ATOM     21  N   UNL A   1      30.442  26.162  26.709  1.00  0.00    -0.135 NA
ATOM     22  N   UNL A   1      32.553  26.044  26.184  1.00  0.00    -0.314 N 
ATOM     23  N   UNL A   1      30.777  24.839  26.543  1.00  0.00    -0.129 NA
ATOM     24  C   UNL A   1      33.858  26.424  25.711  1.00  0.00     0.153 C 
ENDBRANCH  17  18
ENDBRANCH   9  17
ENDBRANCH   7   8
ENDBRANCH   4   7
ENDBRANCH   2   3
ENDBRANCH   1   2
BRANCH   1  25
ATOM     25  C   UNL A   1      40.857  20.059  26.642  1.00  0.00     0.023 C 
BRANCH  25  26
ATOM     26  C   UNL A   1      42.316  20.178  27.047  1.00  0.00     0.116 C 
BRANCH  26  27
ATOM     27  N   UNL A   1      43.231  19.629  26.040  1.00  0.00    -0.352 N 
ATOM     28  C   UNL A   1      43.957  20.326  25.102  1.00  0.00     0.251 C 
ATOM     29  H   UNL A   1      43.339  18.651  26.037  1.00  0.00     0.163 HD
ATOM     30  O   UNL A   1      44.440  19.799  24.121  1.00  0.00    -0.269 OA
BRANCH  28  31
ATOM     31  C   UNL A   1      44.112  21.776  25.331  1.00  0.00     0.039 A 
ATOM     32  C   UNL A   1      43.135  22.656  24.871  1.00  0.00     0.014 A 
ATOM     33  C   UNL A   1      45.135  22.186  26.183  1.00  0.00     0.014 A 
ATOM     34  C   UNL A   1      43.128  23.954  25.368  1.00  0.00     0.010 A 
ATOM     35  C   UNL A   1      45.070  23.447  26.738  1.00  0.00     0.010 A 
ATOM     36  C   UNL A   1      44.068  24.338  26.341  1.00  0.00    -0.014 A 
BRANCH  36  37
ATOM     37  C   UNL A   1      43.868  25.601  27.064  1.00  0.00     0.031 A 
ATOM     38  C   UNL A   1      44.834  26.693  26.736  1.00  0.00     0.074 A 
ATOM     39  C   UNL A   1      42.765  25.893  27.788  1.00  0.00     0.049 A 
ATOM     40  N   UNL A   1      45.648  27.306  27.532  1.00  0.00    -0.248 NA
ATOM     41  C   UNL A   1      44.960  27.111  25.328  1.00  0.00     0.031 C 
ATOM     42  C   UNL A   1      41.558  25.075  27.930  1.00  0.00     0.029 A 
ATOM     43  N   UNL A   1      42.437  27.045  28.448  1.00  0.00    -0.354 N 
ATOM     44  C   UNL A   1      46.243  28.318  26.778  1.00  0.00     0.074 A 
ATOM     45  C   UNL A   1      45.898  28.057  25.406  1.00  0.00     0.031 C 
ATOM     46  C   UNL A   1      40.554  25.839  28.408  1.00  0.00     0.029 A 
ATOM     47  C   UNL A   1      41.092  27.136  28.775  1.00  0.00     0.049 A 
ATOM     48  H   UNL A   1      43.094  27.744  28.671  1.00  0.00     0.167 HD
ATOM     49  C   UNL A   1      46.749  29.434  27.374  1.00  0.00     0.037 A 
ATOM     50  C   UNL A   1      40.436  28.195  29.301  1.00  0.00     0.037 A 
ATOM     51  C   UNL A   1      46.890  29.246  28.794  1.00  0.00     0.049 A 
ATOM     52  C   UNL A   1      41.421  29.062  29.979  1.00  0.00     0.074 A 
ATOM     53  C   UNL A   1      47.713  28.554  29.652  1.00  0.00     0.029 A 
ATOM     54  N   UNL A   1      45.802  29.653  29.514  1.00  0.00    -0.354 N 
ATOM     55  N   UNL A   1      42.077  28.719  31.052  1.00  0.00    -0.248 NA
ATOM     56  C   UNL A   1      41.907  30.264  29.311  1.00  0.00     0.031 C 
ATOM     57  C   UNL A   1      46.962  28.368  30.853  1.00  0.00     0.029 A 
ATOM     58  C   UNL A   1      45.714  28.967  30.691  1.00  0.00     0.049 A 
ATOM     59  H   UNL A   1      45.167  30.348  29.222  1.00  0.00     0.167 HD
ATOM     60  C   UNL A   1      43.284  29.377  30.937  1.00  0.00     0.074 A 
ATOM     61  C   UNL A   1      43.043  30.451  29.986  1.00  0.00     0.031 C 
ATOM     62  C   UNL A   1      44.441  28.786  31.352  1.00  0.00     0.037 A 
BRANCH  49  63
ATOM     63  C   UNL A   1      46.643  30.844  26.816  1.00  0.00     0.057 A 
ATOM     64  C   UNL A   1      47.784  31.675  26.853  1.00  0.00     0.134 A 
ATOM     65  C   UNL A   1      45.426  31.520  26.597  1.00  0.00     0.134 A 
ATOM     66  F   UNL A   1      49.005  31.159  27.058  1.00  0.00    -0.206 F 
ATOM     67  C   UNL A   1      47.704  33.072  26.781  1.00  0.00     0.040 A 
ATOM     68  C   UNL A   1      45.343  32.912  26.474  1.00  0.00     0.040 A 
ATOM     69  F   UNL A   1      44.246  30.891  26.597  1.00  0.00    -0.206 F 
ATOM     70  C   UNL A   1      46.477  33.697  26.604  1.00  0.00     0.006 A 
ENDBRANCH  49  63
BRANCH  50  71
ATOM     71  C   UNL A   1      39.017  28.575  29.147  1.00  0.00     0.057 A 
ATOM     72  C   UNL A   1      38.135  28.558  30.235  1.00  0.00     0.134 A 
ATOM     73  C   UNL A   1      38.550  29.206  27.980  1.00  0.00     0.134 A 
ATOM     74  F   UNL A   1      38.502  28.008  31.401  1.00  0.00    -0.206 F 
ATOM     75  C   UNL A   1      36.873  29.160  30.178  1.00  0.00     0.040 A 
ATOM     76  C   UNL A   1      37.288  29.802  27.906  1.00  0.00     0.040 A 
ATOM     77  F   UNL A   1      39.338  29.340  26.902  1.00  0.00    -0.206 F 
ATOM     78  C   UNL A   1      36.450  29.794  29.014  1.00  0.00     0.006 A 
ENDBRANCH  50  71
BRANCH  62  79
ATOM     79  C   UNL A   1      44.337  27.731  32.408  1.00  0.00     0.057 A 
ATOM     80  C   UNL A   1      44.210  26.360  32.152  1.00  0.00     0.134 A 
ATOM     81  C   UNL A   1      44.441  28.123  33.747  1.00  0.00     0.134 A 
ATOM     82  F   UNL A   1      44.188  25.885  30.901  1.00  0.00    -0.206 F 
ATOM     83  C   UNL A   1      44.137  25.426  33.189  1.00  0.00     0.040 A 
ATOM     84  C   UNL A   1      44.405  27.198  34.790  1.00  0.00     0.040 A 
ATOM     85  F   UNL A   1      44.612  29.417  34.062  1.00  0.00    -0.206 F 
ATOM     86  C   UNL A   1      44.238  25.845  34.513  1.00  0.00     0.006 A 
ENDBRANCH  62  79
ENDBRANCH  36  37
ENDBRANCH  28  31
ENDBRANCH  26  27
ENDBRANCH  25  26
ENDBRANCH   1  25
TORSDOF 14
ENDMDL
MODEL 2
REMARK VINA RESULT:     -12.0      1.352      2.960
REMARK SMILES Cc1nnc(C[N@H+]2[C@@H]3CC[C@H]2C[C@H](CC(=O)NCCCCNC(=O)c2ccc(-c4c5nc(c(-c6c(F)cccc6F)c6ccc([nH]6)c(-c6c(F)cccc6F)c6nc(c(-c7c(F)cccc7F)c7ccc4[nH]7)C=C6)C=C5)cc2)C3)n1C
REMARK SMILES IDX 19 1 18 2 17 3 15 4 16 5 14 7 13 8 7 9 8 10 11 11 9 13 79 14
REMARK SMILES IDX 10 15 12 16 6 17 5 18 1 19 2 20 3 21 80 22 4 23 81 24 20 25
REMARK SMILES IDX 21 26 22 27 23 28 24 30 25 31 26 32 78 33 27 34 77 35 28 36
REMARK SMILES IDX 29 37 30 38 71 39 31 40 76 41 70 42 72 43 32 44 75 45 69 46
REMARK SMILES IDX 68 47 33 49 59 50 42 51 58 52 43 53 46 54 57 55 73 56 44 57
REMARK SMILES IDX 45 58 56 60 74 61 47 62 34 63 35 64 40 65 36 66 37 67 39 68
REMARK SMILES IDX 41 69 38 70 60 71 61 72 66 73 62 74 63 75 65 76 67 77 64 78
REMARK SMILES IDX 48 79 49 80 54 81 50 82 51 83 53 84 55 85 52 86
REMARK H PARENT 17 6 7 12 22 29 72 48 46 59
REMARK Flexibility Score: inf
ROOT
ATOM      1  C   UNL A   1      40.478  21.857  27.479  1.00  0.00     0.023 C 
ENDROOT
BRANCH   1   2
ATOM      2  C   UNL A   1      39.546  22.759  26.648  1.00  0.00     0.116 C 
BRANCH   2   3
ATOM      3  N   UNL A   1      38.714  21.996  25.718  1.00  0.00    -0.356 N 
ATOM      4  C   UNL A   1      37.634  22.332  24.953  1.00  0.00     0.220 C 
ATOM      5  O   UNL A   1      37.161  21.448  24.231  1.00  0.00    -0.275 OA
ATOM      6  H   UNL A   1      38.985  21.054  25.627  1.00  0.00     0.163 HD
BRANCH   4   7
ATOM      7  C   UNL A   1      37.017  23.727  24.940  1.00  0.00     0.104 C 
BRANCH   7   8
ATOM      8  C   UNL A   1      35.546  23.812  25.418  1.00  0.00     0.010 C 
ATOM      9  N   UNL A   1      33.245  21.943  25.028  1.00  0.00    -0.324 N 
ATOM     10  C   UNL A   1      33.712  22.234  26.376  1.00  0.00     0.185 C 
ATOM     11  C   UNL A   1      33.215  23.240  24.373  1.00  0.00     0.185 C 
ATOM     12  H   UNL A   1      32.332  21.495  25.099  1.00  0.00     0.348 HD
ATOM     13  C   UNL A   1      32.757  23.394  26.728  1.00  0.00     0.071 C 
ATOM     14  C   UNL A   1      35.183  22.706  26.436  1.00  0.00     0.069 C 
ATOM     15  C   UNL A   1      32.424  24.057  25.391  1.00  0.00     0.071 C 
ATOM     16  C   UNL A   1      34.609  23.824  24.212  1.00  0.00     0.069 C 
BRANCH   9  17
ATOM     17  C   UNL A   1      33.670  20.769  24.265  1.00  0.00     0.341 C 
BRANCH  17  18
ATOM     18  C   UNL A   1      33.241  19.410  24.714  1.00  0.00     0.187 A 
ATOM     19  C   UNL A   1      33.554  15.812  24.750  1.00  0.00     0.090 C 
ATOM     20  C   UNL A   1      33.211  17.233  24.984  1.00  0.00     0.129 A 
ATOM     21  N   UNL A   1      32.047  17.706  25.378  1.00  0.00    -0.135 NA
ATOM     22  N   UNL A   1      34.044  18.294  24.738  1.00  0.00    -0.314 N 
ATOM     23  N   UNL A   1      32.070  19.072  25.219  1.00  0.00    -0.129 NA
ATOM     24  C   UNL A   1      35.466  18.254  24.514  1.00  0.00     0.153 C 
ENDBRANCH  17  18
ENDBRANCH   9  17
ENDBRANCH   7   8
ENDBRANCH   4   7
ENDBRANCH   2   3
ENDBRANCH   1   2
BRANCH   1  25
ATOM     25  C   UNL A   1      41.052  20.623  26.785  1.00  0.00     0.023 C 
BRANCH  25  26
ATOM     26  C   UNL A   1      42.464  20.281  27.225  1.00  0.00     0.116 C 
BRANCH  26  27
ATOM     27  N   UNL A   1      43.285  19.745  26.133  1.00  0.00    -0.352 N 
ATOM     28  C   UNL A   1      43.942  20.454  25.155  1.00  0.00     0.251 C 
ATOM     29  H   UNL A   1      43.376  18.765  26.098  1.00  0.00     0.163 HD
ATOM     30  O   UNL A   1      44.335  19.944  24.126  1.00  0.00    -0.269 OA
BRANCH  28  31
ATOM     31  C   UNL A   1      44.140  21.896  25.404  1.00  0.00     0.039 A 
ATOM     32  C   UNL A   1      43.255  22.819  24.853  1.00  0.00     0.014 A 
ATOM     33  C   UNL A   1      45.090  22.258  26.357  1.00  0.00     0.014 A 
ATOM     34  C   UNL A   1      43.257  24.116  25.353  1.00  0.00     0.010 A 
ATOM     35  C   UNL A   1      45.027  23.521  26.908  1.00  0.00     0.010 A 
ATOM     36  C   UNL A   1      44.112  24.457  26.416  1.00  0.00    -0.014 A 
BRANCH  36  37
ATOM     37  C   UNL A   1      43.898  25.728  27.121  1.00  0.00     0.031 A 
ATOM     38  C   UNL A   1      44.849  26.828  26.772  1.00  0.00     0.074 A 
ATOM     39  C   UNL A   1      42.795  26.016  27.846  1.00  0.00     0.049 A 
ATOM     40  N   UNL A   1      45.658  27.463  27.555  1.00  0.00    -0.248 NA
ATOM     41  C   UNL A   1      44.962  27.226  25.357  1.00  0.00     0.031 C 
ATOM     42  C   UNL A   1      41.599  25.184  28.006  1.00  0.00     0.029 A 
ATOM     43  N   UNL A   1      42.455  27.174  28.490  1.00  0.00    -0.354 N 
ATOM     44  C   UNL A   1      46.235  28.472  26.783  1.00  0.00     0.074 A 
ATOM     45  C   UNL A   1      45.888  28.186  25.417  1.00  0.00     0.031 C 
ATOM     46  C   UNL A   1      40.588  25.942  28.477  1.00  0.00     0.029 A 
ATOM     47  C   UNL A   1      41.109  27.252  28.821  1.00  0.00     0.049 A 
ATOM     48  H   UNL A   1      43.103  27.885  28.699  1.00  0.00     0.167 HD
ATOM     49  C   UNL A   1      46.729  29.603  27.359  1.00  0.00     0.037 A 
ATOM     50  C   UNL A   1      40.442  28.310  29.334  1.00  0.00     0.037 A 
ATOM     51  C   UNL A   1      46.879  29.439  28.782  1.00  0.00     0.049 A 
ATOM     52  C   UNL A   1      41.419  29.200  29.995  1.00  0.00     0.074 A 
ATOM     53  C   UNL A   1      47.715  28.771  29.646  1.00  0.00     0.029 A 
ATOM     54  N   UNL A   1      45.789  29.843  29.501  1.00  0.00    -0.354 N 
ATOM     55  N   UNL A   1      42.083  28.882  31.070  1.00  0.00    -0.248 NA
ATOM     56  C   UNL A   1      41.885  30.398  29.306  1.00  0.00     0.031 C 
ATOM     57  C   UNL A   1      46.972  28.594  30.853  1.00  0.00     0.029 A 
ATOM     58  C   UNL A   1      45.715  29.173  30.689  1.00  0.00     0.049 A 
ATOM     59  H   UNL A   1      45.144  30.524  29.201  1.00  0.00     0.167 HD
ATOM     60  C   UNL A   1      43.281  29.554  30.940  1.00  0.00     0.074 A 
ATOM     61  C   UNL A   1      43.021  30.611  29.973  1.00  0.00     0.031 C 
ATOM     62  C   UNL A   1      44.447  28.985  31.358  1.00  0.00     0.037 A 
BRANCH  49  63
ATOM     63  C   UNL A   1      46.602  31.003  26.781  1.00  0.00     0.057 A 
ATOM     64  C   UNL A   1      47.732  31.850  26.800  1.00  0.00     0.134 A 
ATOM     65  C   UNL A   1      45.375  31.660  26.558  1.00  0.00     0.134 A 
ATOM     66  F   UNL A   1      48.961  31.353  27.006  1.00  0.00    -0.206 F 
ATOM     67  C   UNL A   1      47.633  33.244  26.707  1.00  0.00     0.040 A 
ATOM     68  C   UNL A   1      45.273  33.049  26.414  1.00  0.00     0.040 A 
ATOM     69  F   UNL A   1      44.203  31.015  26.574  1.00  0.00    -0.206 F 
ATOM     70  C   UNL A   1      46.397  33.850  26.527  1.00  0.00     0.006 A 
ENDBRANCH  49  63
BRANCH  50  71
ATOM     71  C   UNL A   1      39.017  28.668  29.181  1.00  0.00     0.057 A 
ATOM     72  C   UNL A   1      38.141  28.656  30.273  1.00  0.00     0.134 A 
ATOM     73  C   UNL A   1      38.537  29.276  28.007  1.00  0.00     0.134 A 
ATOM     74  F   UNL A   1      38.520  28.128  31.446  1.00  0.00    -0.206 F 
ATOM     75  C   UNL A   1      36.870  29.240  30.213  1.00  0.00     0.040 A 
ATOM     76  C   UNL A   1      37.267  29.853  27.930  1.00  0.00     0.040 A 
ATOM     77  F   UNL A   1      39.318  29.404  26.924  1.00  0.00    -0.206 F 
ATOM     78  C   UNL A   1      36.434  29.851  29.042  1.00  0.00     0.006 A 
ENDBRANCH  50  71
BRANCH  62  79
ATOM     79  C   UNL A   1      44.363  27.945  32.430  1.00  0.00     0.057 A 
ATOM     80  C   UNL A   1      44.238  28.220  33.797  1.00  0.00     0.134 A 
ATOM     81  C   UNL A   1      44.339  26.599  32.045  1.00  0.00     0.134 A 
ATOM     82  F   UNL A   1      44.166  29.477  34.250  1.00  0.00    -0.206 F 
ATOM     83  C   UNL A   1      44.145  27.195  34.743  1.00  0.00     0.040 A 
ATOM     84  C   UNL A   1      44.212  25.569  32.976  1.00  0.00     0.040 A 
ATOM     85  F   UNL A   1      44.409  26.267  30.745  1.00  0.00    -0.206 F 
ATOM     86  C   UNL A   1      44.129  25.865  34.333  1.00  0.00     0.006 A 
ENDBRANCH  62  79
ENDBRANCH  36  37
ENDBRANCH  28  31
ENDBRANCH  26  27
ENDBRANCH  25  26
ENDBRANCH   1  25
TORSDOF 14
ENDMDL
MODEL 3
REMARK VINA RESULT:     -11.8      4.997     10.102
REMARK SMILES Cc1nnc(C[N@H+]2[C@@H]3CC[C@H]2C[C@H](CC(=O)NCCCCNC(=O)c2ccc(-c4c5nc(c(-c6c(F)cccc6F)c6ccc([nH]6)c(-c6c(F)cccc6F)c6nc(c(-c7c(F)cccc7F)c7ccc4[nH]7)C=C6)C=C5)cc2)C3)n1C
REMARK SMILES IDX 19 1 18 2 17 3 15 4 16 5 14 7 13 8 7 9 8 10 11 11 9 13 79 14
REMARK SMILES IDX 10 15 12 16 6 17 5 18 1 19 2 20 3 21 80 22 4 23 81 24 20 25
REMARK SMILES IDX 21 26 22 27 23 28 24 30 25 31 26 32 78 33 27 34 77 35 28 36
REMARK SMILES IDX 29 37 30 38 71 39 31 40 76 41 70 42 72 43 32 44 75 45 69 46
REMARK SMILES IDX 68 47 33 49 59 50 42 51 58 52 43 53 46 54 57 55 73 56 44 57
REMARK SMILES IDX 45 58 56 60 74 61 47 62 34 63 35 64 40 65 36 66 37 67 39 68
REMARK SMILES IDX 41 69 38 70 60 71 61 72 66 73 62 74 63 75 65 76 67 77 64 78
REMARK SMILES IDX 48 79 49 80 54 81 50 82 51 83 53 84 55 85 52 86
REMARK H PARENT 17 6 7 12 22 29 72 48 46 59
REMARK Flexibility Score: inf
ROOT
ATOM      1  C   UNL A   1      33.987  33.833  28.587  1.00  0.00     0.023 C 
ENDROOT
BRANCH   1   2
ATOM      2  C   UNL A   1      33.488  32.505  27.985  1.00  0.00     0.116 C 
BRANCH   2   3
ATOM      3  N   UNL A   1      34.573  31.553  27.755  1.00  0.00    -0.356 N 
ATOM      4  C   UNL A   1      34.590  30.246  27.359  1.00  0.00     0.220 C 
ATOM      5  O   UNL A   1      35.698  29.715  27.224  1.00  0.00    -0.275 OA
ATOM      6  H   UNL A   1      35.469  31.928  27.919  1.00  0.00     0.163 HD
BRANCH   4   7
ATOM      7  C   UNL A   1      33.327  29.442  27.065  1.00  0.00     0.104 C 
BRANCH   7   8
ATOM      8  C   UNL A   1      33.444  28.406  25.921  1.00  0.00     0.010 C 
ATOM      9  N   UNL A   1      31.453  27.502  23.882  1.00  0.00    -0.324 N 
ATOM     10  C   UNL A   1      32.686  28.140  23.445  1.00  0.00     0.185 C 
ATOM     11  C   UNL A   1      31.878  26.567  24.910  1.00  0.00     0.185 C 
ATOM     12  H   UNL A   1      31.022  27.057  23.071  1.00  0.00     0.348 HD
ATOM     13  C   UNL A   1      33.550  26.882  23.212  1.00  0.00     0.071 C 
ATOM     14  C   UNL A   1      33.330  29.048  24.519  1.00  0.00     0.069 C 
ATOM     15  C   UNL A   1      33.005  25.837  24.184  1.00  0.00     0.071 C 
ATOM     16  C   UNL A   1      32.430  27.284  26.132  1.00  0.00     0.069 C 
BRANCH   9  17
ATOM     17  C   UNL A   1      30.191  28.222  24.052  1.00  0.00     0.341 C 
BRANCH  17  18
ATOM     18  C   UNL A   1      29.787  29.242  23.036  1.00  0.00     0.187 A 
ATOM     19  C   UNL A   1      28.296  32.393  22.092  1.00  0.00     0.090 C 
ATOM     20  C   UNL A   1      29.009  31.097  22.162  1.00  0.00     0.129 A 
ATOM     21  N   UNL A   1      29.127  30.213  21.195  1.00  0.00    -0.135 NA
ATOM     22  N   UNL A   1      29.588  30.578  23.292  1.00  0.00    -0.314 N 
ATOM     23  N   UNL A   1      29.626  29.053  21.740  1.00  0.00    -0.129 NA
ATOM     24  C   UNL A   1      29.896  31.274  24.514  1.00  0.00     0.153 C 
ENDBRANCH  17  18
ENDBRANCH   9  17
ENDBRANCH   7   8
ENDBRANCH   4   7
ENDBRANCH   2   3
ENDBRANCH   1   2
BRANCH   1  25
ATOM     25  C   UNL A   1      32.955  34.945  28.766  1.00  0.00     0.023 C 
BRANCH  25  26
ATOM     26  C   UNL A   1      33.438  36.084  29.647  1.00  0.00     0.116 C 
BRANCH  26  27
ATOM     27  N   UNL A   1      32.489  36.417  30.715  1.00  0.00    -0.352 N 
ATOM     28  C   UNL A   1      32.431  35.878  31.980  1.00  0.00     0.251 C 
ATOM     29  H   UNL A   1      31.818  37.105  30.503  1.00  0.00     0.163 HD
ATOM     30  O   UNL A   1      31.450  35.971  32.689  1.00  0.00    -0.269 OA
BRANCH  28  31
ATOM     31  C   UNL A   1      33.628  35.150  32.443  1.00  0.00     0.039 A 
ATOM     32  C   UNL A   1      33.693  33.766  32.301  1.00  0.00     0.014 A 
ATOM     33  C   UNL A   1      34.735  35.909  32.819  1.00  0.00     0.014 A 
ATOM     34  C   UNL A   1      34.930  33.146  32.434  1.00  0.00     0.010 A 
ATOM     35  C   UNL A   1      35.972  35.299  32.863  1.00  0.00     0.010 A 
ATOM     36  C   UNL A   1      36.081  33.918  32.669  1.00  0.00    -0.014 A 
BRANCH  36  37
ATOM     37  C   UNL A   1      37.401  33.292  32.516  1.00  0.00     0.031 A 
ATOM     38  C   UNL A   1      38.250  33.265  33.746  1.00  0.00     0.074 A 
ATOM     39  C   UNL A   1      37.772  32.558  31.444  1.00  0.00     0.049 A 
ATOM     40  N   UNL A   1      39.418  33.791  33.922  1.00  0.00    -0.248 NA
ATOM     41  C   UNL A   1      37.699  32.631  34.958  1.00  0.00     0.031 C 
ATOM     42  C   UNL A   1      36.940  32.184  30.297  1.00  0.00     0.029 A 
ATOM     43  N   UNL A   1      38.937  31.879  31.215  1.00  0.00    -0.354 N 
ATOM     44  C   UNL A   1      39.839  33.387  35.190  1.00  0.00     0.074 A 
ATOM     45  C   UNL A   1      38.690  32.807  35.833  1.00  0.00     0.031 C 
ATOM     46  C   UNL A   1      37.525  31.166  29.634  1.00  0.00     0.029 A 
ATOM     47  C   UNL A   1      38.845  30.943  30.195  1.00  0.00     0.049 A 
ATOM     48  H   UNL A   1      39.763  32.040  31.725  1.00  0.00     0.167 HD
ATOM     49  C   UNL A   1      41.163  33.325  35.505  1.00  0.00     0.037 A 
ATOM     50  C   UNL A   1      39.769  30.029  29.822  1.00  0.00     0.037 A 
ATOM     51  C   UNL A   1      41.961  34.028  34.535  1.00  0.00     0.049 A 
ATOM     52  C   UNL A   1      41.094  30.494  30.281  1.00  0.00     0.074 A 
ATOM     53  C   UNL A   1      42.222  35.333  34.187  1.00  0.00     0.029 A 
ATOM     54  N   UNL A   1      42.417  33.237  33.518  1.00  0.00    -0.354 N 
ATOM     55  N   UNL A   1      41.699  31.548  29.810  1.00  0.00    -0.248 NA
ATOM     56  C   UNL A   1      41.677  29.929  31.493  1.00  0.00     0.031 C 
ATOM     57  C   UNL A   1      42.642  35.299  32.822  1.00  0.00     0.029 A 
ATOM     58  C   UNL A   1      42.637  33.974  32.390  1.00  0.00     0.049 A 
ATOM     59  H   UNL A   1      42.566  32.266  33.590  1.00  0.00     0.167 HD
ATOM     60  C   UNL A   1      42.432  32.023  30.878  1.00  0.00     0.074 A 
ATOM     61  C   UNL A   1      42.547  30.896  31.792  1.00  0.00     0.031 C 
ATOM     62  C   UNL A   1      42.578  33.363  31.081  1.00  0.00     0.037 A 
BRANCH  49  63
ATOM     63  C   UNL A   1      41.807  32.241  36.355  1.00  0.00     0.057 A 
ATOM     64  C   UNL A   1      42.706  32.623  37.374  1.00  0.00     0.134 A 
ATOM     65  C   UNL A   1      41.873  30.882  35.988  1.00  0.00     0.134 A 
ATOM     66  F   UNL A   1      42.749  33.890  37.814  1.00  0.00    -0.206 F 
ATOM     67  C   UNL A   1      43.659  31.747  37.910  1.00  0.00     0.040 A 
ATOM     68  C   UNL A   1      42.789  29.987  36.554  1.00  0.00     0.040 A 
ATOM     69  F   UNL A   1      41.137  30.370  34.996  1.00  0.00    -0.206 F 
ATOM     70  C   UNL A   1      43.712  30.425  37.490  1.00  0.00     0.006 A 
ENDBRANCH  49  63
BRANCH  50  71
ATOM     71  C   UNL A   1      39.563  28.706  29.198  1.00  0.00     0.057 A 
ATOM     72  C   UNL A   1      40.058  28.418  27.921  1.00  0.00     0.134 A 
ATOM     73  C   UNL A   1      39.094  27.610  29.944  1.00  0.00     0.134 A 
ATOM     74  F   UNL A   1      40.559  29.391  27.147  1.00  0.00    -0.206 F 
ATOM     75  C   UNL A   1      40.113  27.110  27.422  1.00  0.00     0.040 A 
ATOM     76  C   UNL A   1      39.131  26.302  29.454  1.00  0.00     0.040 A 
ATOM     77  F   UNL A   1      38.661  27.764  31.204  1.00  0.00    -0.206 F 
ATOM     78  C   UNL A   1      39.658  26.046  28.194  1.00  0.00     0.006 A 
ENDBRANCH  50  71
BRANCH  62  79
ATOM     79  C   UNL A   1      42.449  34.260  29.889  1.00  0.00     0.057 A 
ATOM     80  C   UNL A   1      41.255  34.862  29.473  1.00  0.00     0.134 A 
ATOM     81  C   UNL A   1      43.609  34.579  29.174  1.00  0.00     0.134 A 
ATOM     82  F   UNL A   1      40.114  34.683  30.148  1.00  0.00    -0.206 F 
ATOM     83  C   UNL A   1      41.212  35.705  28.359  1.00  0.00     0.040 A 
ATOM     84  C   UNL A   1      43.585  35.446  28.082  1.00  0.00     0.040 A 
ATOM     85  F   UNL A   1      44.795  34.073  29.547  1.00  0.00    -0.206 F 
ATOM     86  C   UNL A   1      42.380  36.002  27.662  1.00  0.00     0.006 A 
ENDBRANCH  62  79
ENDBRANCH  36  37
ENDBRANCH  28  31
ENDBRANCH  26  27
ENDBRANCH  25  26
ENDBRANCH   1  25
TORSDOF 14
ENDMDL
