MODEL 1
REMARK VINA RESULT:     -11.8      0.000      0.000
REMARK SMILES COc1cc(Nc2cn[nH]c(=O)n2)c(C(=O)NCCCCNC(=O)c2ccc(-c3c4nc(c(-c5c(F)cccc5F)c5ccc([nH]5)c(-c5c(F)cccc5F)c5nc(c(-c6c(F)cccc6F)c6ccc3[nH]6)C=C5)C=C4)cc2)cc1OC
REMARK SMILES IDX 19 1 18 2 17 3 15 4 16 5 14 7 3 8 4 9 80 10 5 11 79 12 2 13
REMARK SMILES IDX 1 14 81 15 82 16 6 17 7 19 8 20 13 21 9 22 11 23 10 24 12 25
REMARK SMILES IDX 20 27 21 28 22 29 23 30 24 32 25 33 26 34 78 35 27 36 77 37
REMARK SMILES IDX 28 38 29 39 30 40 71 41 31 42 76 43 70 44 72 45 32 46 75 47
REMARK SMILES IDX 69 48 68 49 33 51 59 52 42 53 58 54 43 55 46 56 57 57 73 58
REMARK SMILES IDX 44 59 45 60 56 62 74 63 47 64 34 65 35 66 40 67 36 68 37 69
REMARK SMILES IDX 39 70 41 71 38 72 60 73 61 74 66 75 62 76 63 77 65 78 67 79
REMARK SMILES IDX 64 80 48 81 49 82 54 83 50 84 51 85 53 86 55 87 52 88
REMARK H PARENT 17 6 6 18 10 26 22 31 72 50 46 61
REMARK Flexibility Score: inf
ROOT
ATOM      1  C   UNL A   1      31.074  30.727  25.419  1.00  0.00     0.023 C 
ENDROOT
BRANCH   1   2
ATOM      2  C   UNL A   1      32.383  29.969  25.661  1.00  0.00     0.116 C 
BRANCH   2   3
ATOM      3  N   UNL A   1      33.069  29.723  24.405  1.00  0.00    -0.352 N 
ATOM      4  C   UNL A   1      33.274  28.575  23.681  1.00  0.00     0.253 C 
ATOM      5  O   UNL A   1      33.901  28.674  22.621  1.00  0.00    -0.269 OA
ATOM      6  H   UNL A   1      33.461  30.529  23.998  1.00  0.00     0.163 HD
BRANCH   4   7
ATOM      7  C   UNL A   1      32.730  27.235  24.068  1.00  0.00     0.067 A 
ATOM      8  C   UNL A   1      31.661  24.753  24.848  1.00  0.00     0.162 A 
ATOM      9  C   UNL A   1      31.007  25.536  23.885  1.00  0.00     0.077 A 
ATOM     10  C   UNL A   1      32.889  25.166  25.360  1.00  0.00     0.161 A 
ATOM     11  C   UNL A   1      31.539  26.766  23.456  1.00  0.00     0.057 A 
ATOM     12  C   UNL A   1      33.415  26.392  24.947  1.00  0.00     0.066 A 
BRANCH   8  13
ATOM     13  O   UNL A   1      31.154  23.524  25.177  1.00  0.00    -0.493 OA
ATOM     14  C   UNL A   1      30.410  23.557  26.395  1.00  0.00     0.278 C 
ENDBRANCH   8  13
BRANCH  10  15
ATOM     15  O   UNL A   1      33.707  24.500  26.233  1.00  0.00    -0.493 OA
ATOM     16  C   UNL A   1      34.978  24.092  25.745  1.00  0.00     0.278 C 
ENDBRANCH  10  15
BRANCH  11  17
ATOM     17  N   UNL A   1      30.939  27.511  22.406  1.00  0.00    -0.338 N 
ATOM     18  H   UNL A   1      31.342  27.416  21.513  1.00  0.00     0.168 HD
BRANCH  17  19
ATOM     19  C   UNL A   1      29.855  28.350  22.508  1.00  0.00     0.156 A 
ATOM     20  C   UNL A   1      30.086  29.776  22.055  1.00  0.00     0.180 A 
ATOM     21  N   UNL A   1      28.690  27.997  22.952  1.00  0.00    -0.173 NA
ATOM     22  N   UNL A   1      29.150  30.664  22.081  1.00  0.00    -0.176 NA
ATOM     23  C   UNL A   1      27.700  28.939  23.024  1.00  0.00     0.363 A 
ATOM     24  N   UNL A   1      27.962  30.216  22.570  1.00  0.00    -0.227 N 
ATOM     25  O   UNL A   1      26.585  28.684  23.475  1.00  0.00    -0.244 OA
ATOM     26  H   UNL A   1      27.220  30.862  22.604  1.00  0.00     0.195 HD
ENDBRANCH  17  19
ENDBRANCH  11  17
ENDBRANCH   4   7
ENDBRANCH   2   3
ENDBRANCH   1   2
BRANCH   1  27
ATOM     27  C   UNL A   1      30.991  32.080  26.131  1.00  0.00     0.023 C 
BRANCH  27  28
ATOM     28  C   UNL A   1      32.253  32.483  26.883  1.00  0.00     0.116 C 
BRANCH  28  29
ATOM     29  N   UNL A   1      32.179  33.818  27.457  1.00  0.00    -0.352 N 
ATOM     30  C   UNL A   1      33.046  34.417  28.337  1.00  0.00     0.251 C 
ATOM     31  H   UNL A   1      31.406  34.361  27.179  1.00  0.00     0.163 HD
ATOM     32  O   UNL A   1      32.799  35.522  28.808  1.00  0.00    -0.269 OA
BRANCH  30  33
ATOM     33  C   UNL A   1      34.264  33.690  28.748  1.00  0.00     0.039 A 
ATOM     34  C   UNL A   1      35.505  34.304  28.570  1.00  0.00     0.014 A 
ATOM     35  C   UNL A   1      34.168  32.439  29.361  1.00  0.00     0.014 A 
ATOM     36  C   UNL A   1      36.652  33.699  29.087  1.00  0.00     0.010 A 
ATOM     37  C   UNL A   1      35.303  31.864  29.923  1.00  0.00     0.010 A 
ATOM     38  C   UNL A   1      36.551  32.497  29.805  1.00  0.00    -0.014 A 
BRANCH  38  39
ATOM     39  C   UNL A   1      37.727  31.898  30.480  1.00  0.00     0.031 A 
ATOM     40  C   UNL A   1      38.525  30.828  29.792  1.00  0.00     0.074 A 
ATOM     41  C   UNL A   1      38.011  32.248  31.750  1.00  0.00     0.049 A 
ATOM     42  N   UNL A   1      39.501  30.096  30.264  1.00  0.00    -0.248 NA
ATOM     43  C   UNL A   1      38.161  30.525  28.400  1.00  0.00     0.031 C 
ATOM     44  C   UNL A   1      37.283  33.244  32.538  1.00  0.00     0.029 A 
ATOM     45  N   UNL A   1      38.975  31.785  32.609  1.00  0.00    -0.354 N 
ATOM     46  C   UNL A   1      39.849  29.228  29.238  1.00  0.00     0.074 A 
ATOM     47  C   UNL A   1      38.962  29.504  28.128  1.00  0.00     0.031 C 
ATOM     48  C   UNL A   1      37.834  33.326  33.760  1.00  0.00     0.029 A 
ATOM     49  C   UNL A   1      38.925  32.361  33.854  1.00  0.00     0.049 A 
ATOM     50  H   UNL A   1      39.641  31.105  32.356  1.00  0.00     0.167 HD
ATOM     51  C   UNL A   1      40.828  28.294  29.221  1.00  0.00     0.037 A 
ATOM     52  C   UNL A   1      39.664  32.126  34.955  1.00  0.00     0.037 A 
ATOM     53  C   UNL A   1      41.737  28.050  30.310  1.00  0.00     0.049 A 
ATOM     54  C   UNL A   1      40.740  31.079  34.907  1.00  0.00     0.074 A 
ATOM     55  C   UNL A   1      42.823  27.194  30.351  1.00  0.00     0.029 A 
ATOM     56  N   UNL A   1      41.662  28.664  31.551  1.00  0.00    -0.354 N 
ATOM     57  N   UNL A   1      41.107  30.315  33.907  1.00  0.00    -0.248 NA
ATOM     58  C   UNL A   1      41.503  30.856  36.144  1.00  0.00     0.031 C 
ATOM     59  C   UNL A   1      43.384  27.260  31.630  1.00  0.00     0.029 A 
ATOM     60  C   UNL A   1      42.666  28.184  32.375  1.00  0.00     0.049 A 
ATOM     61  H   UNL A   1      40.994  29.340  31.808  1.00  0.00     0.167 HD
ATOM     62  C   UNL A   1      42.155  29.541  34.385  1.00  0.00     0.074 A 
ATOM     63  C   UNL A   1      42.373  29.933  35.762  1.00  0.00     0.031 C 
ATOM     64  C   UNL A   1      42.873  28.589  33.740  1.00  0.00     0.037 A 
BRANCH  51  65
ATOM     65  C   UNL A   1      40.973  27.463  27.983  1.00  0.00     0.057 A 
ATOM     66  C   UNL A   1      41.777  27.870  26.911  1.00  0.00     0.134 A 
ATOM     67  C   UNL A   1      40.340  26.218  27.882  1.00  0.00     0.134 A 
ATOM     68  F   UNL A   1      42.401  29.057  26.942  1.00  0.00    -0.206 F 
ATOM     69  C   UNL A   1      41.933  27.074  25.774  1.00  0.00     0.040 A 
ATOM     70  C   UNL A   1      40.505  25.405  26.761  1.00  0.00     0.040 A 
ATOM     71  F   UNL A   1      39.559  25.769  28.876  1.00  0.00    -0.206 F 
ATOM     72  C   UNL A   1      41.301  25.835  25.701  1.00  0.00     0.006 A 
ENDBRANCH  51  65
BRANCH  52  73
ATOM     73  C   UNL A   1      39.421  32.898  36.198  1.00  0.00     0.057 A 
ATOM     74  C   UNL A   1      38.495  32.455  37.148  1.00  0.00     0.134 A 
ATOM     75  C   UNL A   1      40.086  34.103  36.455  1.00  0.00     0.134 A 
ATOM     76  F   UNL A   1      37.814  31.318  36.945  1.00  0.00    -0.206 F 
ATOM     77  C   UNL A   1      38.223  33.190  38.302  1.00  0.00     0.040 A 
ATOM     78  C   UNL A   1      39.839  34.838  37.615  1.00  0.00     0.040 A 
ATOM     79  F   UNL A   1      40.988  34.579  35.584  1.00  0.00    -0.206 F 
ATOM     80  C   UNL A   1      38.900  34.385  38.540  1.00  0.00     0.006 A 
ENDBRANCH  52  73
BRANCH  64  81
ATOM     81  C   UNL A   1      43.977  27.930  34.507  1.00  0.00     0.057 A 
ATOM     82  C   UNL A   1      43.781  26.720  35.183  1.00  0.00     0.134 A 
ATOM     83  C   UNL A   1      45.260  28.490  34.537  1.00  0.00     0.134 A 
ATOM     84  F   UNL A   1      42.570  26.141  35.204  1.00  0.00    -0.206 F 
ATOM     85  C   UNL A   1      44.819  26.096  35.875  1.00  0.00     0.040 A 
ATOM     86  C   UNL A   1      46.312  27.865  35.208  1.00  0.00     0.040 A 
ATOM     87  F   UNL A   1      45.513  29.646  33.904  1.00  0.00    -0.206 F 
ATOM     88  C   UNL A   1      46.091  26.667  35.883  1.00  0.00     0.006 A 
ENDBRANCH  64  81
ENDBRANCH  38  39
ENDBRANCH  30  33
ENDBRANCH  28  29
ENDBRANCH  27  28
ENDBRANCH   1  27
TORSDOF 15
ENDMDL
MODEL 2
REMARK VINA RESULT:     -11.7      5.500     10.433
REMARK SMILES COc1cc(Nc2cn[nH]c(=O)n2)c(C(=O)NCCCCNC(=O)c2ccc(-c3c4nc(c(-c5c(F)cccc5F)c5ccc([nH]5)c(-c5c(F)cccc5F)c5nc(c(-c6c(F)cccc6F)c6ccc3[nH]6)C=C5)C=C4)cc2)cc1OC
REMARK SMILES IDX 19 1 18 2 17 3 15 4 16 5 14 7 3 8 4 9 80 10 5 11 79 12 2 13
REMARK SMILES IDX 1 14 81 15 82 16 6 17 7 19 8 20 13 21 9 22 11 23 10 24 12 25
REMARK SMILES IDX 20 27 21 28 22 29 23 30 24 32 25 33 26 34 78 35 27 36 77 37
REMARK SMILES IDX 28 38 29 39 30 40 71 41 31 42 76 43 70 44 72 45 32 46 75 47
REMARK SMILES IDX 69 48 68 49 33 51 59 52 42 53 58 54 43 55 46 56 57 57 73 58
REMARK SMILES IDX 44 59 45 60 56 62 74 63 47 64 34 65 35 66 40 67 36 68 37 69
REMARK SMILES IDX 39 70 41 71 38 72 60 73 61 74 66 75 62 76 63 77 65 78 67 79
REMARK SMILES IDX 64 80 48 81 49 82 54 83 50 84 51 85 53 86 55 87 52 88
REMARK H PARENT 17 6 6 18 10 26 22 31 72 50 46 61
REMARK Flexibility Score: inf
ROOT
ATOM      1  C   UNL A   1      37.188  21.466  24.525  1.00  0.00     0.023 C 
ENDROOT
BRANCH   1   2
ATOM      2  C   UNL A   1      36.905  22.468  25.649  1.00  0.00     0.116 C 
BRANCH   2   3
ATOM      3  N   UNL A   1      35.960  21.913  26.600  1.00  0.00    -0.352 N 
ATOM      4  C   UNL A   1      34.593  21.998  26.692  1.00  0.00     0.253 C 
ATOM      5  O   UNL A   1      34.046  21.402  27.625  1.00  0.00    -0.269 OA
ATOM      6  H   UNL A   1      36.377  21.377  27.313  1.00  0.00     0.163 HD
BRANCH   4   7
ATOM      7  C   UNL A   1      33.732  22.712  25.697  1.00  0.00     0.067 A 
ATOM      8  C   UNL A   1      32.158  24.023  23.769  1.00  0.00     0.162 A 
ATOM      9  C   UNL A   1      31.878  22.698  24.132  1.00  0.00     0.077 A 
ATOM     10  C   UNL A   1      33.169  24.723  24.425  1.00  0.00     0.161 A 
ATOM     11  C   UNL A   1      32.631  22.032  25.116  1.00  0.00     0.057 A 
ATOM     12  C   UNL A   1      33.927  24.063  25.395  1.00  0.00     0.066 A 
BRANCH   8  13
ATOM     13  O   UNL A   1      31.350  24.662  22.867  1.00  0.00    -0.493 OA
ATOM     14  C   UNL A   1      30.203  25.242  23.488  1.00  0.00     0.278 C 
ENDBRANCH   8  13
BRANCH  10  15
ATOM     15  O   UNL A   1      33.526  26.035  24.269  1.00  0.00    -0.493 OA
ATOM     16  C   UNL A   1      33.102  26.946  25.275  1.00  0.00     0.278 C 
ENDBRANCH  10  15
BRANCH  11  17
ATOM     17  N   UNL A   1      32.285  20.729  25.564  1.00  0.00    -0.338 N 
ATOM     18  H   UNL A   1      31.899  20.662  26.467  1.00  0.00     0.168 HD
BRANCH  17  19
ATOM     19  C   UNL A   1      32.432  19.553  24.866  1.00  0.00     0.156 A 
ATOM     20  C   UNL A   1      32.791  18.340  25.698  1.00  0.00     0.180 A 
ATOM     21  N   UNL A   1      32.284  19.434  23.585  1.00  0.00    -0.173 NA
ATOM     22  N   UNL A   1      32.943  17.171  25.175  1.00  0.00    -0.176 NA
ATOM     23  C   UNL A   1      32.483  18.207  23.011  1.00  0.00     0.363 A 
ATOM     24  N   UNL A   1      32.780  17.132  23.824  1.00  0.00    -0.227 N 
ATOM     25  O   UNL A   1      32.401  18.032  21.797  1.00  0.00    -0.244 OA
ATOM     26  H   UNL A   1      32.885  16.258  23.385  1.00  0.00     0.195 HD
ENDBRANCH  17  19
ENDBRANCH  11  17
ENDBRANCH   4   7
ENDBRANCH   2   3
ENDBRANCH   1   2
BRANCH   1  27
ATOM     27  C   UNL A   1      37.896  20.189  24.985  1.00  0.00     0.023 C 
BRANCH  27  28
ATOM     28  C   UNL A   1      39.189  20.420  25.756  1.00  0.00     0.116 C 
BRANCH  28  29
ATOM     29  N   UNL A   1      40.057  19.252  25.787  1.00  0.00    -0.352 N 
ATOM     30  C   UNL A   1      41.395  19.191  26.089  1.00  0.00     0.251 C 
ATOM     31  H   UNL A   1      39.628  18.394  25.563  1.00  0.00     0.163 HD
ATOM     32  O   UNL A   1      42.015  18.138  25.981  1.00  0.00    -0.269 OA
BRANCH  30  33
ATOM     33  C   UNL A   1      42.093  20.425  26.501  1.00  0.00     0.039 A 
ATOM     34  C   UNL A   1      42.725  21.197  25.524  1.00  0.00     0.014 A 
ATOM     35  C   UNL A   1      42.066  20.843  27.833  1.00  0.00     0.014 A 
ATOM     36  C   UNL A   1      43.260  22.439  25.869  1.00  0.00     0.010 A 
ATOM     37  C   UNL A   1      42.551  22.103  28.164  1.00  0.00     0.010 A 
ATOM     38  C   UNL A   1      43.136  22.918  27.183  1.00  0.00    -0.014 A 
BRANCH  38  39
ATOM     39  C   UNL A   1      43.573  24.286  27.551  1.00  0.00     0.031 A 
ATOM     40  C   UNL A   1      42.558  25.319  27.948  1.00  0.00     0.074 A 
ATOM     41  C   UNL A   1      44.872  24.622  27.429  1.00  0.00     0.049 A 
ATOM     42  N   UNL A   1      42.727  26.596  28.178  1.00  0.00    -0.248 NA
ATOM     43  C   UNL A   1      41.166  24.861  28.079  1.00  0.00     0.031 C 
ATOM     44  C   UNL A   1      45.946  23.718  27.012  1.00  0.00     0.029 A 
ATOM     45  N   UNL A   1      45.506  25.823  27.621  1.00  0.00    -0.354 N 
ATOM     46  C   UNL A   1      41.463  27.099  28.453  1.00  0.00     0.074 A 
ATOM     47  C   UNL A   1      40.532  25.997  28.334  1.00  0.00     0.031 C 
ATOM     48  C   UNL A   1      47.106  24.394  26.991  1.00  0.00     0.029 A 
ATOM     49  C   UNL A   1      46.853  25.784  27.353  1.00  0.00     0.049 A 
ATOM     50  H   UNL A   1      45.040  26.636  27.923  1.00  0.00     0.167 HD
ATOM     51  C   UNL A   1      41.114  28.363  28.786  1.00  0.00     0.037 A 
ATOM     52  C   UNL A   1      47.776  26.764  27.379  1.00  0.00     0.037 A 
ATOM     53  C   UNL A   1      42.047  29.447  28.946  1.00  0.00     0.049 A 
ATOM     54  C   UNL A   1      47.357  28.159  27.747  1.00  0.00     0.074 A 
ATOM     55  C   UNL A   1      41.801  30.739  29.377  1.00  0.00     0.029 A 
ATOM     56  N   UNL A   1      43.404  29.365  28.679  1.00  0.00    -0.354 N 
ATOM     57  N   UNL A   1      46.170  28.606  28.076  1.00  0.00    -0.248 NA
ATOM     58  C   UNL A   1      48.407  29.188  27.743  1.00  0.00     0.031 C 
ATOM     59  C   UNL A   1      43.004  31.451  29.334  1.00  0.00     0.029 A 
ATOM     60  C   UNL A   1      44.005  30.592  28.908  1.00  0.00     0.049 A 
ATOM     61  H   UNL A   1      43.872  28.555  28.371  1.00  0.00     0.167 HD
ATOM     62  C   UNL A   1      46.333  29.959  28.341  1.00  0.00     0.074 A 
ATOM     63  C   UNL A   1      47.736  30.259  28.143  1.00  0.00     0.031 C 
ATOM     64  C   UNL A   1      45.403  30.871  28.713  1.00  0.00     0.037 A 
BRANCH  51  65
ATOM     65  C   UNL A   1      39.660  28.647  29.005  1.00  0.00     0.057 A 
ATOM     66  C   UNL A   1      39.051  28.464  30.254  1.00  0.00     0.134 A 
ATOM     67  C   UNL A   1      38.868  29.155  27.967  1.00  0.00     0.134 A 
ATOM     68  F   UNL A   1      39.752  27.969  31.285  1.00  0.00    -0.206 F 
ATOM     69  C   UNL A   1      37.703  28.762  30.458  1.00  0.00     0.040 A 
ATOM     70  C   UNL A   1      37.525  29.476  28.165  1.00  0.00     0.040 A 
ATOM     71  F   UNL A   1      39.392  29.356  26.749  1.00  0.00    -0.206 F 
ATOM     72  C   UNL A   1      36.939  29.276  29.413  1.00  0.00     0.006 A 
ENDBRANCH  51  65
BRANCH  52  73
ATOM     73  C   UNL A   1      49.192  26.465  27.054  1.00  0.00     0.057 A 
ATOM     74  C   UNL A   1      49.682  26.642  25.755  1.00  0.00     0.134 A 
ATOM     75  C   UNL A   1      50.079  25.977  28.020  1.00  0.00     0.134 A 
ATOM     76  F   UNL A   1      48.872  27.087  24.784  1.00  0.00    -0.206 F 
ATOM     77  C   UNL A   1      50.999  26.326  25.422  1.00  0.00     0.040 A 
ATOM     78  C   UNL A   1      51.405  25.676  27.705  1.00  0.00     0.040 A 
ATOM     79  F   UNL A   1      49.670  25.790  29.283  1.00  0.00    -0.206 F 
ATOM     80  C   UNL A   1      51.867  25.844  26.401  1.00  0.00     0.006 A 
ENDBRANCH  52  73
BRANCH  64  81
ATOM     81  C   UNL A   1      45.879  32.270  28.959  1.00  0.00     0.057 A 
ATOM     82  C   UNL A   1      46.355  32.674  30.211  1.00  0.00     0.134 A 
ATOM     83  C   UNL A   1      45.898  33.210  27.922  1.00  0.00     0.134 A 
ATOM     84  F   UNL A   1      46.348  31.823  31.249  1.00  0.00    -0.206 F 
ATOM     85  C   UNL A   1      46.822  33.971  30.428  1.00  0.00     0.040 A 
ATOM     86  C   UNL A   1      46.382  34.503  28.120  1.00  0.00     0.040 A 
ATOM     87  F   UNL A   1      45.460  32.882  26.697  1.00  0.00    -0.206 F 
ATOM     88  C   UNL A   1      46.841  34.888  29.378  1.00  0.00     0.006 A 
ENDBRANCH  64  81
ENDBRANCH  38  39
ENDBRANCH  30  33
ENDBRANCH  28  29
ENDBRANCH  27  28
ENDBRANCH   1  27
TORSDOF 15
ENDMDL
MODEL 3
REMARK VINA RESULT:     -11.6      0.948      6.238
REMARK SMILES COc1cc(Nc2cn[nH]c(=O)n2)c(C(=O)NCCCCNC(=O)c2ccc(-c3c4nc(c(-c5c(F)cccc5F)c5ccc([nH]5)c(-c5c(F)cccc5F)c5nc(c(-c6c(F)cccc6F)c6ccc3[nH]6)C=C5)C=C4)cc2)cc1OC
REMARK SMILES IDX 19 1 18 2 17 3 15 4 16 5 14 7 3 8 4 9 80 10 5 11 79 12 2 13
REMARK SMILES IDX 1 14 81 15 82 16 6 17 7 19 8 20 13 21 9 22 11 23 10 24 12 25
REMARK SMILES IDX 20 27 21 28 22 29 23 30 24 32 25 33 26 34 78 35 27 36 77 37
REMARK SMILES IDX 28 38 29 39 30 40 71 41 31 42 76 43 70 44 72 45 32 46 75 47
REMARK SMILES IDX 69 48 68 49 33 51 59 52 42 53 58 54 43 55 46 56 57 57 73 58
REMARK SMILES IDX 44 59 45 60 56 62 74 63 47 64 34 65 35 66 40 67 36 68 37 69
REMARK SMILES IDX 39 70 41 71 38 72 60 73 61 74 66 75 62 76 63 77 65 78 67 79
REMARK SMILES IDX 64 80 48 81 49 82 54 83 50 84 51 85 53 86 55 87 52 88
REMARK H PARENT 17 6 6 18 10 26 22 31 72 50 46 61
REMARK Flexibility Score: inf
ROOT
ATOM      1  C   UNL A   1      31.761  30.348  26.612  1.00  0.00     0.023 C 
ENDROOT
BRANCH   1   2
ATOM      2  C   UNL A   1      33.179  29.849  26.321  1.00  0.00     0.116 C 
BRANCH   2   3
ATOM      3  N   UNL A   1      33.433  29.840  24.891  1.00  0.00    -0.352 N 
ATOM      4  C   UNL A   1      33.257  28.872  23.934  1.00  0.00     0.253 C 
ATOM      5  O   UNL A   1      33.559  29.159  22.772  1.00  0.00    -0.269 OA
ATOM      6  H   UNL A   1      33.801  30.685  24.544  1.00  0.00     0.163 HD
BRANCH   4   7
ATOM      7  C   UNL A   1      32.664  27.525  24.208  1.00  0.00     0.067 A 
ATOM      8  C   UNL A   1      31.501  25.027  24.774  1.00  0.00     0.162 A 
ATOM      9  C   UNL A   1      30.927  25.876  23.818  1.00  0.00     0.077 A 
ATOM     10  C   UNL A   1      32.700  25.384  25.388  1.00  0.00     0.161 A 
ATOM     11  C   UNL A   1      31.508  27.117  23.494  1.00  0.00     0.057 A 
ATOM     12  C   UNL A   1      33.275  26.619  25.080  1.00  0.00     0.066 A 
BRANCH   8  13
ATOM     13  O   UNL A   1      30.952  23.793  24.999  1.00  0.00    -0.493 OA
ATOM     14  C   UNL A   1      31.403  22.822  24.056  1.00  0.00     0.278 C 
ENDBRANCH   8  13
BRANCH  10  15
ATOM     15  O   UNL A   1      33.446  24.653  26.272  1.00  0.00    -0.493 OA
ATOM     16  C   UNL A   1      34.569  23.954  25.750  1.00  0.00     0.278 C 
ENDBRANCH  10  15
BRANCH  11  17
ATOM     17  N   UNL A   1      30.992  27.931  22.452  1.00  0.00    -0.338 N 
ATOM     18  H   UNL A   1      31.552  28.025  21.648  1.00  0.00     0.168 HD
BRANCH  17  19
ATOM     19  C   UNL A   1      29.792  28.603  22.450  1.00  0.00     0.156 A 
ATOM     20  C   UNL A   1      29.789  29.933  21.727  1.00  0.00     0.180 A 
ATOM     21  N   UNL A   1      28.707  28.173  23.010  1.00  0.00    -0.173 NA
ATOM     22  N   UNL A   1      28.727  30.660  21.633  1.00  0.00    -0.176 NA
ATOM     23  C   UNL A   1      27.583  28.953  22.954  1.00  0.00     0.363 A 
ATOM     24  N   UNL A   1      27.633  30.143  22.257  1.00  0.00    -0.227 N 
ATOM     25  O   UNL A   1      26.532  28.626  23.501  1.00  0.00    -0.244 OA
ATOM     26  H   UNL A   1      26.801  30.665  22.207  1.00  0.00     0.195 HD
ENDBRANCH  17  19
ENDBRANCH  11  17
ENDBRANCH   4   7
ENDBRANCH   2   3
ENDBRANCH   1   2
BRANCH   1  27
ATOM     27  C   UNL A   1      31.614  31.872  26.589  1.00  0.00     0.023 C 
BRANCH  27  28
ATOM     28  C   UNL A   1      32.752  32.631  27.259  1.00  0.00     0.116 C 
BRANCH  28  29
ATOM     29  N   UNL A   1      32.411  34.008  27.587  1.00  0.00    -0.352 N 
ATOM     30  C   UNL A   1      32.989  34.831  28.522  1.00  0.00     0.251 C 
ATOM     31  H   UNL A   1      31.668  34.399  27.072  1.00  0.00     0.163 HD
ATOM     32  O   UNL A   1      32.528  35.944  28.750  1.00  0.00    -0.269 OA
BRANCH  30  33
ATOM     33  C   UNL A   1      34.152  34.338  29.287  1.00  0.00     0.039 A 
ATOM     34  C   UNL A   1      33.929  33.679  30.498  1.00  0.00     0.014 A 
ATOM     35  C   UNL A   1      35.445  34.474  28.777  1.00  0.00     0.014 A 
ATOM     36  C   UNL A   1      34.999  33.077  31.160  1.00  0.00     0.010 A 
ATOM     37  C   UNL A   1      36.501  33.827  29.410  1.00  0.00     0.010 A 
ATOM     38  C   UNL A   1      36.284  33.110  30.597  1.00  0.00    -0.014 A 
BRANCH  38  39
ATOM     39  C   UNL A   1      37.415  32.368  31.205  1.00  0.00     0.031 A 
ATOM     40  C   UNL A   1      38.038  32.860  32.479  1.00  0.00     0.074 A 
ATOM     41  C   UNL A   1      37.942  31.313  30.554  1.00  0.00     0.049 A 
ATOM     42  N   UNL A   1      39.110  32.428  33.094  1.00  0.00    -0.248 NA
ATOM     43  C   UNL A   1      37.386  34.004  33.135  1.00  0.00     0.031 C 
ATOM     44  C   UNL A   1      37.450  30.766  29.287  1.00  0.00     0.029 A 
ATOM     45  N   UNL A   1      39.023  30.525  30.857  1.00  0.00    -0.354 N 
ATOM     46  C   UNL A   1      39.276  33.262  34.190  1.00  0.00     0.074 A 
ATOM     47  C   UNL A   1      38.213  34.243  34.143  1.00  0.00     0.031 C 
ATOM     48  C   UNL A   1      38.220  29.726  28.929  1.00  0.00     0.029 A 
ATOM     49  C   UNL A   1      39.281  29.558  29.916  1.00  0.00     0.049 A 
ATOM     50  H   UNL A   1      39.563  30.642  31.672  1.00  0.00     0.167 HD
ATOM     51  C   UNL A   1      40.223  33.205  35.156  1.00  0.00     0.037 A 
ATOM     52  C   UNL A   1      40.273  28.650  29.848  1.00  0.00     0.037 A 
ATOM     53  C   UNL A   1      41.253  32.203  35.224  1.00  0.00     0.049 A 
ATOM     54  C   UNL A   1      41.313  28.615  30.932  1.00  0.00     0.074 A 
ATOM     55  C   UNL A   1      42.198  32.004  36.215  1.00  0.00     0.029 A 
ATOM     56  N   UNL A   1      41.474  31.232  34.259  1.00  0.00    -0.354 N 
ATOM     57  N   UNL A   1      41.416  29.364  32.002  1.00  0.00    -0.248 NA
ATOM     58  C   UNL A   1      42.379  27.612  30.794  1.00  0.00     0.031 C 
ATOM     59  C   UNL A   1      43.015  30.936  35.833  1.00  0.00     0.029 A 
ATOM     60  C   UNL A   1      42.558  30.449  34.618  1.00  0.00     0.049 A 
ATOM     61  H   UNL A   1      40.939  31.117  33.440  1.00  0.00     0.167 HD
ATOM     62  C   UNL A   1      42.540  28.908  32.677  1.00  0.00     0.074 A 
ATOM     63  C   UNL A   1      43.081  27.811  31.900  1.00  0.00     0.031 C 
ATOM     64  C   UNL A   1      43.077  29.358  33.837  1.00  0.00     0.037 A 
BRANCH  51  65
ATOM     65  C   UNL A   1      40.190  34.256  36.222  1.00  0.00     0.057 A 
ATOM     66  C   UNL A   1      40.897  35.459  36.096  1.00  0.00     0.134 A 
ATOM     67  C   UNL A   1      39.404  34.084  37.369  1.00  0.00     0.134 A 
ATOM     68  F   UNL A   1      41.677  35.679  35.027  1.00  0.00    -0.206 F 
ATOM     69  C   UNL A   1      40.834  36.447  37.080  1.00  0.00     0.040 A 
ATOM     70  C   UNL A   1      39.317  35.073  38.348  1.00  0.00     0.040 A 
ATOM     71  F   UNL A   1      38.701  32.956  37.548  1.00  0.00    -0.206 F 
ATOM     72  C   UNL A   1      40.037  36.258  38.206  1.00  0.00     0.006 A 
ENDBRANCH  51  65
BRANCH  52  73
ATOM     73  C   UNL A   1      40.331  27.690  28.719  1.00  0.00     0.057 A 
ATOM     74  C   UNL A   1      41.075  27.980  27.570  1.00  0.00     0.134 A 
ATOM     75  C   UNL A   1      39.631  26.479  28.748  1.00  0.00     0.134 A 
ATOM     76  F   UNL A   1      41.750  29.136  27.477  1.00  0.00    -0.206 F 
ATOM     77  C   UNL A   1      41.107  27.109  26.481  1.00  0.00     0.040 A 
ATOM     78  C   UNL A   1      39.671  25.589  27.674  1.00  0.00     0.040 A 
ATOM     79  F   UNL A   1      38.903  26.143  29.823  1.00  0.00    -0.206 F 
ATOM     80  C   UNL A   1      40.405  25.906  26.533  1.00  0.00     0.006 A 
ENDBRANCH  52  73
BRANCH  64  81
ATOM     81  C   UNL A   1      44.293  28.647  34.348  1.00  0.00     0.057 A 
ATOM     82  C   UNL A   1      45.585  29.090  34.045  1.00  0.00     0.134 A 
ATOM     83  C   UNL A   1      44.168  27.531  35.185  1.00  0.00     0.134 A 
ATOM     84  F   UNL A   1      45.770  30.145  33.236  1.00  0.00    -0.206 F 
ATOM     85  C   UNL A   1      46.714  28.439  34.544  1.00  0.00     0.040 A 
ATOM     86  C   UNL A   1      45.288  26.884  35.708  1.00  0.00     0.040 A 
ATOM     87  F   UNL A   1      42.956  27.061  35.517  1.00  0.00    -0.206 F 
ATOM     88  C   UNL A   1      46.565  27.336  35.384  1.00  0.00     0.006 A 
ENDBRANCH  64  81
ENDBRANCH  38  39
ENDBRANCH  30  33
ENDBRANCH  28  29
ENDBRANCH  27  28
ENDBRANCH   1  27
TORSDOF 15
ENDMDL
