MODEL 1
REMARK VINA RESULT:     -10.7      0.000      0.000
REMARK SMILES CC[C@H](Oc1c(C)cc(Br)cc1N)C(=O)NCCCCNC(=O)c1ccc(-c2c3nc(c(-c4c(F)cccc4F)c4ccc([nH]4)c(-c4c(F)cccc4F)c4nc(c(-c5c(F)cccc5F)c5ccc2[nH]5)C=C4)C=C3)cc1
REMARK SMILES IDX 18 1 17 2 16 3 14 4 15 5 3 7 2 8 1 9 4 10 5 11 6 12 12 13
REMARK SMILES IDX 7 14 8 15 11 16 9 17 10 18 13 19 19 22 20 23 21 24 22 25
REMARK SMILES IDX 23 27 24 28 25 29 77 30 26 31 76 32 27 33 28 34 29 35 70 36
REMARK SMILES IDX 30 37 75 38 69 39 71 40 31 41 74 42 68 43 67 44 32 46 58 47
REMARK SMILES IDX 41 48 57 49 42 50 45 51 56 52 72 53 43 54 44 55 55 57 73 58
REMARK SMILES IDX 46 59 33 60 34 61 39 62 35 63 36 64 38 65 40 66 37 67 59 68
REMARK SMILES IDX 60 69 65 70 61 71 62 72 64 73 66 74 63 75 47 76 48 77 53 78
REMARK SMILES IDX 49 79 50 80 52 81 54 82 51 83
REMARK H PARENT 16 6 13 20 13 21 21 26 71 45 45 56
REMARK Flexibility Score: inf
ROOT
ATOM      1  C   UNL A   1      31.781  30.302  25.975  1.00  0.00     0.023 C 
ENDROOT
BRANCH   1   2
ATOM      2  C   UNL A   1      31.993  29.162  26.963  1.00  0.00     0.116 C 
BRANCH   2   3
ATOM      3  N   UNL A   1      33.046  28.256  26.562  1.00  0.00    -0.353 N 
ATOM      4  C   UNL A   1      32.963  27.006  26.017  1.00  0.00     0.261 C 
ATOM      5  O   UNL A   1      34.032  26.455  25.725  1.00  0.00    -0.271 OA
ATOM      6  H   UNL A   1      33.961  28.590  26.703  1.00  0.00     0.163 HD
BRANCH   4   7
ATOM      7  C   UNL A   1      31.611  26.286  25.767  1.00  0.00     0.261 C 
BRANCH   7   8
ATOM      8  C   UNL A   1      31.536  24.929  26.501  1.00  0.00     0.052 C 
ATOM      9  C   UNL A   1      31.388  23.669  25.654  1.00  0.00     0.008 C 
ENDBRANCH   7   8
BRANCH   7  10
ATOM     10  O   UNL A   1      31.425  26.266  24.360  1.00  0.00    -0.478 OA
BRANCH  10  11
ATOM     11  C   UNL A   1      30.814  27.270  23.649  1.00  0.00     0.146 A 
ATOM     12  C   UNL A   1      31.387  28.361  22.967  1.00  0.00    -0.006 A 
ATOM     13  C   UNL A   1      29.397  27.116  23.647  1.00  0.00     0.076 A 
ATOM     14  C   UNL A   1      32.852  28.614  22.758  1.00  0.00     0.048 C 
ATOM     15  C   UNL A   1      30.524  29.342  22.428  1.00  0.00     0.023 A 
ATOM     16  C   UNL A   1      28.573  28.111  23.118  1.00  0.00     0.045 A 
ATOM     17  C   UNL A   1      29.140  29.222  22.516  1.00  0.00     0.020 A 
ATOM     18  Br  UNL A   1      28.032  30.580  21.806  1.00  0.00    -0.051 Br
BRANCH  13  19
ATOM     19  N   UNL A   1      28.804  26.039  24.323  1.00  0.00    -0.396 N 
ATOM     20  H   UNL A   1      29.359  25.290  24.638  1.00  0.00     0.156 HD
ATOM     21  H   UNL A   1      27.832  26.033  24.481  1.00  0.00     0.156 HD
ENDBRANCH  13  19
ENDBRANCH  10  11
ENDBRANCH   7  10
ENDBRANCH   4   7
ENDBRANCH   2   3
ENDBRANCH   1   2
BRANCH   1  22
ATOM     22  C   UNL A   1      31.444  31.652  26.603  1.00  0.00     0.023 C 
BRANCH  22  23
ATOM     23  C   UNL A   1      32.635  32.460  27.111  1.00  0.00     0.116 C 
BRANCH  23  24
ATOM     24  N   UNL A   1      32.308  33.829  27.479  1.00  0.00    -0.352 N 
ATOM     25  C   UNL A   1      32.956  34.645  28.378  1.00  0.00     0.251 C 
ATOM     26  H   UNL A   1      31.525  34.221  27.028  1.00  0.00     0.163 HD
ATOM     27  O   UNL A   1      32.528  35.760  28.639  1.00  0.00    -0.269 OA
BRANCH  25  28
ATOM     28  C   UNL A   1      34.160  34.132  29.061  1.00  0.00     0.039 A 
ATOM     29  C   UNL A   1      34.001  33.267  30.145  1.00  0.00     0.014 A 
ATOM     30  C   UNL A   1      35.435  34.461  28.591  1.00  0.00     0.014 A 
ATOM     31  C   UNL A   1      35.124  32.667  30.715  1.00  0.00     0.010 A 
ATOM     32  C   UNL A   1      36.547  33.820  29.123  1.00  0.00     0.010 A 
ATOM     33  C   UNL A   1      36.401  32.913  30.184  1.00  0.00    -0.014 A 
BRANCH  33  34
ATOM     34  C   UNL A   1      37.602  32.237  30.727  1.00  0.00     0.031 A 
ATOM     35  C   UNL A   1      38.264  32.773  31.961  1.00  0.00     0.074 A 
ATOM     36  C   UNL A   1      38.126  31.181  30.078  1.00  0.00     0.049 A 
ATOM     37  N   UNL A   1      39.371  32.386  32.541  1.00  0.00    -0.248 NA
ATOM     38  C   UNL A   1      37.604  33.912  32.618  1.00  0.00     0.031 C 
ATOM     39  C   UNL A   1      37.580  30.580  28.860  1.00  0.00     0.029 A 
ATOM     40  N   UNL A   1      39.238  30.427  30.354  1.00  0.00    -0.354 N 
ATOM     41  C   UNL A   1      39.541  33.233  33.627  1.00  0.00     0.074 A 
ATOM     42  C   UNL A   1      38.457  34.189  33.594  1.00  0.00     0.031 C 
ATOM     43  C   UNL A   1      38.342  29.529  28.512  1.00  0.00     0.029 A 
ATOM     44  C   UNL A   1      39.446  29.407  29.459  1.00  0.00     0.049 A 
ATOM     45  H   UNL A   1      39.830  30.600  31.120  1.00  0.00     0.167 HD
ATOM     46  C   UNL A   1      40.502  33.201  34.581  1.00  0.00     0.037 A 
ATOM     47  C   UNL A   1      40.419  28.479  29.410  1.00  0.00     0.037 A 
ATOM     48  C   UNL A   1      41.577  32.245  34.615  1.00  0.00     0.049 A 
ATOM     49  C   UNL A   1      41.496  28.485  30.457  1.00  0.00     0.074 A 
ATOM     50  C   UNL A   1      42.600  32.129  35.538  1.00  0.00     0.029 A 
ATOM     51  N   UNL A   1      41.761  31.235  33.681  1.00  0.00    -0.354 N 
ATOM     52  N   UNL A   1      41.645  29.289  31.482  1.00  0.00    -0.248 NA
ATOM     53  C   UNL A   1      42.540  27.458  30.340  1.00  0.00     0.031 C 
ATOM     54  C   UNL A   1      43.419  31.062  35.150  1.00  0.00     0.029 A 
ATOM     55  C   UNL A   1      42.884  30.493  34.006  1.00  0.00     0.049 A 
ATOM     56  H   UNL A   1      41.180  31.071  32.904  1.00  0.00     0.167 HD
ATOM     57  C   UNL A   1      42.783  28.852  32.146  1.00  0.00     0.074 A 
ATOM     58  C   UNL A   1      43.281  27.706  31.412  1.00  0.00     0.031 C 
ATOM     59  C   UNL A   1      43.362  29.353  33.264  1.00  0.00     0.037 A 
BRANCH  46  60
ATOM     60  C   UNL A   1      40.418  34.232  35.666  1.00  0.00     0.057 A 
ATOM     61  C   UNL A   1      41.031  35.485  35.534  1.00  0.00     0.134 A 
ATOM     62  C   UNL A   1      39.713  33.978  36.849  1.00  0.00     0.134 A 
ATOM     63  F   UNL A   1      41.736  35.782  34.432  1.00  0.00    -0.206 F 
ATOM     64  C   UNL A   1      40.971  36.438  36.551  1.00  0.00     0.040 A 
ATOM     65  C   UNL A   1      39.624  34.934  37.862  1.00  0.00     0.040 A 
ATOM     66  F   UNL A   1      39.101  32.799  37.039  1.00  0.00    -0.206 F 
ATOM     67  C   UNL A   1      40.260  36.166  37.718  1.00  0.00     0.006 A 
ENDBRANCH  46  60
BRANCH  47  68
ATOM     68  C   UNL A   1      40.388  27.435  28.356  1.00  0.00     0.057 A 
ATOM     69  C   UNL A   1      41.114  27.598  27.171  1.00  0.00     0.134 A 
ATOM     70  C   UNL A   1      39.664  26.248  28.514  1.00  0.00     0.134 A 
ATOM     71  F   UNL A   1      41.812  28.723  26.958  1.00  0.00    -0.206 F 
ATOM     72  C   UNL A   1      41.118  26.620  26.176  1.00  0.00     0.040 A 
ATOM     73  C   UNL A   1      39.674  25.252  27.536  1.00  0.00     0.040 A 
ATOM     74  F   UNL A   1      38.954  26.031  29.631  1.00  0.00    -0.206 F 
ATOM     75  C   UNL A   1      40.402  25.439  26.361  1.00  0.00     0.006 A 
ENDBRANCH  47  68
BRANCH  59  76
ATOM     76  C   UNL A   1      44.582  28.651  33.779  1.00  0.00     0.057 A 
ATOM     77  C   UNL A   1      45.873  29.046  33.407  1.00  0.00     0.134 A 
ATOM     78  C   UNL A   1      44.464  27.600  34.697  1.00  0.00     0.134 A 
ATOM     79  F   UNL A   1      46.051  30.039  32.522  1.00  0.00    -0.206 F 
ATOM     80  C   UNL A   1      47.005  28.410  33.918  1.00  0.00     0.040 A 
ATOM     81  C   UNL A   1      45.589  26.971  35.233  1.00  0.00     0.040 A 
ATOM     82  F   UNL A   1      43.256  27.179  35.099  1.00  0.00    -0.206 F 
ATOM     83  C   UNL A   1      46.864  27.374  34.840  1.00  0.00     0.006 A 
ENDBRANCH  59  76
ENDBRANCH  33  34
ENDBRANCH  25  28
ENDBRANCH  23  24
ENDBRANCH  22  23
ENDBRANCH   1  22
TORSDOF 15
ENDMDL
MODEL 2
REMARK VINA RESULT:     -10.7      4.946      9.753
REMARK SMILES CC[C@H](Oc1c(C)cc(Br)cc1N)C(=O)NCCCCNC(=O)c1ccc(-c2c3nc(c(-c4c(F)cccc4F)c4ccc([nH]4)c(-c4c(F)cccc4F)c4nc(c(-c5c(F)cccc5F)c5ccc2[nH]5)C=C4)C=C3)cc1
REMARK SMILES IDX 18 1 17 2 16 3 14 4 15 5 3 7 2 8 1 9 4 10 5 11 6 12 12 13
REMARK SMILES IDX 7 14 8 15 11 16 9 17 10 18 13 19 19 22 20 23 21 24 22 25
REMARK SMILES IDX 23 27 24 28 25 29 77 30 26 31 76 32 27 33 28 34 29 35 70 36
REMARK SMILES IDX 30 37 75 38 69 39 71 40 31 41 74 42 68 43 67 44 32 46 58 47
REMARK SMILES IDX 41 48 57 49 42 50 45 51 56 52 72 53 43 54 44 55 55 57 73 58
REMARK SMILES IDX 46 59 33 60 34 61 39 62 35 63 36 64 38 65 40 66 37 67 59 68
REMARK SMILES IDX 60 69 65 70 61 71 62 72 64 73 66 74 63 75 47 76 48 77 53 78
REMARK SMILES IDX 49 79 50 80 52 81 54 82 51 83
REMARK H PARENT 16 6 13 20 13 21 21 26 71 45 45 56
REMARK Flexibility Score: inf
ROOT
ATOM      1  C   UNL A   1      36.578  20.904  25.108  1.00  0.00     0.023 C 
ENDROOT
BRANCH   1   2
ATOM      2  C   UNL A   1      35.169  20.335  25.001  1.00  0.00     0.116 C 
BRANCH   2   3
ATOM      3  N   UNL A   1      34.256  20.904  25.967  1.00  0.00    -0.353 N 
ATOM      4  C   UNL A   1      33.513  22.048  25.899  1.00  0.00     0.261 C 
ATOM      5  O   UNL A   1      32.772  22.287  26.860  1.00  0.00    -0.271 OA
ATOM      6  H   UNL A   1      34.153  20.388  26.799  1.00  0.00     0.163 HD
BRANCH   4   7
ATOM      7  C   UNL A   1      33.577  23.022  24.692  1.00  0.00     0.261 C 
BRANCH   7   8
ATOM      8  C   UNL A   1      34.276  24.349  25.058  1.00  0.00     0.052 C 
ATOM      9  C   UNL A   1      35.637  24.271  25.743  1.00  0.00     0.008 C 
ENDBRANCH   7   8
BRANCH   7  10
ATOM     10  O   UNL A   1      32.255  23.111  24.182  1.00  0.00    -0.478 OA
BRANCH  10  11
ATOM     11  C   UNL A   1      31.675  24.276  23.742  1.00  0.00     0.146 A 
ATOM     12  C   UNL A   1      31.956  25.035  22.589  1.00  0.00    -0.006 A 
ATOM     13  C   UNL A   1      30.653  24.715  24.632  1.00  0.00     0.076 A 
ATOM     14  C   UNL A   1      32.905  24.666  21.486  1.00  0.00     0.048 C 
ATOM     15  C   UNL A   1      31.310  26.283  22.436  1.00  0.00     0.023 A 
ATOM     16  C   UNL A   1      30.044  25.960  24.458  1.00  0.00     0.045 A 
ATOM     17  C   UNL A   1      30.379  26.741  23.364  1.00  0.00     0.020 A 
ATOM     18  Br  UNL A   1      29.568  28.432  23.126  1.00  0.00    -0.051 Br
BRANCH  13  19
ATOM     19  N   UNL A   1      30.358  23.977  25.788  1.00  0.00    -0.396 N 
ATOM     20  H   UNL A   1      30.889  24.110  26.605  1.00  0.00     0.156 HD
ATOM     21  H   UNL A   1      29.621  23.325  25.780  1.00  0.00     0.156 HD
ENDBRANCH  13  19
ENDBRANCH  10  11
ENDBRANCH   7  10
ENDBRANCH   4   7
ENDBRANCH   2   3
ENDBRANCH   1   2
BRANCH   1  22
ATOM     22  C   UNL A   1      37.703  19.878  25.001  1.00  0.00     0.023 C 
BRANCH  22  23
ATOM     23  C   UNL A   1      38.990  20.227  25.743  1.00  0.00     0.116 C 
BRANCH  23  24
ATOM     24  N   UNL A   1      39.962  19.146  25.785  1.00  0.00    -0.352 N 
ATOM     25  C   UNL A   1      41.307  19.223  26.066  1.00  0.00     0.251 C 
ATOM     26  H   UNL A   1      39.615  18.246  25.586  1.00  0.00     0.163 HD
ATOM     27  O   UNL A   1      42.023  18.234  26.000  1.00  0.00    -0.269 OA
BRANCH  25  28
ATOM     28  C   UNL A   1      41.886  20.537  26.410  1.00  0.00     0.039 A 
ATOM     29  C   UNL A   1      42.278  21.389  25.376  1.00  0.00     0.014 A 
ATOM     30  C   UNL A   1      41.980  20.942  27.744  1.00  0.00     0.014 A 
ATOM     31  C   UNL A   1      42.700  22.684  25.676  1.00  0.00     0.010 A 
ATOM     32  C   UNL A   1      42.346  22.250  28.038  1.00  0.00     0.010 A 
ATOM     33  C   UNL A   1      42.702  23.134  27.007  1.00  0.00    -0.014 A 
BRANCH  33  34
ATOM     34  C   UNL A   1      43.080  24.525  27.348  1.00  0.00     0.031 A 
ATOM     35  C   UNL A   1      44.519  24.942  27.288  1.00  0.00     0.074 A 
ATOM     36  C   UNL A   1      42.137  25.391  27.764  1.00  0.00     0.049 A 
ATOM     37  N   UNL A   1      45.066  26.080  27.633  1.00  0.00    -0.248 NA
ATOM     38  C   UNL A   1      45.473  23.937  26.793  1.00  0.00     0.031 C 
ATOM     39  C   UNL A   1      40.708  25.097  27.879  1.00  0.00     0.029 A 
ATOM     40  N   UNL A   1      42.243  26.697  28.170  1.00  0.00    -0.354 N 
ATOM     41  C   UNL A   1      46.426  25.926  27.401  1.00  0.00     0.074 A 
ATOM     42  C   UNL A   1      46.628  24.570  26.939  1.00  0.00     0.031 C 
ATOM     43  C   UNL A   1      40.066  26.202  28.294  1.00  0.00     0.029 A 
ATOM     44  C   UNL A   1      41.041  27.266  28.510  1.00  0.00     0.049 A 
ATOM     45  H   UNL A   1      43.100  27.181  28.213  1.00  0.00     0.167 HD
ATOM     46  C   UNL A   1      47.414  26.842  27.536  1.00  0.00     0.037 A 
ATOM     47  C   UNL A   1      40.760  28.508  28.947  1.00  0.00     0.037 A 
ATOM     48  C   UNL A   1      47.210  28.192  27.990  1.00  0.00     0.049 A 
ATOM     49  C   UNL A   1      41.877  29.496  29.126  1.00  0.00     0.074 A 
ATOM     50  C   UNL A   1      48.146  29.196  28.161  1.00  0.00     0.029 A 
ATOM     51  N   UNL A   1      45.978  28.726  28.339  1.00  0.00    -0.354 N 
ATOM     52  N   UNL A   1      43.159  29.341  28.900  1.00  0.00    -0.248 NA
ATOM     53  C   UNL A   1      41.509  30.829  29.622  1.00  0.00     0.031 C 
ATOM     54  C   UNL A   1      47.483  30.333  28.638  1.00  0.00     0.029 A 
ATOM     55  C   UNL A   1      46.130  30.047  28.728  1.00  0.00     0.049 A 
ATOM     56  H   UNL A   1      45.123  28.240  28.314  1.00  0.00     0.167 HD
ATOM     57  C   UNL A   1      43.749  30.561  29.203  1.00  0.00     0.074 A 
ATOM     58  C   UNL A   1      42.682  31.449  29.620  1.00  0.00     0.031 C 
ATOM     59  C   UNL A   1      45.055  30.915  29.138  1.00  0.00     0.037 A 
BRANCH  46  60
ATOM     60  C   UNL A   1      48.803  26.403  27.178  1.00  0.00     0.057 A 
ATOM     61  C   UNL A   1      49.656  25.829  28.130  1.00  0.00     0.134 A 
ATOM     62  C   UNL A   1      49.291  26.544  25.874  1.00  0.00     0.134 A 
ATOM     63  F   UNL A   1      49.254  25.682  29.402  1.00  0.00    -0.206 F 
ATOM     64  C   UNL A   1      50.955  25.437  27.805  1.00  0.00     0.040 A 
ATOM     65  C   UNL A   1      50.579  26.133  25.531  1.00  0.00     0.040 A 
ATOM     66  F   UNL A   1      48.524  27.085  24.914  1.00  0.00    -0.206 F 
ATOM     67  C   UNL A   1      51.418  25.584  26.499  1.00  0.00     0.006 A 
ENDBRANCH  46  60
BRANCH  47  68
ATOM     68  C   UNL A   1      39.351  28.898  29.197  1.00  0.00     0.057 A 
ATOM     69  C   UNL A   1      38.573  29.449  28.172  1.00  0.00     0.134 A 
ATOM     70  C   UNL A   1      38.741  28.707  30.441  1.00  0.00     0.134 A 
ATOM     71  F   UNL A   1      39.110  29.670  26.963  1.00  0.00    -0.206 F 
ATOM     72  C   UNL A   1      37.239  29.802  28.376  1.00  0.00     0.040 A 
ATOM     73  C   UNL A   1      37.402  29.038  30.655  1.00  0.00     0.040 A 
ATOM     74  F   UNL A   1      39.433  28.177  31.461  1.00  0.00    -0.206 F 
ATOM     75  C   UNL A   1      36.648  29.589  29.621  1.00  0.00     0.006 A 
ENDBRANCH  47  68
BRANCH  59  76
ATOM     76  C   UNL A   1      45.403  32.328  29.499  1.00  0.00     0.057 A 
ATOM     77  C   UNL A   1      45.788  32.683  30.798  1.00  0.00     0.134 A 
ATOM     78  C   UNL A   1      45.399  33.333  28.525  1.00  0.00     0.134 A 
ATOM     79  F   UNL A   1      45.799  31.767  31.778  1.00  0.00    -0.206 F 
ATOM     80  C   UNL A   1      46.144  33.993  31.119  1.00  0.00     0.040 A 
ATOM     81  C   UNL A   1      45.776  34.643  28.827  1.00  0.00     0.040 A 
ATOM     82  F   UNL A   1      45.048  33.056  27.261  1.00  0.00    -0.206 F 
ATOM     83  C   UNL A   1      46.146  34.976  30.129  1.00  0.00     0.006 A 
ENDBRANCH  59  76
ENDBRANCH  33  34
ENDBRANCH  25  28
ENDBRANCH  23  24
ENDBRANCH  22  23
ENDBRANCH   1  22
TORSDOF 15
ENDMDL
MODEL 3
REMARK VINA RESULT:     -10.6      4.416      7.777
REMARK SMILES CC[C@H](Oc1c(C)cc(Br)cc1N)C(=O)NCCCCNC(=O)c1ccc(-c2c3nc(c(-c4c(F)cccc4F)c4ccc([nH]4)c(-c4c(F)cccc4F)c4nc(c(-c5c(F)cccc5F)c5ccc2[nH]5)C=C4)C=C3)cc1
REMARK SMILES IDX 18 1 17 2 16 3 14 4 15 5 3 7 2 8 1 9 4 10 5 11 6 12 12 13
REMARK SMILES IDX 7 14 8 15 11 16 9 17 10 18 13 19 19 22 20 23 21 24 22 25
REMARK SMILES IDX 23 27 24 28 25 29 77 30 26 31 76 32 27 33 28 34 29 35 70 36
REMARK SMILES IDX 30 37 75 38 69 39 71 40 31 41 74 42 68 43 67 44 32 46 58 47
REMARK SMILES IDX 41 48 57 49 42 50 45 51 56 52 72 53 43 54 44 55 55 57 73 58
REMARK SMILES IDX 46 59 33 60 34 61 39 62 35 63 36 64 38 65 40 66 37 67 59 68
REMARK SMILES IDX 60 69 65 70 61 71 62 72 64 73 66 74 63 75 47 76 48 77 53 78
REMARK SMILES IDX 49 79 50 80 52 81 54 82 51 83
REMARK H PARENT 16 6 13 20 13 21 21 26 71 45 45 56
REMARK Flexibility Score: inf
ROOT
ATOM      1  C   UNL A   1      34.010  20.962  26.039  1.00  0.00     0.023 C 
ENDROOT
BRANCH   1   2
ATOM      2  C   UNL A   1      33.895  21.805  27.303  1.00  0.00     0.116 C 
BRANCH   2   3
ATOM      3  N   UNL A   1      32.547  22.263  27.555  1.00  0.00    -0.353 N 
ATOM      4  C   UNL A   1      31.775  23.140  26.847  1.00  0.00     0.261 C 
ATOM      5  O   UNL A   1      30.626  23.330  27.263  1.00  0.00    -0.271 OA
ATOM      6  H   UNL A   1      32.121  21.886  28.358  1.00  0.00     0.163 HD
BRANCH   4   7
ATOM      7  C   UNL A   1      32.287  23.879  25.582  1.00  0.00     0.261 C 
BRANCH   7   8
ATOM      8  C   UNL A   1      33.114  25.133  25.941  1.00  0.00     0.052 C 
ATOM      9  C   UNL A   1      34.552  25.206  25.436  1.00  0.00     0.008 C 
ENDBRANCH   7   8
BRANCH   7  10
ATOM     10  O   UNL A   1      31.154  24.073  24.748  1.00  0.00    -0.478 OA
BRANCH  10  11
ATOM     11  C   UNL A   1      30.944  25.194  23.982  1.00  0.00     0.146 A 
ATOM     12  C   UNL A   1      31.628  25.632  22.831  1.00  0.00    -0.006 A 
ATOM     13  C   UNL A   1      29.863  25.972  24.486  1.00  0.00     0.076 A 
ATOM     14  C   UNL A   1      32.702  24.886  22.092  1.00  0.00     0.048 C 
ATOM     15  C   UNL A   1      31.307  26.904  22.305  1.00  0.00     0.023 A 
ATOM     16  C   UNL A   1      29.582  27.232  23.952  1.00  0.00     0.045 A 
ATOM     17  C   UNL A   1      30.309  27.694  22.867  1.00  0.00     0.020 A 
ATOM     18  Br  UNL A   1      29.943  29.402  22.144  1.00  0.00    -0.051 Br
BRANCH  13  19
ATOM     19  N   UNL A   1      29.170  25.557  25.633  1.00  0.00    -0.396 N 
ATOM     20  H   UNL A   1      29.246  26.073  26.468  1.00  0.00     0.156 HD
ATOM     21  H   UNL A   1      28.608  24.750  25.603  1.00  0.00     0.156 HD
ENDBRANCH  13  19
ENDBRANCH  10  11
ENDBRANCH   7  10
ENDBRANCH   4   7
ENDBRANCH   2   3
ENDBRANCH   1   2
BRANCH   1  22
ATOM     22  C   UNL A   1      35.017  21.468  25.010  1.00  0.00     0.023 C 
BRANCH  22  23
ATOM     23  C   UNL A   1      36.400  21.816  25.553  1.00  0.00     0.116 C 
BRANCH  23  24
ATOM     24  N   UNL A   1      37.350  20.716  25.504  1.00  0.00    -0.352 N 
ATOM     25  C   UNL A   1      38.686  20.732  25.837  1.00  0.00     0.251 C 
ATOM     26  H   UNL A   1      36.994  19.853  25.194  1.00  0.00     0.163 HD
ATOM     27  O   UNL A   1      39.385  19.741  25.683  1.00  0.00    -0.269 OA
BRANCH  25  28
ATOM     28  C   UNL A   1      39.275  21.986  26.346  1.00  0.00     0.039 A 
ATOM     29  C   UNL A   1      40.351  21.911  27.232  1.00  0.00     0.014 A 
ATOM     30  C   UNL A   1      38.802  23.223  25.900  1.00  0.00     0.014 A 
ATOM     31  C   UNL A   1      41.006  23.082  27.617  1.00  0.00     0.010 A 
ATOM     32  C   UNL A   1      39.489  24.382  26.239  1.00  0.00     0.010 A 
ATOM     33  C   UNL A   1      40.601  24.321  27.094  1.00  0.00    -0.014 A 
BRANCH  33  34
ATOM     34  C   UNL A   1      41.320  25.571  27.432  1.00  0.00     0.031 A 
ATOM     35  C   UNL A   1      40.635  26.629  28.245  1.00  0.00     0.074 A 
ATOM     36  C   UNL A   1      42.564  25.774  26.961  1.00  0.00     0.049 A 
ATOM     37  N   UNL A   1      41.054  27.825  28.568  1.00  0.00    -0.248 NA
ATOM     38  C   UNL A   1      39.288  26.305  28.741  1.00  0.00     0.031 C 
ATOM     39  C   UNL A   1      43.328  24.827  26.148  1.00  0.00     0.029 A 
ATOM     40  N   UNL A   1      43.405  26.849  27.099  1.00  0.00    -0.354 N 
ATOM     41  C   UNL A   1      40.024  28.397  29.302  1.00  0.00     0.074 A 
ATOM     42  C   UNL A   1      38.939  27.440  29.328  1.00  0.00     0.031 C 
ATOM     43  C   UNL A   1      44.538  25.350  25.887  1.00  0.00     0.029 A 
ATOM     44  C   UNL A   1      44.619  26.680  26.480  1.00  0.00     0.049 A 
ATOM     45  H   UNL A   1      43.162  27.664  27.594  1.00  0.00     0.167 HD
ATOM     46  C   UNL A   1      39.995  29.601  29.919  1.00  0.00     0.037 A 
ATOM     47  C   UNL A   1      45.678  27.508  26.402  1.00  0.00     0.037 A 
ATOM     48  C   UNL A   1      41.078  30.548  29.897  1.00  0.00     0.049 A 
ATOM     49  C   UNL A   1      45.609  28.855  27.064  1.00  0.00     0.074 A 
ATOM     50  C   UNL A   1      41.146  31.796  30.491  1.00  0.00     0.029 A 
ATOM     51  N   UNL A   1      42.286  30.346  29.247  1.00  0.00    -0.354 N 
ATOM     52  N   UNL A   1      44.631  29.384  27.757  1.00  0.00    -0.248 NA
ATOM     53  C   UNL A   1      46.789  29.720  26.929  1.00  0.00     0.031 C 
ATOM     54  C   UNL A   1      42.389  32.360  30.180  1.00  0.00     0.029 A 
ATOM     55  C   UNL A   1      43.107  31.448  29.423  1.00  0.00     0.049 A 
ATOM     56  H   UNL A   1      42.525  29.539  28.737  1.00  0.00     0.167 HD
ATOM     57  C   UNL A   1      45.084  30.632  28.163  1.00  0.00     0.074 A 
ATOM     58  C   UNL A   1      46.429  30.778  27.644  1.00  0.00     0.031 C 
ATOM     59  C   UNL A   1      44.445  31.572  28.901  1.00  0.00     0.037 A 
BRANCH  46  60
ATOM     60  C   UNL A   1      38.748  29.948  30.676  1.00  0.00     0.057 A 
ATOM     61  C   UNL A   1      38.572  29.563  32.012  1.00  0.00     0.134 A 
ATOM     62  C   UNL A   1      37.717  30.678  30.073  1.00  0.00     0.134 A 
ATOM     63  F   UNL A   1      39.516  28.846  32.641  1.00  0.00    -0.206 F 
ATOM     64  C   UNL A   1      37.405  29.868  32.713  1.00  0.00     0.040 A 
ATOM     65  C   UNL A   1      36.556  31.011  30.772  1.00  0.00     0.040 A 
ATOM     66  F   UNL A   1      37.821  31.079  28.796  1.00  0.00    -0.206 F 
ATOM     67  C   UNL A   1      36.394  30.600  32.093  1.00  0.00     0.006 A 
ENDBRANCH  46  60
BRANCH  47  68
ATOM     68  C   UNL A   1      46.911  27.061  25.711  1.00  0.00     0.057 A 
ATOM     69  C   UNL A   1      47.153  27.421  24.381  1.00  0.00     0.134 A 
ATOM     70  C   UNL A   1      47.886  26.295  26.361  1.00  0.00     0.134 A 
ATOM     71  F   UNL A   1      46.246  28.141  23.703  1.00  0.00    -0.206 F 
ATOM     72  C   UNL A   1      48.317  27.032  23.717  1.00  0.00     0.040 A 
ATOM     73  C   UNL A   1      49.064  25.914  25.716  1.00  0.00     0.040 A 
ATOM     74  F   UNL A   1      47.715  25.923  27.639  1.00  0.00    -0.206 F 
ATOM     75  C   UNL A   1      49.280  26.282  24.389  1.00  0.00     0.006 A 
ENDBRANCH  47  68
BRANCH  59  76
ATOM     76  C   UNL A   1      45.199  32.829  29.216  1.00  0.00     0.057 A 
ATOM     77  C   UNL A   1      46.029  32.928  30.339  1.00  0.00     0.134 A 
ATOM     78  C   UNL A   1      45.132  33.933  28.358  1.00  0.00     0.134 A 
ATOM     79  F   UNL A   1      46.126  31.908  31.205  1.00  0.00    -0.206 F 
ATOM     80  C   UNL A   1      46.755  34.089  30.607  1.00  0.00     0.040 A 
ATOM     81  C   UNL A   1      45.871  35.092  28.602  1.00  0.00     0.040 A 
ATOM     82  F   UNL A   1      44.361  33.898  27.261  1.00  0.00    -0.206 F 
ATOM     83  C   UNL A   1      46.683  35.172  29.732  1.00  0.00     0.006 A 
ENDBRANCH  59  76
ENDBRANCH  33  34
ENDBRANCH  25  28
ENDBRANCH  23  24
ENDBRANCH  22  23
ENDBRANCH   1  22
TORSDOF 15
ENDMDL
