MODEL 1
REMARK VINA RESULT:     -12.1      0.000      0.000
REMARK SMILES Cc1cc(F)c([C@@H](C)[N@@H+]2C[C@H](C)[C@H](C(=O)NCCCCNC(=O)c3ccc(-c4c5nc(c(-c6c(F)cccc6F)c6ccc([nH]6)c(-c6c(F)cccc6F)c6nc(c(-c7c(F)cccc7F)c7ccc4[nH]7)C=C6)C=C5)cc3)C2)cc1F
REMARK SMILES IDX 18 1 17 2 16 3 14 4 15 5 13 7 9 8 10 9 78 10 11 12 12 13
REMARK SMILES IDX 7 14 8 15 6 16 1 17 2 18 3 19 80 20 4 21 79 22 81 23 5 24
REMARK SMILES IDX 19 25 20 26 21 27 22 28 23 30 24 31 25 32 77 33 26 34 76 35
REMARK SMILES IDX 27 36 28 37 29 38 70 39 30 40 75 41 69 42 71 43 31 44 74 45
REMARK SMILES IDX 68 46 67 47 32 49 58 50 41 51 57 52 42 53 45 54 56 55 72 56
REMARK SMILES IDX 43 57 44 58 55 60 73 61 46 62 33 63 34 64 39 65 35 66 36 67
REMARK SMILES IDX 38 68 40 69 37 70 59 71 60 72 65 73 61 74 62 75 64 76 66 77
REMARK SMILES IDX 63 78 47 79 48 80 53 81 49 82 50 83 52 84 54 85 51 86
REMARK H PARENT 16 6 9 11 21 29 71 48 45 59
REMARK Flexibility Score: inf
ROOT
ATOM      1  C   UNL A   1      36.411  20.640  24.954  1.00  0.00     0.023 C 
ENDROOT
BRANCH   1   2
ATOM      2  C   UNL A   1      35.143  21.081  25.679  1.00  0.00     0.116 C 
BRANCH   2   3
ATOM      3  N   UNL A   1      34.109  20.069  25.648  1.00  0.00    -0.356 N 
ATOM      4  C   UNL A   1      32.831  20.108  25.188  1.00  0.00     0.229 C 
ATOM      5  O   UNL A   1      32.168  19.075  25.331  1.00  0.00    -0.275 OA
ATOM      6  H   UNL A   1      34.379  19.201  26.025  1.00  0.00     0.163 HD
BRANCH   4   7
ATOM      7  C   UNL A   1      32.182  21.333  24.552  1.00  0.00     0.142 C 
ATOM      8  N   UNL A   1      32.505  23.484  23.598  1.00  0.00    -0.328 N 
ATOM      9  C   UNL A   1      31.465  23.624  24.606  1.00  0.00     0.266 C 
ATOM     10  C   UNL A   1      33.012  22.119  23.541  1.00  0.00     0.276 C 
ATOM     11  H   UNL A   1      32.040  23.618  22.700  1.00  0.00     0.348 HD
ATOM     12  C   UNL A   1      31.511  22.361  25.470  1.00  0.00     0.059 C 
ATOM     13  C   UNL A   1      32.150  22.641  26.823  1.00  0.00     0.015 C 
BRANCH   8  14
ATOM     14  C   UNL A   1      33.404  24.609  23.339  1.00  0.00     0.215 C 
ATOM     15  C   UNL A   1      34.861  24.199  23.610  1.00  0.00     0.081 C 
BRANCH  14  16
ATOM     16  C   UNL A   1      32.990  25.922  23.994  1.00  0.00     0.048 A 
ATOM     17  C   UNL A   1      32.084  29.741  25.856  1.00  0.00     0.047 C 
ATOM     18  C   UNL A   1      32.351  28.398  25.248  1.00  0.00    -0.012 A 
ATOM     19  C   UNL A   1      31.661  27.974  24.108  1.00  0.00     0.046 A 
ATOM     20  C   UNL A   1      33.344  27.567  25.761  1.00  0.00     0.126 A 
ATOM     21  C   UNL A   1      31.985  26.760  23.494  1.00  0.00     0.132 A 
ATOM     22  C   UNL A   1      33.649  26.344  25.163  1.00  0.00     0.052 A 
ATOM     23  F   UNL A   1      34.039  27.944  26.843  1.00  0.00    -0.207 F 
ATOM     24  F   UNL A   1      31.330  26.448  22.368  1.00  0.00    -0.206 F 
ENDBRANCH  14  16
ENDBRANCH   8  14
ENDBRANCH   4   7
ENDBRANCH   2   3
ENDBRANCH   1   2
BRANCH   1  25
ATOM     25  C   UNL A   1      37.511  21.689  24.878  1.00  0.00     0.023 C 
BRANCH  25  26
ATOM     26  C   UNL A   1      38.663  21.505  25.858  1.00  0.00     0.116 C 
BRANCH  26  27
ATOM     27  N   UNL A   1      39.429  20.281  25.657  1.00  0.00    -0.352 N 
ATOM     28  C   UNL A   1      40.744  20.014  25.975  1.00  0.00     0.251 C 
ATOM     29  H   UNL A   1      38.939  19.539  25.234  1.00  0.00     0.163 HD
ATOM     30  O   UNL A   1      41.247  18.930  25.711  1.00  0.00    -0.269 OA
BRANCH  28  31
ATOM     31  C   UNL A   1      41.555  21.091  26.575  1.00  0.00     0.039 A 
ATOM     32  C   UNL A   1      41.633  21.211  27.961  1.00  0.00     0.014 A 
ATOM     33  C   UNL A   1      42.101  22.070  25.739  1.00  0.00     0.014 A 
ATOM     34  C   UNL A   1      42.036  22.420  28.508  1.00  0.00     0.010 A 
ATOM     35  C   UNL A   1      42.601  23.246  26.301  1.00  0.00     0.010 A 
ATOM     36  C   UNL A   1      42.493  23.461  27.683  1.00  0.00    -0.014 A 
BRANCH  36  37
ATOM     37  C   UNL A   1      42.781  24.785  28.290  1.00  0.00     0.031 A 
ATOM     38  C   UNL A   1      44.198  25.197  28.598  1.00  0.00     0.074 A 
ATOM     39  C   UNL A   1      41.769  25.653  28.469  1.00  0.00     0.049 A 
ATOM     40  N   UNL A   1      44.640  26.325  29.097  1.00  0.00    -0.248 NA
ATOM     41  C   UNL A   1      45.259  24.217  28.315  1.00  0.00     0.031 C 
ATOM     42  C   UNL A   1      40.361  25.373  28.183  1.00  0.00     0.029 A 
ATOM     43  N   UNL A   1      41.771  26.956  28.892  1.00  0.00    -0.354 N 
ATOM     44  C   UNL A   1      46.016  26.177  29.218  1.00  0.00     0.074 A 
ATOM     45  C   UNL A   1      46.340  24.846  28.755  1.00  0.00     0.031 C 
ATOM     46  C   UNL A   1      39.644  26.491  28.370  1.00  0.00     0.029 A 
ATOM     47  C   UNL A   1      40.531  27.544  28.853  1.00  0.00     0.049 A 
ATOM     48  H   UNL A   1      42.582  27.426  29.195  1.00  0.00     0.167 HD
ATOM     49  C   UNL A   1      46.929  27.073  29.667  1.00  0.00     0.037 A 
ATOM     50  C   UNL A   1      40.148  28.792  29.177  1.00  0.00     0.037 A 
ATOM     51  C   UNL A   1      46.608  28.411  30.093  1.00  0.00     0.049 A 
ATOM     52  C   UNL A   1      41.177  29.759  29.680  1.00  0.00     0.074 A 
ATOM     53  C   UNL A   1      47.457  29.399  30.560  1.00  0.00     0.029 A 
ATOM     54  N   UNL A   1      45.330  28.952  30.091  1.00  0.00    -0.354 N 
ATOM     55  N   UNL A   1      42.470  29.593  29.815  1.00  0.00    -0.248 NA
ATOM     56  C   UNL A   1      40.689  31.082  30.093  1.00  0.00     0.031 C 
ATOM     57  C   UNL A   1      46.689  30.529  30.866  1.00  0.00     0.029 A 
ATOM     58  C   UNL A   1      45.366  30.254  30.559  1.00  0.00     0.049 A 
ATOM     59  H   UNL A   1      44.518  28.478  29.799  1.00  0.00     0.167 HD
ATOM     60  C   UNL A   1      42.952  30.788  30.331  1.00  0.00     0.074 A 
ATOM     61  C   UNL A   1      41.816  31.679  30.454  1.00  0.00     0.031 C 
ATOM     62  C   UNL A   1      44.219  31.115  30.682  1.00  0.00     0.037 A 
BRANCH  49  63
ATOM     63  C   UNL A   1      48.359  26.627  29.743  1.00  0.00     0.057 A 
ATOM     64  C   UNL A   1      48.835  25.946  30.872  1.00  0.00     0.134 A 
ATOM     65  C   UNL A   1      49.275  26.888  28.715  1.00  0.00     0.134 A 
ATOM     66  F   UNL A   1      48.012  25.667  31.894  1.00  0.00    -0.206 F 
ATOM     67  C   UNL A   1      50.168  25.543  30.976  1.00  0.00     0.040 A 
ATOM     68  C   UNL A   1      50.606  26.472  28.799  1.00  0.00     0.040 A 
ATOM     69  F   UNL A   1      48.880  27.521  27.599  1.00  0.00    -0.206 F 
ATOM     70  C   UNL A   1      51.056  25.802  29.934  1.00  0.00     0.006 A 
ENDBRANCH  49  63
BRANCH  50  71
ATOM     71  C   UNL A   1      38.726  29.183  29.041  1.00  0.00     0.057 A 
ATOM     72  C   UNL A   1      37.855  29.154  30.137  1.00  0.00     0.134 A 
ATOM     73  C   UNL A   1      38.198  29.573  27.806  1.00  0.00     0.134 A 
ATOM     74  F   UNL A   1      38.301  28.781  31.347  1.00  0.00    -0.206 F 
ATOM     75  C   UNL A   1      36.506  29.483  30.007  1.00  0.00     0.040 A 
ATOM     76  C   UNL A   1      36.856  29.929  27.666  1.00  0.00     0.040 A 
ATOM     77  F   UNL A   1      38.988  29.636  26.724  1.00  0.00    -0.206 F 
ATOM     78  C   UNL A   1      36.004  29.876  28.768  1.00  0.00     0.006 A 
ENDBRANCH  50  71
BRANCH  62  79
ATOM     79  C   UNL A   1      44.426  32.493  31.227  1.00  0.00     0.057 A 
ATOM     80  C   UNL A   1      44.349  32.739  32.603  1.00  0.00     0.134 A 
ATOM     81  C   UNL A   1      44.705  33.577  30.385  1.00  0.00     0.134 A 
ATOM     82  F   UNL A   1      44.083  31.742  33.459  1.00  0.00    -0.206 F 
ATOM     83  C   UNL A   1      44.547  34.018  33.124  1.00  0.00     0.040 A 
ATOM     84  C   UNL A   1      44.924  34.857  30.897  1.00  0.00     0.040 A 
ATOM     85  F   UNL A   1      44.808  33.399  29.060  1.00  0.00    -0.206 F 
ATOM     86  C   UNL A   1      44.842  35.080  32.270  1.00  0.00     0.006 A 
ENDBRANCH  62  79
ENDBRANCH  36  37
ENDBRANCH  28  31
ENDBRANCH  26  27
ENDBRANCH  25  26
ENDBRANCH   1  25
TORSDOF 13
ENDMDL
MODEL 2
REMARK VINA RESULT:     -12.1      3.228      7.983
REMARK SMILES Cc1cc(F)c([C@@H](C)[N@@H+]2C[C@H](C)[C@H](C(=O)NCCCCNC(=O)c3ccc(-c4c5nc(c(-c6c(F)cccc6F)c6ccc([nH]6)c(-c6c(F)cccc6F)c6nc(c(-c7c(F)cccc7F)c7ccc4[nH]7)C=C6)C=C5)cc3)C2)cc1F
REMARK SMILES IDX 18 1 17 2 16 3 14 4 15 5 13 7 9 8 10 9 78 10 11 12 12 13
REMARK SMILES IDX 7 14 8 15 6 16 1 17 2 18 3 19 80 20 4 21 79 22 81 23 5 24
REMARK SMILES IDX 19 25 20 26 21 27 22 28 23 30 24 31 25 32 77 33 26 34 76 35
REMARK SMILES IDX 27 36 28 37 29 38 70 39 30 40 75 41 69 42 71 43 31 44 74 45
REMARK SMILES IDX 68 46 67 47 32 49 58 50 41 51 57 52 42 53 45 54 56 55 72 56
REMARK SMILES IDX 43 57 44 58 55 60 73 61 46 62 33 63 34 64 39 65 35 66 36 67
REMARK SMILES IDX 38 68 40 69 37 70 59 71 60 72 65 73 61 74 62 75 64 76 66 77
REMARK SMILES IDX 63 78 47 79 48 80 53 81 49 82 50 83 52 84 54 85 51 86
REMARK H PARENT 16 6 9 11 21 29 71 48 45 59
REMARK Flexibility Score: inf
ROOT
ATOM      1  C   UNL A   1      32.669  30.064  25.746  1.00  0.00     0.023 C 
ENDROOT
BRANCH   1   2
ATOM      2  C   UNL A   1      31.398  29.326  25.339  1.00  0.00     0.116 C 
BRANCH   2   3
ATOM      3  N   UNL A   1      30.964  29.671  24.002  1.00  0.00    -0.356 N 
ATOM      4  C   UNL A   1      30.997  28.969  22.840  1.00  0.00     0.229 C 
ATOM      5  O   UNL A   1      30.577  29.554  21.836  1.00  0.00    -0.275 OA
ATOM      6  H   UNL A   1      30.577  30.573  23.921  1.00  0.00     0.163 HD
BRANCH   4   7
ATOM      7  C   UNL A   1      31.540  27.549  22.707  1.00  0.00     0.142 C 
ATOM      8  N   UNL A   1      32.380  25.630  23.825  1.00  0.00    -0.328 N 
ATOM      9  C   UNL A   1      33.326  25.946  22.767  1.00  0.00     0.266 C 
ATOM     10  C   UNL A   1      31.287  26.592  23.868  1.00  0.00     0.276 C 
ATOM     11  H   UNL A   1      31.936  24.755  23.546  1.00  0.00     0.348 HD
ATOM     12  C   UNL A   1      33.005  27.365  22.292  1.00  0.00     0.059 C 
ATOM     13  C   UNL A   1      34.028  28.366  22.809  1.00  0.00     0.015 C 
BRANCH   8  14
ATOM     14  C   UNL A   1      32.871  25.026  25.064  1.00  0.00     0.215 C 
ATOM     15  C   UNL A   1      33.113  26.112  26.126  1.00  0.00     0.081 C 
BRANCH  14  16
ATOM     16  C   UNL A   1      34.031  24.054  24.886  1.00  0.00     0.048 A 
ATOM     17  C   UNL A   1      37.403  21.325  24.649  1.00  0.00     0.047 C 
ATOM     18  C   UNL A   1      36.252  22.283  24.672  1.00  0.00    -0.012 A 
ATOM     19  C   UNL A   1      34.980  21.890  24.245  1.00  0.00     0.046 A 
ATOM     20  C   UNL A   1      36.403  23.569  25.186  1.00  0.00     0.126 A 
ATOM     21  C   UNL A   1      33.893  22.762  24.359  1.00  0.00     0.132 A 
ATOM     22  C   UNL A   1      35.324  24.448  25.275  1.00  0.00     0.052 A 
ATOM     23  F   UNL A   1      37.603  23.979  25.620  1.00  0.00    -0.207 F 
ATOM     24  F   UNL A   1      32.691  22.297  23.992  1.00  0.00    -0.206 F 
ENDBRANCH  14  16
ENDBRANCH   8  14
ENDBRANCH   4   7
ENDBRANCH   2   3
ENDBRANCH   1   2
BRANCH   1  25
ATOM     25  C   UNL A   1      33.052  29.932  27.214  1.00  0.00     0.023 C 
BRANCH  25  26
ATOM     26  C   UNL A   1      34.530  30.127  27.527  1.00  0.00     0.116 C 
BRANCH  26  27
ATOM     27  N   UNL A   1      34.788  30.873  28.753  1.00  0.00    -0.352 N 
ATOM     28  C   UNL A   1      35.907  30.866  29.558  1.00  0.00     0.251 C 
ATOM     29  H   UNL A   1      34.060  31.466  29.049  1.00  0.00     0.163 HD
ATOM     30  O   UNL A   1      35.952  31.539  30.579  1.00  0.00    -0.269 OA
BRANCH  28  31
ATOM     31  C   UNL A   1      37.024  29.970  29.200  1.00  0.00     0.039 A 
ATOM     32  C   UNL A   1      37.656  29.220  30.190  1.00  0.00     0.014 A 
ATOM     33  C   UNL A   1      37.533  30.011  27.899  1.00  0.00     0.014 A 
ATOM     34  C   UNL A   1      38.923  28.713  29.943  1.00  0.00     0.010 A 
ATOM     35  C   UNL A   1      38.764  29.411  27.627  1.00  0.00     0.010 A 
ATOM     36  C   UNL A   1      39.504  28.832  28.669  1.00  0.00    -0.014 A 
BRANCH  36  37
ATOM     37  C   UNL A   1      40.913  28.405  28.480  1.00  0.00     0.031 A 
ATOM     38  C   UNL A   1      41.241  26.986  28.093  1.00  0.00     0.074 A 
ATOM     39  C   UNL A   1      41.889  29.328  28.561  1.00  0.00     0.049 A 
ATOM     40  N   UNL A   1      42.410  26.445  27.853  1.00  0.00    -0.248 NA
ATOM     41  C   UNL A   1      40.114  26.049  27.960  1.00  0.00     0.031 C 
ATOM     42  C   UNL A   1      41.687  30.737  28.904  1.00  0.00     0.029 A 
ATOM     43  N   UNL A   1      43.234  29.232  28.321  1.00  0.00    -0.354 N 
ATOM     44  C   UNL A   1      42.162  25.105  27.576  1.00  0.00     0.074 A 
ATOM     45  C   UNL A   1      40.734  24.908  27.692  1.00  0.00     0.031 C 
ATOM     46  C   UNL A   1      42.853  31.389  28.783  1.00  0.00     0.029 A 
ATOM     47  C   UNL A   1      43.893  30.433  28.420  1.00  0.00     0.049 A 
ATOM     48  H   UNL A   1      43.685  28.386  28.098  1.00  0.00     0.167 HD
ATOM     49  C   UNL A   1      43.044  24.130  27.249  1.00  0.00     0.037 A 
ATOM     50  C   UNL A   1      45.193  30.730  28.247  1.00  0.00     0.037 A 
ATOM     51  C   UNL A   1      44.461  24.338  27.100  1.00  0.00     0.049 A 
ATOM     52  C   UNL A   1      46.148  29.630  27.894  1.00  0.00     0.074 A 
ATOM     53  C   UNL A   1      45.441  23.419  26.765  1.00  0.00     0.029 A 
ATOM     54  N   UNL A   1      45.099  25.559  27.264  1.00  0.00    -0.354 N 
ATOM     55  N   UNL A   1      45.900  28.363  27.665  1.00  0.00    -0.248 NA
ATOM     56  C   UNL A   1      47.567  29.998  27.795  1.00  0.00     0.031 C 
ATOM     57  C   UNL A   1      46.675  24.080  26.754  1.00  0.00     0.029 A 
ATOM     58  C   UNL A   1      46.459  25.415  27.050  1.00  0.00     0.049 A 
ATOM     59  H   UNL A   1      44.649  26.403  27.498  1.00  0.00     0.167 HD
ATOM     60  C   UNL A   1      47.131  27.781  27.396  1.00  0.00     0.074 A 
ATOM     61  C   UNL A   1      48.119  28.839  27.461  1.00  0.00     0.031 C 
ATOM     62  C   UNL A   1      47.420  26.484  27.131  1.00  0.00     0.037 A 
BRANCH  49  63
ATOM     63  C   UNL A   1      42.504  22.744  27.054  1.00  0.00     0.057 A 
ATOM     64  C   UNL A   1      42.153  21.953  28.157  1.00  0.00     0.134 A 
ATOM     65  C   UNL A   1      42.352  22.178  25.781  1.00  0.00     0.134 A 
ATOM     66  F   UNL A   1      42.278  22.432  29.404  1.00  0.00    -0.206 F 
ATOM     67  C   UNL A   1      41.672  20.652  28.001  1.00  0.00     0.040 A 
ATOM     68  C   UNL A   1      41.853  20.884  25.612  1.00  0.00     0.040 A 
ATOM     69  F   UNL A   1      42.653  22.887  24.683  1.00  0.00    -0.206 F 
ATOM     70  C   UNL A   1      41.516  20.116  26.725  1.00  0.00     0.006 A 
ENDBRANCH  49  63
BRANCH  50  71
ATOM     71  C   UNL A   1      45.657  32.127  28.415  1.00  0.00     0.057 A 
ATOM     72  C   UNL A   1      46.102  32.602  29.654  1.00  0.00     0.134 A 
ATOM     73  C   UNL A   1      45.644  33.026  27.344  1.00  0.00     0.134 A 
ATOM     74  F   UNL A   1      46.130  31.789  30.721  1.00  0.00    -0.206 F 
ATOM     75  C   UNL A   1      46.501  33.926  29.828  1.00  0.00     0.040 A 
ATOM     76  C   UNL A   1      46.065  34.348  27.497  1.00  0.00     0.040 A 
ATOM     77  F   UNL A   1      45.243  32.624  26.129  1.00  0.00    -0.206 F 
ATOM     78  C   UNL A   1      46.487  34.803  28.745  1.00  0.00     0.006 A 
ENDBRANCH  50  71
BRANCH  62  79
ATOM     79  C   UNL A   1      48.861  26.156  26.892  1.00  0.00     0.057 A 
ATOM     80  C   UNL A   1      49.415  26.249  25.610  1.00  0.00     0.134 A 
ATOM     81  C   UNL A   1      49.701  25.751  27.938  1.00  0.00     0.134 A 
ATOM     82  F   UNL A   1      48.661  26.629  24.569  1.00  0.00    -0.206 F 
ATOM     83  C   UNL A   1      50.758  25.953  25.377  1.00  0.00     0.040 A 
ATOM     84  C   UNL A   1      51.050  25.471  27.719  1.00  0.00     0.040 A 
ATOM     85  F   UNL A   1      49.230  25.661  29.191  1.00  0.00    -0.206 F 
ATOM     86  C   UNL A   1      51.581  25.569  26.435  1.00  0.00     0.006 A 
ENDBRANCH  62  79
ENDBRANCH  36  37
ENDBRANCH  28  31
ENDBRANCH  26  27
ENDBRANCH  25  26
ENDBRANCH   1  25
TORSDOF 13
ENDMDL
MODEL 3
REMARK VINA RESULT:     -12.1      3.789      8.517
REMARK SMILES Cc1cc(F)c([C@@H](C)[N@@H+]2C[C@H](C)[C@H](C(=O)NCCCCNC(=O)c3ccc(-c4c5nc(c(-c6c(F)cccc6F)c6ccc([nH]6)c(-c6c(F)cccc6F)c6nc(c(-c7c(F)cccc7F)c7ccc4[nH]7)C=C6)C=C5)cc3)C2)cc1F
REMARK SMILES IDX 18 1 17 2 16 3 14 4 15 5 13 7 9 8 10 9 78 10 11 12 12 13
REMARK SMILES IDX 7 14 8 15 6 16 1 17 2 18 3 19 80 20 4 21 79 22 81 23 5 24
REMARK SMILES IDX 19 25 20 26 21 27 22 28 23 30 24 31 25 32 77 33 26 34 76 35
REMARK SMILES IDX 27 36 28 37 29 38 70 39 30 40 75 41 69 42 71 43 31 44 74 45
REMARK SMILES IDX 68 46 67 47 32 49 58 50 41 51 57 52 42 53 45 54 56 55 72 56
REMARK SMILES IDX 43 57 44 58 55 60 73 61 46 62 33 63 34 64 39 65 35 66 36 67
REMARK SMILES IDX 38 68 40 69 37 70 59 71 60 72 65 73 61 74 62 75 64 76 66 77
REMARK SMILES IDX 63 78 47 79 48 80 53 81 49 82 50 83 52 84 54 85 51 86
REMARK H PARENT 16 6 9 11 21 29 71 48 45 59
REMARK Flexibility Score: inf
ROOT
ATOM      1  C   UNL A   1      32.566  29.958  25.567  1.00  0.00     0.023 C 
ENDROOT
BRANCH   1   2
ATOM      2  C   UNL A   1      31.378  29.155  25.045  1.00  0.00     0.116 C 
BRANCH   2   3
ATOM      3  N   UNL A   1      30.904  29.641  23.766  1.00  0.00    -0.356 N 
ATOM      4  C   UNL A   1      30.502  28.979  22.650  1.00  0.00     0.229 C 
ATOM      5  O   UNL A   1      30.177  29.681  21.686  1.00  0.00    -0.275 OA
ATOM      6  H   UNL A   1      30.866  30.622  23.694  1.00  0.00     0.163 HD
BRANCH   4   7
ATOM      7  C   UNL A   1      30.461  27.460  22.517  1.00  0.00     0.142 C 
ATOM      8  N   UNL A   1      30.620  25.364  23.621  1.00  0.00    -0.328 N 
ATOM      9  C   UNL A   1      31.517  25.304  22.478  1.00  0.00     0.266 C 
ATOM     10  C   UNL A   1      29.973  26.665  23.724  1.00  0.00     0.276 C 
ATOM     11  H   UNL A   1      29.858  24.719  23.407  1.00  0.00     0.348 HD
ATOM     12  C   UNL A   1      31.708  26.742  21.987  1.00  0.00     0.059 C 
ATOM     13  C   UNL A   1      33.073  27.285  22.385  1.00  0.00     0.015 C 
BRANCH   8  14
ATOM     14  C   UNL A   1      30.958  24.616  24.833  1.00  0.00     0.215 C 
ATOM     15  C   UNL A   1      30.315  25.279  26.063  1.00  0.00     0.081 C 
BRANCH  14  16
ATOM     16  C   UNL A   1      32.440  24.298  24.995  1.00  0.00     0.048 A 
ATOM     17  C   UNL A   1      36.660  23.288  25.194  1.00  0.00     0.047 C 
ATOM     18  C   UNL A   1      35.200  23.622  25.187  1.00  0.00    -0.012 A 
ATOM     19  C   UNL A   1      34.753  24.906  25.513  1.00  0.00     0.046 A 
ATOM     20  C   UNL A   1      34.254  22.681  24.784  1.00  0.00     0.126 A 
ATOM     21  C   UNL A   1      33.398  25.232  25.411  1.00  0.00     0.132 A 
ATOM     22  C   UNL A   1      32.899  23.000  24.707  1.00  0.00     0.052 A 
ATOM     23  F   UNL A   1      34.644  21.443  24.447  1.00  0.00    -0.207 F 
ATOM     24  F   UNL A   1      33.049  26.499  25.676  1.00  0.00    -0.206 F 
ENDBRANCH  14  16
ENDBRANCH   8  14
ENDBRANCH   4   7
ENDBRANCH   2   3
ENDBRANCH   1   2
BRANCH   1  25
ATOM     25  C   UNL A   1      32.410  30.497  26.982  1.00  0.00     0.023 C 
BRANCH  25  26
ATOM     26  C   UNL A   1      33.387  31.598  27.377  1.00  0.00     0.116 C 
BRANCH  26  27
ATOM     27  N   UNL A   1      32.757  32.880  27.666  1.00  0.00    -0.352 N 
ATOM     28  C   UNL A   1      33.228  33.930  28.426  1.00  0.00     0.251 C 
ATOM     29  H   UNL A   1      31.870  33.017  27.263  1.00  0.00     0.163 HD
ATOM     30  O   UNL A   1      32.554  34.938  28.592  1.00  0.00    -0.269 OA
BRANCH  28  31
ATOM     31  C   UNL A   1      34.534  33.782  29.098  1.00  0.00     0.039 A 
ATOM     32  C   UNL A   1      35.689  34.259  28.481  1.00  0.00     0.014 A 
ATOM     33  C   UNL A   1      34.608  33.021  30.268  1.00  0.00     0.014 A 
ATOM     34  C   UNL A   1      36.920  33.773  28.895  1.00  0.00     0.010 A 
ATOM     35  C   UNL A   1      35.858  32.617  30.741  1.00  0.00     0.010 A 
ATOM     36  C   UNL A   1      37.015  32.921  30.009  1.00  0.00    -0.014 A 
BRANCH  36  37
ATOM     37  C   UNL A   1      38.327  32.309  30.335  1.00  0.00     0.031 A 
ATOM     38  C   UNL A   1      39.210  32.906  31.400  1.00  0.00     0.074 A 
ATOM     39  C   UNL A   1      38.674  31.155  29.736  1.00  0.00     0.049 A 
ATOM     40  N   UNL A   1      40.371  32.488  31.840  1.00  0.00    -0.248 NA
ATOM     41  C   UNL A   1      38.733  34.134  32.056  1.00  0.00     0.031 C 
ATOM     42  C   UNL A   1      37.887  30.472  28.708  1.00  0.00     0.029 A 
ATOM     43  N   UNL A   1      39.752  30.332  29.933  1.00  0.00    -0.354 N 
ATOM     44  C   UNL A   1      40.775  33.415  32.794  1.00  0.00     0.074 A 
ATOM     45  C   UNL A   1      39.745  34.428  32.861  1.00  0.00     0.031 C 
ATOM     46  C   UNL A   1      38.470  29.300  28.415  1.00  0.00     0.029 A 
ATOM     47  C   UNL A   1      39.704  29.182  29.185  1.00  0.00     0.049 A 
ATOM     48  H   UNL A   1      40.489  30.544  30.551  1.00  0.00     0.167 HD
ATOM     49  C   UNL A   1      41.900  33.417  33.550  1.00  0.00     0.037 A 
ATOM     50  C   UNL A   1      40.563  28.150  29.119  1.00  0.00     0.037 A 
ATOM     51  C   UNL A   1      42.906  32.389  33.507  1.00  0.00     0.049 A 
ATOM     52  C   UNL A   1      41.803  28.183  29.960  1.00  0.00     0.074 A 
ATOM     53  C   UNL A   1      44.080  32.293  34.235  1.00  0.00     0.029 A 
ATOM     54  N   UNL A   1      42.849  31.265  32.694  1.00  0.00    -0.354 N 
ATOM     55  N   UNL A   1      42.184  29.081  30.835  1.00  0.00    -0.248 NA
ATOM     56  C   UNL A   1      42.744  27.066  29.789  1.00  0.00     0.031 C 
ATOM     57  C   UNL A   1      44.745  31.125  33.842  1.00  0.00     0.029 A 
ATOM     58  C   UNL A   1      43.970  30.478  32.894  1.00  0.00     0.049 A 
ATOM     59  H   UNL A   1      42.117  31.060  32.068  1.00  0.00     0.167 HD
ATOM     60  C   UNL A   1      43.408  28.642  31.319  1.00  0.00     0.074 A 
ATOM     61  C   UNL A   1      43.691  27.382  30.662  1.00  0.00     0.031 C 
ATOM     62  C   UNL A   1      44.231  29.234  32.218  1.00  0.00     0.037 A 
BRANCH  49  63
ATOM     63  C   UNL A   1      42.112  34.582  34.473  1.00  0.00     0.057 A 
ATOM     64  C   UNL A   1      42.762  35.739  34.022  1.00  0.00     0.134 A 
ATOM     65  C   UNL A   1      41.699  34.554  35.811  1.00  0.00     0.134 A 
ATOM     66  F   UNL A   1      43.186  35.830  32.753  1.00  0.00    -0.206 F 
ATOM     67  C   UNL A   1      42.993  36.825  34.869  1.00  0.00     0.040 A 
ATOM     68  C   UNL A   1      41.907  35.643  36.662  1.00  0.00     0.040 A 
ATOM     69  F   UNL A   1      41.057  33.483  36.301  1.00  0.00    -0.206 F 
ATOM     70  C   UNL A   1      42.560  36.780  36.192  1.00  0.00     0.006 A 
ENDBRANCH  49  63
BRANCH  50  71
ATOM     71  C   UNL A   1      40.275  27.010  28.218  1.00  0.00     0.057 A 
ATOM     72  C   UNL A   1      39.456  25.950  28.623  1.00  0.00     0.134 A 
ATOM     73  C   UNL A   1      40.832  26.944  26.936  1.00  0.00     0.134 A 
ATOM     74  F   UNL A   1      38.899  25.952  29.844  1.00  0.00    -0.206 F 
ATOM     75  C   UNL A   1      39.214  24.855  27.794  1.00  0.00     0.040 A 
ATOM     76  C   UNL A   1      40.578  25.867  26.086  1.00  0.00     0.040 A 
ATOM     77  F   UNL A   1      41.611  27.938  26.486  1.00  0.00    -0.206 F 
ATOM     78  C   UNL A   1      39.773  24.814  26.518  1.00  0.00     0.006 A 
ENDBRANCH  50  71
BRANCH  62  79
ATOM     79  C   UNL A   1      45.505  28.514  32.533  1.00  0.00     0.057 A 
ATOM     80  C   UNL A   1      45.558  27.567  33.562  1.00  0.00     0.134 A 
ATOM     81  C   UNL A   1      46.680  28.760  31.811  1.00  0.00     0.134 A 
ATOM     82  F   UNL A   1      44.467  27.290  34.290  1.00  0.00    -0.206 F 
ATOM     83  C   UNL A   1      46.738  26.885  33.859  1.00  0.00     0.040 A 
ATOM     84  C   UNL A   1      47.861  28.069  32.087  1.00  0.00     0.040 A 
ATOM     85  F   UNL A   1      46.685  29.644  30.801  1.00  0.00    -0.206 F 
ATOM     86  C   UNL A   1      47.891  27.131  33.116  1.00  0.00     0.006 A 
ENDBRANCH  62  79
ENDBRANCH  36  37
ENDBRANCH  28  31
ENDBRANCH  26  27
ENDBRANCH  25  26
ENDBRANCH   1  25
TORSDOF 13
ENDMDL
