MODEL 1
REMARK VINA RESULT:     -13.3      0.000      0.000
REMARK SMILES O=C(NCCCCNC(=O)[C@H](c1c[nH]c2ccc(Cl)cc12)[NH+]1CCN(c2cccc(Cl)c2)CC1)c1ccc(-c2c3nc(c(-c4c(F)cccc4F)c4ccc([nH]4)c(-c4c(F)cccc4F)c4nc(c(-c5c(F)cccc5F)c5ccc2[nH]5)C=C4)C=C3)cc1
REMARK SMILES IDX 5 1 4 2 3 3 1 4 2 5 35 7 36 8 88 9 37 10 87 11 38 12 39 13
REMARK SMILES IDX 40 14 81 15 41 16 86 17 80 18 82 19 42 20 85 21 79 22 78 23
REMARK SMILES IDX 43 25 69 26 52 27 68 28 53 29 56 30 67 31 83 32 54 33 55 34
REMARK SMILES IDX 66 36 84 37 57 38 44 39 45 40 50 41 46 42 47 43 49 44 51 45
REMARK SMILES IDX 48 46 70 47 71 48 76 49 72 50 73 51 75 52 77 53 74 54 58 55
REMARK SMILES IDX 59 56 64 57 60 58 61 59 63 60 65 61 62 62 6 63 7 64 8 65
REMARK SMILES IDX 9 66 10 68 11 69 22 70 23 71 34 72 24 74 33 75 25 76 26 77
REMARK SMILES IDX 27 78 32 79 28 80 30 81 29 82 31 83 12 84 13 85 21 86 14 87
REMARK SMILES IDX 15 88 20 89 16 91 18 92 17 93 19 94
REMARK H PARENT 3 6 82 24 56 35 8 67 22 73 14 90
REMARK Flexibility Score: inf
ROOT
ATOM      1  C   UNL A   1      31.558  31.737  26.957  1.00  0.00     0.023 C 
ENDROOT
BRANCH   1   2
ATOM      2  C   UNL A   1      32.759  32.669  26.942  1.00  0.00     0.116 C 
BRANCH   2   3
ATOM      3  N   UNL A   1      32.471  33.975  27.510  1.00  0.00    -0.352 N 
ATOM      4  O   UNL A   1      32.668  35.643  29.026  1.00  0.00    -0.269 OA
ATOM      5  C   UNL A   1      33.094  34.587  28.569  1.00  0.00     0.251 C 
ATOM      6  H   UNL A   1      31.742  34.482  27.085  1.00  0.00     0.163 HD
BRANCH   5   7
ATOM      7  C   UNL A   1      34.272  33.934  29.171  1.00  0.00     0.039 A 
ATOM      8  C   UNL A   1      34.104  32.914  30.112  1.00  0.00     0.014 A 
ATOM      9  C   UNL A   1      35.549  34.359  28.801  1.00  0.00     0.014 A 
ATOM     10  C   UNL A   1      35.214  32.387  30.759  1.00  0.00     0.010 A 
ATOM     11  C   UNL A   1      36.667  33.776  29.396  1.00  0.00     0.010 A 
ATOM     12  C   UNL A   1      36.505  32.792  30.384  1.00  0.00    -0.014 A 
BRANCH  12  13
ATOM     13  C   UNL A   1      37.674  32.074  30.942  1.00  0.00     0.031 A 
ATOM     14  C   UNL A   1      38.386  31.010  30.164  1.00  0.00     0.074 A 
ATOM     15  C   UNL A   1      38.075  32.404  32.185  1.00  0.00     0.049 A 
ATOM     16  N   UNL A   1      39.406  30.276  30.527  1.00  0.00    -0.248 NA
ATOM     17  C   UNL A   1      37.891  30.722  28.808  1.00  0.00     0.031 C 
ATOM     18  C   UNL A   1      37.434  33.411  33.036  1.00  0.00     0.029 A 
ATOM     19  N   UNL A   1      39.111  31.935  32.949  1.00  0.00    -0.354 N 
ATOM     20  C   UNL A   1      39.665  29.427  29.460  1.00  0.00     0.074 A 
ATOM     21  C   UNL A   1      38.688  29.728  28.434  1.00  0.00     0.031 C 
ATOM     22  C   UNL A   1      38.102  33.501  34.193  1.00  0.00     0.029 A 
ATOM     23  C   UNL A   1      39.179  32.518  34.191  1.00  0.00     0.049 A 
ATOM     24  H   UNL A   1      39.743  31.248  32.639  1.00  0.00     0.167 HD
ATOM     25  C   UNL A   1      40.634  28.487  29.353  1.00  0.00     0.037 A 
ATOM     26  C   UNL A   1      39.995  32.266  35.228  1.00  0.00     0.037 A 
ATOM     27  C   UNL A   1      41.616  28.216  30.373  1.00  0.00     0.049 A 
ATOM     28  C   UNL A   1      41.040  31.201  35.084  1.00  0.00     0.074 A 
ATOM     29  C   UNL A   1      42.688  27.343  30.324  1.00  0.00     0.029 A 
ATOM     30  N   UNL A   1      41.637  28.807  31.627  1.00  0.00    -0.354 N 
ATOM     31  N   UNL A   1      41.313  30.452  34.045  1.00  0.00    -0.248 NA
ATOM     32  C   UNL A   1      41.880  30.938  36.259  1.00  0.00     0.031 C 
ATOM     33  C   UNL A   1      43.330  27.369  31.567  1.00  0.00     0.029 A 
ATOM     34  C   UNL A   1      42.681  28.286  32.376  1.00  0.00     0.049 A 
ATOM     35  H   UNL A   1      41.005  29.494  31.940  1.00  0.00     0.167 HD
ATOM     36  C   UNL A   1      42.357  29.629  34.436  1.00  0.00     0.074 A 
ATOM     37  C   UNL A   1      42.687  29.992  35.800  1.00  0.00     0.031 C 
ATOM     38  C   UNL A   1      42.981  28.653  33.735  1.00  0.00     0.037 A 
BRANCH  25  39
ATOM     39  C   UNL A   1      40.687  27.663  28.102  1.00  0.00     0.057 A 
ATOM     40  C   UNL A   1      41.438  28.057  26.988  1.00  0.00     0.134 A 
ATOM     41  C   UNL A   1      40.059  26.411  28.051  1.00  0.00     0.134 A 
ATOM     42  F   UNL A   1      42.058  29.246  26.972  1.00  0.00    -0.206 F 
ATOM     43  C   UNL A   1      41.561  27.234  25.866  1.00  0.00     0.040 A 
ATOM     44  C   UNL A   1      40.189  25.573  26.942  1.00  0.00     0.040 A 
ATOM     45  F   UNL A   1      39.330  25.973  29.088  1.00  0.00    -0.206 F 
ATOM     46  C   UNL A   1      40.944  25.985  25.845  1.00  0.00     0.006 A 
ENDBRANCH  25  39
BRANCH  26  47
ATOM     47  C   UNL A   1      39.822  33.007  36.501  1.00  0.00     0.057 A 
ATOM     48  C   UNL A   1      38.872  32.613  37.448  1.00  0.00     0.134 A 
ATOM     49  C   UNL A   1      40.608  34.127  36.800  1.00  0.00     0.134 A 
ATOM     50  F   UNL A   1      38.079  31.557  37.210  1.00  0.00    -0.206 F 
ATOM     51  C   UNL A   1      38.697  33.315  38.641  1.00  0.00     0.040 A 
ATOM     52  C   UNL A   1      40.463  34.822  38.000  1.00  0.00     0.040 A 
ATOM     53  F   UNL A   1      41.543  34.548  35.935  1.00  0.00    -0.206 F 
ATOM     54  C   UNL A   1      39.499  34.421  38.922  1.00  0.00     0.006 A 
ENDBRANCH  26  47
BRANCH  38  55
ATOM     55  C   UNL A   1      44.076  27.912  34.439  1.00  0.00     0.057 A 
ATOM     56  C   UNL A   1      45.390  28.397  34.455  1.00  0.00     0.134 A 
ATOM     57  C   UNL A   1      43.813  26.719  35.121  1.00  0.00     0.134 A 
ATOM     58  F   UNL A   1      45.707  29.526  33.804  1.00  0.00    -0.206 F 
ATOM     59  C   UNL A   1      46.411  27.707  35.110  1.00  0.00     0.040 A 
ATOM     60  C   UNL A   1      44.821  26.034  35.800  1.00  0.00     0.040 A 
ATOM     61  F   UNL A   1      42.574  26.207  35.146  1.00  0.00    -0.206 F 
ATOM     62  C   UNL A   1      46.126  26.524  35.790  1.00  0.00     0.006 A 
ENDBRANCH  38  55
ENDBRANCH  12  13
ENDBRANCH   5   7
ENDBRANCH   2   3
ENDBRANCH   1   2
BRANCH   1  63
ATOM     63  C   UNL A   1      31.729  30.470  26.121  1.00  0.00     0.023 C 
BRANCH  63  64
ATOM     64  C   UNL A   1      32.386  29.307  26.862  1.00  0.00     0.116 C 
BRANCH  64  65
ATOM     65  N   UNL A   1      31.468  28.200  27.052  1.00  0.00    -0.351 N 
ATOM     66  C   UNL A   1      31.246  27.120  26.229  1.00  0.00     0.283 C 
ATOM     67  H   UNL A   1      30.933  28.225  27.879  1.00  0.00     0.163 HD
ATOM     68  O   UNL A   1      30.296  26.384  26.514  1.00  0.00    -0.268 OA
BRANCH  66  69
ATOM     69  C   UNL A   1      32.195  26.895  25.011  1.00  0.00     0.307 C 
BRANCH  69  70
ATOM     70  N   UNL A   1      32.164  25.482  24.582  1.00  0.00    -0.318 N 
ATOM     71  C   UNL A   1      32.968  25.098  23.410  1.00  0.00     0.284 C 
ATOM     72  C   UNL A   1      32.308  24.498  25.666  1.00  0.00     0.284 C 
ATOM     73  H   UNL A   1      31.202  25.445  24.247  1.00  0.00     0.349 HD
ATOM     74  C   UNL A   1      34.429  24.657  23.700  1.00  0.00     0.178 C 
ATOM     75  C   UNL A   1      33.754  24.098  26.020  1.00  0.00     0.178 C 
ATOM     76  N   UNL A   1      34.471  23.694  24.806  1.00  0.00    -0.360 N 
BRANCH  76  77
ATOM     77  C   UNL A   1      35.630  22.956  25.000  1.00  0.00     0.038 A 
ATOM     78  C   UNL A   1      36.795  23.627  25.395  1.00  0.00     0.026 A 
ATOM     79  C   UNL A   1      35.688  21.570  24.820  1.00  0.00     0.046 A 
ATOM     80  C   UNL A   1      37.981  22.934  25.643  1.00  0.00     0.004 A 
ATOM     81  C   UNL A   1      36.876  20.877  25.058  1.00  0.00     0.043 A 
ATOM     82  C   UNL A   1      38.021  21.552  25.476  1.00  0.00     0.020 A 
ATOM     83  Cl  UNL A   1      36.929  19.171  24.836  1.00  0.00    -0.084 Cl
ENDBRANCH  76  77
ENDBRANCH  69  70
BRANCH  69  84
ATOM     84  C   UNL A   1      31.926  27.912  23.929  1.00  0.00     0.044 A 
ATOM     85  C   UNL A   1      32.854  28.523  23.098  1.00  0.00     0.094 A 
ATOM     86  C   UNL A   1      30.635  28.344  23.465  1.00  0.00     0.011 A 
ATOM     87  N   UNL A   1      32.198  29.363  22.244  1.00  0.00    -0.361 N 
ATOM     88  C   UNL A   1      30.840  29.252  22.424  1.00  0.00     0.046 A 
ATOM     89  C   UNL A   1      29.308  28.017  23.814  1.00  0.00     0.031 A 
ATOM     90  H   UNL A   1      32.633  29.960  21.594  1.00  0.00     0.166 HD
ATOM     91  C   UNL A   1      29.791  29.873  21.737  1.00  0.00     0.028 A 
ATOM     92  C   UNL A   1      28.252  28.608  23.115  1.00  0.00     0.041 A 
ATOM     93  C   UNL A   1      28.486  29.529  22.099  1.00  0.00     0.022 A 
ATOM     94  Cl  UNL A   1      26.633  28.173  23.512  1.00  0.00    -0.084 Cl
ENDBRANCH  69  84
ENDBRANCH  66  69
ENDBRANCH  64  65
ENDBRANCH  63  64
ENDBRANCH   1  63
TORSDOF 14
ENDMDL
MODEL 2
REMARK VINA RESULT:     -13.2      4.805     10.262
REMARK SMILES O=C(NCCCCNC(=O)[C@H](c1c[nH]c2ccc(Cl)cc12)[NH+]1CCN(c2cccc(Cl)c2)CC1)c1ccc(-c2c3nc(c(-c4c(F)cccc4F)c4ccc([nH]4)c(-c4c(F)cccc4F)c4nc(c(-c5c(F)cccc5F)c5ccc2[nH]5)C=C4)C=C3)cc1
REMARK SMILES IDX 5 1 4 2 3 3 1 4 2 5 35 7 36 8 88 9 37 10 87 11 38 12 39 13
REMARK SMILES IDX 40 14 81 15 41 16 86 17 80 18 82 19 42 20 85 21 79 22 78 23
REMARK SMILES IDX 43 25 69 26 52 27 68 28 53 29 56 30 67 31 83 32 54 33 55 34
REMARK SMILES IDX 66 36 84 37 57 38 44 39 45 40 50 41 46 42 47 43 49 44 51 45
REMARK SMILES IDX 48 46 70 47 71 48 76 49 72 50 73 51 75 52 77 53 74 54 58 55
REMARK SMILES IDX 59 56 64 57 60 58 61 59 63 60 65 61 62 62 6 63 7 64 8 65
REMARK SMILES IDX 9 66 10 68 11 69 22 70 23 71 34 72 24 74 33 75 25 76 26 77
REMARK SMILES IDX 27 78 32 79 28 80 30 81 29 82 31 83 12 84 13 85 21 86 14 87
REMARK SMILES IDX 15 88 20 89 16 91 18 92 17 93 19 94
REMARK H PARENT 3 6 82 24 56 35 8 67 22 73 14 90
REMARK Flexibility Score: inf
ROOT
ATOM      1  C   UNL A   1      38.088  19.856  24.773  1.00  0.00     0.023 C 
ENDROOT
BRANCH   1   2
ATOM      2  C   UNL A   1      39.134  20.123  25.843  1.00  0.00     0.116 C 
BRANCH   2   3
ATOM      3  N   UNL A   1      40.174  19.108  25.886  1.00  0.00    -0.352 N 
ATOM      4  O   UNL A   1      42.303  18.354  26.012  1.00  0.00    -0.269 OA
ATOM      5  C   UNL A   1      41.513  19.286  26.126  1.00  0.00     0.251 C 
ATOM      6  H   UNL A   1      39.882  18.182  25.725  1.00  0.00     0.163 HD
BRANCH   5   7
ATOM      7  C   UNL A   1      41.994  20.631  26.495  1.00  0.00     0.039 A 
ATOM      8  C   UNL A   1      42.344  21.548  25.500  1.00  0.00     0.014 A 
ATOM      9  C   UNL A   1      42.109  20.967  27.846  1.00  0.00     0.014 A 
ATOM     10  C   UNL A   1      42.905  22.767  25.856  1.00  0.00     0.010 A 
ATOM     11  C   UNL A   1      42.602  22.221  28.202  1.00  0.00     0.010 A 
ATOM     12  C   UNL A   1      43.010  23.125  27.209  1.00  0.00    -0.014 A 
BRANCH  12  13
ATOM     13  C   UNL A   1      43.423  24.504  27.559  1.00  0.00     0.031 A 
ATOM     14  C   UNL A   1      42.423  25.540  27.973  1.00  0.00     0.074 A 
ATOM     15  C   UNL A   1      44.734  24.802  27.483  1.00  0.00     0.049 A 
ATOM     16  N   UNL A   1      42.627  26.795  28.283  1.00  0.00    -0.248 NA
ATOM     17  C   UNL A   1      41.013  25.126  28.043  1.00  0.00     0.031 C 
ATOM     18  C   UNL A   1      45.786  23.869  27.067  1.00  0.00     0.029 A 
ATOM     19  N   UNL A   1      45.408  25.964  27.751  1.00  0.00    -0.354 N 
ATOM     20  C   UNL A   1      41.377  27.327  28.565  1.00  0.00     0.074 A 
ATOM     21  C   UNL A   1      40.413  26.261  28.380  1.00  0.00     0.031 C 
ATOM     22  C   UNL A   1      46.973  24.487  27.129  1.00  0.00     0.029 A 
ATOM     23  C   UNL A   1      46.760  25.873  27.529  1.00  0.00     0.049 A 
ATOM     24  H   UNL A   1      44.966  26.783  28.070  1.00  0.00     0.167 HD
ATOM     25  C   UNL A   1      41.070  28.590  28.945  1.00  0.00     0.037 A 
ATOM     26  C   UNL A   1      47.721  26.809  27.604  1.00  0.00     0.037 A 
ATOM     27  C   UNL A   1      42.043  29.633  29.149  1.00  0.00     0.049 A 
ATOM     28  C   UNL A   1      47.342  28.203  28.004  1.00  0.00     0.074 A 
ATOM     29  C   UNL A   1      41.839  30.920  29.615  1.00  0.00     0.029 A 
ATOM     30  N   UNL A   1      43.399  29.511  28.889  1.00  0.00    -0.354 N 
ATOM     31  N   UNL A   1      46.164  28.674  28.330  1.00  0.00    -0.248 NA
ATOM     32  C   UNL A   1      48.421  29.198  28.035  1.00  0.00     0.031 C 
ATOM     33  C   UNL A   1      43.066  31.593  29.591  1.00  0.00     0.029 A 
ATOM     34  C   UNL A   1      44.039  30.714  29.147  1.00  0.00     0.049 A 
ATOM     35  H   UNL A   1      43.843  28.693  28.569  1.00  0.00     0.167 HD
ATOM     36  C   UNL A   1      46.357  30.018  28.607  1.00  0.00     0.074 A 
ATOM     37  C   UNL A   1      47.773  30.280  28.438  1.00  0.00     0.031 C 
ATOM     38  C   UNL A   1      45.445  30.955  28.958  1.00  0.00     0.037 A 
BRANCH  25  39
ATOM     39  C   UNL A   1      39.627  28.936  29.157  1.00  0.00     0.057 A 
ATOM     40  C   UNL A   1      38.799  29.338  28.102  1.00  0.00     0.134 A 
ATOM     41  C   UNL A   1      39.036  28.766  30.417  1.00  0.00     0.134 A 
ATOM     42  F   UNL A   1      39.305  29.524  26.874  1.00  0.00    -0.206 F 
ATOM     43  C   UNL A   1      37.434  29.561  28.293  1.00  0.00     0.040 A 
ATOM     44  C   UNL A   1      37.669  28.970  30.615  1.00  0.00     0.040 A 
ATOM     45  F   UNL A   1      39.773  28.377  31.467  1.00  0.00    -0.206 F 
ATOM     46  C   UNL A   1      36.863  29.368  29.549  1.00  0.00     0.006 A 
ENDBRANCH  25  39
BRANCH  26  47
ATOM     47  C   UNL A   1      49.119  26.463  27.252  1.00  0.00     0.057 A 
ATOM     48  C   UNL A   1      49.999  25.937  28.204  1.00  0.00     0.134 A 
ATOM     49  C   UNL A   1      49.607  26.650  25.953  1.00  0.00     0.134 A 
ATOM     50  F   UNL A   1      49.592  25.751  29.469  1.00  0.00    -0.206 F 
ATOM     51  C   UNL A   1      51.319  25.623  27.881  1.00  0.00     0.040 A 
ATOM     52  C   UNL A   1      50.917  26.315  25.609  1.00  0.00     0.040 A 
ATOM     53  F   UNL A   1      48.809  27.143  24.995  1.00  0.00    -0.206 F 
ATOM     54  C   UNL A   1      51.779  25.806  26.577  1.00  0.00     0.006 A 
ENDBRANCH  26  47
BRANCH  38  55
ATOM     55  C   UNL A   1      45.957  32.345  29.176  1.00  0.00     0.057 A 
ATOM     56  C   UNL A   1      46.442  32.756  30.425  1.00  0.00     0.134 A 
ATOM     57  C   UNL A   1      45.984  33.274  28.130  1.00  0.00     0.134 A 
ATOM     58  F   UNL A   1      46.426  31.917  31.471  1.00  0.00    -0.206 F 
ATOM     59  C   UNL A   1      46.920  34.051  30.629  1.00  0.00     0.040 A 
ATOM     60  C   UNL A   1      46.480  34.564  28.316  1.00  0.00     0.040 A 
ATOM     61  F   UNL A   1      45.536  32.939  26.910  1.00  0.00    -0.206 F 
ATOM     62  C   UNL A   1      46.944  34.958  29.570  1.00  0.00     0.006 A 
ENDBRANCH  38  55
ENDBRANCH  12  13
ENDBRANCH   5   7
ENDBRANCH   2   3
ENDBRANCH   1   2
BRANCH   1  63
ATOM     63  C   UNL A   1      36.777  20.615  24.966  1.00  0.00     0.023 C 
BRANCH  63  64
ATOM     64  C   UNL A   1      36.883  22.124  24.755  1.00  0.00     0.116 C 
BRANCH  64  65
ATOM     65  N   UNL A   1      36.172  22.554  23.565  1.00  0.00    -0.351 N 
ATOM     66  C   UNL A   1      34.871  22.988  23.453  1.00  0.00     0.283 C 
ATOM     67  H   UNL A   1      36.690  22.532  22.727  1.00  0.00     0.163 HD
ATOM     68  O   UNL A   1      34.429  23.147  22.311  1.00  0.00    -0.268 OA
BRANCH  66  69
ATOM     69  C   UNL A   1      34.053  23.251  24.756  1.00  0.00     0.307 C 
BRANCH  69  70
ATOM     70  N   UNL A   1      32.890  24.116  24.473  1.00  0.00    -0.318 N 
ATOM     71  C   UNL A   1      32.009  24.479  25.595  1.00  0.00     0.284 C 
ATOM     72  C   UNL A   1      33.174  25.285  23.625  1.00  0.00     0.284 C 
ATOM     73  H   UNL A   1      32.337  23.456  23.925  1.00  0.00     0.349 HD
ATOM     74  C   UNL A   1      32.390  25.769  26.372  1.00  0.00     0.178 C 
ATOM     75  C   UNL A   1      33.623  26.558  24.369  1.00  0.00     0.178 C 
ATOM     76  N   UNL A   1      32.674  26.870  25.443  1.00  0.00    -0.360 N 
BRANCH  76  77
ATOM     77  C   UNL A   1      32.721  28.163  25.942  1.00  0.00     0.038 A 
ATOM     78  C   UNL A   1      33.756  28.506  26.823  1.00  0.00     0.026 A 
ATOM     79  C   UNL A   1      31.781  29.142  25.606  1.00  0.00     0.046 A 
ATOM     80  C   UNL A   1      33.878  29.802  27.327  1.00  0.00     0.004 A 
ATOM     81  C   UNL A   1      31.896  30.436  26.117  1.00  0.00     0.043 A 
ATOM     82  C   UNL A   1      32.945  30.772  26.971  1.00  0.00     0.020 A 
ATOM     83  Cl  UNL A   1      30.733  31.631  25.689  1.00  0.00    -0.084 Cl
ENDBRANCH  76  77
ENDBRANCH  69  70
BRANCH  69  84
ATOM     84  C   UNL A   1      33.744  21.955  25.465  1.00  0.00     0.044 A 
ATOM     85  C   UNL A   1      33.718  21.728  26.833  1.00  0.00     0.094 A 
ATOM     86  C   UNL A   1      33.289  20.735  24.853  1.00  0.00     0.011 A 
ATOM     87  N   UNL A   1      33.375  20.426  27.060  1.00  0.00    -0.361 N 
ATOM     88  C   UNL A   1      33.078  19.803  25.871  1.00  0.00     0.046 A 
ATOM     89  C   UNL A   1      33.003  20.350  23.526  1.00  0.00     0.031 A 
ATOM     90  H   UNL A   1      33.345  19.996  27.945  1.00  0.00     0.166 HD
ATOM     91  C   UNL A   1      32.627  18.500  25.631  1.00  0.00     0.028 A 
ATOM     92  C   UNL A   1      32.525  19.061  23.277  1.00  0.00     0.041 A 
ATOM     93  C   UNL A   1      32.347  18.145  24.309  1.00  0.00     0.022 A 
ATOM     94  Cl  UNL A   1      32.132  18.608  21.661  1.00  0.00    -0.084 Cl
ENDBRANCH  69  84
ENDBRANCH  66  69
ENDBRANCH  64  65
ENDBRANCH  63  64
ENDBRANCH   1  63
TORSDOF 14
ENDMDL
MODEL 3
REMARK VINA RESULT:     -13.1      0.468      5.926
REMARK SMILES O=C(NCCCCNC(=O)[C@H](c1c[nH]c2ccc(Cl)cc12)[NH+]1CCN(c2cccc(Cl)c2)CC1)c1ccc(-c2c3nc(c(-c4c(F)cccc4F)c4ccc([nH]4)c(-c4c(F)cccc4F)c4nc(c(-c5c(F)cccc5F)c5ccc2[nH]5)C=C4)C=C3)cc1
REMARK SMILES IDX 5 1 4 2 3 3 1 4 2 5 35 7 36 8 88 9 37 10 87 11 38 12 39 13
REMARK SMILES IDX 40 14 81 15 41 16 86 17 80 18 82 19 42 20 85 21 79 22 78 23
REMARK SMILES IDX 43 25 69 26 52 27 68 28 53 29 56 30 67 31 83 32 54 33 55 34
REMARK SMILES IDX 66 36 84 37 57 38 44 39 45 40 50 41 46 42 47 43 49 44 51 45
REMARK SMILES IDX 48 46 70 47 71 48 76 49 72 50 73 51 75 52 77 53 74 54 58 55
REMARK SMILES IDX 59 56 64 57 60 58 61 59 63 60 65 61 62 62 6 63 7 64 8 65
REMARK SMILES IDX 9 66 10 68 11 69 22 70 23 71 34 72 24 74 33 75 25 76 26 77
REMARK SMILES IDX 27 78 32 79 28 80 30 81 29 82 31 83 12 84 13 85 21 86 14 87
REMARK SMILES IDX 15 88 20 89 16 91 18 92 17 93 19 94
REMARK H PARENT 3 6 82 24 56 35 8 67 22 73 14 90
REMARK Flexibility Score: inf
ROOT
ATOM      1  C   UNL A   1      31.419  31.863  26.878  1.00  0.00     0.023 C 
ENDROOT
BRANCH   1   2
ATOM      2  C   UNL A   1      32.706  32.628  27.134  1.00  0.00     0.116 C 
BRANCH   2   3
ATOM      3  N   UNL A   1      32.476  33.990  27.588  1.00  0.00    -0.352 N 
ATOM      4  O   UNL A   1      32.771  35.782  28.936  1.00  0.00    -0.269 OA
ATOM      5  C   UNL A   1      33.150  34.675  28.568  1.00  0.00     0.251 C 
ATOM      6  H   UNL A   1      31.751  34.480  27.138  1.00  0.00     0.163 HD
BRANCH   5   7
ATOM      7  C   UNL A   1      34.325  34.041  29.195  1.00  0.00     0.039 A 
ATOM      8  C   UNL A   1      34.156  33.122  30.235  1.00  0.00     0.014 A 
ATOM      9  C   UNL A   1      35.603  34.382  28.747  1.00  0.00     0.014 A 
ATOM     10  C   UNL A   1      35.268  32.620  30.896  1.00  0.00     0.010 A 
ATOM     11  C   UNL A   1      36.720  33.818  29.363  1.00  0.00     0.010 A 
ATOM     12  C   UNL A   1      36.558  32.940  30.446  1.00  0.00    -0.014 A 
BRANCH  12  13
ATOM     13  C   UNL A   1      37.721  32.238  31.036  1.00  0.00     0.031 A 
ATOM     14  C   UNL A   1      38.294  32.643  32.360  1.00  0.00     0.074 A 
ATOM     15  C   UNL A   1      38.258  31.221  30.334  1.00  0.00     0.049 A 
ATOM     16  N   UNL A   1      39.324  32.143  32.992  1.00  0.00    -0.248 NA
ATOM     17  C   UNL A   1      37.637  33.755  33.065  1.00  0.00     0.031 C 
ATOM     18  C   UNL A   1      37.788  30.762  29.023  1.00  0.00     0.029 A 
ATOM     19  N   UNL A   1      39.309  30.389  30.619  1.00  0.00    -0.354 N 
ATOM     20  C   UNL A   1      39.455  32.886  34.157  1.00  0.00     0.074 A 
ATOM     21  C   UNL A   1      38.403  33.882  34.142  1.00  0.00     0.031 C 
ATOM     22  C   UNL A   1      38.531  29.721  28.628  1.00  0.00     0.029 A 
ATOM     23  C   UNL A   1      39.565  29.476  29.626  1.00  0.00     0.049 A 
ATOM     24  H   UNL A   1      39.828  30.441  31.453  1.00  0.00     0.167 HD
ATOM     25  C   UNL A   1      40.370  32.743  35.144  1.00  0.00     0.037 A 
ATOM     26  C   UNL A   1      40.546  28.564  29.512  1.00  0.00     0.037 A 
ATOM     27  C   UNL A   1      41.395  31.730  35.157  1.00  0.00     0.049 A 
ATOM     28  C   UNL A   1      41.557  28.449  30.613  1.00  0.00     0.074 A 
ATOM     29  C   UNL A   1      42.315  31.450  36.151  1.00  0.00     0.029 A 
ATOM     30  N   UNL A   1      41.641  30.841  34.122  1.00  0.00    -0.354 N 
ATOM     31  N   UNL A   1      41.628  29.117  31.738  1.00  0.00    -0.248 NA
ATOM     32  C   UNL A   1      42.630  27.465  30.423  1.00  0.00     0.031 C 
ATOM     33  C   UNL A   1      43.151  30.423  35.699  1.00  0.00     0.029 A 
ATOM     34  C   UNL A   1      42.726  30.038  34.438  1.00  0.00     0.049 A 
ATOM     35  H   UNL A   1      41.123  30.787  33.287  1.00  0.00     0.167 HD
ATOM     36  C   UNL A   1      42.750  28.634  32.393  1.00  0.00     0.074 A 
ATOM     37  C   UNL A   1      43.312  27.596  31.551  1.00  0.00     0.031 C 
ATOM     38  C   UNL A   1      43.276  29.021  33.580  1.00  0.00     0.037 A 
BRANCH  25  39
ATOM     39  C   UNL A   1      40.328  33.702  36.295  1.00  0.00     0.057 A 
ATOM     40  C   UNL A   1      41.025  34.916  36.273  1.00  0.00     0.134 A 
ATOM     41  C   UNL A   1      39.499  33.451  37.397  1.00  0.00     0.134 A 
ATOM     42  F   UNL A   1      41.840  35.213  35.250  1.00  0.00    -0.206 F 
ATOM     43  C   UNL A   1      40.899  35.846  37.307  1.00  0.00     0.040 A 
ATOM     44  C   UNL A   1      39.352  34.381  38.427  1.00  0.00     0.040 A 
ATOM     45  F   UNL A   1      38.800  32.309  37.475  1.00  0.00    -0.206 F 
ATOM     46  C   UNL A   1      40.054  35.584  38.383  1.00  0.00     0.006 A 
ENDBRANCH  25  39
BRANCH  26  47
ATOM     47  C   UNL A   1      40.637  27.725  28.293  1.00  0.00     0.057 A 
ATOM     48  C   UNL A   1      41.366  28.144  27.175  1.00  0.00     0.134 A 
ATOM     49  C   UNL A   1      39.998  26.482  28.220  1.00  0.00     0.134 A 
ATOM     50  F   UNL A   1      41.986  29.334  27.182  1.00  0.00    -0.206 F 
ATOM     51  C   UNL A   1      41.443  27.364  26.021  1.00  0.00     0.040 A 
ATOM     52  C   UNL A   1      40.089  25.679  27.083  1.00  0.00     0.040 A 
ATOM     53  F   UNL A   1      39.290  26.021  29.263  1.00  0.00    -0.206 F 
ATOM     54  C   UNL A   1      40.808  26.124  25.976  1.00  0.00     0.006 A 
ENDBRANCH  26  47
BRANCH  38  55
ATOM     55  C   UNL A   1      44.521  28.320  34.025  1.00  0.00     0.057 A 
ATOM     56  C   UNL A   1      45.791  28.836  33.738  1.00  0.00     0.134 A 
ATOM     57  C   UNL A   1      44.452  27.132  34.761  1.00  0.00     0.134 A 
ATOM     58  F   UNL A   1      45.922  29.962  33.021  1.00  0.00    -0.206 F 
ATOM     59  C   UNL A   1      46.952  28.182  34.153  1.00  0.00     0.040 A 
ATOM     60  C   UNL A   1      45.605  26.482  35.201  1.00  0.00     0.040 A 
ATOM     61  F   UNL A   1      43.265  26.590  35.071  1.00  0.00    -0.206 F 
ATOM     62  C   UNL A   1      46.860  27.004  34.892  1.00  0.00     0.006 A 
ENDBRANCH  38  55
ENDBRANCH  12  13
ENDBRANCH   5   7
ENDBRANCH   2   3
ENDBRANCH   1   2
BRANCH   1  63
ATOM     63  C   UNL A   1      31.589  30.607  26.024  1.00  0.00     0.023 C 
BRANCH  63  64
ATOM     64  C   UNL A   1      32.327  29.465  26.719  1.00  0.00     0.116 C 
BRANCH  64  65
ATOM     65  N   UNL A   1      31.453  28.336  26.981  1.00  0.00    -0.351 N 
ATOM     66  C   UNL A   1      31.242  27.217  26.209  1.00  0.00     0.283 C 
ATOM     67  H   UNL A   1      30.943  28.377  27.823  1.00  0.00     0.163 HD
ATOM     68  O   UNL A   1      30.327  26.463  26.552  1.00  0.00    -0.268 OA
BRANCH  66  69
ATOM     69  C   UNL A   1      32.161  26.976  24.971  1.00  0.00     0.307 C 
BRANCH  69  70
ATOM     70  N   UNL A   1      32.120  25.557  24.562  1.00  0.00    -0.318 N 
ATOM     71  C   UNL A   1      32.905  25.154  23.384  1.00  0.00     0.284 C 
ATOM     72  C   UNL A   1      32.277  24.587  25.658  1.00  0.00     0.284 C 
ATOM     73  H   UNL A   1      31.152  25.518  24.243  1.00  0.00     0.349 HD
ATOM     74  C   UNL A   1      34.369  24.713  23.658  1.00  0.00     0.178 C 
ATOM     75  C   UNL A   1      33.728  24.188  25.996  1.00  0.00     0.178 C 
ATOM     76  N   UNL A   1      34.425  23.765  24.777  1.00  0.00    -0.360 N 
BRANCH  76  77
ATOM     77  C   UNL A   1      35.585  23.027  24.963  1.00  0.00     0.038 A 
ATOM     78  C   UNL A   1      36.763  23.702  25.312  1.00  0.00     0.026 A 
ATOM     79  C   UNL A   1      35.632  21.636  24.821  1.00  0.00     0.046 A 
ATOM     80  C   UNL A   1      37.951  23.010  25.550  1.00  0.00     0.004 A 
ATOM     81  C   UNL A   1      36.822  20.944  25.049  1.00  0.00     0.043 A 
ATOM     82  C   UNL A   1      37.980  21.624  25.421  1.00  0.00     0.020 A 
ATOM     83  Cl  UNL A   1      36.861  19.232  24.874  1.00  0.00    -0.084 Cl
ENDBRANCH  76  77
ENDBRANCH  69  70
BRANCH  69  84
ATOM     84  C   UNL A   1      31.866  27.977  23.881  1.00  0.00     0.044 A 
ATOM     85  C   UNL A   1      32.774  28.589  23.030  1.00  0.00     0.094 A 
ATOM     86  C   UNL A   1      30.563  28.390  23.432  1.00  0.00     0.011 A 
ATOM     87  N   UNL A   1      32.096  29.412  22.176  1.00  0.00    -0.361 N 
ATOM     88  C   UNL A   1      30.743  29.288  22.378  1.00  0.00     0.046 A 
ATOM     89  C   UNL A   1      29.245  28.052  23.804  1.00  0.00     0.031 A 
ATOM     90  H   UNL A   1      32.516  30.007  21.513  1.00  0.00     0.166 HD
ATOM     91  C   UNL A   1      29.677  29.889  21.699  1.00  0.00     0.028 A 
ATOM     92  C   UNL A   1      28.172  28.624  23.113  1.00  0.00     0.041 A 
ATOM     93  C   UNL A   1      28.381  29.535  22.083  1.00  0.00     0.022 A 
ATOM     94  Cl  UNL A   1      26.564  28.175  23.539  1.00  0.00    -0.084 Cl
ENDBRANCH  69  84
ENDBRANCH  66  69
ENDBRANCH  64  65
ENDBRANCH  63  64
ENDBRANCH   1  63
TORSDOF 14
ENDMDL
