MODEL 1
REMARK VINA RESULT:     -13.3      0.000      0.000
REMARK SMILES Cc1cc(C(=O)NCCCCNC(=O)c2ccc(-c3c4nc(c(-c5c(F)cccc5F)c5ccc([nH]5)c(-c5c(F)cccc5F)c5nc(c(-c6c(F)cccc6F)c6ccc3[nH]6)C=C5)C=C4)cc2)ccc1NC(=O)c1ccc(=O)n(CCOc2ccccc2)n1
REMARK SMILES IDX 5 1 6 2 7 3 4 5 1 6 2 7 3 8 71 9 70 10 69 11 72 12 73 13
REMARK SMILES IDX 74 15 75 16 76 17 90 18 77 19 80 20 78 21 79 22 81 23 82 24
REMARK SMILES IDX 83 25 84 26 85 27 89 28 86 29 88 30 87 31 8 32 9 33 10 34
REMARK SMILES IDX 11 35 12 36 13 37 14 39 15 40 16 41 68 42 17 43 67 44 18 45
REMARK SMILES IDX 19 46 20 47 61 48 21 49 66 50 60 51 62 52 22 53 65 54 59 55
REMARK SMILES IDX 58 56 23 58 49 59 32 60 48 61 33 62 36 63 47 64 63 65 34 66
REMARK SMILES IDX 35 67 46 69 64 70 37 71 24 72 25 73 30 74 26 75 27 76 29 77
REMARK SMILES IDX 31 78 28 79 50 80 51 81 56 82 52 83 53 84 55 85 57 86 54 87
REMARK SMILES IDX 38 88 39 89 44 90 40 91 41 92 43 93 45 94 42 95
REMARK H PARENT 7 4 72 14 12 38 62 57 36 68
REMARK Flexibility Score: inf
ROOT
ATOM      1  C   UNL A   1      36.455  22.881  24.184  1.00  0.00     0.251 C 
ATOM      2  O   UNL A   1      36.313  23.270  23.026  1.00  0.00    -0.269 OA
ATOM      3  N   UNL A   1      37.733  22.760  24.688  1.00  0.00    -0.352 N 
ATOM      4  H   UNL A   1      38.439  22.806  24.003  1.00  0.00     0.163 HD
ENDROOT
BRANCH   1   5
ATOM      5  C   UNL A   1      35.246  22.576  24.992  1.00  0.00     0.040 A 
ATOM      6  C   UNL A   1      32.201  20.304  24.761  1.00  0.00     0.046 C 
ATOM      7  C   UNL A   1      33.081  21.427  25.238  1.00  0.00    -0.027 A 
ATOM      8  C   UNL A   1      34.276  21.678  24.517  1.00  0.00     0.019 A 
ATOM      9  C   UNL A   1      32.835  22.162  26.406  1.00  0.00     0.044 A 
ATOM     10  C   UNL A   1      33.917  22.824  26.976  1.00  0.00     0.027 A 
ATOM     11  C   UNL A   1      35.101  23.044  26.282  1.00  0.00     0.016 A 
BRANCH   9  12
ATOM     12  N   UNL A   1      31.545  22.233  26.982  1.00  0.00    -0.320 N 
ATOM     13  C   UNL A   1      30.589  23.237  26.876  1.00  0.00     0.276 C 
ATOM     14  H   UNL A   1      31.287  21.460  27.535  1.00  0.00     0.170 HD
ATOM     15  O   UNL A   1      29.509  23.175  27.451  1.00  0.00    -0.267 OA
BRANCH  13  16
ATOM     16  C   UNL A   1      30.876  24.449  26.009  1.00  0.00     0.149 A 
ATOM     17  C   UNL A   1      30.665  24.249  24.560  1.00  0.00     0.042 A 
ATOM     18  N   UNL A   1      31.218  25.578  26.558  1.00  0.00    -0.164 NA
ATOM     19  C   UNL A   1      30.350  25.354  23.882  1.00  0.00     0.076 A 
ATOM     20  N   UNL A   1      31.130  26.694  25.731  1.00  0.00    -0.226 N 
ATOM     21  C   UNL A   1      30.367  26.668  24.570  1.00  0.00     0.266 A 
ATOM     22  O   UNL A   1      29.792  27.624  24.063  1.00  0.00    -0.268 OA
BRANCH  20  23
ATOM     23  C   UNL A   1      31.698  27.952  26.220  1.00  0.00     0.190 C 
BRANCH  23  24
ATOM     24  C   UNL A   1      33.193  27.803  26.565  1.00  0.00     0.253 C 
BRANCH  24  25
ATOM     25  O   UNL A   1      34.028  28.291  25.495  1.00  0.00    -0.492 OA
BRANCH  25  26
ATOM     26  C   UNL A   1      33.856  27.602  24.331  1.00  0.00     0.119 A 
ATOM     27  C   UNL A   1      33.421  28.226  23.167  1.00  0.00     0.046 A 
ATOM     28  C   UNL A   1      34.028  26.223  24.355  1.00  0.00     0.046 A 
ATOM     29  C   UNL A   1      33.267  27.469  22.001  1.00  0.00     0.004 A 
ATOM     30  C   UNL A   1      33.944  25.478  23.183  1.00  0.00     0.004 A 
ATOM     31  C   UNL A   1      33.568  26.104  22.001  1.00  0.00     0.000 A 
ENDBRANCH  25  26
ENDBRANCH  24  25
ENDBRANCH  23  24
ENDBRANCH  20  23
ENDBRANCH  13  16
ENDBRANCH   9  12
ENDBRANCH   1   5
BRANCH   3  32
ATOM     32  C   UNL A   1      38.239  22.577  26.048  1.00  0.00     0.116 C 
BRANCH  32  33
ATOM     33  C   UNL A   1      39.546  21.767  26.126  1.00  0.00     0.023 C 
BRANCH  33  34
ATOM     34  C   UNL A   1      40.635  22.348  27.026  1.00  0.00     0.023 C 
BRANCH  34  35
ATOM     35  C   UNL A   1      41.605  21.309  27.570  1.00  0.00     0.116 C 
BRANCH  35  36
ATOM     36  N   UNL A   1      42.190  20.430  26.563  1.00  0.00    -0.352 N 
ATOM     37  C   UNL A   1      43.118  20.705  25.567  1.00  0.00     0.251 C 
ATOM     38  H   UNL A   1      41.878  19.497  26.594  1.00  0.00     0.163 HD
ATOM     39  O   UNL A   1      43.433  19.837  24.770  1.00  0.00    -0.269 OA
BRANCH  37  40
ATOM     40  C   UNL A   1      43.851  22.002  25.576  1.00  0.00     0.039 A 
ATOM     41  C   UNL A   1      44.816  22.184  26.575  1.00  0.00     0.014 A 
ATOM     42  C   UNL A   1      43.408  23.089  24.836  1.00  0.00     0.014 A 
ATOM     43  C   UNL A   1      45.075  23.468  27.043  1.00  0.00     0.010 A 
ATOM     44  C   UNL A   1      43.556  24.348  25.379  1.00  0.00     0.010 A 
ATOM     45  C   UNL A   1      44.315  24.518  26.540  1.00  0.00    -0.014 A 
BRANCH  45  46
ATOM     46  C   UNL A   1      44.083  25.759  27.272  1.00  0.00     0.031 A 
ATOM     47  C   UNL A   1      42.751  26.391  27.287  1.00  0.00     0.074 A 
ATOM     48  C   UNL A   1      45.068  26.217  28.076  1.00  0.00     0.049 A 
ATOM     49  N   UNL A   1      42.516  27.601  27.669  1.00  0.00    -0.248 NA
ATOM     50  C   UNL A   1      41.562  25.705  26.803  1.00  0.00     0.031 C 
ATOM     51  C   UNL A   1      44.951  27.177  29.169  1.00  0.00     0.029 A 
ATOM     52  N   UNL A   1      46.449  26.036  27.918  1.00  0.00    -0.354 N 
ATOM     53  C   UNL A   1      41.151  27.757  27.765  1.00  0.00     0.074 A 
ATOM     54  C   UNL A   1      40.609  26.584  27.121  1.00  0.00     0.031 C 
ATOM     55  C   UNL A   1      46.161  27.703  29.415  1.00  0.00     0.029 A 
ATOM     56  C   UNL A   1      47.055  27.224  28.375  1.00  0.00     0.049 A 
ATOM     57  H   UNL A   1      46.905  25.240  27.561  1.00  0.00     0.167 HD
ATOM     58  C   UNL A   1      40.657  28.792  28.507  1.00  0.00     0.037 A 
ATOM     59  C   UNL A   1      47.747  28.036  27.522  1.00  0.00     0.037 A 
ATOM     60  C   UNL A   1      41.738  29.695  28.918  1.00  0.00     0.049 A 
ATOM     61  C   UNL A   1      47.192  29.431  27.404  1.00  0.00     0.074 A 
ATOM     62  C   UNL A   1      42.442  29.840  30.104  1.00  0.00     0.029 A 
ATOM     63  N   UNL A   1      42.445  30.408  27.954  1.00  0.00    -0.354 N 
ATOM     64  N   UNL A   1      45.975  29.757  27.744  1.00  0.00    -0.248 NA
ATOM     65  C   UNL A   1      47.948  30.562  26.876  1.00  0.00     0.031 C 
ATOM     66  C   UNL A   1      43.617  30.585  29.829  1.00  0.00     0.029 A 
ATOM     67  C   UNL A   1      43.615  30.916  28.485  1.00  0.00     0.049 A 
ATOM     68  H   UNL A   1      42.150  30.534  27.023  1.00  0.00     0.167 HD
ATOM     69  C   UNL A   1      45.762  31.078  27.461  1.00  0.00     0.074 A 
ATOM     70  C   UNL A   1      47.035  31.547  26.945  1.00  0.00     0.031 C 
ATOM     71  C   UNL A   1      44.548  31.669  27.657  1.00  0.00     0.037 A 
BRANCH  58  72
ATOM     72  C   UNL A   1      39.265  28.828  29.126  1.00  0.00     0.057 A 
ATOM     73  C   UNL A   1      38.179  29.382  28.414  1.00  0.00     0.134 A 
ATOM     74  C   UNL A   1      38.930  28.430  30.433  1.00  0.00     0.134 A 
ATOM     75  F   UNL A   1      38.276  29.704  27.117  1.00  0.00    -0.206 F 
ATOM     76  C   UNL A   1      36.925  29.635  28.991  1.00  0.00     0.040 A 
ATOM     77  C   UNL A   1      37.695  28.711  31.037  1.00  0.00     0.040 A 
ATOM     78  F   UNL A   1      39.746  27.688  31.183  1.00  0.00    -0.206 F 
ATOM     79  C   UNL A   1      36.689  29.335  30.322  1.00  0.00     0.006 A 
ENDBRANCH  58  72
BRANCH  59  80
ATOM     80  C   UNL A   1      48.448  27.302  26.442  1.00  0.00     0.057 A 
ATOM     81  C   UNL A   1      47.837  27.262  25.180  1.00  0.00     0.134 A 
ATOM     82  C   UNL A   1      49.812  27.010  26.501  1.00  0.00     0.134 A 
ATOM     83  F   UNL A   1      46.524  27.515  25.080  1.00  0.00    -0.206 F 
ATOM     84  C   UNL A   1      48.571  27.072  24.008  1.00  0.00     0.040 A 
ATOM     85  C   UNL A   1      50.559  26.801  25.335  1.00  0.00     0.040 A 
ATOM     86  F   UNL A   1      50.469  27.050  27.670  1.00  0.00    -0.206 F 
ATOM     87  C   UNL A   1      49.947  26.877  24.082  1.00  0.00     0.006 A 
ENDBRANCH  59  80
BRANCH  71  88
ATOM     88  C   UNL A   1      44.150  33.029  27.150  1.00  0.00     0.057 A 
ATOM     89  C   UNL A   1      43.915  33.326  25.800  1.00  0.00     0.134 A 
ATOM     90  C   UNL A   1      43.834  34.064  28.058  1.00  0.00     0.134 A 
ATOM     91  F   UNL A   1      44.071  32.402  24.842  1.00  0.00    -0.206 F 
ATOM     92  C   UNL A   1      43.449  34.578  25.376  1.00  0.00     0.040 A 
ATOM     93  C   UNL A   1      43.319  35.298  27.651  1.00  0.00     0.040 A 
ATOM     94  F   UNL A   1      43.989  33.910  29.381  1.00  0.00    -0.206 F 
ATOM     95  C   UNL A   1      43.136  35.563  26.303  1.00  0.00     0.006 A 
ENDBRANCH  71  88
ENDBRANCH  45  46
ENDBRANCH  37  40
ENDBRANCH  35  36
ENDBRANCH  34  35
ENDBRANCH  33  34
ENDBRANCH  32  33
ENDBRANCH   3  32
TORSDOF 17
ENDMDL
MODEL 2
REMARK VINA RESULT:     -13.2      2.348      3.858
REMARK SMILES Cc1cc(C(=O)NCCCCNC(=O)c2ccc(-c3c4nc(c(-c5c(F)cccc5F)c5ccc([nH]5)c(-c5c(F)cccc5F)c5nc(c(-c6c(F)cccc6F)c6ccc3[nH]6)C=C5)C=C4)cc2)ccc1NC(=O)c1ccc(=O)n(CCOc2ccccc2)n1
REMARK SMILES IDX 5 1 6 2 7 3 4 5 1 6 2 7 3 8 71 9 70 10 69 11 72 12 73 13
REMARK SMILES IDX 74 15 75 16 76 17 90 18 77 19 80 20 78 21 79 22 81 23 82 24
REMARK SMILES IDX 83 25 84 26 85 27 89 28 86 29 88 30 87 31 8 32 9 33 10 34
REMARK SMILES IDX 11 35 12 36 13 37 14 39 15 40 16 41 68 42 17 43 67 44 18 45
REMARK SMILES IDX 19 46 20 47 61 48 21 49 66 50 60 51 62 52 22 53 65 54 59 55
REMARK SMILES IDX 58 56 23 58 49 59 32 60 48 61 33 62 36 63 47 64 63 65 34 66
REMARK SMILES IDX 35 67 46 69 64 70 37 71 24 72 25 73 30 74 26 75 27 76 29 77
REMARK SMILES IDX 31 78 28 79 50 80 51 81 56 82 52 83 53 84 55 85 57 86 54 87
REMARK SMILES IDX 38 88 39 89 44 90 40 91 41 92 43 93 45 94 42 95
REMARK H PARENT 7 4 72 14 12 38 62 57 36 68
REMARK Flexibility Score: inf
ROOT
ATOM      1  C   UNL A   1      36.205  22.730  23.847  1.00  0.00     0.251 C 
ATOM      2  O   UNL A   1      36.072  23.533  22.925  1.00  0.00    -0.269 OA
ATOM      3  N   UNL A   1      37.426  22.113  24.013  1.00  0.00    -0.352 N 
ATOM      4  H   UNL A   1      38.037  22.221  23.248  1.00  0.00     0.163 HD
ENDROOT
BRANCH   1   5
ATOM      5  C   UNL A   1      35.051  22.474  24.747  1.00  0.00     0.040 A 
ATOM      6  C   UNL A   1      32.154  20.018  24.988  1.00  0.00     0.046 C 
ATOM      7  C   UNL A   1      32.977  21.247  25.258  1.00  0.00    -0.027 A 
ATOM      8  C   UNL A   1      34.124  21.461  24.451  1.00  0.00     0.019 A 
ATOM      9  C   UNL A   1      32.730  22.127  26.321  1.00  0.00     0.044 A 
ATOM     10  C   UNL A   1      33.788  22.927  26.738  1.00  0.00     0.027 A 
ATOM     11  C   UNL A   1      34.927  23.114  25.963  1.00  0.00     0.016 A 
BRANCH   9  12
ATOM     12  N   UNL A   1      31.461  22.204  26.942  1.00  0.00    -0.320 N 
ATOM     13  C   UNL A   1      30.511  23.216  26.877  1.00  0.00     0.276 C 
ATOM     14  H   UNL A   1      31.217  21.430  27.500  1.00  0.00     0.170 HD
ATOM     15  O   UNL A   1      29.451  23.159  27.490  1.00  0.00    -0.267 OA
BRANCH  13  16
ATOM     16  C   UNL A   1      30.776  24.432  26.008  1.00  0.00     0.149 A 
ATOM     17  C   UNL A   1      30.655  24.202  24.553  1.00  0.00     0.042 A 
ATOM     18  N   UNL A   1      31.026  25.585  26.557  1.00  0.00    -0.164 NA
ATOM     19  C   UNL A   1      30.317  25.280  23.843  1.00  0.00     0.076 A 
ATOM     20  N   UNL A   1      30.921  26.684  25.710  1.00  0.00    -0.226 N 
ATOM     21  C   UNL A   1      30.224  26.601  24.510  1.00  0.00     0.266 A 
ATOM     22  O   UNL A   1      29.625  27.517  23.959  1.00  0.00    -0.268 OA
BRANCH  20  23
ATOM     23  C   UNL A   1      31.391  27.978  26.209  1.00  0.00     0.190 C 
BRANCH  23  24
ATOM     24  C   UNL A   1      32.794  27.866  26.839  1.00  0.00     0.253 C 
BRANCH  24  25
ATOM     25  O   UNL A   1      33.817  28.296  25.918  1.00  0.00    -0.492 OA
BRANCH  25  26
ATOM     26  C   UNL A   1      33.719  27.694  24.697  1.00  0.00     0.119 A 
ATOM     27  C   UNL A   1      33.981  26.340  24.524  1.00  0.00     0.046 A 
ATOM     28  C   UNL A   1      33.448  28.494  23.593  1.00  0.00     0.046 A 
ATOM     29  C   UNL A   1      33.859  25.776  23.249  1.00  0.00     0.004 A 
ATOM     30  C   UNL A   1      33.259  27.927  22.337  1.00  0.00     0.004 A 
ATOM     31  C   UNL A   1      33.459  26.563  22.165  1.00  0.00     0.000 A 
ENDBRANCH  25  26
ENDBRANCH  24  25
ENDBRANCH  23  24
ENDBRANCH  20  23
ENDBRANCH  13  16
ENDBRANCH   9  12
ENDBRANCH   1   5
BRANCH   3  32
ATOM     32  C   UNL A   1      37.988  21.327  25.112  1.00  0.00     0.116 C 
BRANCH  32  33
ATOM     33  C   UNL A   1      38.832  22.150  26.103  1.00  0.00     0.023 C 
BRANCH  33  34
ATOM     34  C   UNL A   1      40.019  21.422  26.730  1.00  0.00     0.023 C 
BRANCH  34  35
ATOM     35  C   UNL A   1      40.863  22.294  27.649  1.00  0.00     0.116 C 
BRANCH  35  36
ATOM     36  N   UNL A   1      42.016  22.919  27.010  1.00  0.00    -0.352 N 
ATOM     37  C   UNL A   1      42.176  24.208  26.517  1.00  0.00     0.251 C 
ATOM     38  H   UNL A   1      42.805  22.338  26.914  1.00  0.00     0.163 HD
ATOM     39  O   UNL A   1      43.209  24.521  25.949  1.00  0.00    -0.269 OA
BRANCH  37  40
ATOM     40  C   UNL A   1      41.159  25.252  26.828  1.00  0.00     0.039 A 
ATOM     41  C   UNL A   1      41.130  26.383  26.002  1.00  0.00     0.014 A 
ATOM     42  C   UNL A   1      40.479  25.261  28.038  1.00  0.00     0.014 A 
ATOM     43  C   UNL A   1      40.713  27.600  26.531  1.00  0.00     0.010 A 
ATOM     44  C   UNL A   1      40.191  26.481  28.612  1.00  0.00     0.010 A 
ATOM     45  C   UNL A   1      40.400  27.657  27.885  1.00  0.00    -0.014 A 
BRANCH  45  46
ATOM     46  C   UNL A   1      40.479  28.882  28.672  1.00  0.00     0.031 A 
ATOM     47  C   UNL A   1      39.358  29.841  28.694  1.00  0.00     0.074 A 
ATOM     48  C   UNL A   1      41.525  29.032  29.515  1.00  0.00     0.049 A 
ATOM     49  N   UNL A   1      39.437  31.053  29.130  1.00  0.00    -0.248 NA
ATOM     50  C   UNL A   1      38.047  29.512  28.156  1.00  0.00     0.031 C 
ATOM     51  C   UNL A   1      41.630  29.942  30.652  1.00  0.00     0.029 A 
ATOM     52  N   UNL A   1      42.815  28.502  29.374  1.00  0.00    -0.354 N 
ATOM     53  C   UNL A   1      38.157  31.557  29.208  1.00  0.00     0.074 A 
ATOM     54  C   UNL A   1      37.347  30.596  28.499  1.00  0.00     0.031 C 
ATOM     55  C   UNL A   1      42.927  30.121  30.945  1.00  0.00     0.029 A 
ATOM     56  C   UNL A   1      43.696  29.469  29.900  1.00  0.00     0.049 A 
ATOM     57  H   UNL A   1      43.057  27.630  28.987  1.00  0.00     0.167 HD
ATOM     58  C   UNL A   1      37.929  32.654  29.990  1.00  0.00     0.037 A 
ATOM     59  C   UNL A   1      44.601  30.106  29.099  1.00  0.00     0.037 A 
ATOM     60  C   UNL A   1      39.195  33.223  30.465  1.00  0.00     0.049 A 
ATOM     61  C   UNL A   1      44.433  31.601  29.039  1.00  0.00     0.074 A 
ATOM     62  C   UNL A   1      39.877  33.128  31.669  1.00  0.00     0.029 A 
ATOM     63  N   UNL A   1      40.093  33.766  29.549  1.00  0.00    -0.354 N 
ATOM     64  N   UNL A   1      43.335  32.220  29.373  1.00  0.00    -0.248 NA
ATOM     65  C   UNL A   1      45.475  32.515  28.580  1.00  0.00     0.031 C 
ATOM     66  C   UNL A   1      41.213  33.550  31.452  1.00  0.00     0.029 A 
ATOM     67  C   UNL A   1      41.338  33.926  30.125  1.00  0.00     0.049 A 
ATOM     68  H   UNL A   1      39.869  34.004  28.621  1.00  0.00     0.167 HD
ATOM     69  C   UNL A   1      43.483  33.562  29.150  1.00  0.00     0.074 A 
ATOM     70  C   UNL A   1      44.849  33.701  28.681  1.00  0.00     0.031 C 
ATOM     71  C   UNL A   1      42.460  34.442  29.352  1.00  0.00     0.037 A 
BRANCH  58  72
ATOM     72  C   UNL A   1      36.576  33.028  30.585  1.00  0.00     0.057 A 
ATOM     73  C   UNL A   1      35.598  33.664  29.792  1.00  0.00     0.134 A 
ATOM     74  C   UNL A   1      36.196  32.884  31.932  1.00  0.00     0.134 A 
ATOM     75  F   UNL A   1      35.730  33.779  28.464  1.00  0.00    -0.206 F 
ATOM     76  C   UNL A   1      34.419  34.219  30.316  1.00  0.00     0.040 A 
ATOM     77  C   UNL A   1      35.042  33.466  32.479  1.00  0.00     0.040 A 
ATOM     78  F   UNL A   1      36.877  32.119  32.787  1.00  0.00    -0.206 F 
ATOM     79  C   UNL A   1      34.155  34.155  31.673  1.00  0.00     0.006 A 
ENDBRANCH  58  72
BRANCH  59  80
ATOM     80  C   UNL A   1      45.119  29.259  27.998  1.00  0.00     0.057 A 
ATOM     81  C   UNL A   1      46.184  28.394  28.290  1.00  0.00     0.134 A 
ATOM     82  C   UNL A   1      44.374  28.991  26.848  1.00  0.00     0.134 A 
ATOM     83  F   UNL A   1      46.939  28.625  29.373  1.00  0.00    -0.206 F 
ATOM     84  C   UNL A   1      46.420  27.235  27.547  1.00  0.00     0.040 A 
ATOM     85  C   UNL A   1      44.610  27.841  26.084  1.00  0.00     0.040 A 
ATOM     86  F   UNL A   1      43.328  29.763  26.518  1.00  0.00    -0.206 F 
ATOM     87  C   UNL A   1      45.604  26.937  26.460  1.00  0.00     0.006 A 
ENDBRANCH  59  80
BRANCH  71  88
ATOM     88  C   UNL A   1      42.447  35.879  28.905  1.00  0.00     0.057 A 
ATOM     89  C   UNL A   1      43.087  36.920  29.592  1.00  0.00     0.134 A 
ATOM     90  C   UNL A   1      41.902  36.231  27.650  1.00  0.00     0.134 A 
ATOM     91  F   UNL A   1      43.739  36.705  30.743  1.00  0.00    -0.206 F 
ATOM     92  C   UNL A   1      43.139  38.229  29.093  1.00  0.00     0.040 A 
ATOM     93  C   UNL A   1      41.993  37.520  27.119  1.00  0.00     0.040 A 
ATOM     94  F   UNL A   1      41.280  35.329  26.877  1.00  0.00    -0.206 F 
ATOM     95  C   UNL A   1      42.603  38.529  27.847  1.00  0.00     0.006 A 
ENDBRANCH  71  88
ENDBRANCH  45  46
ENDBRANCH  37  40
ENDBRANCH  35  36
ENDBRANCH  34  35
ENDBRANCH  33  34
ENDBRANCH  32  33
ENDBRANCH   3  32
TORSDOF 17
ENDMDL
MODEL 3
REMARK VINA RESULT:     -13.1      3.636      8.494
REMARK SMILES Cc1cc(C(=O)NCCCCNC(=O)c2ccc(-c3c4nc(c(-c5c(F)cccc5F)c5ccc([nH]5)c(-c5c(F)cccc5F)c5nc(c(-c6c(F)cccc6F)c6ccc3[nH]6)C=C5)C=C4)cc2)ccc1NC(=O)c1ccc(=O)n(CCOc2ccccc2)n1
REMARK SMILES IDX 5 1 6 2 7 3 4 5 1 6 2 7 3 8 71 9 70 10 69 11 72 12 73 13
REMARK SMILES IDX 74 15 75 16 76 17 90 18 77 19 80 20 78 21 79 22 81 23 82 24
REMARK SMILES IDX 83 25 84 26 85 27 89 28 86 29 88 30 87 31 8 32 9 33 10 34
REMARK SMILES IDX 11 35 12 36 13 37 14 39 15 40 16 41 68 42 17 43 67 44 18 45
REMARK SMILES IDX 19 46 20 47 61 48 21 49 66 50 60 51 62 52 22 53 65 54 59 55
REMARK SMILES IDX 58 56 23 58 49 59 32 60 48 61 33 62 36 63 47 64 63 65 34 66
REMARK SMILES IDX 35 67 46 69 64 70 37 71 24 72 25 73 30 74 26 75 27 76 29 77
REMARK SMILES IDX 31 78 28 79 50 80 51 81 56 82 52 83 53 84 55 85 57 86 54 87
REMARK SMILES IDX 38 88 39 89 44 90 40 91 41 92 43 93 45 94 42 95
REMARK H PARENT 7 4 72 14 12 38 62 57 36 68
REMARK Flexibility Score: inf
ROOT
ATOM      1  C   UNL A   1      31.759  29.647  25.162  1.00  0.00     0.251 C 
ATOM      2  O   UNL A   1      30.917  30.497  24.880  1.00  0.00    -0.269 OA
ATOM      3  N   UNL A   1      33.090  30.005  25.147  1.00  0.00    -0.352 N 
ATOM      4  H   UNL A   1      33.266  30.871  24.713  1.00  0.00     0.163 HD
ENDROOT
BRANCH   1   5
ATOM      5  C   UNL A   1      31.304  28.278  25.520  1.00  0.00     0.040 A 
ATOM      6  C   UNL A   1      29.622  25.327  23.805  1.00  0.00     0.046 C 
ATOM      7  C   UNL A   1      30.133  26.196  24.921  1.00  0.00    -0.027 A 
ATOM      8  C   UNL A   1      30.640  27.476  24.579  1.00  0.00     0.019 A 
ATOM      9  C   UNL A   1      30.230  25.770  26.253  1.00  0.00     0.044 A 
ATOM     10  C   UNL A   1      31.117  26.457  27.074  1.00  0.00     0.027 A 
ATOM     11  C   UNL A   1      31.638  27.698  26.727  1.00  0.00     0.016 A 
BRANCH   9  12
ATOM     12  N   UNL A   1      29.459  24.691  26.746  1.00  0.00    -0.320 N 
ATOM     13  C   UNL A   1      29.785  23.342  26.824  1.00  0.00     0.276 C 
ATOM     14  H   UNL A   1      28.565  24.930  27.082  1.00  0.00     0.170 HD
ATOM     15  O   UNL A   1      29.003  22.504  27.261  1.00  0.00    -0.267 OA
BRANCH  13  16
ATOM     16  C   UNL A   1      31.158  22.879  26.372  1.00  0.00     0.149 A 
ATOM     17  C   UNL A   1      32.240  23.065  27.361  1.00  0.00     0.042 A 
ATOM     18  N   UNL A   1      31.305  22.309  25.211  1.00  0.00    -0.164 NA
ATOM     19  C   UNL A   1      33.252  22.202  27.251  1.00  0.00     0.076 A 
ATOM     20  N   UNL A   1      32.505  21.628  25.030  1.00  0.00    -0.226 N 
ATOM     21  C   UNL A   1      33.286  21.250  26.114  1.00  0.00     0.266 A 
ATOM     22  O   UNL A   1      34.018  20.268  26.169  1.00  0.00    -0.268 OA
BRANCH  20  23
ATOM     23  C   UNL A   1      32.819  21.148  23.683  1.00  0.00     0.190 C 
BRANCH  23  24
ATOM     24  C   UNL A   1      33.637  22.185  22.888  1.00  0.00     0.253 C 
BRANCH  24  25
ATOM     25  O   UNL A   1      32.776  23.128  22.217  1.00  0.00    -0.492 OA
BRANCH  25  26
ATOM     26  C   UNL A   1      33.078  24.425  22.513  1.00  0.00     0.119 A 
ATOM     27  C   UNL A   1      33.636  24.788  23.734  1.00  0.00     0.046 A 
ATOM     28  C   UNL A   1      32.716  25.406  21.598  1.00  0.00     0.046 A 
ATOM     29  C   UNL A   1      33.929  26.133  23.980  1.00  0.00     0.004 A 
ATOM     30  C   UNL A   1      33.068  26.736  21.808  1.00  0.00     0.004 A 
ATOM     31  C   UNL A   1      33.681  27.100  23.001  1.00  0.00     0.000 A 
ENDBRANCH  25  26
ENDBRANCH  24  25
ENDBRANCH  23  24
ENDBRANCH  20  23
ENDBRANCH  13  16
ENDBRANCH   9  12
ENDBRANCH   1   5
BRANCH   3  32
ATOM     32  C   UNL A   1      34.291  29.342  25.656  1.00  0.00     0.116 C 
BRANCH  32  33
ATOM     33  C   UNL A   1      34.582  29.627  27.141  1.00  0.00     0.023 C 
BRANCH  33  34
ATOM     34  C   UNL A   1      34.236  31.032  27.629  1.00  0.00     0.023 C 
BRANCH  34  35
ATOM     35  C   UNL A   1      34.784  31.358  29.011  1.00  0.00     0.116 C 
BRANCH  35  36
ATOM     36  N   UNL A   1      35.996  32.169  29.013  1.00  0.00    -0.352 N 
ATOM     37  C   UNL A   1      37.330  31.784  29.048  1.00  0.00     0.251 C 
ATOM     38  H   UNL A   1      35.846  33.142  28.984  1.00  0.00     0.163 HD
ATOM     39  O   UNL A   1      38.208  32.629  29.114  1.00  0.00    -0.269 OA
BRANCH  37  40
ATOM     40  C   UNL A   1      37.695  30.355  28.837  1.00  0.00     0.039 A 
ATOM     41  C   UNL A   1      37.694  29.522  29.963  1.00  0.00     0.014 A 
ATOM     42  C   UNL A   1      38.294  29.928  27.661  1.00  0.00     0.014 A 
ATOM     43  C   UNL A   1      38.562  28.436  30.005  1.00  0.00     0.010 A 
ATOM     44  C   UNL A   1      39.251  28.938  27.741  1.00  0.00     0.010 A 
ATOM     45  C   UNL A   1      39.447  28.259  28.947  1.00  0.00    -0.014 A 
BRANCH  45  46
ATOM     46  C   UNL A   1      40.716  27.552  29.077  1.00  0.00     0.031 A 
ATOM     47  C   UNL A   1      40.822  26.118  28.746  1.00  0.00     0.074 A 
ATOM     48  C   UNL A   1      41.826  28.279  29.336  1.00  0.00     0.049 A 
ATOM     49  N   UNL A   1      41.810  25.359  29.080  1.00  0.00    -0.248 NA
ATOM     50  C   UNL A   1      39.764  25.405  28.048  1.00  0.00     0.031 C 
ATOM     51  C   UNL A   1      43.217  27.884  29.134  1.00  0.00     0.029 A 
ATOM     52  N   UNL A   1      41.907  29.487  30.042  1.00  0.00    -0.354 N 
ATOM     53  C   UNL A   1      41.671  24.165  28.407  1.00  0.00     0.074 A 
ATOM     54  C   UNL A   1      40.335  24.213  27.862  1.00  0.00     0.031 C 
ATOM     55  C   UNL A   1      44.002  28.655  29.902  1.00  0.00     0.029 A 
ATOM     56  C   UNL A   1      43.127  29.449  30.747  1.00  0.00     0.049 A 
ATOM     57  H   UNL A   1      41.245  30.216  30.045  1.00  0.00     0.167 HD
ATOM     58  C   UNL A   1      42.761  23.352  28.278  1.00  0.00     0.037 A 
ATOM     59  C   UNL A   1      43.152  29.430  32.112  1.00  0.00     0.037 A 
ATOM     60  C   UNL A   1      43.876  23.848  29.091  1.00  0.00     0.049 A 
ATOM     61  C   UNL A   1      43.809  28.212  32.705  1.00  0.00     0.074 A 
ATOM     62  C   UNL A   1      45.012  24.581  28.783  1.00  0.00     0.029 A 
ATOM     63  N   UNL A   1      43.759  23.872  30.478  1.00  0.00    -0.354 N 
ATOM     64  N   UNL A   1      43.993  27.098  32.051  1.00  0.00    -0.248 NA
ATOM     65  C   UNL A   1      44.291  28.140  34.081  1.00  0.00     0.031 C 
ATOM     66  C   UNL A   1      45.537  25.107  29.991  1.00  0.00     0.029 A 
ATOM     67  C   UNL A   1      44.737  24.674  31.035  1.00  0.00     0.049 A 
ATOM     68  H   UNL A   1      43.076  23.384  30.991  1.00  0.00     0.167 HD
ATOM     69  C   UNL A   1      44.558  26.170  32.883  1.00  0.00     0.074 A 
ATOM     70  C   UNL A   1      44.751  26.878  34.134  1.00  0.00     0.031 C 
ATOM     71  C   UNL A   1      44.799  24.891  32.474  1.00  0.00     0.037 A 
BRANCH  58  72
ATOM     72  C   UNL A   1      42.932  22.299  27.189  1.00  0.00     0.057 A 
ATOM     73  C   UNL A   1      42.177  21.107  27.221  1.00  0.00     0.134 A 
ATOM     74  C   UNL A   1      43.870  22.336  26.141  1.00  0.00     0.134 A 
ATOM     75  F   UNL A   1      41.155  20.941  28.072  1.00  0.00    -0.206 F 
ATOM     76  C   UNL A   1      42.425  20.011  26.379  1.00  0.00     0.040 A 
ATOM     77  C   UNL A   1      44.157  21.238  25.316  1.00  0.00     0.040 A 
ATOM     78  F   UNL A   1      44.518  23.453  25.805  1.00  0.00    -0.206 F 
ATOM     79  C   UNL A   1      43.446  20.059  25.445  1.00  0.00     0.006 A 
ENDBRANCH  58  72
BRANCH  59  80
ATOM     80  C   UNL A   1      42.044  30.192  32.736  1.00  0.00     0.057 A 
ATOM     81  C   UNL A   1      42.167  31.589  32.792  1.00  0.00     0.134 A 
ATOM     82  C   UNL A   1      40.765  29.656  32.895  1.00  0.00     0.134 A 
ATOM     83  F   UNL A   1      43.379  32.145  32.665  1.00  0.00    -0.206 F 
ATOM     84  C   UNL A   1      41.052  32.426  32.868  1.00  0.00     0.040 A 
ATOM     85  C   UNL A   1      39.639  30.484  32.990  1.00  0.00     0.040 A 
ATOM     86  F   UNL A   1      40.567  28.331  32.832  1.00  0.00    -0.206 F 
ATOM     87  C   UNL A   1      39.777  31.871  32.930  1.00  0.00     0.006 A 
ENDBRANCH  59  80
BRANCH  71  88
ATOM     88  C   UNL A   1      45.180  23.747  33.375  1.00  0.00     0.057 A 
ATOM     89  C   UNL A   1      46.457  23.573  33.926  1.00  0.00     0.134 A 
ATOM     90  C   UNL A   1      44.194  22.852  33.847  1.00  0.00     0.134 A 
ATOM     91  F   UNL A   1      47.461  24.416  33.648  1.00  0.00    -0.206 F 
ATOM     92  C   UNL A   1      46.748  22.552  34.840  1.00  0.00     0.040 A 
ATOM     93  C   UNL A   1      44.460  21.863  34.798  1.00  0.00     0.040 A 
ATOM     94  F   UNL A   1      42.924  22.918  33.421  1.00  0.00    -0.206 F 
ATOM     95  C   UNL A   1      45.746  21.702  35.290  1.00  0.00     0.006 A 
ENDBRANCH  71  88
ENDBRANCH  45  46
ENDBRANCH  37  40
ENDBRANCH  35  36
ENDBRANCH  34  35
ENDBRANCH  33  34
ENDBRANCH  32  33
ENDBRANCH   3  32
TORSDOF 17
ENDMDL
