MODEL 1
REMARK VINA RESULT:     -11.5      0.000      0.000
REMARK SMILES COc1ncccc1C(=O)N[C@@](C)(C(=O)NCCCCNC(=O)c1ccc(-c2c3nc(c(-c4c(F)cccc4F)c4ccc([nH]4)c(-c4c(F)cccc4F)c4nc(c(-c5c(F)cccc5F)c5ccc2[nH]5)C=C4)C=C3)cc1)C(F)(F)F
REMARK SMILES IDX 18 1 17 2 16 3 14 4 15 5 12 7 13 8 11 9 9 10 10 11 8 13 3 14
REMARK SMILES IDX 4 15 5 16 7 17 6 18 2 19 1 20 78 21 79 22 80 23 81 24 19 25
REMARK SMILES IDX 20 26 21 27 22 28 23 30 24 31 25 32 77 33 26 34 76 35 27 36
REMARK SMILES IDX 28 37 29 38 70 39 30 40 75 41 69 42 71 43 31 44 74 45 68 46
REMARK SMILES IDX 67 47 32 49 58 50 41 51 57 52 42 53 45 54 56 55 72 56 43 57
REMARK SMILES IDX 44 58 55 60 73 61 46 62 33 63 34 64 39 65 35 66 36 67 38 68
REMARK SMILES IDX 40 69 37 70 59 71 60 72 65 73 61 74 62 75 64 76 66 77 63 78
REMARK SMILES IDX 47 79 48 80 53 81 49 82 50 83 52 84 54 85 51 86
REMARK H PARENT 16 6 11 12 21 29 71 48 45 59
REMARK Flexibility Score: inf
ROOT
ATOM      1  C   UNL A   1      37.244  21.092  24.536  1.00  0.00     0.023 C 
ENDROOT
BRANCH   1   2
ATOM      2  C   UNL A   1      36.963  22.147  25.605  1.00  0.00     0.116 C 
BRANCH   2   3
ATOM      3  N   UNL A   1      35.837  21.789  26.454  1.00  0.00    -0.354 N 
ATOM      4  C   UNL A   1      34.497  22.040  26.424  1.00  0.00     0.254 C 
ATOM      5  O   UNL A   1      33.855  21.468  27.310  1.00  0.00    -0.272 OA
ATOM      6  H   UNL A   1      36.105  21.241  27.227  1.00  0.00     0.163 HD
BRANCH   4   7
ATOM      7  C   UNL A   1      33.833  23.018  25.420  1.00  0.00     0.212 C 
ATOM      8  C   UNL A   1      34.745  24.217  25.097  1.00  0.00     0.056 C 
BRANCH   7   9
ATOM      9  N   UNL A   1      32.618  23.498  26.174  1.00  0.00    -0.330 N 
ATOM     10  C   UNL A   1      31.745  24.497  26.468  1.00  0.00     0.257 C 
ATOM     11  O   UNL A   1      30.880  24.079  27.249  1.00  0.00    -0.269 OA
ATOM     12  H   UNL A   1      32.316  22.723  26.700  1.00  0.00     0.165 HD
BRANCH  10  13
ATOM     13  C   UNL A   1      31.692  25.916  26.024  1.00  0.00     0.101 A 
ATOM     14  C   UNL A   1      31.476  26.225  24.668  1.00  0.00     0.226 A 
ATOM     15  N   UNL A   1      31.415  27.484  24.151  1.00  0.00    -0.221 NA
ATOM     16  C   UNL A   1      31.573  28.507  25.003  1.00  0.00     0.115 A 
ATOM     17  C   UNL A   1      31.830  27.023  26.853  1.00  0.00     0.021 A 
ATOM     18  C   UNL A   1      31.778  28.328  26.352  1.00  0.00     0.021 A 
BRANCH  14  19
ATOM     19  O   UNL A   1      31.362  25.256  23.707  1.00  0.00    -0.480 OA
ATOM     20  C   UNL A   1      32.265  25.524  22.637  1.00  0.00     0.280 C 
ENDBRANCH  14  19
ENDBRANCH  10  13
ENDBRANCH   7   9
BRANCH   7  21
ATOM     21  C   UNL A   1      33.713  22.214  24.115  1.00  0.00     0.420 C 
ATOM     22  F   UNL A   1      33.957  20.896  24.264  1.00  0.00    -0.168 F 
ATOM     23  F   UNL A   1      32.458  22.341  23.600  1.00  0.00    -0.168 F 
ATOM     24  F   UNL A   1      34.533  22.685  23.143  1.00  0.00    -0.168 F 
ENDBRANCH   7  21
ENDBRANCH   4   7
ENDBRANCH   2   3
ENDBRANCH   1   2
BRANCH   1  25
ATOM     25  C   UNL A   1      38.038  19.870  25.002  1.00  0.00     0.023 C 
BRANCH  25  26
ATOM     26  C   UNL A   1      39.205  20.160  25.936  1.00  0.00     0.116 C 
BRANCH  26  27
ATOM     27  N   UNL A   1      40.210  19.108  25.936  1.00  0.00    -0.352 N 
ATOM     28  C   UNL A   1      41.572  19.205  26.101  1.00  0.00     0.251 C 
ATOM     29  H   UNL A   1      39.865  18.196  25.797  1.00  0.00     0.163 HD
ATOM     30  O   UNL A   1      42.284  18.221  25.950  1.00  0.00    -0.269 OA
BRANCH  28  31
ATOM     31  C   UNL A   1      42.175  20.515  26.423  1.00  0.00     0.039 A 
ATOM     32  C   UNL A   1      42.612  21.330  25.377  1.00  0.00     0.014 A 
ATOM     33  C   UNL A   1      42.272  20.951  27.747  1.00  0.00     0.014 A 
ATOM     34  C   UNL A   1      43.069  22.620  25.652  1.00  0.00     0.010 A 
ATOM     35  C   UNL A   1      42.660  22.261  28.013  1.00  0.00     0.010 A 
ATOM     36  C   UNL A   1      43.051  23.112  26.967  1.00  0.00    -0.014 A 
BRANCH  36  37
ATOM     37  C   UNL A   1      43.411  24.521  27.268  1.00  0.00     0.031 A 
ATOM     38  C   UNL A   1      44.846  24.964  27.217  1.00  0.00     0.074 A 
ATOM     39  C   UNL A   1      42.452  25.381  27.662  1.00  0.00     0.049 A 
ATOM     40  N   UNL A   1      45.363  26.125  27.529  1.00  0.00    -0.248 NA
ATOM     41  C   UNL A   1      45.833  23.963  26.784  1.00  0.00     0.031 C 
ATOM     42  C   UNL A   1      41.029  25.061  27.795  1.00  0.00     0.029 A 
ATOM     43  N   UNL A   1      42.530  26.700  28.037  1.00  0.00    -0.354 N 
ATOM     44  C   UNL A   1      46.732  25.990  27.342  1.00  0.00     0.074 A 
ATOM     45  C   UNL A   1      46.971  24.621  26.940  1.00  0.00     0.031 C 
ATOM     46  C   UNL A   1      40.367  26.156  28.202  1.00  0.00     0.029 A 
ATOM     47  C   UNL A   1      41.321  27.244  28.397  1.00  0.00     0.049 A 
ATOM     48  H   UNL A   1      43.373  27.208  28.046  1.00  0.00     0.167 HD
ATOM     49  C   UNL A   1      47.700  26.928  27.472  1.00  0.00     0.037 A 
ATOM     50  C   UNL A   1      41.016  28.476  28.846  1.00  0.00     0.037 A 
ATOM     51  C   UNL A   1      47.457  28.295  27.853  1.00  0.00     0.049 A 
ATOM     52  C   UNL A   1      42.112  29.492  29.004  1.00  0.00     0.074 A 
ATOM     53  C   UNL A   1      48.363  29.338  27.950  1.00  0.00     0.029 A 
ATOM     54  N   UNL A   1      46.218  28.809  28.204  1.00  0.00    -0.354 N 
ATOM     55  N   UNL A   1      43.393  29.371  28.756  1.00  0.00    -0.248 NA
ATOM     56  C   UNL A   1      41.720  30.818  29.503  1.00  0.00     0.031 C 
ATOM     57  C   UNL A   1      47.680  30.470  28.405  1.00  0.00     0.029 A 
ATOM     58  C   UNL A   1      46.340  30.146  28.544  1.00  0.00     0.049 A 
ATOM     59  H   UNL A   1      45.375  28.299  28.209  1.00  0.00     0.167 HD
ATOM     60  C   UNL A   1      43.956  30.607  29.045  1.00  0.00     0.074 A 
ATOM     61  C   UNL A   1      42.874  31.470  29.472  1.00  0.00     0.031 C 
ATOM     62  C   UNL A   1      45.253  30.992  28.966  1.00  0.00     0.037 A 
BRANCH  49  63
ATOM     63  C   UNL A   1      49.114  26.508  27.196  1.00  0.00     0.057 A 
ATOM     64  C   UNL A   1      49.962  26.055  28.217  1.00  0.00     0.134 A 
ATOM     65  C   UNL A   1      49.624  26.521  25.892  1.00  0.00     0.134 A 
ATOM     66  F   UNL A   1      49.539  26.028  29.489  1.00  0.00    -0.206 F 
ATOM     67  C   UNL A   1      51.273  25.656  27.954  1.00  0.00     0.040 A 
ATOM     68  C   UNL A   1      50.925  26.099  25.613  1.00  0.00     0.040 A 
ATOM     69  F   UNL A   1      48.865  26.937  24.867  1.00  0.00    -0.206 F 
ATOM     70  C   UNL A   1      51.756  25.671  26.647  1.00  0.00     0.006 A 
ENDBRANCH  49  63
BRANCH  50  71
ATOM     71  C   UNL A   1      39.609  28.823  29.169  1.00  0.00     0.057 A 
ATOM     72  C   UNL A   1      39.099  28.636  30.460  1.00  0.00     0.134 A 
ATOM     73  C   UNL A   1      38.740  29.339  28.201  1.00  0.00     0.134 A 
ATOM     74  F   UNL A   1      39.879  28.127  31.426  1.00  0.00    -0.206 F 
ATOM     75  C   UNL A   1      37.772  28.932  30.772  1.00  0.00     0.040 A 
ATOM     76  C   UNL A   1      37.416  29.662  28.506  1.00  0.00     0.040 A 
ATOM     77  F   UNL A   1      39.168  29.546  26.948  1.00  0.00    -0.206 F 
ATOM     78  C   UNL A   1      36.927  29.452  29.793  1.00  0.00     0.006 A 
ENDBRANCH  50  71
BRANCH  62  79
ATOM     79  C   UNL A   1      45.570  32.414  29.324  1.00  0.00     0.057 A 
ATOM     80  C   UNL A   1      45.972  32.778  30.615  1.00  0.00     0.134 A 
ATOM     81  C   UNL A   1      45.516  33.424  28.354  1.00  0.00     0.134 A 
ATOM     82  F   UNL A   1      46.030  31.861  31.592  1.00  0.00    -0.206 F 
ATOM     83  C   UNL A   1      46.293  34.099  30.933  1.00  0.00     0.040 A 
ATOM     84  C   UNL A   1      45.860  34.743  28.653  1.00  0.00     0.040 A 
ATOM     85  F   UNL A   1      45.146  33.141  27.096  1.00  0.00    -0.206 F 
ATOM     86  C   UNL A   1      46.245  35.084  29.948  1.00  0.00     0.006 A 
ENDBRANCH  62  79
ENDBRANCH  36  37
ENDBRANCH  28  31
ENDBRANCH  26  27
ENDBRANCH  25  26
ENDBRANCH   1  25
TORSDOF 15
ENDMDL
MODEL 2
REMARK VINA RESULT:     -11.4      0.516      6.184
REMARK SMILES COc1ncccc1C(=O)N[C@@](C)(C(=O)NCCCCNC(=O)c1ccc(-c2c3nc(c(-c4c(F)cccc4F)c4ccc([nH]4)c(-c4c(F)cccc4F)c4nc(c(-c5c(F)cccc5F)c5ccc2[nH]5)C=C4)C=C3)cc1)C(F)(F)F
REMARK SMILES IDX 18 1 17 2 16 3 14 4 15 5 12 7 13 8 11 9 9 10 10 11 8 13 3 14
REMARK SMILES IDX 4 15 5 16 7 17 6 18 2 19 1 20 78 21 79 22 80 23 81 24 19 25
REMARK SMILES IDX 20 26 21 27 22 28 23 30 24 31 25 32 77 33 26 34 76 35 27 36
REMARK SMILES IDX 28 37 29 38 70 39 30 40 75 41 69 42 71 43 31 44 74 45 68 46
REMARK SMILES IDX 67 47 32 49 58 50 41 51 57 52 42 53 45 54 56 55 72 56 43 57
REMARK SMILES IDX 44 58 55 60 73 61 46 62 33 63 34 64 39 65 35 66 36 67 38 68
REMARK SMILES IDX 40 69 37 70 59 71 60 72 65 73 61 74 62 75 64 76 66 77 63 78
REMARK SMILES IDX 47 79 48 80 53 81 49 82 50 83 52 84 54 85 51 86
REMARK H PARENT 16 6 11 12 21 29 71 48 45 59
REMARK Flexibility Score: inf
ROOT
ATOM      1  C   UNL A   1      37.334  21.310  24.491  1.00  0.00     0.023 C 
ENDROOT
BRANCH   1   2
ATOM      2  C   UNL A   1      37.033  22.376  25.543  1.00  0.00     0.116 C 
BRANCH   2   3
ATOM      3  N   UNL A   1      35.941  21.993  26.425  1.00  0.00    -0.354 N 
ATOM      4  C   UNL A   1      34.590  22.183  26.414  1.00  0.00     0.254 C 
ATOM      5  O   UNL A   1      33.992  21.608  27.328  1.00  0.00    -0.272 OA
ATOM      6  H   UNL A   1      36.247  21.479  27.207  1.00  0.00     0.163 HD
BRANCH   4   7
ATOM      7  C   UNL A   1      33.864  23.101  25.397  1.00  0.00     0.212 C 
ATOM      8  C   UNL A   1      34.715  24.331  25.024  1.00  0.00     0.056 C 
BRANCH   7   9
ATOM      9  N   UNL A   1      32.642  23.546  26.161  1.00  0.00    -0.330 N 
ATOM     10  C   UNL A   1      31.744  24.520  26.463  1.00  0.00     0.257 C 
ATOM     11  O   UNL A   1      30.898  24.078  27.251  1.00  0.00    -0.269 OA
ATOM     12  H   UNL A   1      32.367  22.763  26.689  1.00  0.00     0.165 HD
BRANCH  10  13
ATOM     13  C   UNL A   1      31.647  25.938  26.019  1.00  0.00     0.101 A 
ATOM     14  C   UNL A   1      31.392  26.240  24.669  1.00  0.00     0.226 A 
ATOM     15  N   UNL A   1      31.288  27.497  24.154  1.00  0.00    -0.221 NA
ATOM     16  C   UNL A   1      31.443  28.524  25.001  1.00  0.00     0.115 A 
ATOM     17  C   UNL A   1      31.779  27.048  26.845  1.00  0.00     0.021 A 
ATOM     18  C   UNL A   1      31.685  28.351  26.345  1.00  0.00     0.021 A 
BRANCH  14  19
ATOM     19  O   UNL A   1      31.277  25.268  23.712  1.00  0.00    -0.480 OA
ATOM     20  C   UNL A   1      32.110  25.581  22.599  1.00  0.00     0.280 C 
ENDBRANCH  14  19
ENDBRANCH  10  13
ENDBRANCH   7   9
BRANCH   7  21
ATOM     21  C   UNL A   1      33.757  22.256  24.116  1.00  0.00     0.420 C 
ATOM     22  F   UNL A   1      33.991  20.943  24.311  1.00  0.00    -0.168 F 
ATOM     23  F   UNL A   1      32.511  22.375  23.580  1.00  0.00    -0.168 F 
ATOM     24  F   UNL A   1      34.594  22.691  23.142  1.00  0.00    -0.168 F 
ENDBRANCH   7  21
ENDBRANCH   4   7
ENDBRANCH   2   3
ENDBRANCH   1   2
BRANCH   1  25
ATOM     25  C   UNL A   1      38.049  20.057  25.001  1.00  0.00     0.023 C 
BRANCH  25  26
ATOM     26  C   UNL A   1      39.278  20.307  25.866  1.00  0.00     0.116 C 
BRANCH  26  27
ATOM     27  N   UNL A   1      40.212  19.193  25.863  1.00  0.00    -0.352 N 
ATOM     28  C   UNL A   1      41.576  19.199  26.047  1.00  0.00     0.251 C 
ATOM     29  H   UNL A   1      39.811  18.307  25.707  1.00  0.00     0.163 HD
ATOM     30  O   UNL A   1      42.225  18.173  25.891  1.00  0.00    -0.269 OA
BRANCH  28  31
ATOM     31  C   UNL A   1      42.257  20.463  26.396  1.00  0.00     0.039 A 
ATOM     32  C   UNL A   1      42.849  21.212  25.376  1.00  0.00     0.014 A 
ATOM     33  C   UNL A   1      42.278  20.924  27.715  1.00  0.00     0.014 A 
ATOM     34  C   UNL A   1      43.388  22.467  25.666  1.00  0.00     0.010 A 
ATOM     35  C   UNL A   1      42.752  22.204  27.988  1.00  0.00     0.010 A 
ATOM     36  C   UNL A   1      43.300  22.992  26.965  1.00  0.00    -0.014 A 
BRANCH  36  37
ATOM     37  C   UNL A   1      43.751  24.374  27.269  1.00  0.00     0.031 A 
ATOM     38  C   UNL A   1      42.756  25.423  27.676  1.00  0.00     0.074 A 
ATOM     39  C   UNL A   1      45.048  24.701  27.102  1.00  0.00     0.049 A 
ATOM     40  N   UNL A   1      42.944  26.700  27.898  1.00  0.00    -0.248 NA
ATOM     41  C   UNL A   1      41.359  24.986  27.828  1.00  0.00     0.031 C 
ATOM     42  C   UNL A   1      46.104  23.784  26.668  1.00  0.00     0.029 A 
ATOM     43  N   UNL A   1      45.697  25.900  27.267  1.00  0.00    -0.354 N 
ATOM     44  C   UNL A   1      41.693  27.218  28.202  1.00  0.00     0.074 A 
ATOM     45  C   UNL A   1      40.745  26.132  28.087  1.00  0.00     0.031 C 
ATOM     46  C   UNL A   1      47.270  24.448  26.619  1.00  0.00     0.029 A 
ATOM     47  C   UNL A   1      47.039  25.844  26.979  1.00  0.00     0.049 A 
ATOM     48  H   UNL A   1      45.244  26.721  27.563  1.00  0.00     0.167 HD
ATOM     49  C   UNL A   1      41.367  28.481  28.567  1.00  0.00     0.037 A 
ATOM     50  C   UNL A   1      47.976  26.810  26.990  1.00  0.00     0.037 A 
ATOM     51  C   UNL A   1      42.316  29.556  28.701  1.00  0.00     0.049 A 
ATOM     52  C   UNL A   1      47.584  28.209  27.376  1.00  0.00     0.074 A 
ATOM     53  C   UNL A   1      42.093  30.854  29.127  1.00  0.00     0.029 A 
ATOM     54  N   UNL A   1      43.667  29.458  28.405  1.00  0.00    -0.354 N 
ATOM     55  N   UNL A   1      46.410  28.670  27.731  1.00  0.00    -0.248 NA
ATOM     56  C   UNL A   1      48.649  29.223  27.366  1.00  0.00     0.031 C 
ATOM     57  C   UNL A   1      43.301  31.554  29.044  1.00  0.00     0.029 A 
ATOM     58  C   UNL A   1      44.286  30.680  28.614  1.00  0.00     0.049 A 
ATOM     59  H   UNL A   1      44.120  28.641  28.095  1.00  0.00     0.167 HD
ATOM     60  C   UNL A   1      46.597  30.018  28.007  1.00  0.00     0.074 A 
ATOM     61  C   UNL A   1      48.002  30.298  27.795  1.00  0.00     0.031 C 
ATOM     62  C   UNL A   1      45.686  30.942  28.400  1.00  0.00     0.037 A 
BRANCH  49  63
ATOM     63  C   UNL A   1      39.922  28.768  28.852  1.00  0.00     0.057 A 
ATOM     64  C   UNL A   1      39.388  28.656  30.143  1.00  0.00     0.134 A 
ATOM     65  C   UNL A   1      39.062  29.195  27.832  1.00  0.00     0.134 A 
ATOM     66  F   UNL A   1      40.156  28.242  31.162  1.00  0.00    -0.206 F 
ATOM     67  C   UNL A   1      38.045  28.933  30.405  1.00  0.00     0.040 A 
ATOM     68  C   UNL A   1      37.724  29.501  28.087  1.00  0.00     0.040 A 
ATOM     69  F   UNL A   1      39.508  29.328  26.575  1.00  0.00    -0.206 F 
ATOM     70  C   UNL A   1      37.211  29.364  29.376  1.00  0.00     0.006 A 
ENDBRANCH  49  63
BRANCH  50  71
ATOM     71  C   UNL A   1      49.382  26.488  26.635  1.00  0.00     0.057 A 
ATOM     72  C   UNL A   1      49.849  26.651  25.325  1.00  0.00     0.134 A 
ATOM     73  C   UNL A   1      50.286  26.004  27.587  1.00  0.00     0.134 A 
ATOM     74  F   UNL A   1      49.024  27.093  24.365  1.00  0.00    -0.206 F 
ATOM     75  C   UNL A   1      51.160  26.327  24.971  1.00  0.00     0.040 A 
ATOM     76  C   UNL A   1      51.607  25.700  27.251  1.00  0.00     0.040 A 
ATOM     77  F   UNL A   1      49.903  25.831  28.860  1.00  0.00    -0.206 F 
ATOM     78  C   UNL A   1      52.045  25.854  25.938  1.00  0.00     0.006 A 
ENDBRANCH  50  71
BRANCH  62  79
ATOM     79  C   UNL A   1      46.184  32.334  28.650  1.00  0.00     0.057 A 
ATOM     80  C   UNL A   1      46.669  32.731  29.902  1.00  0.00     0.134 A 
ATOM     81  C   UNL A   1      46.222  33.276  27.613  1.00  0.00     0.134 A 
ATOM     82  F   UNL A   1      46.647  31.882  30.940  1.00  0.00    -0.206 F 
ATOM     83  C   UNL A   1      47.158  34.021  30.119  1.00  0.00     0.040 A 
ATOM     84  C   UNL A   1      46.733  34.559  27.810  1.00  0.00     0.040 A 
ATOM     85  F   UNL A   1      45.781  32.957  26.387  1.00  0.00    -0.206 F 
ATOM     86  C   UNL A   1      47.198  34.936  29.068  1.00  0.00     0.006 A 
ENDBRANCH  62  79
ENDBRANCH  36  37
ENDBRANCH  28  31
ENDBRANCH  26  27
ENDBRANCH  25  26
ENDBRANCH   1  25
TORSDOF 15
ENDMDL
MODEL 3
REMARK VINA RESULT:     -11.4      5.209      9.692
REMARK SMILES COc1ncccc1C(=O)N[C@@](C)(C(=O)NCCCCNC(=O)c1ccc(-c2c3nc(c(-c4c(F)cccc4F)c4ccc([nH]4)c(-c4c(F)cccc4F)c4nc(c(-c5c(F)cccc5F)c5ccc2[nH]5)C=C4)C=C3)cc1)C(F)(F)F
REMARK SMILES IDX 18 1 17 2 16 3 14 4 15 5 12 7 13 8 11 9 9 10 10 11 8 13 3 14
REMARK SMILES IDX 4 15 5 16 7 17 6 18 2 19 1 20 78 21 79 22 80 23 81 24 19 25
REMARK SMILES IDX 20 26 21 27 22 28 23 30 24 31 25 32 77 33 26 34 76 35 27 36
REMARK SMILES IDX 28 37 29 38 70 39 30 40 75 41 69 42 71 43 31 44 74 45 68 46
REMARK SMILES IDX 67 47 32 49 58 50 41 51 57 52 42 53 45 54 56 55 72 56 43 57
REMARK SMILES IDX 44 58 55 60 73 61 46 62 33 63 34 64 39 65 35 66 36 67 38 68
REMARK SMILES IDX 40 69 37 70 59 71 60 72 65 73 61 74 62 75 64 76 66 77 63 78
REMARK SMILES IDX 47 79 48 80 53 81 49 82 50 83 52 84 54 85 51 86
REMARK H PARENT 16 6 11 12 21 29 71 48 45 59
REMARK Flexibility Score: inf
ROOT
ATOM      1  C   UNL A   1      31.835  30.347  26.634  1.00  0.00     0.023 C 
ENDROOT
BRANCH   1   2
ATOM      2  C   UNL A   1      32.644  29.830  25.446  1.00  0.00     0.116 C 
BRANCH   2   3
ATOM      3  N   UNL A   1      31.857  29.774  24.223  1.00  0.00    -0.354 N 
ATOM      4  C   UNL A   1      31.480  28.776  23.372  1.00  0.00     0.254 C 
ATOM      5  O   UNL A   1      30.720  29.141  22.471  1.00  0.00    -0.272 OA
ATOM      6  H   UNL A   1      31.520  30.657  23.948  1.00  0.00     0.163 HD
BRANCH   4   7
ATOM      7  C   UNL A   1      32.014  27.324  23.468  1.00  0.00     0.212 C 
ATOM      8  C   UNL A   1      31.255  26.368  22.527  1.00  0.00     0.056 C 
BRANCH   7   9
ATOM      9  N   UNL A   1      31.724  26.955  24.901  1.00  0.00    -0.330 N 
ATOM     10  C   UNL A   1      31.954  26.147  25.970  1.00  0.00     0.257 C 
ATOM     11  O   UNL A   1      31.277  26.526  26.934  1.00  0.00    -0.269 OA
ATOM     12  H   UNL A   1      31.051  27.605  25.206  1.00  0.00     0.165 HD
BRANCH  10  13
ATOM     13  C   UNL A   1      32.832  24.956  26.128  1.00  0.00     0.101 A 
ATOM     14  C   UNL A   1      32.349  23.800  26.769  1.00  0.00     0.226 A 
ATOM     15  N   UNL A   1      33.064  22.659  26.972  1.00  0.00    -0.221 NA
ATOM     16  C   UNL A   1      34.329  22.638  26.526  1.00  0.00     0.115 A 
ATOM     17  C   UNL A   1      34.143  24.859  25.675  1.00  0.00     0.021 A 
ATOM     18  C   UNL A   1      34.906  23.704  25.874  1.00  0.00     0.021 A 
BRANCH  14  19
ATOM     19  O   UNL A   1      31.094  23.738  27.314  1.00  0.00    -0.480 OA
ATOM     20  C   UNL A   1      30.303  22.788  26.606  1.00  0.00     0.280 C 
ENDBRANCH  14  19
ENDBRANCH  10  13
ENDBRANCH   7   9
BRANCH   7  21
ATOM     21  C   UNL A   1      33.451  27.400  22.925  1.00  0.00     0.420 C 
ATOM     22  F   UNL A   1      33.624  28.344  21.979  1.00  0.00    -0.168 F 
ATOM     23  F   UNL A   1      34.320  27.672  23.938  1.00  0.00    -0.168 F 
ATOM     24  F   UNL A   1      33.873  26.215  22.418  1.00  0.00    -0.168 F 
ENDBRANCH   7  21
ENDBRANCH   4   7
ENDBRANCH   2   3
ENDBRANCH   1   2
BRANCH   1  25
ATOM     25  C   UNL A   1      31.626  31.862  26.687  1.00  0.00     0.023 C 
BRANCH  25  26
ATOM     26  C   UNL A   1      32.759  32.661  27.319  1.00  0.00     0.116 C 
BRANCH  26  27
ATOM     27  N   UNL A   1      32.394  34.041  27.600  1.00  0.00    -0.352 N 
ATOM     28  C   UNL A   1      32.943  34.920  28.504  1.00  0.00     0.251 C 
ATOM     29  H   UNL A   1      31.646  34.396  27.067  1.00  0.00     0.163 HD
ATOM     30  O   UNL A   1      32.428  36.014  28.694  1.00  0.00    -0.269 OA
BRANCH  28  31
ATOM     31  C   UNL A   1      34.139  34.519  29.274  1.00  0.00     0.039 A 
ATOM     32  C   UNL A   1      33.967  33.986  30.554  1.00  0.00     0.014 A 
ATOM     33  C   UNL A   1      35.417  34.632  28.721  1.00  0.00     0.014 A 
ATOM     34  C   UNL A   1      35.071  33.488  31.248  1.00  0.00     0.010 A 
ATOM     35  C   UNL A   1      36.505  34.071  29.384  1.00  0.00     0.010 A 
ATOM     36  C   UNL A   1      36.341  33.483  30.648  1.00  0.00    -0.014 A 
BRANCH  36  37
ATOM     37  C   UNL A   1      37.505  32.843  31.312  1.00  0.00     0.031 A 
ATOM     38  C   UNL A   1      38.160  31.638  30.699  1.00  0.00     0.074 A 
ATOM     39  C   UNL A   1      37.921  33.303  32.509  1.00  0.00     0.049 A 
ATOM     40  N   UNL A   1      39.127  30.894  31.171  1.00  0.00    -0.248 NA
ATOM     41  C   UNL A   1      37.641  31.195  29.395  1.00  0.00     0.031 C 
ATOM     42  C   UNL A   1      37.339  34.437  33.230  1.00  0.00     0.029 A 
ATOM     43  N   UNL A   1      38.925  32.864  33.336  1.00  0.00    -0.354 N 
ATOM     44  C   UNL A   1      39.324  29.891  30.231  1.00  0.00     0.074 A 
ATOM     45  C   UNL A   1      38.342  30.090  29.187  1.00  0.00     0.031 C 
ATOM     46  C   UNL A   1      38.007  34.616  34.381  1.00  0.00     0.029 A 
ATOM     47  C   UNL A   1      39.037  33.588  34.499  1.00  0.00     0.049 A 
ATOM     48  H   UNL A   1      39.509  32.103  33.117  1.00  0.00     0.167 HD
ATOM     49  C   UNL A   1      40.253  28.906  30.227  1.00  0.00     0.037 A 
ATOM     50  C   UNL A   1      39.866  33.433  35.548  1.00  0.00     0.037 A 
ATOM     51  C   UNL A   1      41.242  28.722  31.257  1.00  0.00     0.049 A 
ATOM     52  C   UNL A   1      40.873  32.317  35.530  1.00  0.00     0.074 A 
ATOM     53  C   UNL A   1      42.267  27.793  31.312  1.00  0.00     0.029 A 
ATOM     54  N   UNL A   1      41.326  29.479  32.416  1.00  0.00    -0.354 N 
ATOM     55  N   UNL A   1      41.095  31.419  34.602  1.00  0.00    -0.248 NA
ATOM     56  C   UNL A   1      41.748  32.195  36.705  1.00  0.00     0.031 C 
ATOM     57  C   UNL A   1      42.942  27.958  32.525  1.00  0.00     0.029 A 
ATOM     58  C   UNL A   1      42.369  29.021  33.205  1.00  0.00     0.049 A 
ATOM     59  H   UNL A   1      40.734  30.231  32.644  1.00  0.00     0.167 HD
ATOM     60  C   UNL A   1      42.146  30.641  35.068  1.00  0.00     0.074 A 
ATOM     61  C   UNL A   1      42.529  31.182  36.356  1.00  0.00     0.031 C 
ATOM     62  C   UNL A   1      42.739  29.572  34.483  1.00  0.00     0.037 A 
BRANCH  49  63
ATOM     63  C   UNL A   1      40.247  27.952  29.069  1.00  0.00     0.057 A 
ATOM     64  C   UNL A   1      39.505  26.763  29.096  1.00  0.00     0.134 A 
ATOM     65  C   UNL A   1      40.961  28.240  27.899  1.00  0.00     0.134 A 
ATOM     66  F   UNL A   1      38.808  26.422  30.190  1.00  0.00    -0.206 F 
ATOM     67  C   UNL A   1      39.495  25.883  28.013  1.00  0.00     0.040 A 
ATOM     68  C   UNL A   1      40.936  27.382  26.799  1.00  0.00     0.040 A 
ATOM     69  F   UNL A   1      41.687  29.363  27.803  1.00  0.00    -0.206 F 
ATOM     70  C   UNL A   1      40.207  26.196  26.856  1.00  0.00     0.006 A 
ENDBRANCH  49  63
BRANCH  50  71
ATOM     71  C   UNL A   1      39.788  34.365  36.702  1.00  0.00     0.057 A 
ATOM     72  C   UNL A   1      40.466  35.589  36.685  1.00  0.00     0.134 A 
ATOM     73  C   UNL A   1      39.047  34.054  37.848  1.00  0.00     0.134 A 
ATOM     74  F   UNL A   1      41.208  35.935  35.623  1.00  0.00    -0.206 F 
ATOM     75  C   UNL A   1      40.424  36.464  37.772  1.00  0.00     0.040 A 
ATOM     76  C   UNL A   1      38.976  34.930  38.932  1.00  0.00     0.040 A 
ATOM     77  F   UNL A   1      38.370  32.899  37.924  1.00  0.00    -0.206 F 
ATOM     78  C   UNL A   1      39.673  36.136  38.899  1.00  0.00     0.006 A 
ENDBRANCH  50  71
BRANCH  62  79
ATOM     79  C   UNL A   1      43.881  28.933  35.217  1.00  0.00     0.057 A 
ATOM     80  C   UNL A   1      43.682  27.884  36.123  1.00  0.00     0.134 A 
ATOM     81  C   UNL A   1      45.200  29.343  34.981  1.00  0.00     0.134 A 
ATOM     82  F   UNL A   1      42.443  27.455  36.404  1.00  0.00    -0.206 F 
ATOM     83  C   UNL A   1      44.752  27.276  36.781  1.00  0.00     0.040 A 
ATOM     84  C   UNL A   1      46.281  28.725  35.612  1.00  0.00     0.040 A 
ATOM     85  F   UNL A   1      45.461  30.337  34.118  1.00  0.00    -0.206 F 
ATOM     86  C   UNL A   1      46.057  27.692  36.518  1.00  0.00     0.006 A 
ENDBRANCH  62  79
ENDBRANCH  36  37
ENDBRANCH  28  31
ENDBRANCH  26  27
ENDBRANCH  25  26
ENDBRANCH   1  25
TORSDOF 15
ENDMDL
