MODEL 1
REMARK VINA RESULT:     -11.8      0.000      0.000
REMARK SMILES C[C@H]1[C@H](C(=O)NCCCCNC(=O)c2ccc(-c3c4nc(c(-c5c(F)cccc5F)c5ccc([nH]5)c(-c5c(F)cccc5F)c5nc(c(-c6c(F)cccc6F)c6ccc3[nH]6)C=C5)C=C4)cc2)CCN1C(=O)COc1ccccc1F
REMARK SMILES IDX 7 1 6 2 4 3 5 4 3 6 1 7 2 8 70 9 68 10 69 11 71 12 72 13
REMARK SMILES IDX 73 14 74 15 75 16 76 17 80 18 77 19 79 20 81 21 78 22 8 23
REMARK SMILES IDX 9 24 10 25 11 26 12 27 13 29 14 30 15 31 67 32 16 33 66 34
REMARK SMILES IDX 17 35 18 36 19 37 60 38 20 39 65 40 59 41 61 42 21 43 64 44
REMARK SMILES IDX 58 45 57 46 22 48 48 49 31 50 47 51 32 52 35 53 46 54 62 55
REMARK SMILES IDX 33 56 34 57 45 59 63 60 36 61 23 62 24 63 29 64 25 65 26 66
REMARK SMILES IDX 28 67 30 68 27 69 49 70 50 71 55 72 51 73 52 74 54 75 56 76
REMARK SMILES IDX 53 77 37 78 38 79 43 80 39 81 40 82 42 83 44 84 41 85
REMARK H PARENT 6 5 11 28 61 47 35 58
REMARK Flexibility Score: inf
ROOT
ATOM      1  C   UNL A   1      33.174  30.258  26.252  1.00  0.00     0.116 C 
ENDROOT
BRANCH   1   2
ATOM      2  N   UNL A   1      33.607  29.628  25.019  1.00  0.00    -0.356 N 
ATOM      3  C   UNL A   1      33.737  28.318  24.685  1.00  0.00     0.225 C 
ATOM      4  O   UNL A   1      34.171  28.061  23.558  1.00  0.00    -0.275 OA
ATOM      5  H   UNL A   1      33.849  30.258  24.302  1.00  0.00     0.163 HD
BRANCH   3   6
ATOM      6  C   UNL A   1      33.364  27.188  25.630  1.00  0.00     0.102 C 
ATOM      7  C   UNL A   1      31.268  27.131  26.999  1.00  0.00     0.032 C 
ATOM      8  C   UNL A   1      31.857  26.858  25.615  1.00  0.00     0.094 C 
ATOM      9  N   UNL A   1      31.803  25.451  25.210  1.00  0.00    -0.336 N 
ATOM     10  C   UNL A   1      34.123  25.888  25.359  1.00  0.00     0.037 C 
ATOM     11  C   UNL A   1      33.077  24.794  25.427  1.00  0.00     0.121 C 
BRANCH   9  12
ATOM     12  C   UNL A   1      30.810  24.785  24.518  1.00  0.00     0.260 C 
ATOM     13  O   UNL A   1      30.685  23.558  24.605  1.00  0.00    -0.271 OA
BRANCH  12  14
ATOM     14  C   UNL A   1      29.862  25.564  23.597  1.00  0.00     0.329 C 
BRANCH  14  15
ATOM     15  O   UNL A   1      29.046  26.622  24.050  1.00  0.00    -0.481 OA
BRANCH  15  16
ATOM     16  C   UNL A   1      28.936  27.766  23.310  1.00  0.00     0.155 A 
ATOM     17  C   UNL A   1      30.157  28.239  22.814  1.00  0.00     0.049 A 
ATOM     18  C   UNL A   1      27.798  28.548  23.105  1.00  0.00     0.165 A 
ATOM     19  C   UNL A   1      30.236  29.461  22.139  1.00  0.00     0.004 A 
ATOM     20  C   UNL A   1      27.873  29.776  22.447  1.00  0.00     0.043 A 
ATOM     21  F   UNL A   1      26.597  28.196  23.568  1.00  0.00    -0.203 F 
ATOM     22  C   UNL A   1      29.093  30.237  21.964  1.00  0.00     0.003 A 
ENDBRANCH  15  16
ENDBRANCH  14  15
ENDBRANCH  12  14
ENDBRANCH   9  12
ENDBRANCH   3   6
ENDBRANCH   1   2
BRANCH   1  23
ATOM     23  C   UNL A   1      31.704  30.661  26.195  1.00  0.00     0.023 C 
BRANCH  23  24
ATOM     24  C   UNL A   1      31.427  32.092  26.655  1.00  0.00     0.023 C 
BRANCH  24  25
ATOM     25  C   UNL A   1      32.626  32.817  27.253  1.00  0.00     0.116 C 
BRANCH  25  26
ATOM     26  N   UNL A   1      32.340  34.197  27.616  1.00  0.00    -0.352 N 
ATOM     27  C   UNL A   1      32.970  34.986  28.546  1.00  0.00     0.251 C 
ATOM     28  H   UNL A   1      31.596  34.621  27.129  1.00  0.00     0.163 HD
ATOM     29  O   UNL A   1      32.532  36.096  28.826  1.00  0.00    -0.269 OA
BRANCH  27  30
ATOM     30  C   UNL A   1      34.164  34.465  29.239  1.00  0.00     0.039 A 
ATOM     31  C   UNL A   1      34.002  33.804  30.458  1.00  0.00     0.014 A 
ATOM     32  C   UNL A   1      35.432  34.589  28.663  1.00  0.00     0.014 A 
ATOM     33  C   UNL A   1      35.104  33.202  31.066  1.00  0.00     0.010 A 
ATOM     34  C   UNL A   1      36.514  33.924  29.229  1.00  0.00     0.010 A 
ATOM     35  C   UNL A   1      36.360  33.222  30.435  1.00  0.00    -0.014 A 
BRANCH  35  36
ATOM     36  C   UNL A   1      37.524  32.511  31.019  1.00  0.00     0.031 A 
ATOM     37  C   UNL A   1      38.139  32.997  32.301  1.00  0.00     0.074 A 
ATOM     38  C   UNL A   1      38.069  31.472  30.357  1.00  0.00     0.049 A 
ATOM     39  N   UNL A   1      39.196  32.553  32.931  1.00  0.00    -0.248 NA
ATOM     40  C   UNL A   1      37.497  34.154  32.946  1.00  0.00     0.031 C 
ATOM     41  C   UNL A   1      37.598  30.939  29.077  1.00  0.00     0.029 A 
ATOM     42  N   UNL A   1      39.148  30.682  30.667  1.00  0.00    -0.354 N 
ATOM     43  C   UNL A   1      39.353  33.382  34.033  1.00  0.00     0.074 A 
ATOM     44  C   UNL A   1      38.318  34.389  33.958  1.00  0.00     0.031 C 
ATOM     45  C   UNL A   1      38.367  29.898  28.725  1.00  0.00     0.029 A 
ATOM     46  C   UNL A   1      39.407  29.711  29.731  1.00  0.00     0.049 A 
ATOM     47  H   UNL A   1      39.685  30.801  31.483  1.00  0.00     0.167 HD
ATOM     48  C   UNL A   1      40.263  33.296  35.033  1.00  0.00     0.037 A 
ATOM     49  C   UNL A   1      40.376  28.778  29.687  1.00  0.00     0.037 A 
ATOM     50  C   UNL A   1      41.276  32.279  35.119  1.00  0.00     0.049 A 
ATOM     51  C   UNL A   1      41.375  28.705  30.809  1.00  0.00     0.074 A 
ATOM     52  C   UNL A   1      42.204  32.068  36.124  1.00  0.00     0.029 A 
ATOM     53  N   UNL A   1      41.494  31.299  34.162  1.00  0.00    -0.354 N 
ATOM     54  N   UNL A   1      41.468  29.450  31.883  1.00  0.00    -0.248 NA
ATOM     55  C   UNL A   1      42.399  27.656  30.716  1.00  0.00     0.031 C 
ATOM     56  C   UNL A   1      43.011  30.987  35.754  1.00  0.00     0.029 A 
ATOM     57  C   UNL A   1      42.555  30.494  34.541  1.00  0.00     0.049 A 
ATOM     58  H   UNL A   1      40.971  31.191  33.334  1.00  0.00     0.167 HD
ATOM     59  C   UNL A   1      42.541  28.946  32.605  1.00  0.00     0.074 A 
ATOM     60  C   UNL A   1      43.058  27.820  31.854  1.00  0.00     0.031 C 
ATOM     61  C   UNL A   1      43.053  29.374  33.785  1.00  0.00     0.037 A 
BRANCH  48  62
ATOM     62  C   UNL A   1      40.198  34.333  36.117  1.00  0.00     0.057 A 
ATOM     63  C   UNL A   1      39.415  34.152  37.265  1.00  0.00     0.134 A 
ATOM     64  C   UNL A   1      40.948  35.513  36.026  1.00  0.00     0.134 A 
ATOM     65  F   UNL A   1      38.662  33.050  37.408  1.00  0.00    -0.206 F 
ATOM     66  C   UNL A   1      39.359  35.118  38.271  1.00  0.00     0.040 A 
ATOM     67  C   UNL A   1      40.922  36.473  37.039  1.00  0.00     0.040 A 
ATOM     68  F   UNL A   1      41.722  35.747  34.956  1.00  0.00    -0.206 F 
ATOM     69  C   UNL A   1      40.120  36.280  38.162  1.00  0.00     0.006 A 
ENDBRANCH  48  62
BRANCH  49  70
ATOM     70  C   UNL A   1      40.437  27.820  28.555  1.00  0.00     0.057 A 
ATOM     71  C   UNL A   1      41.165  28.116  27.398  1.00  0.00     0.134 A 
ATOM     72  C   UNL A   1      39.764  26.593  28.598  1.00  0.00     0.134 A 
ATOM     73  F   UNL A   1      41.815  29.285  27.291  1.00  0.00    -0.206 F 
ATOM     74  C   UNL A   1      41.207  27.237  26.314  1.00  0.00     0.040 A 
ATOM     75  C   UNL A   1      39.818  25.693  27.532  1.00  0.00     0.040 A 
ATOM     76  F   UNL A   1      39.055  26.245  29.682  1.00  0.00    -0.206 F 
ATOM     77  C   UNL A   1      40.536  26.019  26.382  1.00  0.00     0.006 A 
ENDBRANCH  49  70
BRANCH  61  78
ATOM     78  C   UNL A   1      44.210  28.605  34.351  1.00  0.00     0.057 A 
ATOM     79  C   UNL A   1      45.537  28.970  34.096  1.00  0.00     0.134 A 
ATOM     80  C   UNL A   1      43.990  27.508  35.195  1.00  0.00     0.134 A 
ATOM     81  F   UNL A   1      45.814  30.003  33.286  1.00  0.00    -0.206 F 
ATOM     82  C   UNL A   1      46.606  28.258  34.642  1.00  0.00     0.040 A 
ATOM     83  C   UNL A   1      45.050  26.804  35.766  1.00  0.00     0.040 A 
ATOM     84  F   UNL A   1      42.742  27.111  35.486  1.00  0.00    -0.206 F 
ATOM     85  C   UNL A   1      46.364  27.175  35.486  1.00  0.00     0.006 A 
ENDBRANCH  61  78
ENDBRANCH  35  36
ENDBRANCH  27  30
ENDBRANCH  25  26
ENDBRANCH  24  25
ENDBRANCH  23  24
ENDBRANCH   1  23
TORSDOF 15
ENDMDL
MODEL 2
REMARK VINA RESULT:     -11.8      4.329      9.189
REMARK SMILES C[C@H]1[C@H](C(=O)NCCCCNC(=O)c2ccc(-c3c4nc(c(-c5c(F)cccc5F)c5ccc([nH]5)c(-c5c(F)cccc5F)c5nc(c(-c6c(F)cccc6F)c6ccc3[nH]6)C=C5)C=C4)cc2)CCN1C(=O)COc1ccccc1F
REMARK SMILES IDX 7 1 6 2 4 3 5 4 3 6 1 7 2 8 70 9 68 10 69 11 71 12 72 13
REMARK SMILES IDX 73 14 74 15 75 16 76 17 80 18 77 19 79 20 81 21 78 22 8 23
REMARK SMILES IDX 9 24 10 25 11 26 12 27 13 29 14 30 15 31 67 32 16 33 66 34
REMARK SMILES IDX 17 35 18 36 19 37 60 38 20 39 65 40 59 41 61 42 21 43 64 44
REMARK SMILES IDX 58 45 57 46 22 48 48 49 31 50 47 51 32 52 35 53 46 54 62 55
REMARK SMILES IDX 33 56 34 57 45 59 63 60 36 61 23 62 24 63 29 64 25 65 26 66
REMARK SMILES IDX 28 67 30 68 27 69 49 70 50 71 55 72 51 73 52 74 54 75 56 76
REMARK SMILES IDX 53 77 37 78 38 79 43 80 39 81 40 82 42 83 44 84 41 85
REMARK H PARENT 6 5 11 28 61 47 35 58
REMARK Flexibility Score: inf
ROOT
ATOM      1  C   UNL A   1      37.718  23.395  25.867  1.00  0.00     0.116 C 
ENDROOT
BRANCH   1   2
ATOM      2  N   UNL A   1      37.568  23.193  24.438  1.00  0.00    -0.356 N 
ATOM      3  C   UNL A   1      36.457  23.142  23.657  1.00  0.00     0.225 C 
ATOM      4  O   UNL A   1      36.621  22.915  22.455  1.00  0.00    -0.275 OA
ATOM      5  H   UNL A   1      38.415  23.071  23.951  1.00  0.00     0.163 HD
BRANCH   3   6
ATOM      6  C   UNL A   1      35.057  23.361  24.205  1.00  0.00     0.102 C 
ATOM      7  C   UNL A   1      34.379  25.330  25.594  1.00  0.00     0.032 C 
ATOM      8  C   UNL A   1      34.614  24.838  24.166  1.00  0.00     0.094 C 
ATOM      9  N   UNL A   1      33.410  24.829  23.331  1.00  0.00    -0.336 N 
ATOM     10  C   UNL A   1      33.985  22.540  23.487  1.00  0.00     0.037 C 
ATOM     11  C   UNL A   1      32.837  23.500  23.254  1.00  0.00     0.121 C 
BRANCH   9  12
ATOM     12  C   UNL A   1      32.913  25.827  22.516  1.00  0.00     0.260 C 
ATOM     13  O   UNL A   1      33.606  26.324  21.620  1.00  0.00    -0.271 OA
BRANCH  12  14
ATOM     14  C   UNL A   1      31.492  26.360  22.736  1.00  0.00     0.329 C 
BRANCH  14  15
ATOM     15  O   UNL A   1      31.218  27.563  23.421  1.00  0.00    -0.481 OA
BRANCH  15  16
ATOM     16  C   UNL A   1      31.917  27.881  24.553  1.00  0.00     0.155 A 
ATOM     17  C   UNL A   1      31.319  27.426  25.734  1.00  0.00     0.049 A 
ATOM     18  C   UNL A   1      33.054  28.682  24.659  1.00  0.00     0.165 A 
ATOM     19  C   UNL A   1      31.843  27.769  26.985  1.00  0.00     0.004 A 
ATOM     20  C   UNL A   1      33.572  29.042  25.904  1.00  0.00     0.043 A 
ATOM     21  F   UNL A   1      33.675  29.188  23.591  1.00  0.00    -0.203 F 
ATOM     22  C   UNL A   1      32.965  28.588  27.070  1.00  0.00     0.003 A 
ENDBRANCH  15  16
ENDBRANCH  14  15
ENDBRANCH  12  14
ENDBRANCH   9  12
ENDBRANCH   3   6
ENDBRANCH   1   2
BRANCH   1  23
ATOM     23  C   UNL A   1      38.858  22.559  26.439  1.00  0.00     0.023 C 
BRANCH  23  24
ATOM     24  C   UNL A   1      39.133  21.265  25.672  1.00  0.00     0.023 C 
BRANCH  24  25
ATOM     25  C   UNL A   1      39.598  20.096  26.531  1.00  0.00     0.116 C 
BRANCH  25  26
ATOM     26  N   UNL A   1      40.716  19.367  25.952  1.00  0.00    -0.352 N 
ATOM     27  C   UNL A   1      42.021  19.772  25.811  1.00  0.00     0.251 C 
ATOM     28  H   UNL A   1      40.510  18.464  25.617  1.00  0.00     0.163 HD
ATOM     29  O   UNL A   1      42.825  19.087  25.187  1.00  0.00    -0.269 OA
BRANCH  27  30
ATOM     30  C   UNL A   1      42.438  21.065  26.386  1.00  0.00     0.039 A 
ATOM     31  C   UNL A   1      42.781  22.108  25.524  1.00  0.00     0.014 A 
ATOM     32  C   UNL A   1      42.445  21.258  27.771  1.00  0.00     0.014 A 
ATOM     33  C   UNL A   1      43.061  23.370  26.048  1.00  0.00     0.010 A 
ATOM     34  C   UNL A   1      42.649  22.533  28.287  1.00  0.00     0.010 A 
ATOM     35  C   UNL A   1      42.957  23.601  27.430  1.00  0.00    -0.014 A 
BRANCH  35  36
ATOM     36  C   UNL A   1      43.162  24.956  27.999  1.00  0.00     0.031 A 
ATOM     37  C   UNL A   1      44.528  25.383  28.456  1.00  0.00     0.074 A 
ATOM     38  C   UNL A   1      42.105  25.773  28.169  1.00  0.00     0.049 A 
ATOM     39  N   UNL A   1      44.896  26.496  29.039  1.00  0.00    -0.248 NA
ATOM     40  C   UNL A   1      45.624  24.420  28.257  1.00  0.00     0.031 C 
ATOM     41  C   UNL A   1      40.720  25.455  27.816  1.00  0.00     0.029 A 
ATOM     42  N   UNL A   1      42.030  27.041  28.691  1.00  0.00    -0.354 N 
ATOM     43  C   UNL A   1      46.254  26.360  29.288  1.00  0.00     0.074 A 
ATOM     44  C   UNL A   1      46.637  25.038  28.845  1.00  0.00     0.031 C 
ATOM     45  C   UNL A   1      39.939  26.506  28.109  1.00  0.00     0.029 A 
ATOM     46  C   UNL A   1      40.758  27.557  28.704  1.00  0.00     0.049 A 
ATOM     47  H   UNL A   1      42.814  27.532  29.026  1.00  0.00     0.167 HD
ATOM     48  C   UNL A   1      47.111  27.267  29.816  1.00  0.00     0.037 A 
ATOM     49  C   UNL A   1      40.301  28.743  29.148  1.00  0.00     0.037 A 
ATOM     50  C   UNL A   1      46.733  28.591  30.232  1.00  0.00     0.049 A 
ATOM     51  C   UNL A   1      41.274  29.731  29.731  1.00  0.00     0.074 A 
ATOM     52  C   UNL A   1      47.539  29.605  30.719  1.00  0.00     0.029 A 
ATOM     53  N   UNL A   1      45.438  29.085  30.209  1.00  0.00    -0.354 N 
ATOM     54  N   UNL A   1      42.570  29.617  29.894  1.00  0.00    -0.248 NA
ATOM     55  C   UNL A   1      40.721  31.015  30.184  1.00  0.00     0.031 C 
ATOM     56  C   UNL A   1      46.725  30.698  31.031  1.00  0.00     0.029 A 
ATOM     57  C   UNL A   1      45.418  30.382  30.694  1.00  0.00     0.049 A 
ATOM     58  H   UNL A   1      44.648  28.587  29.895  1.00  0.00     0.167 HD
ATOM     59  C   UNL A   1      42.991  30.821  30.443  1.00  0.00     0.074 A 
ATOM     60  C   UNL A   1      41.814  31.656  30.571  1.00  0.00     0.031 C 
ATOM     61  C   UNL A   1      44.239  31.202  30.808  1.00  0.00     0.037 A 
BRANCH  48  62
ATOM     62  C   UNL A   1      48.546  26.853  29.967  1.00  0.00     0.057 A 
ATOM     63  C   UNL A   1      49.003  26.177  31.106  1.00  0.00     0.134 A 
ATOM     64  C   UNL A   1      49.477  27.108  28.952  1.00  0.00     0.134 A 
ATOM     65  F   UNL A   1      48.166  25.913  32.123  1.00  0.00    -0.206 F 
ATOM     66  C   UNL A   1      50.339  25.793  31.242  1.00  0.00     0.040 A 
ATOM     67  C   UNL A   1      50.808  26.704  29.063  1.00  0.00     0.040 A 
ATOM     68  F   UNL A   1      49.105  27.747  27.832  1.00  0.00    -0.206 F 
ATOM     69  C   UNL A   1      51.244  26.051  30.215  1.00  0.00     0.006 A 
ENDBRANCH  48  62
BRANCH  49  70
ATOM     70  C   UNL A   1      38.859  29.075  29.038  1.00  0.00     0.057 A 
ATOM     71  C   UNL A   1      38.306  29.493  27.823  1.00  0.00     0.134 A 
ATOM     72  C   UNL A   1      38.002  28.991  30.142  1.00  0.00     0.134 A 
ATOM     73  F   UNL A   1      39.080  29.612  26.735  1.00  0.00    -0.206 F 
ATOM     74  C   UNL A   1      36.957  29.836  27.712  1.00  0.00     0.040 A 
ATOM     75  C   UNL A   1      36.646  29.306  30.040  1.00  0.00     0.040 A 
ATOM     76  F   UNL A   1      38.468  28.588  31.334  1.00  0.00    -0.206 F 
ATOM     77  C   UNL A   1      36.122  29.738  28.822  1.00  0.00     0.006 A 
ENDBRANCH  49  70
BRANCH  61  78
ATOM     78  C   UNL A   1      44.402  32.592  31.350  1.00  0.00     0.057 A 
ATOM     79  C   UNL A   1      44.339  32.864  32.722  1.00  0.00     0.134 A 
ATOM     80  C   UNL A   1      44.665  33.664  30.487  1.00  0.00     0.134 A 
ATOM     81  F   UNL A   1      44.076  31.882  33.598  1.00  0.00    -0.206 F 
ATOM     82  C   UNL A   1      44.509  34.158  33.216  1.00  0.00     0.040 A 
ATOM     83  C   UNL A   1      44.863  34.958  30.972  1.00  0.00     0.040 A 
ATOM     84  F   UNL A   1      44.747  33.470  29.162  1.00  0.00    -0.206 F 
ATOM     85  C   UNL A   1      44.779  35.208  32.341  1.00  0.00     0.006 A 
ENDBRANCH  61  78
ENDBRANCH  35  36
ENDBRANCH  27  30
ENDBRANCH  25  26
ENDBRANCH  24  25
ENDBRANCH  23  24
ENDBRANCH   1  23
TORSDOF 15
ENDMDL
MODEL 3
REMARK VINA RESULT:     -11.7      0.874      6.317
REMARK SMILES C[C@H]1[C@H](C(=O)NCCCCNC(=O)c2ccc(-c3c4nc(c(-c5c(F)cccc5F)c5ccc([nH]5)c(-c5c(F)cccc5F)c5nc(c(-c6c(F)cccc6F)c6ccc3[nH]6)C=C5)C=C4)cc2)CCN1C(=O)COc1ccccc1F
REMARK SMILES IDX 7 1 6 2 4 3 5 4 3 6 1 7 2 8 70 9 68 10 69 11 71 12 72 13
REMARK SMILES IDX 73 14 74 15 75 16 76 17 80 18 77 19 79 20 81 21 78 22 8 23
REMARK SMILES IDX 9 24 10 25 11 26 12 27 13 29 14 30 15 31 67 32 16 33 66 34
REMARK SMILES IDX 17 35 18 36 19 37 60 38 20 39 65 40 59 41 61 42 21 43 64 44
REMARK SMILES IDX 58 45 57 46 22 48 48 49 31 50 47 51 32 52 35 53 46 54 62 55
REMARK SMILES IDX 33 56 34 57 45 59 63 60 36 61 23 62 24 63 29 64 25 65 26 66
REMARK SMILES IDX 28 67 30 68 27 69 49 70 50 71 55 72 51 73 52 74 54 75 56 76
REMARK SMILES IDX 53 77 37 78 38 79 43 80 39 81 40 82 42 83 44 84 41 85
REMARK H PARENT 6 5 11 28 61 47 35 58
REMARK Flexibility Score: inf
ROOT
ATOM      1  C   UNL A   1      33.229  29.828  26.909  1.00  0.00     0.116 C 
ENDROOT
BRANCH   1   2
ATOM      2  N   UNL A   1      33.714  29.558  25.568  1.00  0.00    -0.356 N 
ATOM      3  C   UNL A   1      33.826  28.393  24.878  1.00  0.00     0.225 C 
ATOM      4  O   UNL A   1      34.316  28.450  23.747  1.00  0.00    -0.275 OA
ATOM      5  H   UNL A   1      34.014  30.355  25.075  1.00  0.00     0.163 HD
BRANCH   3   6
ATOM      6  C   UNL A   1      33.368  27.058  25.441  1.00  0.00     0.102 C 
ATOM      7  C   UNL A   1      31.339  26.755  26.876  1.00  0.00     0.032 C 
ATOM      8  C   UNL A   1      31.835  26.892  25.436  1.00  0.00     0.094 C 
ATOM      9  N   UNL A   1      31.606  25.704  24.611  1.00  0.00    -0.336 N 
ATOM     10  C   UNL A   1      33.964  25.852  24.714  1.00  0.00     0.037 C 
ATOM     11  C   UNL A   1      32.806  24.897  24.510  1.00  0.00     0.121 C 
BRANCH   9  12
ATOM     12  C   UNL A   1      30.517  25.393  23.820  1.00  0.00     0.260 C 
ATOM     13  O   UNL A   1      30.457  24.320  23.208  1.00  0.00    -0.271 OA
BRANCH  12  14
ATOM     14  C   UNL A   1      29.370  26.401  23.664  1.00  0.00     0.329 C 
BRANCH  14  15
ATOM     15  O   UNL A   1      29.402  27.466  22.740  1.00  0.00    -0.481 OA
BRANCH  15  16
ATOM     16  C   UNL A   1      29.040  28.725  23.134  1.00  0.00     0.155 A 
ATOM     17  C   UNL A   1      27.676  28.996  22.978  1.00  0.00     0.049 A 
ATOM     18  C   UNL A   1      29.874  29.766  23.544  1.00  0.00     0.165 A 
ATOM     19  C   UNL A   1      27.164  30.275  23.222  1.00  0.00     0.004 A 
ATOM     20  C   UNL A   1      29.372  31.048  23.773  1.00  0.00     0.043 A 
ATOM     21  F   UNL A   1      31.192  29.611  23.689  1.00  0.00    -0.203 F 
ATOM     22  C   UNL A   1      28.015  31.305  23.610  1.00  0.00     0.003 A 
ENDBRANCH  15  16
ENDBRANCH  14  15
ENDBRANCH  12  14
ENDBRANCH   9  12
ENDBRANCH   3   6
ENDBRANCH   1   2
BRANCH   1  23
ATOM     23  C   UNL A   1      31.809  30.384  26.895  1.00  0.00     0.023 C 
BRANCH  23  24
ATOM     24  C   UNL A   1      31.727  31.892  26.654  1.00  0.00     0.023 C 
BRANCH  24  25
ATOM     25  C   UNL A   1      32.850  32.704  27.288  1.00  0.00     0.116 C 
BRANCH  25  26
ATOM     26  N   UNL A   1      32.456  34.065  27.620  1.00  0.00    -0.352 N 
ATOM     27  C   UNL A   1      32.992  34.904  28.566  1.00  0.00     0.251 C 
ATOM     28  H   UNL A   1      31.708  34.433  27.097  1.00  0.00     0.163 HD
ATOM     29  O   UNL A   1      32.468  35.985  28.812  1.00  0.00    -0.269 OA
BRANCH  27  30
ATOM     30  C   UNL A   1      34.187  34.472  29.316  1.00  0.00     0.039 A 
ATOM     31  C   UNL A   1      34.019  33.851  30.555  1.00  0.00     0.014 A 
ATOM     32  C   UNL A   1      35.465  34.639  28.773  1.00  0.00     0.014 A 
ATOM     33  C   UNL A   1      35.129  33.331  31.219  1.00  0.00     0.010 A 
ATOM     34  C   UNL A   1      36.560  34.052  29.399  1.00  0.00     0.010 A 
ATOM     35  C   UNL A   1      36.402  33.391  30.627  1.00  0.00    -0.014 A 
BRANCH  35  36
ATOM     36  C   UNL A   1      37.581  32.764  31.274  1.00  0.00     0.031 A 
ATOM     37  C   UNL A   1      38.228  31.558  30.653  1.00  0.00     0.074 A 
ATOM     38  C   UNL A   1      38.022  33.237  32.455  1.00  0.00     0.049 A 
ATOM     39  N   UNL A   1      39.221  30.831  31.099  1.00  0.00    -0.248 NA
ATOM     40  C   UNL A   1      37.669  31.090  29.375  1.00  0.00     0.031 C 
ATOM     41  C   UNL A   1      37.445  34.367  33.186  1.00  0.00     0.029 A 
ATOM     42  N   UNL A   1      39.056  32.819  33.255  1.00  0.00    -0.354 N 
ATOM     43  C   UNL A   1      39.393  29.816  30.168  1.00  0.00     0.074 A 
ATOM     44  C   UNL A   1      38.369  29.987  29.161  1.00  0.00     0.031 C 
ATOM     45  C   UNL A   1      38.147  34.567  34.313  1.00  0.00     0.029 A 
ATOM     46  C   UNL A   1      39.198  33.559  34.403  1.00  0.00     0.049 A 
ATOM     47  H   UNL A   1      39.640  32.061  33.028  1.00  0.00     0.167 HD
ATOM     48  C   UNL A   1      40.335  28.845  30.141  1.00  0.00     0.037 A 
ATOM     49  C   UNL A   1      40.075  33.436  35.418  1.00  0.00     0.037 A 
ATOM     50  C   UNL A   1      41.369  28.692  31.130  1.00  0.00     0.049 A 
ATOM     51  C   UNL A   1      41.111  32.348  35.364  1.00  0.00     0.074 A 
ATOM     52  C   UNL A   1      42.409  27.779  31.158  1.00  0.00     0.029 A 
ATOM     53  N   UNL A   1      41.492  29.474  32.268  1.00  0.00    -0.354 N 
ATOM     54  N   UNL A   1      41.308  31.439  34.440  1.00  0.00    -0.248 NA
ATOM     55  C   UNL A   1      42.052  32.273  36.490  1.00  0.00     0.031 C 
ATOM     56  C   UNL A   1      43.136  27.982  32.335  1.00  0.00     0.029 A 
ATOM     57  C   UNL A   1      42.578  29.052  33.017  1.00  0.00     0.049 A 
ATOM     58  H   UNL A   1      40.897  30.221  32.509  1.00  0.00     0.167 HD
ATOM     59  C   UNL A   1      42.408  30.703  34.859  1.00  0.00     0.074 A 
ATOM     60  C   UNL A   1      42.844  31.281  36.113  1.00  0.00     0.031 C 
ATOM     61  C   UNL A   1      43.003  29.643  34.260  1.00  0.00     0.037 A 
BRANCH  48  62
ATOM     62  C   UNL A   1      40.292  27.872  28.998  1.00  0.00     0.057 A 
ATOM     63  C   UNL A   1      41.020  28.086  27.820  1.00  0.00     0.134 A 
ATOM     64  C   UNL A   1      39.538  26.695  29.086  1.00  0.00     0.134 A 
ATOM     65  F   UNL A   1      41.753  29.200  27.664  1.00  0.00    -0.206 F 
ATOM     66  C   UNL A   1      40.978  27.178  26.760  1.00  0.00     0.040 A 
ATOM     67  C   UNL A   1      39.511  25.766  28.045  1.00  0.00     0.040 A 
ATOM     68  F   UNL A   1      38.821  26.426  30.188  1.00  0.00    -0.206 F 
ATOM     69  C   UNL A   1      40.226  26.010  26.874  1.00  0.00     0.006 A 
ENDBRANCH  48  62
BRANCH  49  70
ATOM     70  C   UNL A   1      40.030  34.383  36.560  1.00  0.00     0.057 A 
ATOM     71  C   UNL A   1      39.314  34.077  37.722  1.00  0.00     0.134 A 
ATOM     72  C   UNL A   1      40.691  35.617  36.515  1.00  0.00     0.134 A 
ATOM     73  F   UNL A   1      38.644  32.919  37.817  1.00  0.00    -0.206 F 
ATOM     74  C   UNL A   1      39.239  34.971  38.792  1.00  0.00     0.040 A 
ATOM     75  C   UNL A   1      40.646  36.509  37.587  1.00  0.00     0.040 A 
ATOM     76  F   UNL A   1      41.401  35.966  35.433  1.00  0.00    -0.206 F 
ATOM     77  C   UNL A   1      39.910  36.189  38.728  1.00  0.00     0.006 A 
ENDBRANCH  49  70
BRANCH  61  78
ATOM     78  C   UNL A   1      44.211  29.061  34.935  1.00  0.00     0.057 A 
ATOM     79  C   UNL A   1      45.504  29.528  34.670  1.00  0.00     0.134 A 
ATOM     80  C   UNL A   1      44.071  28.048  35.893  1.00  0.00     0.134 A 
ATOM     81  F   UNL A   1      45.705  30.488  33.755  1.00  0.00    -0.206 F 
ATOM     82  C   UNL A   1      46.618  28.992  35.317  1.00  0.00     0.040 A 
ATOM     83  C   UNL A   1      45.175  27.522  36.564  1.00  0.00     0.040 A 
ATOM     84  F   UNL A   1      42.858  27.562  36.199  1.00  0.00    -0.206 F 
ATOM     85  C   UNL A   1      46.455  27.991  36.273  1.00  0.00     0.006 A 
ENDBRANCH  61  78
ENDBRANCH  35  36
ENDBRANCH  27  30
ENDBRANCH  25  26
ENDBRANCH  24  25
ENDBRANCH  23  24
ENDBRANCH   1  23
TORSDOF 15
ENDMDL
