MODEL 1
REMARK VINA RESULT:     -11.7      0.000      0.000
REMARK SMILES CC(C)c1ccc([C@]2(C(=O)NCCCCNC(=O)c3ccc(-c4c5nc(c(-c6c(F)cccc6F)c6ccc([nH]6)c(-c6c(F)cccc6F)c6nc(c(-c7c(F)cccc7F)c7ccc4[nH]7)C=C6)C=C5)cc3)CCC[C@@H]2C)cc1
REMARK SMILES IDX 13 1 12 2 11 3 9 4 10 5 8 7 73 8 76 9 74 10 75 11 77 12 7 13
REMARK SMILES IDX 4 14 5 15 79 16 6 17 78 18 2 19 1 20 3 21 14 22 15 23 16 24
REMARK SMILES IDX 17 25 18 27 19 28 20 29 72 30 21 31 71 32 22 33 23 34 24 35
REMARK SMILES IDX 65 36 25 37 70 38 64 39 66 40 26 41 69 42 63 43 62 44 27 46
REMARK SMILES IDX 53 47 36 48 52 49 37 50 40 51 51 52 67 53 38 54 39 55 50 57
REMARK SMILES IDX 68 58 41 59 28 60 29 61 34 62 30 63 31 64 33 65 35 66 32 67
REMARK SMILES IDX 54 68 55 69 60 70 56 71 57 72 59 73 61 74 58 75 42 76 43 77
REMARK SMILES IDX 48 78 44 79 45 80 47 81 49 82 46 83
REMARK H PARENT 11 6 16 26 66 45 40 56
REMARK Flexibility Score: inf
ROOT
ATOM      1  C   UNL A   1      38.585  22.558  26.017  1.00  0.00     0.023 C 
ENDROOT
BRANCH   1   2
ATOM      2  C   UNL A   1      37.319  23.264  25.555  1.00  0.00     0.116 C 
BRANCH   2   3
ATOM      3  N   UNL A   1      36.289  23.377  26.553  1.00  0.00    -0.355 N 
ATOM      4  C   UNL A   1      34.970  23.043  26.545  1.00  0.00     0.230 C 
ATOM      5  O   UNL A   1      34.551  22.750  27.676  1.00  0.00    -0.274 OA
ATOM      6  H   UNL A   1      36.597  23.769  27.401  1.00  0.00     0.163 HD
BRANCH   4   7
ATOM      7  C   UNL A   1      33.994  23.046  25.283  1.00  0.00     0.077 C 
ATOM      8  C   UNL A   1      32.644  23.752  25.570  1.00  0.00     0.022 C 
ATOM      9  C   UNL A   1      34.540  23.859  24.042  1.00  0.00     0.006 C 
ATOM     10  C   UNL A   1      32.672  25.143  24.930  1.00  0.00     0.002 C 
ATOM     11  C   UNL A   1      33.996  25.286  24.192  1.00  0.00     0.005 C 
ATOM     12  C   UNL A   1      34.077  23.431  22.632  1.00  0.00     0.009 C 
BRANCH   7  13
ATOM     13  C   UNL A   1      33.775  21.532  24.966  1.00  0.00    -0.032 A 
ATOM     14  C   UNL A   1      33.321  18.772  24.406  1.00  0.00    -0.045 A 
ATOM     15  C   UNL A   1      32.273  19.695  24.362  1.00  0.00     0.004 A 
ATOM     16  C   UNL A   1      34.612  19.256  24.652  1.00  0.00     0.004 A 
ATOM     17  C   UNL A   1      32.508  21.053  24.592  1.00  0.00     0.005 A 
ATOM     18  C   UNL A   1      34.837  20.613  24.921  1.00  0.00     0.005 A 
BRANCH  14  19
ATOM     19  C   UNL A   1      33.080  17.288  24.206  1.00  0.00     0.013 C 
ATOM     20  C   UNL A   1      34.157  16.681  23.302  1.00  0.00     0.012 C 
ATOM     21  C   UNL A   1      32.999  16.529  25.535  1.00  0.00     0.012 C 
ENDBRANCH  14  19
ENDBRANCH   7  13
ENDBRANCH   4   7
ENDBRANCH   2   3
ENDBRANCH   1   2
BRANCH   1  22
ATOM     22  C   UNL A   1      38.814  21.177  25.409  1.00  0.00     0.023 C 
BRANCH  22  23
ATOM     23  C   UNL A   1      39.273  20.092  26.379  1.00  0.00     0.116 C 
BRANCH  23  24
ATOM     24  N   UNL A   1      40.390  19.285  25.906  1.00  0.00    -0.352 N 
ATOM     25  C   UNL A   1      41.730  19.608  25.911  1.00  0.00     0.251 C 
ATOM     26  H   UNL A   1      40.159  18.401  25.538  1.00  0.00     0.163 HD
ATOM     27  O   UNL A   1      42.558  18.854  25.422  1.00  0.00    -0.269 OA
BRANCH  25  28
ATOM     28  C   UNL A   1      42.144  20.909  26.477  1.00  0.00     0.039 A 
ATOM     29  C   UNL A   1      42.463  21.953  25.607  1.00  0.00     0.014 A 
ATOM     30  C   UNL A   1      42.155  21.110  27.858  1.00  0.00     0.014 A 
ATOM     31  C   UNL A   1      42.726  23.222  26.125  1.00  0.00     0.010 A 
ATOM     32  C   UNL A   1      42.328  22.392  28.366  1.00  0.00     0.010 A 
ATOM     33  C   UNL A   1      42.628  23.458  27.507  1.00  0.00    -0.014 A 
BRANCH  33  34
ATOM     34  C   UNL A   1      42.867  24.810  28.073  1.00  0.00     0.031 A 
ATOM     35  C   UNL A   1      44.260  25.223  28.462  1.00  0.00     0.074 A 
ATOM     36  C   UNL A   1      41.829  25.642  28.286  1.00  0.00     0.049 A 
ATOM     37  N   UNL A   1      44.673  26.347  28.988  1.00  0.00    -0.248 NA
ATOM     38  C   UNL A   1      45.325  24.226  28.267  1.00  0.00     0.031 C 
ATOM     39  C   UNL A   1      40.423  25.334  28.014  1.00  0.00     0.029 A 
ATOM     40  N   UNL A   1      41.798  26.920  28.783  1.00  0.00    -0.354 N 
ATOM     41  C   UNL A   1      46.035  26.183  29.207  1.00  0.00     0.074 A 
ATOM     42  C   UNL A   1      46.367  24.831  28.816  1.00  0.00     0.031 C 
ATOM     43  C   UNL A   1      39.673  26.408  28.307  1.00  0.00     0.029 A 
ATOM     44  C   UNL A   1      40.539  27.469  28.812  1.00  0.00     0.049 A 
ATOM     45  H   UNL A   1      42.602  27.399  29.090  1.00  0.00     0.167 HD
ATOM     46  C   UNL A   1      46.935  27.085  29.664  1.00  0.00     0.037 A 
ATOM     47  C   UNL A   1      40.135  28.696  29.190  1.00  0.00     0.037 A 
ATOM     48  C   UNL A   1      46.609  28.442  30.009  1.00  0.00     0.049 A 
ATOM     49  C   UNL A   1      41.159  29.694  29.658  1.00  0.00     0.074 A 
ATOM     50  C   UNL A   1      47.459  29.461  30.404  1.00  0.00     0.029 A 
ATOM     51  N   UNL A   1      45.328  28.971  29.993  1.00  0.00    -0.354 N 
ATOM     52  N   UNL A   1      42.457  29.554  29.777  1.00  0.00    -0.248 NA
ATOM     53  C   UNL A   1      40.660  31.025  30.032  1.00  0.00     0.031 C 
ATOM     54  C   UNL A   1      46.685  30.597  30.665  1.00  0.00     0.029 A 
ATOM     55  C   UNL A   1      45.361  30.298  30.388  1.00  0.00     0.049 A 
ATOM     56  H   UNL A   1      44.515  28.477  29.740  1.00  0.00     0.167 HD
ATOM     57  C   UNL A   1      42.935  30.786  30.203  1.00  0.00     0.074 A 
ATOM     58  C   UNL A   1      41.788  31.664  30.312  1.00  0.00     0.031 C 
ATOM     59  C   UNL A   1      44.209  31.160  30.476  1.00  0.00     0.037 A 
BRANCH  46  60
ATOM     60  C   UNL A   1      48.358  26.627  29.804  1.00  0.00     0.057 A 
ATOM     61  C   UNL A   1      48.815  25.972  30.956  1.00  0.00     0.134 A 
ATOM     62  C   UNL A   1      49.281  26.838  28.773  1.00  0.00     0.134 A 
ATOM     63  F   UNL A   1      47.986  25.751  31.987  1.00  0.00    -0.206 F 
ATOM     64  C   UNL A   1      50.146  25.573  31.091  1.00  0.00     0.040 A 
ATOM     65  C   UNL A   1      50.608  26.418  28.883  1.00  0.00     0.040 A 
ATOM     66  F   UNL A   1      48.910  27.455  27.641  1.00  0.00    -0.206 F 
ATOM     67  C   UNL A   1      51.046  25.793  30.050  1.00  0.00     0.006 A 
ENDBRANCH  46  60
BRANCH  47  68
ATOM     68  C   UNL A   1      38.704  29.078  29.082  1.00  0.00     0.057 A 
ATOM     69  C   UNL A   1      38.172  29.532  27.868  1.00  0.00     0.134 A 
ATOM     70  C   UNL A   1      37.840  29.012  30.179  1.00  0.00     0.134 A 
ATOM     71  F   UNL A   1      38.957  29.632  26.785  1.00  0.00    -0.206 F 
ATOM     72  C   UNL A   1      36.839  29.926  27.755  1.00  0.00     0.040 A 
ATOM     73  C   UNL A   1      36.497  29.382  30.075  1.00  0.00     0.040 A 
ATOM     74  F   UNL A   1      38.285  28.577  31.368  1.00  0.00    -0.206 F 
ATOM     75  C   UNL A   1      35.996  29.849  28.862  1.00  0.00     0.006 A 
ENDBRANCH  47  68
BRANCH  59  76
ATOM     76  C   UNL A   1      44.433  32.589  30.873  1.00  0.00     0.057 A 
ATOM     77  C   UNL A   1      44.665  33.594  29.926  1.00  0.00     0.134 A 
ATOM     78  C   UNL A   1      44.388  32.966  32.222  1.00  0.00     0.134 A 
ATOM     79  F   UNL A   1      44.733  33.295  28.620  1.00  0.00    -0.206 F 
ATOM     80  C   UNL A   1      44.872  34.920  30.308  1.00  0.00     0.040 A 
ATOM     81  C   UNL A   1      44.566  34.293  32.613  1.00  0.00     0.040 A 
ATOM     82  F   UNL A   1      44.160  32.053  33.178  1.00  0.00    -0.206 F 
ATOM     83  C   UNL A   1      44.816  35.273  31.655  1.00  0.00     0.006 A 
ENDBRANCH  59  76
ENDBRANCH  33  34
ENDBRANCH  25  28
ENDBRANCH  23  24
ENDBRANCH  22  23
ENDBRANCH   1  22
TORSDOF 13
ENDMDL
MODEL 2
REMARK VINA RESULT:     -11.6      1.532      2.047
REMARK SMILES CC(C)c1ccc([C@]2(C(=O)NCCCCNC(=O)c3ccc(-c4c5nc(c(-c6c(F)cccc6F)c6ccc([nH]6)c(-c6c(F)cccc6F)c6nc(c(-c7c(F)cccc7F)c7ccc4[nH]7)C=C6)C=C5)cc3)CCC[C@@H]2C)cc1
REMARK SMILES IDX 13 1 12 2 11 3 9 4 10 5 8 7 73 8 76 9 74 10 75 11 77 12 7 13
REMARK SMILES IDX 4 14 5 15 79 16 6 17 78 18 2 19 1 20 3 21 14 22 15 23 16 24
REMARK SMILES IDX 17 25 18 27 19 28 20 29 72 30 21 31 71 32 22 33 23 34 24 35
REMARK SMILES IDX 65 36 25 37 70 38 64 39 66 40 26 41 69 42 63 43 62 44 27 46
REMARK SMILES IDX 53 47 36 48 52 49 37 50 40 51 51 52 67 53 38 54 39 55 50 57
REMARK SMILES IDX 68 58 41 59 28 60 29 61 34 62 30 63 31 64 33 65 35 66 32 67
REMARK SMILES IDX 54 68 55 69 60 70 56 71 57 72 59 73 61 74 58 75 42 76 43 77
REMARK SMILES IDX 48 78 44 79 45 80 47 81 49 82 46 83
REMARK H PARENT 11 6 16 26 66 45 40 56
REMARK Flexibility Score: inf
ROOT
ATOM      1  C   UNL A   1      36.661  20.879  25.000  1.00  0.00     0.023 C 
ENDROOT
BRANCH   1   2
ATOM      2  C   UNL A   1      36.775  22.338  24.584  1.00  0.00     0.116 C 
BRANCH   2   3
ATOM      3  N   UNL A   1      35.924  22.725  23.490  1.00  0.00    -0.355 N 
ATOM      4  C   UNL A   1      34.680  23.273  23.451  1.00  0.00     0.230 C 
ATOM      5  O   UNL A   1      34.502  23.968  22.439  1.00  0.00    -0.274 OA
ATOM      6  H   UNL A   1      36.316  22.562  22.603  1.00  0.00     0.163 HD
BRANCH   4   7
ATOM      7  C   UNL A   1      33.511  23.062  24.518  1.00  0.00     0.077 C 
ATOM      8  C   UNL A   1      33.917  23.504  25.947  1.00  0.00     0.022 C 
ATOM      9  C   UNL A   1      32.223  23.937  24.250  1.00  0.00     0.006 C 
ATOM     10  C   UNL A   1      33.272  24.860  26.243  1.00  0.00     0.002 C 
ATOM     11  C   UNL A   1      32.415  25.237  25.042  1.00  0.00     0.005 C 
ATOM     12  C   UNL A   1      30.862  23.399  24.744  1.00  0.00     0.009 C 
BRANCH   7  13
ATOM     13  C   UNL A   1      33.222  21.528  24.469  1.00  0.00    -0.032 A 
ATOM     14  C   UNL A   1      32.730  18.719  24.424  1.00  0.00    -0.045 A 
ATOM     15  C   UNL A   1      33.099  19.363  25.607  1.00  0.00     0.004 A 
ATOM     16  C   UNL A   1      32.528  19.505  23.283  1.00  0.00     0.004 A 
ATOM     17  C   UNL A   1      33.295  20.746  25.635  1.00  0.00     0.005 A 
ATOM     18  C   UNL A   1      32.764  20.886  23.306  1.00  0.00     0.005 A 
BRANCH  14  19
ATOM     19  C   UNL A   1      32.559  17.213  24.362  1.00  0.00     0.013 C 
ATOM     20  C   UNL A   1      33.655  16.578  23.501  1.00  0.00     0.012 C 
ATOM     21  C   UNL A   1      32.528  16.574  25.754  1.00  0.00     0.012 C 
ENDBRANCH  14  19
ENDBRANCH   7  13
ENDBRANCH   4   7
ENDBRANCH   2   3
ENDBRANCH   1   2
BRANCH   1  22
ATOM     22  C   UNL A   1      37.911  20.038  24.753  1.00  0.00     0.023 C 
BRANCH  22  23
ATOM     23  C   UNL A   1      39.030  20.193  25.779  1.00  0.00     0.116 C 
BRANCH  23  24
ATOM     24  N   UNL A   1      40.033  19.138  25.752  1.00  0.00    -0.352 N 
ATOM     25  C   UNL A   1      41.383  19.246  26.006  1.00  0.00     0.251 C 
ATOM     26  H   UNL A   1      39.706  18.238  25.524  1.00  0.00     0.163 HD
ATOM     27  O   UNL A   1      42.123  18.281  25.885  1.00  0.00    -0.269 OA
BRANCH  25  28
ATOM     28  C   UNL A   1      41.930  20.566  26.383  1.00  0.00     0.039 A 
ATOM     29  C   UNL A   1      42.232  21.485  25.376  1.00  0.00     0.014 A 
ATOM     30  C   UNL A   1      42.083  20.913  27.727  1.00  0.00     0.014 A 
ATOM     31  C   UNL A   1      42.624  22.779  25.722  1.00  0.00     0.010 A 
ATOM     32  C   UNL A   1      42.385  22.226  28.069  1.00  0.00     0.010 A 
ATOM     33  C   UNL A   1      42.670  23.169  27.072  1.00  0.00    -0.014 A 
BRANCH  33  34
ATOM     34  C   UNL A   1      43.047  24.552  27.457  1.00  0.00     0.031 A 
ATOM     35  C   UNL A   1      44.486  24.984  27.386  1.00  0.00     0.074 A 
ATOM     36  C   UNL A   1      42.108  25.399  27.922  1.00  0.00     0.049 A 
ATOM     37  N   UNL A   1      45.020  26.137  27.695  1.00  0.00    -0.248 NA
ATOM     38  C   UNL A   1      45.459  23.973  26.941  1.00  0.00     0.031 C 
ATOM     39  C   UNL A   1      40.690  25.079  28.103  1.00  0.00     0.029 A 
ATOM     40  N   UNL A   1      42.207  26.706  28.328  1.00  0.00    -0.354 N 
ATOM     41  C   UNL A   1      46.387  25.982  27.506  1.00  0.00     0.074 A 
ATOM     42  C   UNL A   1      46.608  24.607  27.115  1.00  0.00     0.031 C 
ATOM     43  C   UNL A   1      40.046  26.173  28.542  1.00  0.00     0.029 A 
ATOM     44  C   UNL A   1      41.007  27.260  28.699  1.00  0.00     0.049 A 
ATOM     45  H   UNL A   1      43.058  27.200  28.350  1.00  0.00     0.167 HD
ATOM     46  C   UNL A   1      47.369  26.908  27.617  1.00  0.00     0.037 A 
ATOM     47  C   UNL A   1      40.715  28.510  29.106  1.00  0.00     0.037 A 
ATOM     48  C   UNL A   1      47.141  28.285  27.961  1.00  0.00     0.049 A 
ATOM     49  C   UNL A   1      41.817  29.530  29.185  1.00  0.00     0.074 A 
ATOM     50  C   UNL A   1      48.054  29.323  28.022  1.00  0.00     0.029 A 
ATOM     51  N   UNL A   1      45.906  28.816  28.299  1.00  0.00    -0.354 N 
ATOM     52  N   UNL A   1      43.093  29.394  28.917  1.00  0.00    -0.248 NA
ATOM     53  C   UNL A   1      41.433  30.884  29.611  1.00  0.00     0.031 C 
ATOM     54  C   UNL A   1      47.376  30.475  28.433  1.00  0.00     0.029 A 
ATOM     55  C   UNL A   1      46.034  30.165  28.585  1.00  0.00     0.049 A 
ATOM     56  H   UNL A   1      45.062  28.310  28.331  1.00  0.00     0.167 HD
ATOM     57  C   UNL A   1      43.657  30.648  29.106  1.00  0.00     0.074 A 
ATOM     58  C   UNL A   1      42.582  31.535  29.501  1.00  0.00     0.031 C 
ATOM     59  C   UNL A   1      44.949  31.034  28.962  1.00  0.00     0.037 A 
BRANCH  46  60
ATOM     60  C   UNL A   1      48.776  26.454  27.351  1.00  0.00     0.057 A 
ATOM     61  C   UNL A   1      49.326  26.463  26.062  1.00  0.00     0.134 A 
ATOM     62  C   UNL A   1      49.592  26.008  28.398  1.00  0.00     0.134 A 
ATOM     63  F   UNL A   1      48.592  26.864  25.013  1.00  0.00    -0.206 F 
ATOM     64  C   UNL A   1      50.625  26.015  25.818  1.00  0.00     0.040 A 
ATOM     65  C   UNL A   1      50.903  25.585  28.172  1.00  0.00     0.040 A 
ATOM     66  F   UNL A   1      49.130  25.978  29.657  1.00  0.00    -0.206 F 
ATOM     67  C   UNL A   1      51.419  25.578  26.877  1.00  0.00     0.006 A 
ENDBRANCH  46  60
BRANCH  47  68
ATOM     68  C   UNL A   1      39.312  28.888  29.409  1.00  0.00     0.057 A 
ATOM     69  C   UNL A   1      38.488  29.439  28.420  1.00  0.00     0.134 A 
ATOM     70  C   UNL A   1      38.764  28.723  30.686  1.00  0.00     0.134 A 
ATOM     71  F   UNL A   1      38.963  29.637  27.181  1.00  0.00    -0.206 F 
ATOM     72  C   UNL A   1      37.177  29.833  28.694  1.00  0.00     0.040 A 
ATOM     73  C   UNL A   1      37.446  29.092  30.968  1.00  0.00     0.040 A 
ATOM     74  F   UNL A   1      39.498  28.193  31.675  1.00  0.00    -0.206 F 
ATOM     75  C   UNL A   1      36.652  29.656  29.972  1.00  0.00     0.006 A 
ENDBRANCH  47  68
BRANCH  59  76
ATOM     76  C   UNL A   1      45.259  32.484  29.187  1.00  0.00     0.057 A 
ATOM     77  C   UNL A   1      45.160  33.432  28.161  1.00  0.00     0.134 A 
ATOM     78  C   UNL A   1      45.636  32.940  30.457  1.00  0.00     0.134 A 
ATOM     79  F   UNL A   1      44.817  33.056  26.919  1.00  0.00    -0.206 F 
ATOM     80  C   UNL A   1      45.452  34.778  28.383  1.00  0.00     0.040 A 
ATOM     81  C   UNL A   1      45.903  34.289  30.697  1.00  0.00     0.040 A 
ATOM     82  F   UNL A   1      45.740  32.085  31.486  1.00  0.00    -0.206 F 
ATOM     83  C   UNL A   1      45.819  35.210  29.656  1.00  0.00     0.006 A 
ENDBRANCH  59  76
ENDBRANCH  33  34
ENDBRANCH  25  28
ENDBRANCH  23  24
ENDBRANCH  22  23
ENDBRANCH   1  22
TORSDOF 13
ENDMDL
MODEL 3
REMARK VINA RESULT:     -11.5      4.935      9.849
REMARK SMILES CC(C)c1ccc([C@]2(C(=O)NCCCCNC(=O)c3ccc(-c4c5nc(c(-c6c(F)cccc6F)c6ccc([nH]6)c(-c6c(F)cccc6F)c6nc(c(-c7c(F)cccc7F)c7ccc4[nH]7)C=C6)C=C5)cc3)CCC[C@@H]2C)cc1
REMARK SMILES IDX 13 1 12 2 11 3 9 4 10 5 8 7 73 8 76 9 74 10 75 11 77 12 7 13
REMARK SMILES IDX 4 14 5 15 79 16 6 17 78 18 2 19 1 20 3 21 14 22 15 23 16 24
REMARK SMILES IDX 17 25 18 27 19 28 20 29 72 30 21 31 71 32 22 33 23 34 24 35
REMARK SMILES IDX 65 36 25 37 70 38 64 39 66 40 26 41 69 42 63 43 62 44 27 46
REMARK SMILES IDX 53 47 36 48 52 49 37 50 40 51 51 52 67 53 38 54 39 55 50 57
REMARK SMILES IDX 68 58 41 59 28 60 29 61 34 62 30 63 31 64 33 65 35 66 32 67
REMARK SMILES IDX 54 68 55 69 60 70 56 71 57 72 59 73 61 74 58 75 42 76 43 77
REMARK SMILES IDX 48 78 44 79 45 80 47 81 49 82 46 83
REMARK H PARENT 11 6 16 26 66 45 40 56
REMARK Flexibility Score: inf
ROOT
ATOM      1  C   UNL A   1      31.779  30.219  26.172  1.00  0.00     0.023 C 
ENDROOT
BRANCH   1   2
ATOM      2  C   UNL A   1      32.291  29.066  27.022  1.00  0.00     0.116 C 
BRANCH   2   3
ATOM      3  N   UNL A   1      31.437  27.908  27.051  1.00  0.00    -0.355 N 
ATOM      4  C   UNL A   1      31.374  26.801  26.263  1.00  0.00     0.230 C 
ATOM      5  O   UNL A   1      30.951  25.808  26.876  1.00  0.00    -0.274 OA
ATOM      6  H   UNL A   1      30.773  27.919  27.777  1.00  0.00     0.163 HD
BRANCH   4   7
ATOM      7  C   UNL A   1      31.741  26.712  24.712  1.00  0.00     0.077 C 
ATOM      8  C   UNL A   1      33.192  27.166  24.412  1.00  0.00     0.022 C 
ATOM      9  C   UNL A   1      31.721  25.245  24.124  1.00  0.00     0.006 C 
ATOM     10  C   UNL A   1      34.057  25.924  24.182  1.00  0.00     0.002 C 
ATOM     11  C   UNL A   1      33.150  24.705  24.269  1.00  0.00     0.005 C 
ATOM     12  C   UNL A   1      31.408  25.068  22.621  1.00  0.00     0.009 C 
BRANCH   7  13
ATOM     13  C   UNL A   1      30.706  27.655  24.020  1.00  0.00    -0.032 A 
ATOM     14  C   UNL A   1      28.854  29.424  22.764  1.00  0.00    -0.045 A 
ATOM     15  C   UNL A   1      30.228  29.666  22.707  1.00  0.00     0.004 A 
ATOM     16  C   UNL A   1      28.420  28.245  23.384  1.00  0.00     0.004 A 
ATOM     17  C   UNL A   1      31.134  28.774  23.284  1.00  0.00     0.005 A 
ATOM     18  C   UNL A   1      29.330  27.373  23.996  1.00  0.00     0.005 A 
BRANCH  14  19
ATOM     19  C   UNL A   1      27.851  30.403  22.185  1.00  0.00     0.013 C 
ATOM     20  C   UNL A   1      27.653  31.596  23.126  1.00  0.00     0.012 C 
ATOM     21  C   UNL A   1      28.247  30.880  20.784  1.00  0.00     0.012 C 
ENDBRANCH  14  19
ENDBRANCH   7  13
ENDBRANCH   4   7
ENDBRANCH   2   3
ENDBRANCH   1   2
BRANCH   1  22
ATOM     22  C   UNL A   1      31.547  31.525  26.926  1.00  0.00     0.023 C 
BRANCH  22  23
ATOM     23  C   UNL A   1      32.756  32.449  27.042  1.00  0.00     0.116 C 
BRANCH  23  24
ATOM     24  N   UNL A   1      32.447  33.805  27.475  1.00  0.00    -0.352 N 
ATOM     25  C   UNL A   1      33.086  34.551  28.441  1.00  0.00     0.251 C 
ATOM     26  H   UNL A   1      31.690  34.241  27.021  1.00  0.00     0.163 HD
ATOM     27  O   UNL A   1      32.678  35.662  28.747  1.00  0.00    -0.269 OA
BRANCH  25  28
ATOM     28  C   UNL A   1      34.250  33.963  29.137  1.00  0.00     0.039 A 
ATOM     29  C   UNL A   1      34.030  33.012  30.135  1.00  0.00     0.014 A 
ATOM     30  C   UNL A   1      35.550  34.306  28.760  1.00  0.00     0.014 A 
ATOM     31  C   UNL A   1      35.119  32.353  30.708  1.00  0.00     0.010 A 
ATOM     32  C   UNL A   1      36.626  33.586  29.265  1.00  0.00     0.010 A 
ATOM     33  C   UNL A   1      36.424  32.612  30.252  1.00  0.00    -0.014 A 
BRANCH  33  34
ATOM     34  C   UNL A   1      37.591  31.893  30.822  1.00  0.00     0.031 A 
ATOM     35  C   UNL A   1      38.067  32.219  32.211  1.00  0.00     0.074 A 
ATOM     36  C   UNL A   1      38.253  30.989  30.074  1.00  0.00     0.049 A 
ATOM     37  N   UNL A   1      39.074  31.721  32.879  1.00  0.00    -0.248 NA
ATOM     38  C   UNL A   1      37.334  33.273  32.931  1.00  0.00     0.031 C 
ATOM     39  C   UNL A   1      37.933  30.632  28.690  1.00  0.00     0.029 A 
ATOM     40  N   UNL A   1      39.338  30.204  30.375  1.00  0.00    -0.354 N 
ATOM     41  C   UNL A   1      39.110  32.414  34.082  1.00  0.00     0.074 A 
ATOM     42  C   UNL A   1      38.063  33.411  34.028  1.00  0.00     0.031 C 
ATOM     43  C   UNL A   1      38.774  29.670  28.279  1.00  0.00     0.029 A 
ATOM     44  C   UNL A   1      39.708  29.361  29.357  1.00  0.00     0.049 A 
ATOM     45  H   UNL A   1      39.806  30.242  31.241  1.00  0.00     0.167 HD
ATOM     46  C   UNL A   1      39.919  32.220  35.149  1.00  0.00     0.037 A 
ATOM     47  C   UNL A   1      40.682  28.434  29.306  1.00  0.00     0.037 A 
ATOM     48  C   UNL A   1      40.928  31.199  35.218  1.00  0.00     0.049 A 
ATOM     49  C   UNL A   1      41.545  28.211  30.518  1.00  0.00     0.074 A 
ATOM     50  C   UNL A   1      41.748  30.864  36.282  1.00  0.00     0.029 A 
ATOM     51  N   UNL A   1      41.252  30.342  34.177  1.00  0.00    -0.354 N 
ATOM     52  N   UNL A   1      41.510  28.813  31.682  1.00  0.00    -0.248 NA
ATOM     53  C   UNL A   1      42.574  27.167  30.412  1.00  0.00     0.031 C 
ATOM     54  C   UNL A   1      42.594  29.828  35.871  1.00  0.00     0.029 A 
ATOM     55  C   UNL A   1      42.270  29.489  34.567  1.00  0.00     0.049 A 
ATOM     56  H   UNL A   1      40.822  30.340  33.292  1.00  0.00     0.167 HD
ATOM     57  C   UNL A   1      42.484  28.199  32.458  1.00  0.00     0.074 A 
ATOM     58  C   UNL A   1      43.086  27.171  31.635  1.00  0.00     0.031 C 
ATOM     59  C   UNL A   1      42.846  28.461  33.738  1.00  0.00     0.037 A 
BRANCH  46  60
ATOM     60  C   UNL A   1      39.732  33.130  36.330  1.00  0.00     0.057 A 
ATOM     61  C   UNL A   1      38.816  32.840  37.350  1.00  0.00     0.134 A 
ATOM     62  C   UNL A   1      40.481  34.307  36.450  1.00  0.00     0.134 A 
ATOM     63  F   UNL A   1      38.056  31.736  37.289  1.00  0.00    -0.206 F 
ATOM     64  C   UNL A   1      38.628  33.703  38.431  1.00  0.00     0.040 A 
ATOM     65  C   UNL A   1      40.323  35.164  37.540  1.00  0.00     0.040 A 
ATOM     66  F   UNL A   1      41.378  34.643  35.511  1.00  0.00    -0.206 F 
ATOM     67  C   UNL A   1      39.387  34.868  38.530  1.00  0.00     0.006 A 
ENDBRANCH  46  60
BRANCH  47  68
ATOM     68  C   UNL A   1      40.858  27.600  28.091  1.00  0.00     0.057 A 
ATOM     69  C   UNL A   1      41.694  28.017  27.048  1.00  0.00     0.134 A 
ATOM     70  C   UNL A   1      40.191  26.380  27.933  1.00  0.00     0.134 A 
ATOM     71  F   UNL A   1      42.346  29.186  27.135  1.00  0.00    -0.206 F 
ATOM     72  C   UNL A   1      41.845  27.263  25.884  1.00  0.00     0.040 A 
ATOM     73  C   UNL A   1      40.351  25.604  26.783  1.00  0.00     0.040 A 
ATOM     74  F   UNL A   1      39.382  25.919  28.899  1.00  0.00    -0.206 F 
ATOM     75  C   UNL A   1      41.174  26.050  25.751  1.00  0.00     0.006 A 
ENDBRANCH  47  68
BRANCH  59  76
ATOM     76  C   UNL A   1      43.909  27.590  34.339  1.00  0.00     0.057 A 
ATOM     77  C   UNL A   1      45.260  27.958  34.332  1.00  0.00     0.134 A 
ATOM     78  C   UNL A   1      43.569  26.380  34.959  1.00  0.00     0.134 A 
ATOM     79  F   UNL A   1      45.653  29.097  33.743  1.00  0.00    -0.206 F 
ATOM     80  C   UNL A   1      46.240  27.139  34.895  1.00  0.00     0.040 A 
ATOM     81  C   UNL A   1      44.537  25.567  35.550  1.00  0.00     0.040 A 
ATOM     82  F   UNL A   1      42.291  25.976  35.009  1.00  0.00    -0.206 F 
ATOM     83  C   UNL A   1      45.877  25.942  35.512  1.00  0.00     0.006 A 
ENDBRANCH  59  76
ENDBRANCH  33  34
ENDBRANCH  25  28
ENDBRANCH  23  24
ENDBRANCH  22  23
ENDBRANCH   1  22
TORSDOF 13
ENDMDL
