MODEL 1
REMARK VINA RESULT:     -12.1      0.000      0.000
REMARK SMILES O=C(NCCCCNC(=O)[C@H]1C[C@@H](O)CN1C(=O)CCc1ccc(Cl)cc1Cl)c1ccc(-c2c3nc(c(-c4c(F)cccc4F)c4ccc([nH]4)c(-c4c(F)cccc4F)c4nc(c(-c5c(F)cccc5F)c5ccc2[nH]5)C=C4)C=C3)cc1
REMARK SMILES IDX 6 1 5 2 4 3 3 4 1 5 2 6 29 8 30 9 82 10 31 11 81 12 32 13
REMARK SMILES IDX 33 14 34 15 75 16 35 17 80 18 74 19 76 20 36 21 79 22 73 23
REMARK SMILES IDX 72 24 37 26 63 27 46 28 62 29 47 30 50 31 61 32 77 33 48 34
REMARK SMILES IDX 49 35 60 37 78 38 51 39 38 40 39 41 44 42 40 43 41 44 43 45
REMARK SMILES IDX 45 46 42 47 64 48 65 49 70 50 66 51 67 52 69 53 71 54 68 55
REMARK SMILES IDX 52 56 53 57 58 58 54 59 55 60 57 61 59 62 56 63 7 64 8 65
REMARK SMILES IDX 9 66 10 68 11 69 12 70 16 71 13 72 15 73 17 74 18 75 19 76
REMARK SMILES IDX 20 77 21 78 22 79 27 80 23 81 26 82 28 83 24 84 25 85 14 86
REMARK H PARENT 3 7 76 25 50 36 8 67 14 87
REMARK Flexibility Score: inf
ROOT
ATOM      1  C   UNL A   1      37.042  21.182  24.410  1.00  0.00     0.023 C 
ENDROOT
BRANCH   1   2
ATOM      2  C   UNL A   1      37.781  19.983  25.001  1.00  0.00     0.023 C 
BRANCH   2   3
ATOM      3  C   UNL A   1      39.068  20.311  25.753  1.00  0.00     0.116 C 
BRANCH   3   4
ATOM      4  N   UNL A   1      40.014  19.202  25.793  1.00  0.00    -0.352 N 
ATOM      5  O   UNL A   1      42.030  18.188  25.890  1.00  0.00    -0.269 OA
ATOM      6  C   UNL A   1      41.374  19.208  26.020  1.00  0.00     0.251 C 
ATOM      7  H   UNL A   1      39.622  18.313  25.634  1.00  0.00     0.163 HD
BRANCH   6   8
ATOM      8  C   UNL A   1      42.034  20.478  26.385  1.00  0.00     0.039 A 
ATOM      9  C   UNL A   1      42.211  20.816  27.726  1.00  0.00     0.014 A 
ATOM     10  C   UNL A   1      42.423  21.361  25.374  1.00  0.00     0.014 A 
ATOM     11  C   UNL A   1      42.580  22.112  28.059  1.00  0.00     0.010 A 
ATOM     12  C   UNL A   1      42.897  22.630  25.716  1.00  0.00     0.010 A 
ATOM     13  C   UNL A   1      42.925  23.036  27.059  1.00  0.00    -0.014 A 
BRANCH  13  14
ATOM     14  C   UNL A   1      43.326  24.410  27.452  1.00  0.00     0.031 A 
ATOM     15  C   UNL A   1      44.757  24.865  27.351  1.00  0.00     0.074 A 
ATOM     16  C   UNL A   1      42.371  25.269  27.859  1.00  0.00     0.049 A 
ATOM     17  N   UNL A   1      45.269  26.039  27.627  1.00  0.00    -0.248 NA
ATOM     18  C   UNL A   1      45.743  23.877  26.889  1.00  0.00     0.031 C 
ATOM     19  C   UNL A   1      40.950  24.944  27.996  1.00  0.00     0.029 A 
ATOM     20  N   UNL A   1      42.444  26.593  28.203  1.00  0.00    -0.354 N 
ATOM     21  C   UNL A   1      46.636  25.921  27.405  1.00  0.00     0.074 A 
ATOM     22  C   UNL A   1      46.877  24.555  26.990  1.00  0.00     0.031 C 
ATOM     23  C   UNL A   1      40.276  26.051  28.333  1.00  0.00     0.029 A 
ATOM     24  C   UNL A   1      41.224  27.146  28.504  1.00  0.00     0.049 A 
ATOM     25  H   UNL A   1      43.288  27.099  28.231  1.00  0.00     0.167 HD
ATOM     26  C   UNL A   1      47.600  26.866  27.533  1.00  0.00     0.037 A 
ATOM     27  C   UNL A   1      40.901  28.394  28.888  1.00  0.00     0.037 A 
ATOM     28  C   UNL A   1      47.349  28.232  27.919  1.00  0.00     0.049 A 
ATOM     29  C   UNL A   1      41.987  29.416  29.033  1.00  0.00     0.074 A 
ATOM     30  C   UNL A   1      48.252  29.275  28.037  1.00  0.00     0.029 A 
ATOM     31  N   UNL A   1      46.103  28.743  28.254  1.00  0.00    -0.354 N 
ATOM     32  N   UNL A   1      43.272  29.295  28.800  1.00  0.00    -0.248 NA
ATOM     33  C   UNL A   1      41.581  30.746  29.502  1.00  0.00     0.031 C 
ATOM     34  C   UNL A   1      47.559  30.406  28.485  1.00  0.00     0.029 A 
ATOM     35  C   UNL A   1      46.217  30.081  28.598  1.00  0.00     0.049 A 
ATOM     36  H   UNL A   1      45.263  28.232  28.247  1.00  0.00     0.167 HD
ATOM     37  C   UNL A   1      43.825  30.538  29.072  1.00  0.00     0.074 A 
ATOM     38  C   UNL A   1      42.732  31.402  29.473  1.00  0.00     0.031 C 
ATOM     39  C   UNL A   1      45.120  30.929  28.993  1.00  0.00     0.037 A 
BRANCH  26  40
ATOM     40  C   UNL A   1      49.020  26.448  27.281  1.00  0.00     0.057 A 
ATOM     41  C   UNL A   1      49.603  26.510  26.008  1.00  0.00     0.134 A 
ATOM     42  C   UNL A   1      49.828  26.004  28.337  1.00  0.00     0.134 A 
ATOM     43  F   UNL A   1      48.885  26.915  24.951  1.00  0.00    -0.206 F 
ATOM     44  C   UNL A   1      50.927  26.118  25.790  1.00  0.00     0.040 A 
ATOM     45  C   UNL A   1      51.159  25.634  28.137  1.00  0.00     0.040 A 
ATOM     46  F   UNL A   1      49.338  25.928  29.584  1.00  0.00    -0.206 F 
ATOM     47  C   UNL A   1      51.710  25.684  26.858  1.00  0.00     0.006 A 
ENDBRANCH  26  40
BRANCH  27  48
ATOM     48  C   UNL A   1      39.482  28.736  29.147  1.00  0.00     0.057 A 
ATOM     49  C   UNL A   1      38.931  28.602  30.426  1.00  0.00     0.134 A 
ATOM     50  C   UNL A   1      38.653  29.234  28.135  1.00  0.00     0.134 A 
ATOM     51  F   UNL A   1      39.674  28.116  31.433  1.00  0.00    -0.206 F 
ATOM     52  C   UNL A   1      37.605  28.943  30.689  1.00  0.00     0.040 A 
ATOM     53  C   UNL A   1      37.332  29.604  28.389  1.00  0.00     0.040 A 
ATOM     54  F   UNL A   1      39.127  29.396  26.890  1.00  0.00    -0.206 F 
ATOM     55  C   UNL A   1      36.803  29.454  29.669  1.00  0.00     0.006 A 
ENDBRANCH  27  48
BRANCH  39  56
ATOM     56  C   UNL A   1      45.415  32.364  29.312  1.00  0.00     0.057 A 
ATOM     57  C   UNL A   1      45.770  32.780  30.601  1.00  0.00     0.134 A 
ATOM     58  C   UNL A   1      45.356  33.341  28.309  1.00  0.00     0.134 A 
ATOM     59  F   UNL A   1      45.830  31.895  31.608  1.00  0.00    -0.206 F 
ATOM     60  C   UNL A   1      46.030  34.121  30.888  1.00  0.00     0.040 A 
ATOM     61  C   UNL A   1      45.637  34.680  28.578  1.00  0.00     0.040 A 
ATOM     62  F   UNL A   1      45.026  33.007  27.052  1.00  0.00    -0.206 F 
ATOM     63  C   UNL A   1      45.968  35.075  29.873  1.00  0.00     0.006 A 
ENDBRANCH  39  56
ENDBRANCH  13  14
ENDBRANCH   6   8
ENDBRANCH   3   4
ENDBRANCH   2   3
ENDBRANCH   1   2
BRANCH   1  64
ATOM     64  C   UNL A   1      36.657  22.259  25.412  1.00  0.00     0.116 C 
BRANCH  64  65
ATOM     65  N   UNL A   1      35.849  21.779  26.516  1.00  0.00    -0.354 N 
ATOM     66  C   UNL A   1      34.475  21.772  26.575  1.00  0.00     0.242 C 
ATOM     67  H   UNL A   1      36.329  21.424  27.298  1.00  0.00     0.163 HD
ATOM     68  O   UNL A   1      33.918  21.146  27.481  1.00  0.00    -0.273 OA
BRANCH  66  69
ATOM     69  C   UNL A   1      33.690  22.430  25.417  1.00  0.00     0.177 C 
ATOM     70  C   UNL A   1      33.445  21.387  24.321  1.00  0.00     0.069 C 
ATOM     71  N   UNL A   1      32.336  22.844  25.798  1.00  0.00    -0.328 N 
ATOM     72  C   UNL A   1      32.161  20.704  24.777  1.00  0.00     0.136 C 
ATOM     73  C   UNL A   1      31.364  21.864  25.349  1.00  0.00     0.152 C 
BRANCH  71  74
ATOM     74  C   UNL A   1      32.068  24.089  26.322  1.00  0.00     0.223 C 
ATOM     75  O   UNL A   1      31.271  24.234  27.251  1.00  0.00    -0.275 OA
BRANCH  74  76
ATOM     76  C   UNL A   1      32.776  25.302  25.724  1.00  0.00     0.105 C 
BRANCH  76  77
ATOM     77  C   UNL A   1      32.168  26.673  26.074  1.00  0.00     0.047 C 
BRANCH  77  78
ATOM     78  C   UNL A   1      31.352  27.348  24.985  1.00  0.00    -0.029 A 
ATOM     79  C   UNL A   1      30.335  26.606  24.353  1.00  0.00     0.007 A 
ATOM     80  C   UNL A   1      31.502  28.705  24.630  1.00  0.00     0.045 A 
ATOM     81  C   UNL A   1      29.418  27.229  23.501  1.00  0.00     0.021 A 
ATOM     82  C   UNL A   1      30.562  29.335  23.806  1.00  0.00     0.041 A 
ATOM     83  Cl  UNL A   1      32.789  29.679  25.242  1.00  0.00    -0.084 Cl
ATOM     84  C   UNL A   1      29.511  28.599  23.268  1.00  0.00     0.042 A 
ATOM     85  Cl  UNL A   1      28.292  29.392  22.349  1.00  0.00    -0.084 Cl
ENDBRANCH  77  78
ENDBRANCH  76  77
ENDBRANCH  74  76
ENDBRANCH  71  74
BRANCH  72  86
ATOM     86  O   UNL A   1      32.424  19.704  25.752  1.00  0.00    -0.391 OA
ATOM     87  H   UNL A   1      33.262  19.261  25.542  1.00  0.00     0.211 HD
ENDBRANCH  72  86
ENDBRANCH  66  69
ENDBRANCH  64  65
ENDBRANCH   1  64
TORSDOF 16
ENDMDL
MODEL 2
REMARK VINA RESULT:     -11.9      1.342      6.392
REMARK SMILES O=C(NCCCCNC(=O)[C@H]1C[C@@H](O)CN1C(=O)CCc1ccc(Cl)cc1Cl)c1ccc(-c2c3nc(c(-c4c(F)cccc4F)c4ccc([nH]4)c(-c4c(F)cccc4F)c4nc(c(-c5c(F)cccc5F)c5ccc2[nH]5)C=C4)C=C3)cc1
REMARK SMILES IDX 6 1 5 2 4 3 3 4 1 5 2 6 29 8 30 9 82 10 31 11 81 12 32 13
REMARK SMILES IDX 33 14 34 15 75 16 35 17 80 18 74 19 76 20 36 21 79 22 73 23
REMARK SMILES IDX 72 24 37 26 63 27 46 28 62 29 47 30 50 31 61 32 77 33 48 34
REMARK SMILES IDX 49 35 60 37 78 38 51 39 38 40 39 41 44 42 40 43 41 44 43 45
REMARK SMILES IDX 45 46 42 47 64 48 65 49 70 50 66 51 67 52 69 53 71 54 68 55
REMARK SMILES IDX 52 56 53 57 58 58 54 59 55 60 57 61 59 62 56 63 7 64 8 65
REMARK SMILES IDX 9 66 10 68 11 69 12 70 16 71 13 72 15 73 17 74 18 75 19 76
REMARK SMILES IDX 20 77 21 78 22 79 27 80 23 81 26 82 28 83 24 84 25 85 14 86
REMARK H PARENT 3 7 76 25 50 36 8 67 14 87
REMARK Flexibility Score: inf
ROOT
ATOM      1  C   UNL A   1      37.010  21.526  24.390  1.00  0.00     0.023 C 
ENDROOT
BRANCH   1   2
ATOM      2  C   UNL A   1      37.743  20.316  24.965  1.00  0.00     0.023 C 
BRANCH   2   3
ATOM      3  C   UNL A   1      38.972  20.633  25.811  1.00  0.00     0.116 C 
BRANCH   3   4
ATOM      4  N   UNL A   1      39.960  19.561  25.823  1.00  0.00    -0.352 N 
ATOM      5  O   UNL A   1      42.008  18.618  25.959  1.00  0.00    -0.269 OA
ATOM      6  C   UNL A   1      41.304  19.600  26.127  1.00  0.00     0.251 C 
ATOM      7  H   UNL A   1      39.614  18.673  25.576  1.00  0.00     0.163 HD
BRANCH   6   8
ATOM      8  C   UNL A   1      41.890  20.862  26.622  1.00  0.00     0.039 A 
ATOM      9  C   UNL A   1      41.888  21.147  27.987  1.00  0.00     0.014 A 
ATOM     10  C   UNL A   1      42.390  21.790  25.705  1.00  0.00     0.014 A 
ATOM     11  C   UNL A   1      42.189  22.433  28.415  1.00  0.00     0.010 A 
ATOM     12  C   UNL A   1      42.795  23.050  26.153  1.00  0.00     0.010 A 
ATOM     13  C   UNL A   1      42.644  23.401  27.504  1.00  0.00    -0.014 A 
BRANCH  13  14
ATOM     14  C   UNL A   1      42.967  24.763  27.997  1.00  0.00     0.031 A 
ATOM     15  C   UNL A   1      41.884  25.772  28.270  1.00  0.00     0.074 A 
ATOM     16  C   UNL A   1      44.254  25.071  28.246  1.00  0.00     0.049 A 
ATOM     17  N   UNL A   1      41.993  26.994  28.728  1.00  0.00    -0.248 NA
ATOM     18  C   UNL A   1      40.500  25.363  27.983  1.00  0.00     0.031 C 
ATOM     19  C   UNL A   1      45.392  24.176  28.023  1.00  0.00     0.029 A 
ATOM     20  N   UNL A   1      44.820  26.205  28.767  1.00  0.00    -0.354 N 
ATOM     21  C   UNL A   1      40.702  27.509  28.754  1.00  0.00     0.074 A 
ATOM     22  C   UNL A   1      39.827  26.473  28.247  1.00  0.00     0.031 C 
ATOM     23  C   UNL A   1      46.510  24.768  28.462  1.00  0.00     0.029 A 
ATOM     24  C   UNL A   1      46.180  26.109  28.931  1.00  0.00     0.049 A 
ATOM     25  H   UNL A   1      44.304  27.009  29.001  1.00  0.00     0.167 HD
ATOM     26  C   UNL A   1      40.286  28.732  29.166  1.00  0.00     0.037 A 
ATOM     27  C   UNL A   1      47.069  27.005  29.398  1.00  0.00     0.037 A 
ATOM     28  C   UNL A   1      41.159  29.749  29.697  1.00  0.00     0.049 A 
ATOM     29  C   UNL A   1      46.584  28.353  29.835  1.00  0.00     0.074 A 
ATOM     30  C   UNL A   1      40.830  31.003  30.180  1.00  0.00     0.029 A 
ATOM     31  N   UNL A   1      42.537  29.627  29.812  1.00  0.00    -0.354 N 
ATOM     32  N   UNL A   1      45.358  28.818  29.873  1.00  0.00    -0.248 NA
ATOM     33  C   UNL A   1      47.606  29.305  30.288  1.00  0.00     0.031 C 
ATOM     34  C   UNL A   1      42.012  31.657  30.546  1.00  0.00     0.029 A 
ATOM     35  C   UNL A   1      43.074  30.792  30.338  1.00  0.00     0.049 A 
ATOM     36  H   UNL A   1      43.057  28.831  29.557  1.00  0.00     0.167 HD
ATOM     37  C   UNL A   1      45.458  30.108  30.375  1.00  0.00     0.074 A 
ATOM     38  C   UNL A   1      46.864  30.345  30.639  1.00  0.00     0.031 C 
ATOM     39  C   UNL A   1      44.474  31.012  30.598  1.00  0.00     0.037 A 
BRANCH  26  40
ATOM     40  C   UNL A   1      38.824  29.050  29.033  1.00  0.00     0.057 A 
ATOM     41  C   UNL A   1      37.937  28.956  30.113  1.00  0.00     0.134 A 
ATOM     42  C   UNL A   1      38.302  29.487  27.808  1.00  0.00     0.134 A 
ATOM     43  F   UNL A   1      38.367  28.534  31.311  1.00  0.00    -0.206 F 
ATOM     44  C   UNL A   1      36.579  29.256  29.972  1.00  0.00     0.040 A 
ATOM     45  C   UNL A   1      36.953  29.814  27.661  1.00  0.00     0.040 A 
ATOM     46  F   UNL A   1      39.096  29.608  26.733  1.00  0.00    -0.206 F 
ATOM     47  C   UNL A   1      36.085  29.692  28.745  1.00  0.00     0.006 A 
ENDBRANCH  26  40
BRANCH  27  48
ATOM     48  C   UNL A   1      48.503  26.638  29.479  1.00  0.00     0.057 A 
ATOM     49  C   UNL A   1      49.025  26.022  30.622  1.00  0.00     0.134 A 
ATOM     50  C   UNL A   1      49.378  26.863  28.410  1.00  0.00     0.134 A 
ATOM     51  F   UNL A   1      48.238  25.793  31.684  1.00  0.00    -0.206 F 
ATOM     52  C   UNL A   1      50.367  25.650  30.702  1.00  0.00     0.040 A 
ATOM     53  C   UNL A   1      50.716  26.473  28.466  1.00  0.00     0.040 A 
ATOM     54  F   UNL A   1      48.934  27.441  27.283  1.00  0.00    -0.206 F 
ATOM     55  C   UNL A   1      51.215  25.869  29.618  1.00  0.00     0.006 A 
ENDBRANCH  27  48
BRANCH  39  56
ATOM     56  C   UNL A   1      44.884  32.326  31.193  1.00  0.00     0.057 A 
ATOM     57  C   UNL A   1      45.218  33.429  30.397  1.00  0.00     0.134 A 
ATOM     58  C   UNL A   1      44.931  32.492  32.583  1.00  0.00     0.134 A 
ATOM     59  F   UNL A   1      45.208  33.329  29.059  1.00  0.00    -0.206 F 
ATOM     60  C   UNL A   1      45.611  34.643  30.962  1.00  0.00     0.040 A 
ATOM     61  C   UNL A   1      45.297  33.708  33.160  1.00  0.00     0.040 A 
ATOM     62  F   UNL A   1      44.618  31.476  33.402  1.00  0.00    -0.206 F 
ATOM     63  C   UNL A   1      45.646  34.786  32.349  1.00  0.00     0.006 A 
ENDBRANCH  39  56
ENDBRANCH  13  14
ENDBRANCH   6   8
ENDBRANCH   3   4
ENDBRANCH   2   3
ENDBRANCH   1   2
BRANCH   1  64
ATOM     64  C   UNL A   1      36.687  22.620  25.395  1.00  0.00     0.116 C 
BRANCH  64  65
ATOM     65  N   UNL A   1      35.922  22.166  26.540  1.00  0.00    -0.354 N 
ATOM     66  C   UNL A   1      34.556  22.028  26.603  1.00  0.00     0.242 C 
ATOM     67  H   UNL A   1      36.431  21.933  27.350  1.00  0.00     0.163 HD
ATOM     68  O   UNL A   1      34.059  21.435  27.564  1.00  0.00    -0.273 OA
BRANCH  66  69
ATOM     69  C   UNL A   1      33.717  22.496  25.392  1.00  0.00     0.177 C 
ATOM     70  C   UNL A   1      33.579  21.337  24.399  1.00  0.00     0.069 C 
ATOM     71  N   UNL A   1      32.328  22.811  25.739  1.00  0.00    -0.328 N 
ATOM     72  C   UNL A   1      32.365  20.578  24.922  1.00  0.00     0.136 C 
ATOM     73  C   UNL A   1      31.456  21.704  25.387  1.00  0.00     0.152 C 
BRANCH  71  74
ATOM     74  C   UNL A   1      31.938  24.068  26.146  1.00  0.00     0.223 C 
ATOM     75  O   UNL A   1      31.458  24.258  27.265  1.00  0.00    -0.275 OA
BRANCH  74  76
ATOM     76  C   UNL A   1      32.104  25.235  25.176  1.00  0.00     0.105 C 
BRANCH  76  77
ATOM     77  C   UNL A   1      31.005  26.313  25.229  1.00  0.00     0.047 C 
BRANCH  77  78
ATOM     78  C   UNL A   1      31.402  27.654  25.822  1.00  0.00    -0.029 A 
ATOM     79  C   UNL A   1      32.019  27.669  27.088  1.00  0.00     0.007 A 
ATOM     80  C   UNL A   1      31.264  28.877  25.135  1.00  0.00     0.045 A 
ATOM     81  C   UNL A   1      32.595  28.841  27.589  1.00  0.00     0.021 A 
ATOM     82  C   UNL A   1      31.873  30.041  25.621  1.00  0.00     0.041 A 
ATOM     83  Cl  UNL A   1      30.416  29.002  23.637  1.00  0.00    -0.084 Cl
ATOM     84  C   UNL A   1      32.558  30.009  26.832  1.00  0.00     0.042 A 
ATOM     85  Cl  UNL A   1      33.402  31.405  27.375  1.00  0.00    -0.084 Cl
ENDBRANCH  77  78
ENDBRANCH  76  77
ENDBRANCH  74  76
ENDBRANCH  71  74
BRANCH  72  86
ATOM     86  O   UNL A   1      32.719  19.704  25.985  1.00  0.00    -0.391 OA
ATOM     87  H   UNL A   1      33.399  20.123  26.535  1.00  0.00     0.211 HD
ENDBRANCH  72  86
ENDBRANCH  66  69
ENDBRANCH  64  65
ENDBRANCH   1  64
TORSDOF 16
ENDMDL
MODEL 3
REMARK VINA RESULT:     -11.9      4.842      8.702
REMARK SMILES O=C(NCCCCNC(=O)[C@H]1C[C@@H](O)CN1C(=O)CCc1ccc(Cl)cc1Cl)c1ccc(-c2c3nc(c(-c4c(F)cccc4F)c4ccc([nH]4)c(-c4c(F)cccc4F)c4nc(c(-c5c(F)cccc5F)c5ccc2[nH]5)C=C4)C=C3)cc1
REMARK SMILES IDX 6 1 5 2 4 3 3 4 1 5 2 6 29 8 30 9 82 10 31 11 81 12 32 13
REMARK SMILES IDX 33 14 34 15 75 16 35 17 80 18 74 19 76 20 36 21 79 22 73 23
REMARK SMILES IDX 72 24 37 26 63 27 46 28 62 29 47 30 50 31 61 32 77 33 48 34
REMARK SMILES IDX 49 35 60 37 78 38 51 39 38 40 39 41 44 42 40 43 41 44 43 45
REMARK SMILES IDX 45 46 42 47 64 48 65 49 70 50 66 51 67 52 69 53 71 54 68 55
REMARK SMILES IDX 52 56 53 57 58 58 54 59 55 60 57 61 59 62 56 63 7 64 8 65
REMARK SMILES IDX 9 66 10 68 11 69 12 70 16 71 13 72 15 73 17 74 18 75 19 76
REMARK SMILES IDX 20 77 21 78 22 79 27 80 23 81 26 82 28 83 24 84 25 85 14 86
REMARK H PARENT 3 7 76 25 50 36 8 67 14 87
REMARK Flexibility Score: inf
ROOT
ATOM      1  C   UNL A   1      37.481  21.772  24.982  1.00  0.00     0.023 C 
ENDROOT
BRANCH   1   2
ATOM      2  C   UNL A   1      37.306  23.279  25.155  1.00  0.00     0.023 C 
BRANCH   2   3
ATOM      3  C   UNL A   1      38.137  23.913  26.266  1.00  0.00     0.116 C 
BRANCH   3   4
ATOM      4  N   UNL A   1      39.572  23.714  26.102  1.00  0.00    -0.352 N 
ATOM      5  O   UNL A   1      41.771  24.218  26.219  1.00  0.00    -0.269 OA
ATOM      6  C   UNL A   1      40.628  24.470  26.565  1.00  0.00     0.251 C 
ATOM      7  H   UNL A   1      39.826  22.918  25.581  1.00  0.00     0.163 HD
BRANCH   6   8
ATOM      8  C   UNL A   1      40.354  25.617  27.453  1.00  0.00     0.039 A 
ATOM      9  C   UNL A   1      41.011  26.831  27.254  1.00  0.00     0.014 A 
ATOM     10  C   UNL A   1      39.476  25.455  28.529  1.00  0.00     0.014 A 
ATOM     11  C   UNL A   1      40.954  27.806  28.240  1.00  0.00     0.010 A 
ATOM     12  C   UNL A   1      39.338  26.482  29.465  1.00  0.00     0.010 A 
ATOM     13  C   UNL A   1      40.120  27.644  29.358  1.00  0.00    -0.014 A 
BRANCH  13  14
ATOM     14  C   UNL A   1      40.076  28.712  30.388  1.00  0.00     0.031 A 
ATOM     15  C   UNL A   1      39.035  29.798  30.342  1.00  0.00     0.074 A 
ATOM     16  C   UNL A   1      40.960  28.667  31.403  1.00  0.00     0.049 A 
ATOM     17  N   UNL A   1      38.841  30.789  31.178  1.00  0.00    -0.248 NA
ATOM     18  C   UNL A   1      38.096  29.779  29.211  1.00  0.00     0.031 C 
ATOM     19  C   UNL A   1      42.014  27.661  31.556  1.00  0.00     0.029 A 
ATOM     20  N   UNL A   1      41.097  29.464  32.510  1.00  0.00    -0.354 N 
ATOM     21  C   UNL A   1      37.784  31.526  30.658  1.00  0.00     0.074 A 
ATOM     22  C   UNL A   1      37.390  30.880  29.423  1.00  0.00     0.031 C 
ATOM     23  C   UNL A   1      42.648  27.862  32.719  1.00  0.00     0.029 A 
ATOM     24  C   UNL A   1      42.093  29.050  33.359  1.00  0.00     0.049 A 
ATOM     25  H   UNL A   1      40.536  30.254  32.680  1.00  0.00     0.167 HD
ATOM     26  C   UNL A   1      37.195  32.637  31.165  1.00  0.00     0.037 A 
ATOM     27  C   UNL A   1      42.524  29.573  34.521  1.00  0.00     0.037 A 
ATOM     28  C   UNL A   1      37.573  33.258  32.409  1.00  0.00     0.049 A 
ATOM     29  C   UNL A   1      41.863  30.809  35.053  1.00  0.00     0.074 A 
ATOM     30  C   UNL A   1      37.012  34.361  33.029  1.00  0.00     0.029 A 
ATOM     31  N   UNL A   1      38.614  32.831  33.222  1.00  0.00    -0.354 N 
ATOM     32  N   UNL A   1      40.852  31.482  34.560  1.00  0.00    -0.248 NA
ATOM     33  C   UNL A   1      42.408  31.361  36.299  1.00  0.00     0.031 C 
ATOM     34  C   UNL A   1      37.740  34.628  34.195  1.00  0.00     0.029 A 
ATOM     35  C   UNL A   1      38.724  33.661  34.327  1.00  0.00     0.049 A 
ATOM     36  H   UNL A   1      39.189  32.053  33.041  1.00  0.00     0.167 HD
ATOM     37  C   UNL A   1      40.624  32.525  35.446  1.00  0.00     0.074 A 
ATOM     38  C   UNL A   1      41.595  32.385  36.514  1.00  0.00     0.031 C 
ATOM     39  C   UNL A   1      39.693  33.508  35.382  1.00  0.00     0.037 A 
BRANCH  26  40
ATOM     40  C   UNL A   1      36.096  33.270  30.359  1.00  0.00     0.057 A 
ATOM     41  C   UNL A   1      34.744  33.126  30.695  1.00  0.00     0.134 A 
ATOM     42  C   UNL A   1      36.401  34.064  29.244  1.00  0.00     0.134 A 
ATOM     43  F   UNL A   1      34.381  32.371  31.743  1.00  0.00    -0.206 F 
ATOM     44  C   UNL A   1      33.734  33.722  29.936  1.00  0.00     0.040 A 
ATOM     45  C   UNL A   1      35.402  34.686  28.493  1.00  0.00     0.040 A 
ATOM     46  F   UNL A   1      37.675  34.252  28.870  1.00  0.00    -0.206 F 
ATOM     47  C   UNL A   1      34.063  34.510  28.835  1.00  0.00     0.006 A 
ENDBRANCH  26  40
BRANCH  27  48
ATOM     48  C   UNL A   1      43.631  28.915  35.255  1.00  0.00     0.057 A 
ATOM     49  C   UNL A   1      44.959  29.308  35.058  1.00  0.00     0.134 A 
ATOM     50  C   UNL A   1      43.388  27.902  36.190  1.00  0.00     0.134 A 
ATOM     51  F   UNL A   1      45.255  30.264  34.164  1.00  0.00    -0.206 F 
ATOM     52  C   UNL A   1      46.007  28.714  35.760  1.00  0.00     0.040 A 
ATOM     53  C   UNL A   1      44.423  27.317  36.918  1.00  0.00     0.040 A 
ATOM     54  F   UNL A   1      42.134  27.489  36.430  1.00  0.00    -0.206 F 
ATOM     55  C   UNL A   1      45.739  27.719  36.700  1.00  0.00     0.006 A 
ENDBRANCH  27  48
BRANCH  39  56
ATOM     56  C   UNL A   1      39.659  34.484  36.520  1.00  0.00     0.057 A 
ATOM     57  C   UNL A   1      40.307  35.723  36.454  1.00  0.00     0.134 A 
ATOM     58  C   UNL A   1      38.955  34.182  37.693  1.00  0.00     0.134 A 
ATOM     59  F   UNL A   1      41.011  36.065  35.364  1.00  0.00    -0.206 F 
ATOM     60  C   UNL A   1      40.279  36.617  37.525  1.00  0.00     0.040 A 
ATOM     61  C   UNL A   1      38.899  35.078  38.761  1.00  0.00     0.040 A 
ATOM     62  F   UNL A   1      38.308  33.013  37.818  1.00  0.00    -0.206 F 
ATOM     63  C   UNL A   1      39.569  36.297  38.681  1.00  0.00     0.006 A 
ENDBRANCH  39  56
ENDBRANCH  13  14
ENDBRANCH   6   8
ENDBRANCH   3   4
ENDBRANCH   2   3
ENDBRANCH   1   2
BRANCH   1  64
ATOM     64  C   UNL A   1      36.201  20.958  25.085  1.00  0.00     0.116 C 
BRANCH  64  65
ATOM     65  N   UNL A   1      35.487  21.132  26.335  1.00  0.00    -0.354 N 
ATOM     66  C   UNL A   1      34.321  21.837  26.515  1.00  0.00     0.242 C 
ATOM     67  H   UNL A   1      35.875  20.703  27.131  1.00  0.00     0.163 HD
ATOM     68  O   UNL A   1      33.714  21.727  27.584  1.00  0.00    -0.273 OA
BRANCH  66  69
ATOM     69  C   UNL A   1      33.748  22.622  25.312  1.00  0.00     0.177 C 
ATOM     70  C   UNL A   1      33.248  21.628  24.257  1.00  0.00     0.069 C 
ATOM     71  N   UNL A   1      32.547  23.394  25.645  1.00  0.00    -0.328 N 
ATOM     72  C   UNL A   1      31.824  21.329  24.715  1.00  0.00     0.136 C 
ATOM     73  C   UNL A   1      31.355  22.684  25.218  1.00  0.00     0.152 C 
BRANCH  71  74
ATOM     74  C   UNL A   1      32.612  24.689  26.108  1.00  0.00     0.223 C 
ATOM     75  O   UNL A   1      31.649  25.217  26.669  1.00  0.00    -0.275 OA
BRANCH  74  76
ATOM     76  C   UNL A   1      33.906  25.474  25.908  1.00  0.00     0.105 C 
BRANCH  76  77
ATOM     77  C   UNL A   1      33.810  26.699  24.979  1.00  0.00     0.047 C 
BRANCH  77  78
ATOM     78  C   UNL A   1      33.091  27.915  25.536  1.00  0.00    -0.029 A 
ATOM     79  C   UNL A   1      33.680  28.605  26.614  1.00  0.00     0.007 A 
ATOM     80  C   UNL A   1      31.908  28.442  24.977  1.00  0.00     0.045 A 
ATOM     81  C   UNL A   1      33.181  29.844  27.028  1.00  0.00     0.021 A 
ATOM     82  C   UNL A   1      31.432  29.699  25.368  1.00  0.00     0.041 A 
ATOM     83  Cl  UNL A   1      31.030  27.620  23.738  1.00  0.00    -0.084 Cl
ATOM     84  C   UNL A   1      32.087  30.404  26.374  1.00  0.00     0.042 A 
ATOM     85  Cl  UNL A   1      31.573  31.994  26.778  1.00  0.00    -0.084 Cl
ENDBRANCH  77  78
ENDBRANCH  76  77
ENDBRANCH  74  76
ENDBRANCH  71  74
BRANCH  72  86
ATOM     86  O   UNL A   1      31.806  20.343  25.738  1.00  0.00    -0.391 OA
ATOM     87  H   UNL A   1      32.022  19.477  25.356  1.00  0.00     0.211 HD
ENDBRANCH  72  86
ENDBRANCH  66  69
ENDBRANCH  64  65
ENDBRANCH   1  64
TORSDOF 16
ENDMDL
