MODEL 1
REMARK VINA RESULT:     -12.3      0.000      0.000
REMARK SMILES Cc1ccsc1C(=O)NNC(=O)[C@@H]1[C@@H](C(=O)NCCCCNC(=O)c2ccc(-c3c4nc(c(-c5c(F)cccc5F)c5ccc([nH]5)c(-c5c(F)cccc5F)c5nc(c(-c6c(F)cccc6F)c6ccc3[nH]6)C=C5)C=C4)cc2)[C@H]2C=C[C@@H]1C2
REMARK SMILES IDX 19 1 18 2 17 3 15 4 16 5 14 7 13 8 82 9 79 10 81 11 83 12
REMARK SMILES IDX 80 13 11 14 10 15 12 17 9 18 7 19 8 20 6 22 1 23 2 24 3 25
REMARK SMILES IDX 4 26 5 27 20 28 21 29 22 30 23 31 24 33 25 34 26 35 78 36
REMARK SMILES IDX 27 37 77 38 28 39 29 40 30 41 71 42 31 43 76 44 70 45 72 46
REMARK SMILES IDX 32 47 75 48 69 49 68 50 33 52 59 53 42 54 58 55 43 56 46 57
REMARK SMILES IDX 57 58 73 59 44 60 45 61 56 63 74 64 47 65 34 66 35 67 40 68
REMARK SMILES IDX 36 69 37 70 39 71 41 72 38 73 60 74 61 75 66 76 62 77 63 78
REMARK SMILES IDX 65 79 67 80 64 81 48 82 49 83 54 84 50 85 51 86 53 87 55 88
REMARK SMILES IDX 52 89
REMARK H PARENT 17 6 10 16 9 21 22 32 72 51 46 62
REMARK Flexibility Score: inf
ROOT
ATOM      1  C   UNL A   1      32.325  30.356  26.305  1.00  0.00     0.023 C 
ENDROOT
BRANCH   1   2
ATOM      2  C   UNL A   1      32.473  29.228  27.320  1.00  0.00     0.116 C 
BRANCH   2   3
ATOM      3  N   UNL A   1      33.280  28.135  26.819  1.00  0.00    -0.356 N 
ATOM      4  C   UNL A   1      32.990  26.978  26.182  1.00  0.00     0.224 C 
ATOM      5  O   UNL A   1      33.963  26.272  25.883  1.00  0.00    -0.275 OA
ATOM      6  H   UNL A   1      34.244  28.261  26.974  1.00  0.00     0.163 HD
BRANCH   4   7
ATOM      7  C   UNL A   1      31.599  26.454  25.850  1.00  0.00     0.098 C 
ATOM      8  C   UNL A   1      31.419  24.981  25.411  1.00  0.00     0.100 C 
ATOM      9  C   UNL A   1      30.370  25.113  24.270  1.00  0.00     0.025 C 
ATOM     10  C   UNL A   1      30.842  27.258  24.755  1.00  0.00     0.025 C 
ATOM     11  C   UNL A   1      31.109  25.712  23.076  1.00  0.00    -0.027 C 
ATOM     12  C   UNL A   1      29.586  26.394  24.596  1.00  0.00     0.017 C 
ATOM     13  C   UNL A   1      31.393  26.991  23.379  1.00  0.00    -0.027 C 
BRANCH   8  14
ATOM     14  C   UNL A   1      31.242  24.004  26.577  1.00  0.00     0.242 C 
ATOM     15  N   UNL A   1      32.189  23.129  27.012  1.00  0.00    -0.267 N 
ATOM     16  H   UNL A   1      31.897  22.403  27.609  1.00  0.00     0.191 HD
ATOM     17  O   UNL A   1      30.139  23.950  27.140  1.00  0.00    -0.273 OA
BRANCH  15  18
ATOM     18  N   UNL A   1      33.513  23.180  26.685  1.00  0.00    -0.263 N 
ATOM     19  C   UNL A   1      34.190  22.334  25.822  1.00  0.00     0.280 C 
ATOM     20  O   UNL A   1      35.415  22.490  25.789  1.00  0.00    -0.266 OA
ATOM     21  H   UNL A   1      34.043  23.894  27.108  1.00  0.00     0.191 HD
BRANCH  19  22
ATOM     22  C   UNL A   1      33.473  21.434  24.921  1.00  0.00     0.096 A 
ATOM     23  C   UNL A   1      32.901  22.728  22.736  1.00  0.00     0.046 C 
ATOM     24  C   UNL A   1      32.954  21.532  23.630  1.00  0.00    -0.027 A 
ATOM     25  C   UNL A   1      32.398  20.272  23.198  1.00  0.00     0.016 A 
ATOM     26  C   UNL A   1      32.445  19.297  24.162  1.00  0.00     0.066 A 
ATOM     27  S   UNL A   1      33.166  19.862  25.588  1.00  0.00    -0.138 S 
ENDBRANCH  19  22
ENDBRANCH  15  18
ENDBRANCH   8  14
ENDBRANCH   4   7
ENDBRANCH   2   3
ENDBRANCH   1   2
BRANCH   1  28
ATOM     28  C   UNL A   1      31.810  31.669  26.880  1.00  0.00     0.023 C 
BRANCH  28  29
ATOM     29  C   UNL A   1      32.881  32.602  27.430  1.00  0.00     0.116 C 
BRANCH  29  30
ATOM     30  N   UNL A   1      32.425  33.970  27.648  1.00  0.00    -0.352 N 
ATOM     31  C   UNL A   1      32.941  34.925  28.500  1.00  0.00     0.251 C 
ATOM     32  H   UNL A   1      31.645  34.249  27.115  1.00  0.00     0.163 HD
ATOM     33  O   UNL A   1      32.414  36.013  28.625  1.00  0.00    -0.269 OA
BRANCH  31  34
ATOM     34  C   UNL A   1      34.130  34.565  29.299  1.00  0.00     0.039 A 
ATOM     35  C   UNL A   1      33.943  34.046  30.581  1.00  0.00     0.014 A 
ATOM     36  C   UNL A   1      35.399  34.614  28.720  1.00  0.00     0.014 A 
ATOM     37  C   UNL A   1      35.025  33.466  31.243  1.00  0.00     0.010 A 
ATOM     38  C   UNL A   1      36.453  33.962  29.345  1.00  0.00     0.010 A 
ATOM     39  C   UNL A   1      36.271  33.364  30.602  1.00  0.00    -0.014 A 
BRANCH  39  40
ATOM     40  C   UNL A   1      37.391  32.602  31.204  1.00  0.00     0.031 A 
ATOM     41  C   UNL A   1      37.986  33.051  32.508  1.00  0.00     0.074 A 
ATOM     42  C   UNL A   1      37.937  31.572  30.528  1.00  0.00     0.049 A 
ATOM     43  N   UNL A   1      39.040  32.596  33.134  1.00  0.00    -0.248 NA
ATOM     44  C   UNL A   1      37.330  34.186  33.175  1.00  0.00     0.031 C 
ATOM     45  C   UNL A   1      37.488  31.079  29.224  1.00  0.00     0.029 A 
ATOM     46  N   UNL A   1      39.001  30.763  30.837  1.00  0.00    -0.354 N 
ATOM     47  C   UNL A   1      39.186  33.402  34.256  1.00  0.00     0.074 A 
ATOM     48  C   UNL A   1      38.145  34.404  34.196  1.00  0.00     0.031 C 
ATOM     49  C   UNL A   1      38.255  30.039  28.857  1.00  0.00     0.029 A 
ATOM     50  C   UNL A   1      39.274  29.817  29.878  1.00  0.00     0.049 A 
ATOM     51  H   UNL A   1      39.522  30.852  31.669  1.00  0.00     0.167 HD
ATOM     52  C   UNL A   1      40.090  33.298  35.257  1.00  0.00     0.037 A 
ATOM     53  C   UNL A   1      40.242  28.884  29.824  1.00  0.00     0.037 A 
ATOM     54  C   UNL A   1      41.098  32.276  35.332  1.00  0.00     0.049 A 
ATOM     55  C   UNL A   1      41.232  28.788  30.950  1.00  0.00     0.074 A 
ATOM     56  C   UNL A   1      42.006  32.034  36.348  1.00  0.00     0.029 A 
ATOM     57  N   UNL A   1      41.330  31.325  34.350  1.00  0.00    -0.354 N 
ATOM     58  N   UNL A   1      41.313  29.510  32.041  1.00  0.00    -0.248 NA
ATOM     59  C   UNL A   1      42.268  27.751  30.836  1.00  0.00     0.031 C 
ATOM     60  C   UNL A   1      42.811  30.957  35.965  1.00  0.00     0.029 A 
ATOM     61  C   UNL A   1      42.382  30.508  34.726  1.00  0.00     0.049 A 
ATOM     62  H   UNL A   1      40.822  31.244  33.511  1.00  0.00     0.167 HD
ATOM     63  C   UNL A   1      42.395  29.006  32.751  1.00  0.00     0.074 A 
ATOM     64  C   UNL A   1      42.929  27.906  31.975  1.00  0.00     0.031 C 
ATOM     65  C   UNL A   1      42.900  29.419  33.938  1.00  0.00     0.037 A 
BRANCH  52  66
ATOM     66  C   UNL A   1      40.016  34.315  36.357  1.00  0.00     0.057 A 
ATOM     67  C   UNL A   1      39.236  34.106  37.501  1.00  0.00     0.134 A 
ATOM     68  C   UNL A   1      40.750  35.505  36.282  1.00  0.00     0.134 A 
ATOM     69  F   UNL A   1      38.497  32.993  37.625  1.00  0.00    -0.206 F 
ATOM     70  C   UNL A   1      39.165  35.057  38.519  1.00  0.00     0.040 A 
ATOM     71  C   UNL A   1      40.709  36.452  37.306  1.00  0.00     0.040 A 
ATOM     72  F   UNL A   1      41.521  35.765  35.215  1.00  0.00    -0.206 F 
ATOM     73  C   UNL A   1      39.909  36.231  38.426  1.00  0.00     0.006 A 
ENDBRANCH  52  66
BRANCH  53  74
ATOM     74  C   UNL A   1      40.315  27.953  28.671  1.00  0.00     0.057 A 
ATOM     75  C   UNL A   1      39.665  26.715  28.706  1.00  0.00     0.134 A 
ATOM     76  C   UNL A   1      41.035  28.271  27.514  1.00  0.00     0.134 A 
ATOM     77  F   UNL A   1      38.975  26.346  29.797  1.00  0.00    -0.206 F 
ATOM     78  C   UNL A   1      39.739  25.818  27.639  1.00  0.00     0.040 A 
ATOM     79  C   UNL A   1      41.101  27.393  26.430  1.00  0.00     0.040 A 
ATOM     80  F   UNL A   1      41.675  29.445  27.415  1.00  0.00    -0.206 F 
ATOM     81  C   UNL A   1      40.455  26.160  26.493  1.00  0.00     0.006 A 
ENDBRANCH  53  74
BRANCH  65  82
ATOM     82  C   UNL A   1      44.083  28.672  34.474  1.00  0.00     0.057 A 
ATOM     83  C   UNL A   1      45.394  29.094  34.217  1.00  0.00     0.134 A 
ATOM     84  C   UNL A   1      43.909  27.551  35.296  1.00  0.00     0.134 A 
ATOM     85  F   UNL A   1      45.625  30.151  33.425  1.00  0.00    -0.206 F 
ATOM     86  C   UNL A   1      46.493  28.417  34.749  1.00  0.00     0.040 A 
ATOM     87  C   UNL A   1      45.000  26.880  35.850  1.00  0.00     0.040 A 
ATOM     88  F   UNL A   1      42.679  27.103  35.584  1.00  0.00    -0.206 F 
ATOM     89  C   UNL A   1      46.296  27.311  35.575  1.00  0.00     0.006 A 
ENDBRANCH  65  82
ENDBRANCH  39  40
ENDBRANCH  31  34
ENDBRANCH  29  30
ENDBRANCH  28  29
ENDBRANCH   1  28
TORSDOF 14
ENDMDL
MODEL 2
REMARK VINA RESULT:     -12.3      5.086     10.233
REMARK SMILES Cc1ccsc1C(=O)NNC(=O)[C@@H]1[C@@H](C(=O)NCCCCNC(=O)c2ccc(-c3c4nc(c(-c5c(F)cccc5F)c5ccc([nH]5)c(-c5c(F)cccc5F)c5nc(c(-c6c(F)cccc6F)c6ccc3[nH]6)C=C5)C=C4)cc2)[C@H]2C=C[C@@H]1C2
REMARK SMILES IDX 19 1 18 2 17 3 15 4 16 5 14 7 13 8 82 9 79 10 81 11 83 12
REMARK SMILES IDX 80 13 11 14 10 15 12 17 9 18 7 19 8 20 6 22 1 23 2 24 3 25
REMARK SMILES IDX 4 26 5 27 20 28 21 29 22 30 23 31 24 33 25 34 26 35 78 36
REMARK SMILES IDX 27 37 77 38 28 39 29 40 30 41 71 42 31 43 76 44 70 45 72 46
REMARK SMILES IDX 32 47 75 48 69 49 68 50 33 52 59 53 42 54 58 55 43 56 46 57
REMARK SMILES IDX 57 58 73 59 44 60 45 61 56 63 74 64 47 65 34 66 35 67 40 68
REMARK SMILES IDX 36 69 37 70 39 71 41 72 38 73 60 74 61 75 66 76 62 77 63 78
REMARK SMILES IDX 65 79 67 80 64 81 48 82 49 83 54 84 50 85 51 86 53 87 55 88
REMARK SMILES IDX 52 89
REMARK H PARENT 17 6 10 16 9 21 22 32 72 51 46 62
REMARK Flexibility Score: inf
ROOT
ATOM      1  C   UNL A   1      36.935  21.383  25.279  1.00  0.00     0.023 C 
ENDROOT
BRANCH   1   2
ATOM      2  C   UNL A   1      37.075  22.657  24.453  1.00  0.00     0.116 C 
BRANCH   2   3
ATOM      3  N   UNL A   1      36.260  23.739  24.964  1.00  0.00    -0.356 N 
ATOM      4  C   UNL A   1      35.022  24.195  24.666  1.00  0.00     0.224 C 
ATOM      5  O   UNL A   1      34.631  25.161  25.336  1.00  0.00    -0.275 OA
ATOM      6  H   UNL A   1      36.699  24.251  25.682  1.00  0.00     0.163 HD
BRANCH   4   7
ATOM      7  C   UNL A   1      34.106  23.670  23.568  1.00  0.00     0.098 C 
ATOM      8  C   UNL A   1      32.874  24.500  23.136  1.00  0.00     0.100 C 
ATOM      9  C   UNL A   1      31.793  23.396  22.954  1.00  0.00     0.025 C 
ATOM     10  C   UNL A   1      33.522  22.253  23.827  1.00  0.00     0.025 C 
ATOM     11  C   UNL A   1      31.397  22.948  24.359  1.00  0.00    -0.027 C 
ATOM     12  C   UNL A   1      32.581  22.118  22.626  1.00  0.00     0.017 C 
ATOM     13  C   UNL A   1      32.440  22.273  24.875  1.00  0.00    -0.027 C 
BRANCH   8  14
ATOM     14  C   UNL A   1      33.174  25.538  22.050  1.00  0.00     0.242 C 
ATOM     15  N   UNL A   1      33.276  26.879  22.260  1.00  0.00    -0.267 N 
ATOM     16  H   UNL A   1      33.247  27.465  21.470  1.00  0.00     0.191 HD
ATOM     17  O   UNL A   1      33.276  25.152  20.877  1.00  0.00    -0.273 OA
BRANCH  15  18
ATOM     18  N   UNL A   1      33.418  27.473  23.480  1.00  0.00    -0.263 N 
ATOM     19  C   UNL A   1      32.449  28.169  24.183  1.00  0.00     0.280 C 
ATOM     20  O   UNL A   1      32.850  28.737  25.205  1.00  0.00    -0.266 OA
ATOM     21  H   UNL A   1      34.303  27.399  23.905  1.00  0.00     0.191 HD
BRANCH  19  22
ATOM     22  C   UNL A   1      31.039  28.102  23.805  1.00  0.00     0.096 A 
ATOM     23  C   UNL A   1      29.964  26.036  24.970  1.00  0.00     0.046 C 
ATOM     24  C   UNL A   1      29.966  27.271  24.126  1.00  0.00    -0.027 A 
ATOM     25  C   UNL A   1      28.749  27.729  23.501  1.00  0.00     0.016 A 
ATOM     26  C   UNL A   1      28.932  28.821  22.692  1.00  0.00     0.066 A 
ATOM     27  S   UNL A   1      30.549  29.327  22.679  1.00  0.00    -0.138 S 
ENDBRANCH  19  22
ENDBRANCH  15  18
ENDBRANCH   8  14
ENDBRANCH   4   7
ENDBRANCH   2   3
ENDBRANCH   1   2
BRANCH   1  28
ATOM     28  C   UNL A   1      37.996  20.325  25.004  1.00  0.00     0.023 C 
BRANCH  28  29
ATOM     29  C   UNL A   1      39.292  20.484  25.790  1.00  0.00     0.116 C 
BRANCH  29  30
ATOM     30  N   UNL A   1      40.105  19.275  25.847  1.00  0.00    -0.352 N 
ATOM     31  C   UNL A   1      41.452  19.156  26.123  1.00  0.00     0.251 C 
ATOM     32  H   UNL A   1      39.629  18.432  25.666  1.00  0.00     0.163 HD
ATOM     33  O   UNL A   1      42.016  18.079  26.072  1.00  0.00    -0.269 OA
BRANCH  31  34
ATOM     34  C   UNL A   1      42.204  20.389  26.430  1.00  0.00     0.039 A 
ATOM     35  C   UNL A   1      42.763  21.113  25.376  1.00  0.00     0.014 A 
ATOM     36  C   UNL A   1      42.226  20.883  27.736  1.00  0.00     0.014 A 
ATOM     37  C   UNL A   1      43.248  22.398  25.619  1.00  0.00     0.010 A 
ATOM     38  C   UNL A   1      42.632  22.192  27.957  1.00  0.00     0.010 A 
ATOM     39  C   UNL A   1      43.127  22.969  26.897  1.00  0.00    -0.014 A 
BRANCH  39  40
ATOM     40  C   UNL A   1      43.471  24.389  27.146  1.00  0.00     0.031 A 
ATOM     41  C   UNL A   1      44.899  24.842  27.049  1.00  0.00     0.074 A 
ATOM     42  C   UNL A   1      42.514  25.244  27.561  1.00  0.00     0.049 A 
ATOM     43  N   UNL A   1      45.419  26.004  27.345  1.00  0.00    -0.248 NA
ATOM     44  C   UNL A   1      45.877  23.842  26.593  1.00  0.00     0.031 C 
ATOM     45  C   UNL A   1      41.101  24.910  27.754  1.00  0.00     0.029 A 
ATOM     46  N   UNL A   1      42.590  26.568  27.910  1.00  0.00    -0.354 N 
ATOM     47  C   UNL A   1      46.784  25.869  27.132  1.00  0.00     0.074 A 
ATOM     48  C   UNL A   1      47.018  24.499  26.733  1.00  0.00     0.031 C 
ATOM     49  C   UNL A   1      40.441  26.005  28.164  1.00  0.00     0.029 A 
ATOM     50  C   UNL A   1      41.388  27.107  28.302  1.00  0.00     0.049 A 
ATOM     51  H   UNL A   1      43.428  27.085  27.885  1.00  0.00     0.167 HD
ATOM     52  C   UNL A   1      47.751  26.810  27.237  1.00  0.00     0.037 A 
ATOM     53  C   UNL A   1      41.086  28.345  28.733  1.00  0.00     0.037 A 
ATOM     54  C   UNL A   1      47.509  28.181  27.595  1.00  0.00     0.049 A 
ATOM     55  C   UNL A   1      42.177  29.373  28.836  1.00  0.00     0.074 A 
ATOM     56  C   UNL A   1      48.409  29.231  27.644  1.00  0.00     0.029 A 
ATOM     57  N   UNL A   1      46.274  28.691  27.966  1.00  0.00    -0.354 N 
ATOM     58  N   UNL A   1      43.453  29.251  28.562  1.00  0.00    -0.248 NA
ATOM     59  C   UNL A   1      41.789  30.708  29.314  1.00  0.00     0.031 C 
ATOM     60  C   UNL A   1      47.725  30.370  28.079  1.00  0.00     0.029 A 
ATOM     61  C   UNL A   1      46.393  30.037  28.268  1.00  0.00     0.049 A 
ATOM     62  H   UNL A   1      45.438  28.174  28.008  1.00  0.00     0.167 HD
ATOM     63  C   UNL A   1      44.016  30.494  28.816  1.00  0.00     0.074 A 
ATOM     64  C   UNL A   1      42.941  31.361  29.251  1.00  0.00     0.031 C 
ATOM     65  C   UNL A   1      45.309  30.882  28.701  1.00  0.00     0.037 A 
BRANCH  52  66
ATOM     66  C   UNL A   1      49.158  26.383  26.945  1.00  0.00     0.057 A 
ATOM     67  C   UNL A   1      49.682  26.412  25.646  1.00  0.00     0.134 A 
ATOM     68  C   UNL A   1      50.006  25.960  27.976  1.00  0.00     0.134 A 
ATOM     69  F   UNL A   1      48.915  26.792  24.613  1.00  0.00    -0.206 F 
ATOM     70  C   UNL A   1      50.991  26.009  25.378  1.00  0.00     0.040 A 
ATOM     71  C   UNL A   1      51.325  25.579  27.724  1.00  0.00     0.040 A 
ATOM     72  F   UNL A   1      49.569  25.913  29.243  1.00  0.00    -0.206 F 
ATOM     73  C   UNL A   1      51.818  25.597  26.421  1.00  0.00     0.006 A 
ENDBRANCH  52  66
BRANCH  53  74
ATOM     74  C   UNL A   1      39.685  28.691  29.083  1.00  0.00     0.057 A 
ATOM     75  C   UNL A   1      39.201  28.494  30.381  1.00  0.00     0.134 A 
ATOM     76  C   UNL A   1      38.800  29.219  28.137  1.00  0.00     0.134 A 
ATOM     77  F   UNL A   1      39.998  27.973  31.327  1.00  0.00    -0.206 F 
ATOM     78  C   UNL A   1      37.882  28.795  30.723  1.00  0.00     0.040 A 
ATOM     79  C   UNL A   1      37.483  29.544  28.470  1.00  0.00     0.040 A 
ATOM     80  F   UNL A   1      39.205  29.437  26.878  1.00  0.00    -0.206 F 
ATOM     81  C   UNL A   1      37.020  29.328  29.766  1.00  0.00     0.006 A 
ENDBRANCH  53  74
BRANCH  65  82
ATOM     82  C   UNL A   1      45.629  32.306  29.039  1.00  0.00     0.057 A 
ATOM     83  C   UNL A   1      45.519  33.328  28.088  1.00  0.00     0.134 A 
ATOM     84  C   UNL A   1      46.002  32.665  30.341  1.00  0.00     0.134 A 
ATOM     85  F   UNL A   1      45.180  33.045  26.822  1.00  0.00    -0.206 F 
ATOM     86  C   UNL A   1      45.781  34.659  28.418  1.00  0.00     0.040 A 
ATOM     87  C   UNL A   1      46.246  33.995  30.687  1.00  0.00     0.040 A 
ATOM     88  F   UNL A   1      46.118  31.732  31.297  1.00  0.00    -0.206 F 
ATOM     89  C   UNL A   1      46.139  34.995  29.723  1.00  0.00     0.006 A 
ENDBRANCH  65  82
ENDBRANCH  39  40
ENDBRANCH  31  34
ENDBRANCH  29  30
ENDBRANCH  28  29
ENDBRANCH   1  28
TORSDOF 14
ENDMDL
MODEL 3
REMARK VINA RESULT:     -12.2      5.208      9.596
REMARK SMILES Cc1ccsc1C(=O)NNC(=O)[C@@H]1[C@@H](C(=O)NCCCCNC(=O)c2ccc(-c3c4nc(c(-c5c(F)cccc5F)c5ccc([nH]5)c(-c5c(F)cccc5F)c5nc(c(-c6c(F)cccc6F)c6ccc3[nH]6)C=C5)C=C4)cc2)[C@H]2C=C[C@@H]1C2
REMARK SMILES IDX 19 1 18 2 17 3 15 4 16 5 14 7 13 8 82 9 79 10 81 11 83 12
REMARK SMILES IDX 80 13 11 14 10 15 12 17 9 18 7 19 8 20 6 22 1 23 2 24 3 25
REMARK SMILES IDX 4 26 5 27 20 28 21 29 22 30 23 31 24 33 25 34 26 35 78 36
REMARK SMILES IDX 27 37 77 38 28 39 29 40 30 41 71 42 31 43 76 44 70 45 72 46
REMARK SMILES IDX 32 47 75 48 69 49 68 50 33 52 59 53 42 54 58 55 43 56 46 57
REMARK SMILES IDX 57 58 73 59 44 60 45 61 56 63 74 64 47 65 34 66 35 67 40 68
REMARK SMILES IDX 36 69 37 70 39 71 41 72 38 73 60 74 61 75 66 76 62 77 63 78
REMARK SMILES IDX 65 79 67 80 64 81 48 82 49 83 54 84 50 85 51 86 53 87 55 88
REMARK SMILES IDX 52 89
REMARK H PARENT 17 6 10 16 9 21 22 32 72 51 46 62
REMARK Flexibility Score: inf
ROOT
ATOM      1  C   UNL A   1      36.841  22.074  25.637  1.00  0.00     0.023 C 
ENDROOT
BRANCH   1   2
ATOM      2  C   UNL A   1      36.980  23.422  24.939  1.00  0.00     0.116 C 
BRANCH   2   3
ATOM      3  N   UNL A   1      35.969  24.369  25.360  1.00  0.00    -0.356 N 
ATOM      4  C   UNL A   1      34.709  24.634  24.946  1.00  0.00     0.224 C 
ATOM      5  O   UNL A   1      34.117  25.529  25.565  1.00  0.00    -0.275 OA
ATOM      6  H   UNL A   1      36.259  24.942  26.107  1.00  0.00     0.163 HD
BRANCH   4   7
ATOM      7  C   UNL A   1      33.986  23.976  23.777  1.00  0.00     0.098 C 
ATOM      8  C   UNL A   1      32.767  24.681  23.135  1.00  0.00     0.100 C 
ATOM      9  C   UNL A   1      31.800  23.488  22.892  1.00  0.00     0.025 C 
ATOM     10  C   UNL A   1      33.473  22.535  24.054  1.00  0.00     0.025 C 
ATOM     11  C   UNL A   1      31.253  23.092  24.261  1.00  0.00    -0.027 C 
ATOM     12  C   UNL A   1      32.711  22.258  22.754  1.00  0.00     0.017 C 
ATOM     13  C   UNL A   1      32.262  22.531  24.951  1.00  0.00    -0.027 C 
BRANCH   8  14
ATOM     14  C   UNL A   1      33.136  25.675  22.030  1.00  0.00     0.242 C 
ATOM     15  N   UNL A   1      33.259  27.020  22.199  1.00  0.00    -0.267 N 
ATOM     16  H   UNL A   1      33.276  27.580  21.389  1.00  0.00     0.191 HD
ATOM     17  O   UNL A   1      33.278  25.248  20.875  1.00  0.00    -0.273 OA
BRANCH  15  18
ATOM     18  N   UNL A   1      33.362  27.652  23.404  1.00  0.00    -0.263 N 
ATOM     19  C   UNL A   1      32.390  28.417  24.028  1.00  0.00     0.280 C 
ATOM     20  O   UNL A   1      32.761  29.004  25.050  1.00  0.00    -0.266 OA
ATOM     21  H   UNL A   1      34.219  27.554  23.880  1.00  0.00     0.191 HD
BRANCH  19  22
ATOM     22  C   UNL A   1      31.001  28.399  23.574  1.00  0.00     0.096 A 
ATOM     23  C   UNL A   1      29.813  26.333  24.621  1.00  0.00     0.046 C 
ATOM     24  C   UNL A   1      29.891  27.589  23.815  1.00  0.00    -0.027 A 
ATOM     25  C   UNL A   1      28.722  28.097  23.140  1.00  0.00     0.016 A 
ATOM     26  C   UNL A   1      28.976  29.206  22.373  1.00  0.00     0.066 A 
ATOM     27  S   UNL A   1      30.605  29.667  22.459  1.00  0.00    -0.138 S 
ENDBRANCH  19  22
ENDBRANCH  15  18
ENDBRANCH   8  14
ENDBRANCH   4   7
ENDBRANCH   2   3
ENDBRANCH   1   2
BRANCH   1  28
ATOM     28  C   UNL A   1      37.857  21.024  25.205  1.00  0.00     0.023 C 
BRANCH  28  29
ATOM     29  C   UNL A   1      39.177  21.044  25.966  1.00  0.00     0.116 C 
BRANCH  29  30
ATOM     30  N   UNL A   1      39.901  19.779  25.935  1.00  0.00    -0.352 N 
ATOM     31  C   UNL A   1      41.248  19.554  26.128  1.00  0.00     0.251 C 
ATOM     32  H   UNL A   1      39.355  18.980  25.753  1.00  0.00     0.163 HD
ATOM     33  O   UNL A   1      41.728  18.443  26.008  1.00  0.00    -0.269 OA
BRANCH  31  34
ATOM     34  C   UNL A   1      42.105  20.717  26.433  1.00  0.00     0.039 A 
ATOM     35  C   UNL A   1      42.599  21.482  25.375  1.00  0.00     0.014 A 
ATOM     36  C   UNL A   1      42.291  21.116  27.758  1.00  0.00     0.014 A 
ATOM     37  C   UNL A   1      43.188  22.717  25.647  1.00  0.00     0.010 A 
ATOM     38  C   UNL A   1      42.799  22.381  28.019  1.00  0.00     0.010 A 
ATOM     39  C   UNL A   1      43.233  23.201  26.965  1.00  0.00    -0.014 A 
BRANCH  39  40
ATOM     40  C   UNL A   1      43.690  24.579  27.268  1.00  0.00     0.031 A 
ATOM     41  C   UNL A   1      42.706  25.605  27.752  1.00  0.00     0.074 A 
ATOM     42  C   UNL A   1      44.965  24.930  27.007  1.00  0.00     0.049 A 
ATOM     43  N   UNL A   1      42.881  26.884  27.955  1.00  0.00    -0.248 NA
ATOM     44  C   UNL A   1      41.336  25.135  28.005  1.00  0.00     0.031 C 
ATOM     45  C   UNL A   1      46.001  24.041  26.477  1.00  0.00     0.029 A 
ATOM     46  N   UNL A   1      45.604  26.137  27.140  1.00  0.00    -0.354 N 
ATOM     47  C   UNL A   1      41.640  27.375  28.338  1.00  0.00     0.074 A 
ATOM     48  C   UNL A   1      40.711  26.268  28.289  1.00  0.00     0.031 C 
ATOM     49  C   UNL A   1      47.149  24.726  26.351  1.00  0.00     0.029 A 
ATOM     50  C   UNL A   1      46.922  26.110  26.754  1.00  0.00     0.049 A 
ATOM     51  H   UNL A   1      45.159  26.948  27.479  1.00  0.00     0.167 HD
ATOM     52  C   UNL A   1      41.311  28.632  28.720  1.00  0.00     0.037 A 
ATOM     53  C   UNL A   1      47.841  27.093  26.718  1.00  0.00     0.037 A 
ATOM     54  C   UNL A   1      42.245  29.720  28.806  1.00  0.00     0.049 A 
ATOM     55  C   UNL A   1      47.452  28.478  27.151  1.00  0.00     0.074 A 
ATOM     56  C   UNL A   1      42.029  31.007  29.265  1.00  0.00     0.029 A 
ATOM     57  N   UNL A   1      43.576  29.648  28.424  1.00  0.00    -0.354 N 
ATOM     58  N   UNL A   1      46.292  28.912  27.581  1.00  0.00    -0.248 NA
ATOM     59  C   UNL A   1      48.496  29.511  27.090  1.00  0.00     0.031 C 
ATOM     60  C   UNL A   1      43.222  31.725  29.127  1.00  0.00     0.029 A 
ATOM     61  C   UNL A   1      44.188  30.874  28.615  1.00  0.00     0.049 A 
ATOM     62  H   UNL A   1      44.020  28.843  28.070  1.00  0.00     0.167 HD
ATOM     63  C   UNL A   1      46.470  30.261  27.857  1.00  0.00     0.074 A 
ATOM     64  C   UNL A   1      47.853  30.570  27.562  1.00  0.00     0.031 C 
ATOM     65  C   UNL A   1      45.567  31.162  28.313  1.00  0.00     0.037 A 
BRANCH  52  66
ATOM     66  C   UNL A   1      39.879  28.884  29.086  1.00  0.00     0.057 A 
ATOM     67  C   UNL A   1      38.931  29.267  28.129  1.00  0.00     0.134 A 
ATOM     68  C   UNL A   1      39.438  28.722  30.405  1.00  0.00     0.134 A 
ATOM     69  F   UNL A   1      39.294  29.455  26.851  1.00  0.00    -0.206 F 
ATOM     70  C   UNL A   1      37.601  29.507  28.475  1.00  0.00     0.040 A 
ATOM     71  C   UNL A   1      38.105  28.933  30.759  1.00  0.00     0.040 A 
ATOM     72  F   UNL A   1      40.294  28.353  31.370  1.00  0.00    -0.206 F 
ATOM     73  C   UNL A   1      37.183  29.333  29.793  1.00  0.00     0.006 A 
ENDBRANCH  52  66
BRANCH  53  74
ATOM     74  C   UNL A   1      49.227  26.801  26.271  1.00  0.00     0.057 A 
ATOM     75  C   UNL A   1      50.190  26.340  27.175  1.00  0.00     0.134 A 
ATOM     76  C   UNL A   1      49.622  26.979  24.941  1.00  0.00     0.134 A 
ATOM     77  F   UNL A   1      49.874  26.170  28.468  1.00  0.00    -0.206 F 
ATOM     78  C   UNL A   1      51.502  26.080  26.777  1.00  0.00     0.040 A 
ATOM     79  C   UNL A   1      50.926  26.703  24.523  1.00  0.00     0.040 A 
ATOM     80  F   UNL A   1      48.744  27.412  24.025  1.00  0.00    -0.206 F 
ATOM     81  C   UNL A   1      51.871  26.256  25.445  1.00  0.00     0.006 A 
ENDBRANCH  53  74
BRANCH  65  82
ATOM     82  C   UNL A   1      46.050  32.563  28.530  1.00  0.00     0.057 A 
ATOM     83  C   UNL A   1      45.953  33.535  27.526  1.00  0.00     0.134 A 
ATOM     84  C   UNL A   1      46.571  32.957  29.769  1.00  0.00     0.134 A 
ATOM     85  F   UNL A   1      45.477  33.216  26.314  1.00  0.00    -0.206 F 
ATOM     86  C   UNL A   1      46.370  34.850  27.744  1.00  0.00     0.040 A 
ATOM     87  C   UNL A   1      46.970  34.273  30.005  1.00  0.00     0.040 A 
ATOM     88  F   UNL A   1      46.682  32.074  30.771  1.00  0.00    -0.206 F 
ATOM     89  C   UNL A   1      46.873  35.223  28.990  1.00  0.00     0.006 A 
ENDBRANCH  65  82
ENDBRANCH  39  40
ENDBRANCH  31  34
ENDBRANCH  29  30
ENDBRANCH  28  29
ENDBRANCH   1  28
TORSDOF 14
ENDMDL
