MODEL 1
REMARK VINA RESULT:     -11.0      0.000      0.000
REMARK SMILES CCCC[C@@H](C(=O)NCCCCNC(=O)c1ccc(-c2c3nc(c(-c4c(F)cccc4F)c4ccc([nH]4)c(-c4c(F)cccc4F)c4nc(c(-c5c(F)cccc5F)c5ccc2[nH]5)C=C4)C=C3)cc1)C1(O)Cc2ccccc2C1
REMARK SMILES IDX 10 1 9 2 8 3 6 4 7 5 5 7 4 8 3 9 2 10 1 11 70 12 72 13 79 14
REMARK SMILES IDX 73 15 78 16 74 17 77 18 75 19 76 20 71 21 11 23 12 24 13 25
REMARK SMILES IDX 14 26 15 28 16 29 17 30 69 31 18 32 68 33 19 34 20 35 21 36
REMARK SMILES IDX 62 37 22 38 67 39 61 40 63 41 23 42 66 43 60 44 59 45 24 47
REMARK SMILES IDX 50 48 33 49 49 50 34 51 37 52 48 53 64 54 35 55 36 56 47 58
REMARK SMILES IDX 65 59 38 60 25 61 26 62 31 63 27 64 28 65 30 66 32 67 29 68
REMARK SMILES IDX 51 69 52 70 57 71 53 72 54 73 56 74 58 75 55 76 39 77 40 78
REMARK SMILES IDX 45 79 41 80 42 81 44 82 46 83 43 84
REMARK H PARENT 8 6 71 22 13 27 63 46 37 57
REMARK Flexibility Score: inf
ROOT
ATOM      1  C   UNL A   1      36.844  21.094  24.852  1.00  0.00     0.023 C 
ENDROOT
BRANCH   1   2
ATOM      2  C   UNL A   1      35.458  20.720  25.363  1.00  0.00     0.116 C 
BRANCH   2   3
ATOM      3  N   UNL A   1      35.137  21.409  26.582  1.00  0.00    -0.356 N 
ATOM      4  C   UNL A   1      34.179  22.325  26.841  1.00  0.00     0.226 C 
ATOM      5  O   UNL A   1      33.686  22.177  27.966  1.00  0.00    -0.275 OA
ATOM      6  H   UNL A   1      35.706  21.176  27.351  1.00  0.00     0.163 HD
BRANCH   4   7
ATOM      7  C   UNL A   1      33.601  23.368  25.846  1.00  0.00     0.111 C 
BRANCH   7   8
ATOM      8  C   UNL A   1      33.186  24.796  26.325  1.00  0.00     0.016 C 
BRANCH   8   9
ATOM      9  C   UNL A   1      33.658  26.146  25.776  1.00  0.00     0.001 C 
BRANCH   9  10
ATOM     10  C   UNL A   1      33.081  27.431  26.346  1.00  0.00    -0.003 C 
ATOM     11  C   UNL A   1      31.579  27.342  26.541  1.00  0.00     0.004 C 
ENDBRANCH   9  10
ENDBRANCH   8   9
ENDBRANCH   7   8
BRANCH   7  12
ATOM     12  C   UNL A   1      32.311  22.767  25.050  1.00  0.00     0.084 C 
ATOM     13  C   UNL A   1      30.997  23.619  24.891  1.00  0.00     0.072 C 
ATOM     14  C   UNL A   1      32.614  22.461  23.546  1.00  0.00     0.072 C 
ATOM     15  C   UNL A   1      31.309  24.418  23.653  1.00  0.00    -0.042 A 
ATOM     16  C   UNL A   1      32.343  23.798  22.944  1.00  0.00    -0.042 A 
ATOM     17  C   UNL A   1      30.794  25.628  23.233  1.00  0.00     0.004 A 
ATOM     18  C   UNL A   1      32.990  24.433  21.902  1.00  0.00     0.004 A 
ATOM     19  C   UNL A   1      31.416  26.269  22.157  1.00  0.00     0.000 A 
ATOM     20  C   UNL A   1      32.531  25.694  21.523  1.00  0.00     0.000 A 
BRANCH  12  21
ATOM     21  O   UNL A   1      31.958  21.530  25.701  1.00  0.00    -0.388 OA
ATOM     22  H   UNL A   1      32.542  20.820  25.387  1.00  0.00     0.211 HD
ENDBRANCH  12  21
ENDBRANCH   7  12
ENDBRANCH   4   7
ENDBRANCH   2   3
ENDBRANCH   1   2
BRANCH   1  23
ATOM     23  C   UNL A   1      37.882  19.983  24.935  1.00  0.00     0.023 C 
BRANCH  23  24
ATOM     24  C   UNL A   1      39.111  20.327  25.767  1.00  0.00     0.116 C 
BRANCH  24  25
ATOM     25  N   UNL A   1      40.173  19.331  25.719  1.00  0.00    -0.352 N 
ATOM     26  C   UNL A   1      41.493  19.477  26.080  1.00  0.00     0.251 C 
ATOM     27  H   UNL A   1      39.913  18.441  25.386  1.00  0.00     0.163 HD
ATOM     28  O   UNL A   1      42.292  18.568  25.925  1.00  0.00    -0.269 OA
BRANCH  26  29
ATOM     29  C   UNL A   1      41.933  20.781  26.617  1.00  0.00     0.039 A 
ATOM     30  C   UNL A   1      42.333  21.777  25.725  1.00  0.00     0.014 A 
ATOM     31  C   UNL A   1      41.873  21.033  27.989  1.00  0.00     0.014 A 
ATOM     32  C   UNL A   1      42.609  23.055  26.210  1.00  0.00     0.010 A 
ATOM     33  C   UNL A   1      42.047  22.328  28.454  1.00  0.00     0.010 A 
ATOM     34  C   UNL A   1      42.433  23.347  27.572  1.00  0.00    -0.014 A 
BRANCH  34  35
ATOM     35  C   UNL A   1      42.690  24.705  28.107  1.00  0.00     0.031 A 
ATOM     36  C   UNL A   1      44.085  25.091  28.515  1.00  0.00     0.074 A 
ATOM     37  C   UNL A   1      41.666  25.562  28.285  1.00  0.00     0.049 A 
ATOM     38  N   UNL A   1      44.513  26.204  29.054  1.00  0.00    -0.248 NA
ATOM     39  C   UNL A   1      45.134  24.073  28.335  1.00  0.00     0.031 C 
ATOM     40  C   UNL A   1      40.258  25.276  27.999  1.00  0.00     0.029 A 
ATOM     41  N   UNL A   1      41.654  26.851  28.752  1.00  0.00    -0.354 N 
ATOM     42  C   UNL A   1      45.866  26.007  29.299  1.00  0.00     0.074 A 
ATOM     43  C   UNL A   1      46.176  24.650  28.913  1.00  0.00     0.031 C 
ATOM     44  C   UNL A   1      39.524  26.369  28.268  1.00  0.00     0.029 A 
ATOM     45  C   UNL A   1      40.405  27.422  28.763  1.00  0.00     0.049 A 
ATOM     46  H   UNL A   1      42.465  27.323  29.053  1.00  0.00     0.167 HD
ATOM     47  C   UNL A   1      46.777  26.889  29.772  1.00  0.00     0.037 A 
ATOM     48  C   UNL A   1      40.021  28.662  29.121  1.00  0.00     0.037 A 
ATOM     49  C   UNL A   1      46.475  28.255  30.101  1.00  0.00     0.049 A 
ATOM     50  C   UNL A   1      41.065  29.646  29.572  1.00  0.00     0.074 A 
ATOM     51  C   UNL A   1      47.335  29.253  30.523  1.00  0.00     0.029 A 
ATOM     52  N   UNL A   1      45.209  28.818  30.028  1.00  0.00    -0.354 N 
ATOM     53  N   UNL A   1      42.355  29.470  29.728  1.00  0.00    -0.248 NA
ATOM     54  C   UNL A   1      40.603  31.007  29.874  1.00  0.00     0.031 C 
ATOM     55  C   UNL A   1      46.584  30.416  30.728  1.00  0.00     0.029 A 
ATOM     56  C   UNL A   1      45.266  30.151  30.396  1.00  0.00     0.049 A 
ATOM     57  H   UNL A   1      44.393  28.341  29.755  1.00  0.00     0.167 HD
ATOM     58  C   UNL A   1      42.863  30.704  30.113  1.00  0.00     0.074 A 
ATOM     59  C   UNL A   1      41.743  31.622  30.152  1.00  0.00     0.031 C 
ATOM     60  C   UNL A   1      44.140  31.048  30.408  1.00  0.00     0.037 A 
BRANCH  47  61
ATOM     61  C   UNL A   1      48.187  26.402  29.935  1.00  0.00     0.057 A 
ATOM     62  C   UNL A   1      48.626  25.797  31.121  1.00  0.00     0.134 A 
ATOM     63  C   UNL A   1      49.114  26.529  28.893  1.00  0.00     0.134 A 
ATOM     64  F   UNL A   1      47.793  25.662  32.164  1.00  0.00    -0.206 F 
ATOM     65  C   UNL A   1      49.942  25.361  31.274  1.00  0.00     0.040 A 
ATOM     66  C   UNL A   1      50.426  26.071  29.025  1.00  0.00     0.040 A 
ATOM     67  F   UNL A   1      48.759  27.098  27.732  1.00  0.00    -0.206 F 
ATOM     68  C   UNL A   1      50.845  25.492  30.221  1.00  0.00     0.006 A 
ENDBRANCH  47  61
BRANCH  48  69
ATOM     69  C   UNL A   1      38.597  29.064  29.015  1.00  0.00     0.057 A 
ATOM     70  C   UNL A   1      38.075  29.554  27.812  1.00  0.00     0.134 A 
ATOM     71  C   UNL A   1      37.728  28.985  30.110  1.00  0.00     0.134 A 
ATOM     72  F   UNL A   1      38.863  29.667  26.732  1.00  0.00    -0.206 F 
ATOM     73  C   UNL A   1      36.750  29.979  27.708  1.00  0.00     0.040 A 
ATOM     74  C   UNL A   1      36.395  29.384  30.013  1.00  0.00     0.040 A 
ATOM     75  F   UNL A   1      38.163  28.512  31.287  1.00  0.00    -0.206 F 
ATOM     76  C   UNL A   1      35.904  29.893  28.811  1.00  0.00     0.006 A 
ENDBRANCH  48  69
BRANCH  60  77
ATOM     77  C   UNL A   1      44.397  32.486  30.746  1.00  0.00     0.057 A 
ATOM     78  C   UNL A   1      44.336  32.960  32.062  1.00  0.00     0.134 A 
ATOM     79  C   UNL A   1      44.735  33.401  29.741  1.00  0.00     0.134 A 
ATOM     80  F   UNL A   1      44.007  32.135  33.068  1.00  0.00    -0.206 F 
ATOM     81  C   UNL A   1      44.573  34.302  32.364  1.00  0.00     0.040 A 
ATOM     82  C   UNL A   1      44.999  34.739  30.034  1.00  0.00     0.040 A 
ATOM     83  F   UNL A   1      44.820  33.008  28.461  1.00  0.00    -0.206 F 
ATOM     84  C   UNL A   1      44.910  35.195  31.348  1.00  0.00     0.006 A 
ENDBRANCH  60  77
ENDBRANCH  34  35
ENDBRANCH  26  29
ENDBRANCH  24  25
ENDBRANCH  23  24
ENDBRANCH   1  23
TORSDOF 16
ENDMDL
MODEL 2
REMARK VINA RESULT:     -11.0      4.515      9.299
REMARK SMILES CCCC[C@@H](C(=O)NCCCCNC(=O)c1ccc(-c2c3nc(c(-c4c(F)cccc4F)c4ccc([nH]4)c(-c4c(F)cccc4F)c4nc(c(-c5c(F)cccc5F)c5ccc2[nH]5)C=C4)C=C3)cc1)C1(O)Cc2ccccc2C1
REMARK SMILES IDX 10 1 9 2 8 3 6 4 7 5 5 7 4 8 3 9 2 10 1 11 70 12 72 13 79 14
REMARK SMILES IDX 73 15 78 16 74 17 77 18 75 19 76 20 71 21 11 23 12 24 13 25
REMARK SMILES IDX 14 26 15 28 16 29 17 30 69 31 18 32 68 33 19 34 20 35 21 36
REMARK SMILES IDX 62 37 22 38 67 39 61 40 63 41 23 42 66 43 60 44 59 45 24 47
REMARK SMILES IDX 50 48 33 49 49 50 34 51 37 52 48 53 64 54 35 55 36 56 47 58
REMARK SMILES IDX 65 59 38 60 25 61 26 62 31 63 27 64 28 65 30 66 32 67 29 68
REMARK SMILES IDX 51 69 52 70 57 71 53 72 54 73 56 74 58 75 55 76 39 77 40 78
REMARK SMILES IDX 45 79 41 80 42 81 44 82 46 83 43 84
REMARK H PARENT 8 6 71 22 13 27 63 46 37 57
REMARK Flexibility Score: inf
ROOT
ATOM      1  C   UNL A   1      31.772  30.374  26.473  1.00  0.00     0.023 C 
ENDROOT
BRANCH   1   2
ATOM      2  C   UNL A   1      31.531  29.924  25.036  1.00  0.00     0.116 C 
BRANCH   2   3
ATOM      3  N   UNL A   1      32.765  29.703  24.335  1.00  0.00    -0.356 N 
ATOM      4  C   UNL A   1      33.216  28.608  23.685  1.00  0.00     0.226 C 
ATOM      5  O   UNL A   1      33.842  28.900  22.660  1.00  0.00    -0.275 OA
ATOM      6  H   UNL A   1      33.380  30.472  24.326  1.00  0.00     0.163 HD
BRANCH   4   7
ATOM      7  C   UNL A   1      32.897  27.128  24.033  1.00  0.00     0.111 C 
BRANCH   7   8
ATOM      8  C   UNL A   1      33.944  25.996  23.777  1.00  0.00     0.016 C 
BRANCH   8   9
ATOM      9  C   UNL A   1      34.646  25.114  24.813  1.00  0.00     0.001 C 
BRANCH   9  10
ATOM     10  C   UNL A   1      33.904  24.700  26.073  1.00  0.00    -0.003 C 
ATOM     11  C   UNL A   1      34.335  23.330  26.562  1.00  0.00     0.004 C 
ENDBRANCH   9  10
ENDBRANCH   8   9
ENDBRANCH   7   8
BRANCH   7  12
ATOM     12  C   UNL A   1      31.520  26.640  23.310  1.00  0.00     0.084 C 
ATOM     13  C   UNL A   1      31.394  25.185  22.721  1.00  0.00     0.072 C 
ATOM     14  C   UNL A   1      30.292  26.642  24.279  1.00  0.00     0.072 C 
ATOM     15  C   UNL A   1      30.958  24.410  23.935  1.00  0.00    -0.042 A 
ATOM     16  C   UNL A   1      30.433  25.288  24.889  1.00  0.00    -0.042 A 
ATOM     17  C   UNL A   1      31.090  23.063  24.215  1.00  0.00     0.004 A 
ATOM     18  C   UNL A   1      30.178  24.884  26.184  1.00  0.00     0.004 A 
ATOM     19  C   UNL A   1      30.803  22.632  25.513  1.00  0.00     0.000 A 
ATOM     20  C   UNL A   1      30.389  23.543  26.501  1.00  0.00     0.000 A 
BRANCH  12  21
ATOM     21  O   UNL A   1      31.255  27.572  22.243  1.00  0.00    -0.388 OA
ATOM     22  H   UNL A   1      31.028  27.085  21.435  1.00  0.00     0.211 HD
ENDBRANCH  12  21
ENDBRANCH   7  12
ENDBRANCH   4   7
ENDBRANCH   2   3
ENDBRANCH   1   2
BRANCH   1  23
ATOM     23  C   UNL A   1      31.453  31.837  26.751  1.00  0.00     0.023 C 
BRANCH  23  24
ATOM     24  C   UNL A   1      32.641  32.664  27.223  1.00  0.00     0.116 C 
BRANCH  24  25
ATOM     25  N   UNL A   1      32.310  34.024  27.625  1.00  0.00    -0.352 N 
ATOM     26  C   UNL A   1      32.958  34.822  28.541  1.00  0.00     0.251 C 
ATOM     27  H   UNL A   1      31.523  34.423  27.187  1.00  0.00     0.163 HD
ATOM     28  O   UNL A   1      32.528  35.928  28.828  1.00  0.00    -0.269 OA
BRANCH  26  29
ATOM     29  C   UNL A   1      34.164  34.290  29.207  1.00  0.00     0.039 A 
ATOM     30  C   UNL A   1      34.009  33.445  30.307  1.00  0.00     0.014 A 
ATOM     31  C   UNL A   1      35.432  34.565  28.691  1.00  0.00     0.014 A 
ATOM     32  C   UNL A   1      35.131  32.820  30.850  1.00  0.00     0.010 A 
ATOM     33  C   UNL A   1      36.531  33.864  29.166  1.00  0.00     0.010 A 
ATOM     34  C   UNL A   1      36.394  32.998  30.260  1.00  0.00    -0.014 A 
BRANCH  34  35
ATOM     35  C   UNL A   1      37.596  32.321  30.800  1.00  0.00     0.031 A 
ATOM     36  C   UNL A   1      38.203  32.802  32.090  1.00  0.00     0.074 A 
ATOM     37  C   UNL A   1      38.177  31.325  30.103  1.00  0.00     0.049 A 
ATOM     38  N   UNL A   1      39.281  32.386  32.704  1.00  0.00    -0.248 NA
ATOM     39  C   UNL A   1      37.534  33.931  32.758  1.00  0.00     0.031 C 
ATOM     40  C   UNL A   1      37.727  30.823  28.803  1.00  0.00     0.029 A 
ATOM     41  N   UNL A   1      39.276  30.558  30.393  1.00  0.00    -0.354 N 
ATOM     42  C   UNL A   1      39.430  33.217  33.806  1.00  0.00     0.074 A 
ATOM     43  C   UNL A   1      38.373  34.200  33.745  1.00  0.00     0.031 C 
ATOM     44  C   UNL A   1      38.524  29.810  28.423  1.00  0.00     0.029 A 
ATOM     45  C   UNL A   1      39.550  29.607  29.440  1.00  0.00     0.049 A 
ATOM     46  H   UNL A   1      39.817  30.677  31.206  1.00  0.00     0.167 HD
ATOM     47  C   UNL A   1      40.345  33.147  34.801  1.00  0.00     0.037 A 
ATOM     48  C   UNL A   1      40.516  28.670  29.404  1.00  0.00     0.037 A 
ATOM     49  C   UNL A   1      41.359  32.132  34.889  1.00  0.00     0.049 A 
ATOM     50  C   UNL A   1      41.474  28.566  30.558  1.00  0.00     0.074 A 
ATOM     51  C   UNL A   1      42.293  31.927  35.887  1.00  0.00     0.029 A 
ATOM     52  N   UNL A   1      41.559  31.140  33.940  1.00  0.00    -0.354 N 
ATOM     53  N   UNL A   1      41.557  29.311  31.634  1.00  0.00    -0.248 NA
ATOM     54  C   UNL A   1      42.457  27.475  30.505  1.00  0.00     0.031 C 
ATOM     55  C   UNL A   1      43.075  30.823  35.532  1.00  0.00     0.029 A 
ATOM     56  C   UNL A   1      42.601  30.319  34.331  1.00  0.00     0.049 A 
ATOM     57  H   UNL A   1      41.037  31.036  33.111  1.00  0.00     0.167 HD
ATOM     58  C   UNL A   1      42.577  28.760  32.400  1.00  0.00     0.074 A 
ATOM     59  C   UNL A   1      43.071  27.611  31.671  1.00  0.00     0.031 C 
ATOM     60  C   UNL A   1      43.061  29.168  33.598  1.00  0.00     0.037 A 
BRANCH  47  61
ATOM     61  C   UNL A   1      40.267  34.184  35.883  1.00  0.00     0.057 A 
ATOM     62  C   UNL A   1      39.500  33.989  37.039  1.00  0.00     0.134 A 
ATOM     63  C   UNL A   1      40.977  35.386  35.774  1.00  0.00     0.134 A 
ATOM     64  F   UNL A   1      38.781  32.867  37.197  1.00  0.00    -0.206 F 
ATOM     65  C   UNL A   1      39.417  34.963  38.035  1.00  0.00     0.040 A 
ATOM     66  C   UNL A   1      40.925  36.357  36.776  1.00  0.00     0.040 A 
ATOM     67  F   UNL A   1      41.731  35.637  34.694  1.00  0.00    -0.206 F 
ATOM     68  C   UNL A   1      40.137  36.150  37.907  1.00  0.00     0.006 A 
ENDBRANCH  47  61
BRANCH  48  69
ATOM     69  C   UNL A   1      40.594  27.719  28.267  1.00  0.00     0.057 A 
ATOM     70  C   UNL A   1      39.929  26.488  28.312  1.00  0.00     0.134 A 
ATOM     71  C   UNL A   1      41.343  28.007  27.120  1.00  0.00     0.134 A 
ATOM     72  F   UNL A   1      39.208  26.150  29.391  1.00  0.00    -0.206 F 
ATOM     73  C   UNL A   1      40.028  25.564  27.271  1.00  0.00     0.040 A 
ATOM     74  C   UNL A   1      41.431  27.101  26.062  1.00  0.00     0.040 A 
ATOM     75  F   UNL A   1      41.992  29.174  27.010  1.00  0.00    -0.206 F 
ATOM     76  C   UNL A   1      40.781  25.870  26.139  1.00  0.00     0.006 A 
ENDBRANCH  48  69
BRANCH  60  77
ATOM     77  C   UNL A   1      44.144  28.334  34.214  1.00  0.00     0.057 A 
ATOM     78  C   UNL A   1      45.501  28.624  34.023  1.00  0.00     0.134 A 
ATOM     79  C   UNL A   1      43.821  27.243  35.030  1.00  0.00     0.134 A 
ATOM     80  F   UNL A   1      45.875  29.650  33.244  1.00  0.00    -0.206 F 
ATOM     81  C   UNL A   1      46.500  27.837  34.599  1.00  0.00     0.040 A 
ATOM     82  C   UNL A   1      44.811  26.465  35.631  1.00  0.00     0.040 A 
ATOM     83  F   UNL A   1      42.539  26.920  35.260  1.00  0.00    -0.206 F 
ATOM     84  C   UNL A   1      46.155  26.756  35.409  1.00  0.00     0.006 A 
ENDBRANCH  60  77
ENDBRANCH  34  35
ENDBRANCH  26  29
ENDBRANCH  24  25
ENDBRANCH  23  24
ENDBRANCH   1  23
TORSDOF 16
ENDMDL
MODEL 3
REMARK VINA RESULT:     -11.0      1.262      1.725
REMARK SMILES CCCC[C@@H](C(=O)NCCCCNC(=O)c1ccc(-c2c3nc(c(-c4c(F)cccc4F)c4ccc([nH]4)c(-c4c(F)cccc4F)c4nc(c(-c5c(F)cccc5F)c5ccc2[nH]5)C=C4)C=C3)cc1)C1(O)Cc2ccccc2C1
REMARK SMILES IDX 10 1 9 2 8 3 6 4 7 5 5 7 4 8 3 9 2 10 1 11 70 12 72 13 79 14
REMARK SMILES IDX 73 15 78 16 74 17 77 18 75 19 76 20 71 21 11 23 12 24 13 25
REMARK SMILES IDX 14 26 15 28 16 29 17 30 69 31 18 32 68 33 19 34 20 35 21 36
REMARK SMILES IDX 62 37 22 38 67 39 61 40 63 41 23 42 66 43 60 44 59 45 24 47
REMARK SMILES IDX 50 48 33 49 49 50 34 51 37 52 48 53 64 54 35 55 36 56 47 58
REMARK SMILES IDX 65 59 38 60 25 61 26 62 31 63 27 64 28 65 30 66 32 67 29 68
REMARK SMILES IDX 51 69 52 70 57 71 53 72 54 73 56 74 58 75 55 76 39 77 40 78
REMARK SMILES IDX 45 79 41 80 42 81 44 82 46 83 43 84
REMARK H PARENT 8 6 71 22 13 27 63 46 37 57
REMARK Flexibility Score: inf
ROOT
ATOM      1  C   UNL A   1      36.967  20.928  24.788  1.00  0.00     0.023 C 
ENDROOT
BRANCH   1   2
ATOM      2  C   UNL A   1      35.540  20.704  25.275  1.00  0.00     0.116 C 
BRANCH   2   3
ATOM      3  N   UNL A   1      35.279  21.411  26.498  1.00  0.00    -0.356 N 
ATOM      4  C   UNL A   1      34.330  22.326  26.793  1.00  0.00     0.226 C 
ATOM      5  O   UNL A   1      33.897  22.193  27.944  1.00  0.00    -0.275 OA
ATOM      6  H   UNL A   1      35.888  21.193  27.240  1.00  0.00     0.163 HD
BRANCH   4   7
ATOM      7  C   UNL A   1      33.695  23.350  25.813  1.00  0.00     0.111 C 
BRANCH   7   8
ATOM      8  C   UNL A   1      33.239  24.761  26.306  1.00  0.00     0.016 C 
BRANCH   8   9
ATOM      9  C   UNL A   1      33.640  26.128  25.744  1.00  0.00     0.001 C 
BRANCH   9  10
ATOM     10  C   UNL A   1      32.934  27.380  26.239  1.00  0.00    -0.003 C 
ATOM     11  C   UNL A   1      31.445  27.154  26.430  1.00  0.00     0.004 C 
ENDBRANCH   9  10
ENDBRANCH   8   9
ENDBRANCH   7   8
BRANCH   7  12
ATOM     12  C   UNL A   1      32.412  22.705  25.041  1.00  0.00     0.084 C 
ATOM     13  C   UNL A   1      31.077  23.523  24.882  1.00  0.00     0.072 C 
ATOM     14  C   UNL A   1      32.707  22.381  23.539  1.00  0.00     0.072 C 
ATOM     15  C   UNL A   1      31.357  24.308  23.628  1.00  0.00    -0.042 A 
ATOM     16  C   UNL A   1      32.397  23.701  22.918  1.00  0.00    -0.042 A 
ATOM     17  C   UNL A   1      30.808  25.499  23.194  1.00  0.00     0.004 A 
ATOM     18  C   UNL A   1      33.018  24.334  21.859  1.00  0.00     0.004 A 
ATOM     19  C   UNL A   1      31.403  26.136  22.101  1.00  0.00     0.000 A 
ATOM     20  C   UNL A   1      32.525  25.577  21.464  1.00  0.00     0.000 A 
BRANCH  12  21
ATOM     21  O   UNL A   1      32.096  21.471  25.716  1.00  0.00    -0.388 OA
ATOM     22  H   UNL A   1      32.391  21.522  26.639  1.00  0.00     0.211 HD
ENDBRANCH  12  21
ENDBRANCH   7  12
ENDBRANCH   4   7
ENDBRANCH   2   3
ENDBRANCH   1   2
BRANCH   1  23
ATOM     23  C   UNL A   1      37.911  19.752  25.000  1.00  0.00     0.023 C 
BRANCH  23  24
ATOM     24  C   UNL A   1      39.186  20.095  25.759  1.00  0.00     0.116 C 
BRANCH  24  25
ATOM     25  N   UNL A   1      40.196  19.045  25.750  1.00  0.00    -0.352 N 
ATOM     26  C   UNL A   1      41.543  19.158  26.015  1.00  0.00     0.251 C 
ATOM     27  H   UNL A   1      39.876  18.141  25.526  1.00  0.00     0.163 HD
ATOM     28  O   UNL A   1      42.288  18.198  25.906  1.00  0.00    -0.269 OA
BRANCH  26  29
ATOM     29  C   UNL A   1      42.076  20.484  26.388  1.00  0.00     0.039 A 
ATOM     30  C   UNL A   1      42.459  21.365  25.375  1.00  0.00     0.014 A 
ATOM     31  C   UNL A   1      42.118  20.874  27.727  1.00  0.00     0.014 A 
ATOM     32  C   UNL A   1      42.823  22.669  25.709  1.00  0.00     0.010 A 
ATOM     33  C   UNL A   1      42.381  22.198  28.047  1.00  0.00     0.010 A 
ATOM     34  C   UNL A   1      42.752  23.104  27.043  1.00  0.00    -0.014 A 
BRANCH  34  35
ATOM     35  C   UNL A   1      43.105  24.493  27.419  1.00  0.00     0.031 A 
ATOM     36  C   UNL A   1      44.541  24.937  27.360  1.00  0.00     0.074 A 
ATOM     37  C   UNL A   1      42.151  25.329  27.872  1.00  0.00     0.049 A 
ATOM     38  N   UNL A   1      45.067  26.087  27.696  1.00  0.00    -0.248 NA
ATOM     39  C   UNL A   1      45.524  23.941  26.902  1.00  0.00     0.031 C 
ATOM     40  C   UNL A   1      40.736  24.991  28.049  1.00  0.00     0.029 A 
ATOM     41  N   UNL A   1      42.230  26.639  28.271  1.00  0.00    -0.354 N 
ATOM     42  C   UNL A   1      46.436  25.940  27.517  1.00  0.00     0.074 A 
ATOM     43  C   UNL A   1      46.669  24.574  27.106  1.00  0.00     0.031 C 
ATOM     44  C   UNL A   1      40.077  26.075  28.490  1.00  0.00     0.029 A 
ATOM     45  C   UNL A   1      41.023  27.175  28.647  1.00  0.00     0.049 A 
ATOM     46  H   UNL A   1      43.073  27.147  28.287  1.00  0.00     0.167 HD
ATOM     47  C   UNL A   1      47.411  26.869  27.650  1.00  0.00     0.037 A 
ATOM     48  C   UNL A   1      40.717  28.420  29.059  1.00  0.00     0.037 A 
ATOM     49  C   UNL A   1      47.170  28.241  28.004  1.00  0.00     0.049 A 
ATOM     50  C   UNL A   1      41.807  29.453  29.126  1.00  0.00     0.074 A 
ATOM     51  C   UNL A   1      48.075  29.282  28.100  1.00  0.00     0.029 A 
ATOM     52  N   UNL A   1      45.920  28.764  28.306  1.00  0.00    -0.354 N 
ATOM     53  N   UNL A   1      43.088  29.321  28.881  1.00  0.00    -0.248 NA
ATOM     54  C   UNL A   1      41.404  30.815  29.503  1.00  0.00     0.031 C 
ATOM     55  C   UNL A   1      47.377  30.432  28.483  1.00  0.00     0.029 A 
ATOM     56  C   UNL A   1      46.032  30.114  28.587  1.00  0.00     0.049 A 
ATOM     57  H   UNL A   1      45.080  28.251  28.318  1.00  0.00     0.167 HD
ATOM     58  C   UNL A   1      43.638  30.586  29.041  1.00  0.00     0.074 A 
ATOM     59  C   UNL A   1      42.548  31.473  29.391  1.00  0.00     0.031 C 
ATOM     60  C   UNL A   1      44.929  30.980  28.912  1.00  0.00     0.037 A 
BRANCH  47  61
ATOM     61  C   UNL A   1      48.822  26.430  27.387  1.00  0.00     0.057 A 
ATOM     62  C   UNL A   1      49.659  25.980  28.417  1.00  0.00     0.134 A 
ATOM     63  C   UNL A   1      49.346  26.445  26.089  1.00  0.00     0.134 A 
ATOM     64  F   UNL A   1      49.225  25.959  29.686  1.00  0.00    -0.206 F 
ATOM     65  C   UNL A   1      50.976  25.589  28.170  1.00  0.00     0.040 A 
ATOM     66  C   UNL A   1      50.652  26.029  25.825  1.00  0.00     0.040 A 
ATOM     67  F   UNL A   1      48.598  26.863  25.056  1.00  0.00    -0.206 F 
ATOM     68  C   UNL A   1      51.474  25.607  26.869  1.00  0.00     0.006 A 
ENDBRANCH  47  61
BRANCH  48  69
ATOM     69  C   UNL A   1      39.314  28.776  29.384  1.00  0.00     0.057 A 
ATOM     70  C   UNL A   1      38.468  29.327  28.414  1.00  0.00     0.134 A 
ATOM     71  C   UNL A   1      38.789  28.593  30.669  1.00  0.00     0.134 A 
ATOM     72  F   UNL A   1      38.918  29.540  27.169  1.00  0.00    -0.206 F 
ATOM     73  C   UNL A   1      37.160  29.710  28.715  1.00  0.00     0.040 A 
ATOM     74  C   UNL A   1      37.475  28.950  30.977  1.00  0.00     0.040 A 
ATOM     75  F   UNL A   1      39.544  28.058  31.639  1.00  0.00    -0.206 F 
ATOM     76  C   UNL A   1      36.659  29.519  30.001  1.00  0.00     0.006 A 
ENDBRANCH  48  69
BRANCH  60  77
ATOM     77  C   UNL A   1      45.217  32.439  29.099  1.00  0.00     0.057 A 
ATOM     78  C   UNL A   1      45.125  33.353  28.043  1.00  0.00     0.134 A 
ATOM     79  C   UNL A   1      45.567  32.937  30.361  1.00  0.00     0.134 A 
ATOM     80  F   UNL A   1      44.805  32.937  26.808  1.00  0.00    -0.206 F 
ATOM     81  C   UNL A   1      45.402  34.709  28.229  1.00  0.00     0.040 A 
ATOM     82  C   UNL A   1      45.821  34.293  30.564  1.00  0.00     0.040 A 
ATOM     83  F   UNL A   1      45.663  32.113  31.416  1.00  0.00    -0.206 F 
ATOM     84  C   UNL A   1      45.745  35.182  29.494  1.00  0.00     0.006 A 
ENDBRANCH  60  77
ENDBRANCH  34  35
ENDBRANCH  26  29
ENDBRANCH  24  25
ENDBRANCH  23  24
ENDBRANCH   1  23
TORSDOF 16
ENDMDL
