MODEL 1
REMARK VINA RESULT:     -12.1      0.000      0.000
REMARK SMILES Cc1[nH]c2ccccc2c1[C@@H](C(=O)NCCCCNC(=O)c1ccc(-c2c3nc(c(-c4c(F)cccc4F)c4ccc([nH]4)c(-c4c(F)cccc4F)c4nc(c(-c5c(F)cccc5F)c5ccc2[nH]5)C=C4)C=C3)cc1)[NH+]1CCCC1
REMARK SMILES IDX 17 1 16 2 15 3 14 4 12 5 13 6 11 8 10 9 1 10 2 11 3 12 4 13
REMARK SMILES IDX 9 15 5 16 8 17 6 18 7 19 76 20 77 21 80 22 78 24 79 25 18 26
REMARK SMILES IDX 19 27 20 28 21 30 22 31 23 32 75 33 24 34 74 35 25 36 26 37
REMARK SMILES IDX 27 38 68 39 28 40 73 41 67 42 69 43 29 44 72 45 66 46 65 47
REMARK SMILES IDX 30 49 56 50 39 51 55 52 40 53 43 54 54 55 70 56 41 57 42 58
REMARK SMILES IDX 53 60 71 61 44 62 31 63 32 64 37 65 33 66 34 67 36 68 38 69
REMARK SMILES IDX 35 70 57 71 58 72 63 73 59 74 60 75 62 76 64 77 61 78 45 79
REMARK SMILES IDX 46 80 51 81 47 82 48 83 50 84 52 85 49 86
REMARK H PARENT 14 7 3 14 76 23 19 29 69 48 43 59
REMARK Flexibility Score: inf
ROOT
ATOM      1  C   UNL A   1      31.377  30.069  26.519  1.00  0.00     0.023 C 
ENDROOT
BRANCH   1   2
ATOM      2  C   UNL A   1      31.786  29.028  27.562  1.00  0.00     0.023 C 
BRANCH   2   3
ATOM      3  C   UNL A   1      32.183  27.669  26.987  1.00  0.00     0.116 C 
BRANCH   3   4
ATOM      4  N   UNL A   1      31.034  26.814  26.763  1.00  0.00    -0.351 N 
ATOM      5  C   UNL A   1      30.615  26.213  25.598  1.00  0.00     0.283 C 
ATOM      6  O   UNL A   1      29.559  25.576  25.665  1.00  0.00    -0.268 OA
ATOM      7  H   UNL A   1      30.476  26.638  27.555  1.00  0.00     0.163 HD
BRANCH   5   8
ATOM      8  C   UNL A   1      31.498  26.333  24.315  1.00  0.00     0.307 C 
BRANCH   8   9
ATOM      9  C   UNL A   1      31.288  27.641  23.575  1.00  0.00     0.047 A 
ATOM     10  C   UNL A   1      33.770  28.507  23.361  1.00  0.00     0.065 C 
ATOM     11  C   UNL A   1      32.294  28.521  23.172  1.00  0.00     0.022 A 
ATOM     12  N   UNL A   1      31.703  29.551  22.485  1.00  0.00    -0.358 N 
ATOM     13  C   UNL A   1      30.340  29.405  22.469  1.00  0.00     0.046 A 
ATOM     14  H   UNL A   1      32.191  30.294  22.062  1.00  0.00     0.166 HD
ATOM     15  C   UNL A   1      30.039  28.251  23.189  1.00  0.00     0.009 A 
ATOM     16  C   UNL A   1      29.364  30.215  21.875  1.00  0.00     0.027 A 
ATOM     17  C   UNL A   1      28.676  27.931  23.373  1.00  0.00     0.011 A 
ATOM     18  C   UNL A   1      28.027  29.843  22.033  1.00  0.00     0.002 A 
ATOM     19  C   UNL A   1      27.685  28.723  22.781  1.00  0.00     0.001 A 
ENDBRANCH   8   9
BRANCH   8  20
ATOM     20  N   UNL A   1      31.447  25.121  23.454  1.00  0.00    -0.321 N 
ATOM     21  C   UNL A   1      32.236  23.986  23.936  1.00  0.00     0.263 C 
ATOM     22  C   UNL A   1      31.792  25.272  22.043  1.00  0.00     0.263 C 
ATOM     23  H   UNL A   1      30.446  24.944  23.529  1.00  0.00     0.349 HD
ATOM     24  C   UNL A   1      33.538  24.012  23.154  1.00  0.00     0.067 C 
ATOM     25  C   UNL A   1      33.198  24.716  21.852  1.00  0.00     0.067 C 
ENDBRANCH   8  20
ENDBRANCH   5   8
ENDBRANCH   3   4
ENDBRANCH   2   3
ENDBRANCH   1   2
BRANCH   1  26
ATOM     26  C   UNL A   1      32.455  31.082  26.156  1.00  0.00     0.116 C 
BRANCH  26  27
ATOM     27  N   UNL A   1      32.223  32.401  26.727  1.00  0.00    -0.352 N 
ATOM     28  C   UNL A   1      33.004  33.104  27.619  1.00  0.00     0.251 C 
ATOM     29  H   UNL A   1      31.396  32.851  26.439  1.00  0.00     0.163 HD
ATOM     30  O   UNL A   1      32.622  34.165  28.084  1.00  0.00    -0.269 OA
BRANCH  28  31
ATOM     31  C   UNL A   1      34.298  32.527  28.040  1.00  0.00     0.039 A 
ATOM     32  C   UNL A   1      35.414  33.365  28.117  1.00  0.00     0.014 A 
ATOM     33  C   UNL A   1      34.389  31.187  28.422  1.00  0.00     0.014 A 
ATOM     34  C   UNL A   1      36.600  32.881  28.670  1.00  0.00     0.010 A 
ATOM     35  C   UNL A   1      35.552  30.724  29.029  1.00  0.00     0.010 A 
ATOM     36  C   UNL A   1      36.659  31.574  29.179  1.00  0.00    -0.014 A 
BRANCH  36  37
ATOM     37  C   UNL A   1      37.846  31.086  29.924  1.00  0.00     0.031 A 
ATOM     38  C   UNL A   1      38.781  30.097  29.296  1.00  0.00     0.074 A 
ATOM     39  C   UNL A   1      38.017  31.462  31.207  1.00  0.00     0.049 A 
ATOM     40  N   UNL A   1      39.796  29.467  29.831  1.00  0.00    -0.248 NA
ATOM     41  C   UNL A   1      38.527  29.749  27.889  1.00  0.00     0.031 C 
ATOM     42  C   UNL A   1      37.147  32.378  31.946  1.00  0.00     0.029 A 
ATOM     43  N   UNL A   1      38.970  31.097  32.125  1.00  0.00    -0.354 N 
ATOM     44  C   UNL A   1      40.290  28.635  28.834  1.00  0.00     0.074 A 
ATOM     45  C   UNL A   1      39.442  28.814  27.675  1.00  0.00     0.031 C 
ATOM     46  C   UNL A   1      37.610  32.511  33.200  1.00  0.00     0.029 A 
ATOM     47  C   UNL A   1      38.783  31.660  33.364  1.00  0.00     0.049 A 
ATOM     48  H   UNL A   1      39.717  30.491  31.916  1.00  0.00     0.167 HD
ATOM     49  C   UNL A   1      41.364  27.812  28.879  1.00  0.00     0.037 A 
ATOM     50  C   UNL A   1      39.469  31.494  34.512  1.00  0.00     0.037 A 
ATOM     51  C   UNL A   1      42.223  27.660  30.024  1.00  0.00     0.049 A 
ATOM     52  C   UNL A   1      40.649  30.564  34.537  1.00  0.00     0.074 A 
ATOM     53  C   UNL A   1      43.385  26.917  30.135  1.00  0.00     0.029 A 
ATOM     54  N   UNL A   1      42.008  28.256  31.256  1.00  0.00    -0.354 N 
ATOM     55  N   UNL A   1      41.150  29.842  33.565  1.00  0.00    -0.248 NA
ATOM     56  C   UNL A   1      41.355  30.423  35.819  1.00  0.00     0.031 C 
ATOM     57  C   UNL A   1      43.853  27.031  31.448  1.00  0.00     0.029 A 
ATOM     58  C   UNL A   1      43.001  27.874  32.143  1.00  0.00     0.049 A 
ATOM     59  H   UNL A   1      41.261  28.861  31.470  1.00  0.00     0.167 HD
ATOM     60  C   UNL A   1      42.237  29.173  34.112  1.00  0.00     0.074 A 
ATOM     61  C   UNL A   1      42.332  29.588  35.496  1.00  0.00     0.031 C 
ATOM     62  C   UNL A   1      43.079  28.293  33.519  1.00  0.00     0.037 A 
BRANCH  49  63
ATOM     63  C   UNL A   1      41.675  27.014  27.649  1.00  0.00     0.057 A 
ATOM     64  C   UNL A   1      42.470  27.532  26.618  1.00  0.00     0.134 A 
ATOM     65  C   UNL A   1      41.209  25.701  27.512  1.00  0.00     0.134 A 
ATOM     66  F   UNL A   1      42.936  28.787  26.684  1.00  0.00    -0.206 F 
ATOM     67  C   UNL A   1      42.774  26.777  25.484  1.00  0.00     0.040 A 
ATOM     68  C   UNL A   1      41.525  24.929  26.393  1.00  0.00     0.040 A 
ATOM     69  F   UNL A   1      40.447  25.146  28.466  1.00  0.00    -0.206 F 
ATOM     70  C   UNL A   1      42.307  25.469  25.373  1.00  0.00     0.006 A 
ENDBRANCH  49  63
BRANCH  50  71
ATOM     71  C   UNL A   1      39.057  32.226  35.734  1.00  0.00     0.057 A 
ATOM     72  C   UNL A   1      39.488  33.536  35.969  1.00  0.00     0.134 A 
ATOM     73  C   UNL A   1      38.229  31.635  36.696  1.00  0.00     0.134 A 
ATOM     74  F   UNL A   1      40.298  34.146  35.092  1.00  0.00    -0.206 F 
ATOM     75  C   UNL A   1      39.121  34.230  37.123  1.00  0.00     0.040 A 
ATOM     76  C   UNL A   1      37.837  32.324  37.844  1.00  0.00     0.040 A 
ATOM     77  F   UNL A   1      37.779  30.383  36.526  1.00  0.00    -0.206 F 
ATOM     78  C   UNL A   1      38.289  33.625  38.063  1.00  0.00     0.006 A 
ENDBRANCH  50  71
BRANCH  62  79
ATOM     79  C   UNL A   1      44.182  27.727  34.362  1.00  0.00     0.057 A 
ATOM     80  C   UNL A   1      45.406  28.392  34.508  1.00  0.00     0.134 A 
ATOM     81  C   UNL A   1      44.002  26.532  35.069  1.00  0.00     0.134 A 
ATOM     82  F   UNL A   1      45.644  29.532  33.843  1.00  0.00    -0.206 F 
ATOM     83  C   UNL A   1      46.418  27.880  35.320  1.00  0.00     0.040 A 
ATOM     84  C   UNL A   1      44.999  26.022  35.901  1.00  0.00     0.040 A 
ATOM     85  F   UNL A   1      42.850  25.852  34.976  1.00  0.00    -0.206 F 
ATOM     86  C   UNL A   1      46.213  26.695  36.025  1.00  0.00     0.006 A 
ENDBRANCH  62  79
ENDBRANCH  36  37
ENDBRANCH  28  31
ENDBRANCH  26  27
ENDBRANCH   1  26
TORSDOF 13
ENDMDL
MODEL 2
REMARK VINA RESULT:     -12.1      4.554      9.178
REMARK SMILES Cc1[nH]c2ccccc2c1[C@@H](C(=O)NCCCCNC(=O)c1ccc(-c2c3nc(c(-c4c(F)cccc4F)c4ccc([nH]4)c(-c4c(F)cccc4F)c4nc(c(-c5c(F)cccc5F)c5ccc2[nH]5)C=C4)C=C3)cc1)[NH+]1CCCC1
REMARK SMILES IDX 17 1 16 2 15 3 14 4 12 5 13 6 11 8 10 9 1 10 2 11 3 12 4 13
REMARK SMILES IDX 9 15 5 16 8 17 6 18 7 19 76 20 77 21 80 22 78 24 79 25 18 26
REMARK SMILES IDX 19 27 20 28 21 30 22 31 23 32 75 33 24 34 74 35 25 36 26 37
REMARK SMILES IDX 27 38 68 39 28 40 73 41 67 42 69 43 29 44 72 45 66 46 65 47
REMARK SMILES IDX 30 49 56 50 39 51 55 52 40 53 43 54 54 55 70 56 41 57 42 58
REMARK SMILES IDX 53 60 71 61 44 62 31 63 32 64 37 65 33 66 34 67 36 68 38 69
REMARK SMILES IDX 35 70 57 71 58 72 63 73 59 74 60 75 62 76 64 77 61 78 45 79
REMARK SMILES IDX 46 80 51 81 47 82 48 83 50 84 52 85 49 86
REMARK H PARENT 14 7 3 14 76 23 19 29 69 48 43 59
REMARK Flexibility Score: inf
ROOT
ATOM      1  C   UNL A   1      37.073  21.165  24.866  1.00  0.00     0.023 C 
ENDROOT
BRANCH   1   2
ATOM      2  C   UNL A   1      36.995  22.249  23.791  1.00  0.00     0.023 C 
BRANCH   2   3
ATOM      3  C   UNL A   1      35.890  23.282  24.003  1.00  0.00     0.116 C 
BRANCH   3   4
ATOM      4  N   UNL A   1      34.895  23.244  22.950  1.00  0.00    -0.351 N 
ATOM      5  C   UNL A   1      33.535  23.055  23.048  1.00  0.00     0.283 C 
ATOM      6  O   UNL A   1      32.916  23.005  21.981  1.00  0.00    -0.268 OA
ATOM      7  H   UNL A   1      35.240  23.370  22.036  1.00  0.00     0.163 HD
BRANCH   5   8
ATOM      8  C   UNL A   1      32.876  22.964  24.461  1.00  0.00     0.307 C 
BRANCH   8   9
ATOM      9  C   UNL A   1      33.064  21.607  25.113  1.00  0.00     0.047 A 
ATOM     10  C   UNL A   1      34.020  22.305  27.470  1.00  0.00     0.065 C 
ATOM     11  C   UNL A   1      33.535  21.383  26.408  1.00  0.00     0.022 A 
ATOM     12  N   UNL A   1      33.503  20.031  26.640  1.00  0.00    -0.358 N 
ATOM     13  C   UNL A   1      33.078  19.356  25.525  1.00  0.00     0.046 A 
ATOM     14  H   UNL A   1      33.753  19.604  27.491  1.00  0.00     0.166 HD
ATOM     15  C   UNL A   1      32.847  20.306  24.531  1.00  0.00     0.009 A 
ATOM     16  C   UNL A   1      32.891  17.982  25.332  1.00  0.00     0.027 A 
ATOM     17  C   UNL A   1      32.467  19.836  23.254  1.00  0.00     0.011 A 
ATOM     18  C   UNL A   1      32.466  17.555  24.072  1.00  0.00     0.002 A 
ATOM     19  C   UNL A   1      32.267  18.467  23.042  1.00  0.00     0.001 A 
ENDBRANCH   8   9
BRANCH   8  20
ATOM     20  N   UNL A   1      31.479  23.475  24.488  1.00  0.00    -0.321 N 
ATOM     21  C   UNL A   1      31.350  24.931  24.408  1.00  0.00     0.263 C 
ATOM     22  C   UNL A   1      30.624  23.062  25.598  1.00  0.00     0.263 C 
ATOM     23  H   UNL A   1      31.151  23.019  23.637  1.00  0.00     0.349 HD
ATOM     24  C   UNL A   1      31.144  25.417  25.833  1.00  0.00     0.067 C 
ATOM     25  C   UNL A   1      30.524  24.238  26.562  1.00  0.00     0.067 C 
ENDBRANCH   8  20
ENDBRANCH   5   8
ENDBRANCH   3   4
ENDBRANCH   2   3
ENDBRANCH   1   2
BRANCH   1  26
ATOM     26  C   UNL A   1      38.311  21.220  25.754  1.00  0.00     0.116 C 
BRANCH  26  27
ATOM     27  N   UNL A   1      39.162  20.047  25.629  1.00  0.00    -0.352 N 
ATOM     28  C   UNL A   1      40.495  19.911  25.952  1.00  0.00     0.251 C 
ATOM     29  H   UNL A   1      38.729  19.242  25.264  1.00  0.00     0.163 HD
ATOM     30  O   UNL A   1      41.099  18.882  25.695  1.00  0.00    -0.269 OA
BRANCH  28  31
ATOM     31  C   UNL A   1      41.196  21.052  26.577  1.00  0.00     0.039 A 
ATOM     32  C   UNL A   1      41.836  21.980  25.751  1.00  0.00     0.014 A 
ATOM     33  C   UNL A   1      41.160  21.238  27.960  1.00  0.00     0.014 A 
ATOM     34  C   UNL A   1      42.358  23.149  26.307  1.00  0.00     0.010 A 
ATOM     35  C   UNL A   1      41.625  22.431  28.504  1.00  0.00     0.010 A 
ATOM     36  C   UNL A   1      42.207  23.406  27.679  1.00  0.00    -0.014 A 
BRANCH  36  37
ATOM     37  C   UNL A   1      42.597  24.711  28.269  1.00  0.00     0.031 A 
ATOM     38  C   UNL A   1      41.572  25.785  28.476  1.00  0.00     0.074 A 
ATOM     39  C   UNL A   1      43.899  24.957  28.520  1.00  0.00     0.049 A 
ATOM     40  N   UNL A   1      41.742  27.024  28.863  1.00  0.00    -0.248 NA
ATOM     41  C   UNL A   1      40.174  25.429  28.187  1.00  0.00     0.031 C 
ATOM     42  C   UNL A   1      44.996  24.011  28.311  1.00  0.00     0.029 A 
ATOM     43  N   UNL A   1      44.520  26.090  28.983  1.00  0.00    -0.354 N 
ATOM     44  C   UNL A   1      40.479  27.600  28.845  1.00  0.00     0.074 A 
ATOM     45  C   UNL A   1      39.558  26.587  28.375  1.00  0.00     0.031 C 
ATOM     46  C   UNL A   1      46.155  24.599  28.652  1.00  0.00     0.029 A 
ATOM     47  C   UNL A   1      45.886  25.973  29.063  1.00  0.00     0.049 A 
ATOM     48  H   UNL A   1      44.034  26.908  29.233  1.00  0.00     0.167 HD
ATOM     49  C   UNL A   1      40.120  28.855  29.205  1.00  0.00     0.037 A 
ATOM     50  C   UNL A   1      46.822  26.877  29.412  1.00  0.00     0.037 A 
ATOM     51  C   UNL A   1      41.034  29.850  29.700  1.00  0.00     0.049 A 
ATOM     52  C   UNL A   1      46.397  28.266  29.794  1.00  0.00     0.074 A 
ATOM     53  C   UNL A   1      40.751  31.120  30.172  1.00  0.00     0.029 A 
ATOM     54  N   UNL A   1      42.408  29.690  29.779  1.00  0.00    -0.354 N 
ATOM     55  N   UNL A   1      45.191  28.774  29.845  1.00  0.00    -0.248 NA
ATOM     56  C   UNL A   1      47.464  29.209  30.162  1.00  0.00     0.031 C 
ATOM     57  C   UNL A   1      41.958  31.743  30.500  1.00  0.00     0.029 A 
ATOM     58  C   UNL A   1      42.990  30.849  30.265  1.00  0.00     0.049 A 
ATOM     59  H   UNL A   1      42.898  28.874  29.527  1.00  0.00     0.167 HD
ATOM     60  C   UNL A   1      45.350  30.089  30.264  1.00  0.00     0.074 A 
ATOM     61  C   UNL A   1      46.769  30.295  30.469  1.00  0.00     0.031 C 
ATOM     62  C   UNL A   1      44.404  31.039  30.459  1.00  0.00     0.037 A 
BRANCH  49  63
ATOM     63  C   UNL A   1      38.671  29.222  29.082  1.00  0.00     0.057 A 
ATOM     64  C   UNL A   1      37.804  29.173  30.180  1.00  0.00     0.134 A 
ATOM     65  C   UNL A   1      38.149  29.666  27.861  1.00  0.00     0.134 A 
ATOM     66  F   UNL A   1      38.241  28.745  31.373  1.00  0.00    -0.206 F 
ATOM     67  C   UNL A   1      36.461  29.536  30.065  1.00  0.00     0.040 A 
ATOM     68  C   UNL A   1      36.813  30.053  27.739  1.00  0.00     0.040 A 
ATOM     69  F   UNL A   1      38.928  29.740  26.772  1.00  0.00    -0.206 F 
ATOM     70  C   UNL A   1      35.965  29.985  28.842  1.00  0.00     0.006 A 
ENDBRANCH  49  63
BRANCH  50  71
ATOM     71  C   UNL A   1      48.256  26.496  29.416  1.00  0.00     0.057 A 
ATOM     72  C   UNL A   1      49.064  26.726  28.299  1.00  0.00     0.134 A 
ATOM     73  C   UNL A   1      48.848  25.892  30.531  1.00  0.00     0.134 A 
ATOM     74  F   UNL A   1      48.546  27.284  27.194  1.00  0.00    -0.206 F 
ATOM     75  C   UNL A   1      50.410  26.357  28.282  1.00  0.00     0.040 A 
ATOM     76  C   UNL A   1      50.198  25.536  30.536  1.00  0.00     0.040 A 
ATOM     77  F   UNL A   1      48.126  25.649  31.634  1.00  0.00    -0.206 F 
ATOM     78  C   UNL A   1      50.982  25.764  29.407  1.00  0.00     0.006 A 
ENDBRANCH  50  71
BRANCH  62  79
ATOM     79  C   UNL A   1      44.872  32.383  30.928  1.00  0.00     0.057 A 
ATOM     80  C   UNL A   1      45.167  33.412  30.024  1.00  0.00     0.134 A 
ATOM     81  C   UNL A   1      44.984  32.667  32.294  1.00  0.00     0.134 A 
ATOM     82  F   UNL A   1      45.094  33.197  28.702  1.00  0.00    -0.206 F 
ATOM     83  C   UNL A   1      45.570  34.673  30.464  1.00  0.00     0.040 A 
ATOM     84  C   UNL A   1      45.365  33.931  32.747  1.00  0.00     0.040 A 
ATOM     85  F   UNL A   1      44.709  31.726  33.210  1.00  0.00    -0.206 F 
ATOM     86  C   UNL A   1      45.662  34.937  31.830  1.00  0.00     0.006 A 
ENDBRANCH  62  79
ENDBRANCH  36  37
ENDBRANCH  28  31
ENDBRANCH  26  27
ENDBRANCH   1  26
TORSDOF 13
ENDMDL
MODEL 3
REMARK VINA RESULT:     -12.1      4.571      9.207
REMARK SMILES Cc1[nH]c2ccccc2c1[C@@H](C(=O)NCCCCNC(=O)c1ccc(-c2c3nc(c(-c4c(F)cccc4F)c4ccc([nH]4)c(-c4c(F)cccc4F)c4nc(c(-c5c(F)cccc5F)c5ccc2[nH]5)C=C4)C=C3)cc1)[NH+]1CCCC1
REMARK SMILES IDX 17 1 16 2 15 3 14 4 12 5 13 6 11 8 10 9 1 10 2 11 3 12 4 13
REMARK SMILES IDX 9 15 5 16 8 17 6 18 7 19 76 20 77 21 80 22 78 24 79 25 18 26
REMARK SMILES IDX 19 27 20 28 21 30 22 31 23 32 75 33 24 34 74 35 25 36 26 37
REMARK SMILES IDX 27 38 68 39 28 40 73 41 67 42 69 43 29 44 72 45 66 46 65 47
REMARK SMILES IDX 30 49 56 50 39 51 55 52 40 53 43 54 54 55 70 56 41 57 42 58
REMARK SMILES IDX 53 60 71 61 44 62 31 63 32 64 37 65 33 66 34 67 36 68 38 69
REMARK SMILES IDX 35 70 57 71 58 72 63 73 59 74 60 75 62 76 64 77 61 78 45 79
REMARK SMILES IDX 46 80 51 81 47 82 48 83 50 84 52 85 49 86
REMARK H PARENT 14 7 3 14 76 23 19 29 69 48 43 59
REMARK Flexibility Score: inf
ROOT
ATOM      1  C   UNL A   1      37.132  21.152  24.861  1.00  0.00     0.023 C 
ENDROOT
BRANCH   1   2
ATOM      2  C   UNL A   1      37.051  22.216  23.766  1.00  0.00     0.023 C 
BRANCH   2   3
ATOM      3  C   UNL A   1      35.974  23.278  23.983  1.00  0.00     0.116 C 
BRANCH   3   4
ATOM      4  N   UNL A   1      34.969  23.259  22.939  1.00  0.00    -0.351 N 
ATOM      5  C   UNL A   1      33.604  23.127  23.052  1.00  0.00     0.283 C 
ATOM      6  O   UNL A   1      32.973  23.081  21.991  1.00  0.00    -0.268 OA
ATOM      7  H   UNL A   1      35.311  23.353  22.020  1.00  0.00     0.163 HD
BRANCH   5   8
ATOM      8  C   UNL A   1      32.954  23.091  24.472  1.00  0.00     0.307 C 
BRANCH   8   9
ATOM      9  C   UNL A   1      33.103  21.744  25.154  1.00  0.00     0.047 A 
ATOM     10  C   UNL A   1      34.042  22.469  27.510  1.00  0.00     0.065 C 
ATOM     11  C   UNL A   1      33.551  21.536  26.460  1.00  0.00     0.022 A 
ATOM     12  N   UNL A   1      33.485  20.191  26.718  1.00  0.00    -0.358 N 
ATOM     13  C   UNL A   1      33.061  19.502  25.612  1.00  0.00     0.046 A 
ATOM     14  H   UNL A   1      33.714  19.776  27.582  1.00  0.00     0.166 HD
ATOM     15  C   UNL A   1      32.865  20.436  24.596  1.00  0.00     0.009 A 
ATOM     16  C   UNL A   1      32.845  18.129  25.444  1.00  0.00     0.027 A 
ATOM     17  C   UNL A   1      32.492  19.949  23.323  1.00  0.00     0.011 A 
ATOM     18  C   UNL A   1      32.429  17.686  24.187  1.00  0.00     0.002 A 
ATOM     19  C   UNL A   1      32.265  18.580  23.136  1.00  0.00     0.001 A 
ENDBRANCH   8   9
BRANCH   8  20
ATOM     20  N   UNL A   1      31.576  23.649  24.499  1.00  0.00    -0.321 N 
ATOM     21  C   UNL A   1      31.497  25.100  24.669  1.00  0.00     0.263 C 
ATOM     22  C   UNL A   1      30.631  23.086  25.460  1.00  0.00     0.263 C 
ATOM     23  H   UNL A   1      31.296  23.363  23.560  1.00  0.00     0.349 HD
ATOM     24  C   UNL A   1      31.206  25.340  26.141  1.00  0.00     0.067 C 
ATOM     25  C   UNL A   1      30.499  24.080  26.608  1.00  0.00     0.067 C 
ENDBRANCH   8  20
ENDBRANCH   5   8
ENDBRANCH   3   4
ENDBRANCH   2   3
ENDBRANCH   1   2
BRANCH   1  26
ATOM     26  C   UNL A   1      38.375  21.219  25.740  1.00  0.00     0.116 C 
BRANCH  26  27
ATOM     27  N   UNL A   1      39.228  20.045  25.621  1.00  0.00    -0.352 N 
ATOM     28  C   UNL A   1      40.561  19.912  25.947  1.00  0.00     0.251 C 
ATOM     29  H   UNL A   1      38.796  19.239  25.258  1.00  0.00     0.163 HD
ATOM     30  O   UNL A   1      41.166  18.884  25.695  1.00  0.00    -0.269 OA
BRANCH  28  31
ATOM     31  C   UNL A   1      41.259  21.057  26.568  1.00  0.00     0.039 A 
ATOM     32  C   UNL A   1      41.904  21.979  25.740  1.00  0.00     0.014 A 
ATOM     33  C   UNL A   1      41.217  21.251  27.950  1.00  0.00     0.014 A 
ATOM     34  C   UNL A   1      42.423  23.152  26.291  1.00  0.00     0.010 A 
ATOM     35  C   UNL A   1      41.680  22.447  28.488  1.00  0.00     0.010 A 
ATOM     36  C   UNL A   1      42.267  23.417  27.661  1.00  0.00    -0.014 A 
BRANCH  36  37
ATOM     37  C   UNL A   1      42.654  24.724  28.245  1.00  0.00     0.031 A 
ATOM     38  C   UNL A   1      41.628  25.798  28.447  1.00  0.00     0.074 A 
ATOM     39  C   UNL A   1      43.955  24.974  28.495  1.00  0.00     0.049 A 
ATOM     40  N   UNL A   1      41.796  27.039  28.828  1.00  0.00    -0.248 NA
ATOM     41  C   UNL A   1      40.231  25.439  28.158  1.00  0.00     0.031 C 
ATOM     42  C   UNL A   1      45.054  24.029  28.291  1.00  0.00     0.029 A 
ATOM     43  N   UNL A   1      44.575  26.109  28.953  1.00  0.00    -0.354 N 
ATOM     44  C   UNL A   1      40.532  27.614  28.806  1.00  0.00     0.074 A 
ATOM     45  C   UNL A   1      39.613  26.597  28.341  1.00  0.00     0.031 C 
ATOM     46  C   UNL A   1      46.212  24.619  28.630  1.00  0.00     0.029 A 
ATOM     47  C   UNL A   1      45.942  25.995  29.035  1.00  0.00     0.049 A 
ATOM     48  H   UNL A   1      44.088  26.928  29.199  1.00  0.00     0.167 HD
ATOM     49  C   UNL A   1      40.171  28.870  29.160  1.00  0.00     0.037 A 
ATOM     50  C   UNL A   1      46.876  26.902  29.380  1.00  0.00     0.037 A 
ATOM     51  C   UNL A   1      41.084  29.869  29.651  1.00  0.00     0.049 A 
ATOM     52  C   UNL A   1      46.449  28.292  29.755  1.00  0.00     0.074 A 
ATOM     53  C   UNL A   1      40.799  31.140  30.117  1.00  0.00     0.029 A 
ATOM     54  N   UNL A   1      42.458  29.711  29.732  1.00  0.00    -0.354 N 
ATOM     55  N   UNL A   1      45.242  28.799  29.803  1.00  0.00    -0.248 NA
ATOM     56  C   UNL A   1      47.514  29.238  30.119  1.00  0.00     0.031 C 
ATOM     57  C   UNL A   1      42.006  31.767  30.443  1.00  0.00     0.029 A 
ATOM     58  C   UNL A   1      43.038  30.873  30.213  1.00  0.00     0.049 A 
ATOM     59  H   UNL A   1      42.949  28.894  29.484  1.00  0.00     0.167 HD
ATOM     60  C   UNL A   1      45.400  30.115  30.216  1.00  0.00     0.074 A 
ATOM     61  C   UNL A   1      46.818  30.324  30.421  1.00  0.00     0.031 C 
ATOM     62  C   UNL A   1      44.452  31.065  30.406  1.00  0.00     0.037 A 
BRANCH  49  63
ATOM     63  C   UNL A   1      38.723  29.234  29.034  1.00  0.00     0.057 A 
ATOM     64  C   UNL A   1      38.161  29.608  27.807  1.00  0.00     0.134 A 
ATOM     65  C   UNL A   1      37.872  29.170  30.144  1.00  0.00     0.134 A 
ATOM     66  F   UNL A   1      38.927  29.700  26.710  1.00  0.00    -0.206 F 
ATOM     67  C   UNL A   1      36.807  29.925  27.691  1.00  0.00     0.040 A 
ATOM     68  C   UNL A   1      36.511  29.463  30.036  1.00  0.00     0.040 A 
ATOM     69  F   UNL A   1      38.346  28.815  31.347  1.00  0.00    -0.206 F 
ATOM     70  C   UNL A   1      35.977  29.846  28.807  1.00  0.00     0.006 A 
ENDBRANCH  49  63
BRANCH  50  71
ATOM     71  C   UNL A   1      48.310  26.523  29.386  1.00  0.00     0.057 A 
ATOM     72  C   UNL A   1      48.889  25.917  30.505  1.00  0.00     0.134 A 
ATOM     73  C   UNL A   1      49.134  26.761  28.280  1.00  0.00     0.134 A 
ATOM     74  F   UNL A   1      48.154  25.682  31.602  1.00  0.00    -0.206 F 
ATOM     75  C   UNL A   1      50.241  25.571  30.531  1.00  0.00     0.040 A 
ATOM     76  C   UNL A   1      50.482  26.402  28.284  1.00  0.00     0.040 A 
ATOM     77  F   UNL A   1      48.636  27.335  27.175  1.00  0.00    -0.206 F 
ATOM     78  C   UNL A   1      51.041  25.809  29.415  1.00  0.00     0.006 A 
ENDBRANCH  50  71
BRANCH  62  79
ATOM     79  C   UNL A   1      44.918  32.413  30.869  1.00  0.00     0.057 A 
ATOM     80  C   UNL A   1      45.081  32.704  32.229  1.00  0.00     0.134 A 
ATOM     81  C   UNL A   1      45.251  33.411  29.946  1.00  0.00     0.134 A 
ATOM     82  F   UNL A   1      44.763  31.795  33.162  1.00  0.00    -0.206 F 
ATOM     83  C   UNL A   1      45.547  33.949  32.655  1.00  0.00     0.040 A 
ATOM     84  C   UNL A   1      45.739  34.652  30.359  1.00  0.00     0.040 A 
ATOM     85  F   UNL A   1      45.124  33.191  28.628  1.00  0.00    -0.206 F 
ATOM     86  C   UNL A   1      45.885  34.923  31.718  1.00  0.00     0.006 A 
ENDBRANCH  62  79
ENDBRANCH  36  37
ENDBRANCH  28  31
ENDBRANCH  26  27
ENDBRANCH   1  26
TORSDOF 13
ENDMDL
