MODEL 1
REMARK VINA RESULT:     -11.5      0.000      0.000
REMARK SMILES O=C(NCCCCNC(=O)[C@H]1CSCN1C(=O)c1cccc2cccnc12)c1ccc(-c2c3nc(c(-c4c(F)cccc4F)c4ccc([nH]4)c(-c4c(F)cccc4F)c4nc(c(-c5c(F)cccc5F)c5ccc2[nH]5)C=C4)C=C3)cc1
REMARK SMILES IDX 5 1 4 2 3 3 1 4 2 5 28 7 29 8 81 9 30 10 80 11 31 12 32 13
REMARK SMILES IDX 33 14 74 15 34 16 79 17 73 18 75 19 35 20 78 21 72 22 71 23
REMARK SMILES IDX 36 25 62 26 45 27 61 28 46 29 49 30 60 31 76 32 47 33 48 34
REMARK SMILES IDX 59 36 77 37 50 38 37 39 38 40 43 41 39 42 40 43 42 44 44 45
REMARK SMILES IDX 41 46 63 47 64 48 69 49 65 50 66 51 68 52 70 53 67 54 51 55
REMARK SMILES IDX 52 56 57 57 53 58 54 59 56 60 58 61 55 62 6 63 7 64 8 65
REMARK SMILES IDX 9 66 10 68 11 69 12 70 15 71 13 72 14 73 16 74 17 75 18 76
REMARK SMILES IDX 19 77 27 78 20 79 22 80 26 81 21 82 23 83 25 84 24 85
REMARK H PARENT 3 6 75 24 49 35 8 67
REMARK Flexibility Score: inf
ROOT
ATOM      1  C   UNL A   1      38.269  21.415  25.080  1.00  0.00     0.023 C 
ENDROOT
BRANCH   1   2
ATOM      2  C   UNL A   1      38.377  20.213  26.010  1.00  0.00     0.116 C 
BRANCH   2   3
ATOM      3  N   UNL A   1      39.532  19.366  25.750  1.00  0.00    -0.352 N 
ATOM      4  O   UNL A   1      41.697  18.775  25.553  1.00  0.00    -0.269 OA
ATOM      5  C   UNL A   1      40.879  19.604  25.928  1.00  0.00     0.251 C 
ATOM      6  H   UNL A   1      39.316  18.477  25.386  1.00  0.00     0.163 HD
BRANCH   5   7
ATOM      7  C   UNL A   1      41.346  20.872  26.536  1.00  0.00     0.039 A 
ATOM      8  C   UNL A   1      41.244  21.093  27.909  1.00  0.00     0.014 A 
ATOM      9  C   UNL A   1      41.907  21.856  25.714  1.00  0.00     0.014 A 
ATOM     10  C   UNL A   1      41.522  22.353  28.428  1.00  0.00     0.010 A 
ATOM     11  C   UNL A   1      42.282  23.091  26.256  1.00  0.00     0.010 A 
ATOM     12  C   UNL A   1      42.052  23.366  27.611  1.00  0.00    -0.014 A 
BRANCH  12  13
ATOM     13  C   UNL A   1      42.401  24.676  28.221  1.00  0.00     0.031 A 
ATOM     14  C   UNL A   1      43.816  25.010  28.611  1.00  0.00     0.074 A 
ATOM     15  C   UNL A   1      41.427  25.596  28.371  1.00  0.00     0.049 A 
ATOM     16  N   UNL A   1      44.290  26.125  29.109  1.00  0.00    -0.248 NA
ATOM     17  C   UNL A   1      44.830  23.960  28.426  1.00  0.00     0.031 C 
ATOM     18  C   UNL A   1      40.015  25.384  28.042  1.00  0.00     0.029 A 
ATOM     19  N   UNL A   1      41.475  26.894  28.809  1.00  0.00    -0.354 N 
ATOM     20  C   UNL A   1      45.648  25.908  29.310  1.00  0.00     0.074 A 
ATOM     21  C   UNL A   1      45.920  24.546  28.904  1.00  0.00     0.031 C 
ATOM     22  C   UNL A   1      39.342  26.527  28.235  1.00  0.00     0.029 A 
ATOM     23  C   UNL A   1      40.259  27.533  28.760  1.00  0.00     0.049 A 
ATOM     24  H   UNL A   1      42.299  27.326  29.127  1.00  0.00     0.167 HD
ATOM     25  C   UNL A   1      46.581  26.770  29.784  1.00  0.00     0.037 A 
ATOM     26  C   UNL A   1      39.914  28.785  29.110  1.00  0.00     0.037 A 
ATOM     27  C   UNL A   1      46.310  28.133  30.170  1.00  0.00     0.049 A 
ATOM     28  C   UNL A   1      40.967  29.711  29.641  1.00  0.00     0.074 A 
ATOM     29  C   UNL A   1      47.198  29.091  30.631  1.00  0.00     0.029 A 
ATOM     30  N   UNL A   1      45.059  28.731  30.138  1.00  0.00    -0.354 N 
ATOM     31  N   UNL A   1      42.249  29.495  29.803  1.00  0.00    -0.248 NA
ATOM     32  C   UNL A   1      40.523  31.051  30.047  1.00  0.00     0.031 C 
ATOM     33  C   UNL A   1      46.477  30.256  30.916  1.00  0.00     0.029 A 
ATOM     34  C   UNL A   1      45.149  30.038  30.592  1.00  0.00     0.049 A 
ATOM     35  H   UNL A   1      44.232  28.292  29.838  1.00  0.00     0.167 HD
ATOM     36  C   UNL A   1      42.768  30.673  30.321  1.00  0.00     0.074 A 
ATOM     37  C   UNL A   1      41.666  31.609  30.420  1.00  0.00     0.031 C 
ATOM     38  C   UNL A   1      44.041  30.952  30.691  1.00  0.00     0.037 A 
BRANCH  25  39
ATOM     39  C   UNL A   1      47.989  26.269  29.924  1.00  0.00     0.057 A 
ATOM     40  C   UNL A   1      48.922  26.381  28.886  1.00  0.00     0.134 A 
ATOM     41  C   UNL A   1      48.436  25.728  31.137  1.00  0.00     0.134 A 
ATOM     42  F   UNL A   1      48.557  26.883  27.696  1.00  0.00    -0.206 F 
ATOM     43  C   UNL A   1      50.245  25.963  29.044  1.00  0.00     0.040 A 
ATOM     44  C   UNL A   1      49.761  25.325  31.314  1.00  0.00     0.040 A 
ATOM     45  F   UNL A   1      47.596  25.598  32.176  1.00  0.00    -0.206 F 
ATOM     46  C   UNL A   1      50.669  25.441  30.265  1.00  0.00     0.006 A 
ENDBRANCH  25  39
BRANCH  26  47
ATOM     47  C   UNL A   1      38.503  29.225  28.976  1.00  0.00     0.057 A 
ATOM     48  C   UNL A   1      37.998  29.680  27.753  1.00  0.00     0.134 A 
ATOM     49  C   UNL A   1      37.627  29.193  30.067  1.00  0.00     0.134 A 
ATOM     50  F   UNL A   1      38.794  29.750  26.677  1.00  0.00    -0.206 F 
ATOM     51  C   UNL A   1      36.673  30.099  27.623  1.00  0.00     0.040 A 
ATOM     52  C   UNL A   1      36.293  29.582  29.944  1.00  0.00     0.040 A 
ATOM     53  F   UNL A   1      38.050  28.760  31.264  1.00  0.00    -0.206 F 
ATOM     54  C   UNL A   1      35.815  30.044  28.721  1.00  0.00     0.006 A 
ENDBRANCH  26  47
BRANCH  38  55
ATOM     55  C   UNL A   1      44.303  32.330  31.221  1.00  0.00     0.057 A 
ATOM     56  C   UNL A   1      44.626  33.394  30.370  1.00  0.00     0.134 A 
ATOM     57  C   UNL A   1      44.223  32.596  32.593  1.00  0.00     0.134 A 
ATOM     58  F   UNL A   1      44.734  33.199  29.047  1.00  0.00    -0.206 F 
ATOM     59  C   UNL A   1      44.887  34.671  30.869  1.00  0.00     0.040 A 
ATOM     60  C   UNL A   1      44.459  33.874  33.101  1.00  0.00     0.040 A 
ATOM     61  F   UNL A   1      43.913  31.621  33.460  1.00  0.00    -0.206 F 
ATOM     62  C   UNL A   1      44.799  34.914  32.238  1.00  0.00     0.006 A 
ENDBRANCH  38  55
ENDBRANCH  12  13
ENDBRANCH   5   7
ENDBRANCH   2   3
ENDBRANCH   1   2
BRANCH   1  63
ATOM     63  C   UNL A   1      38.167  22.785  25.745  1.00  0.00     0.023 C 
BRANCH  63  64
ATOM     64  C   UNL A   1      36.780  23.414  25.809  1.00  0.00     0.116 C 
BRANCH  64  65
ATOM     65  N   UNL A   1      35.895  22.912  26.844  1.00  0.00    -0.354 N 
ATOM     66  C   UNL A   1      34.606  22.430  26.676  1.00  0.00     0.243 C 
ATOM     67  H   UNL A   1      36.246  22.914  27.764  1.00  0.00     0.163 HD
ATOM     68  O   UNL A   1      34.135  21.725  27.568  1.00  0.00    -0.273 OA
BRANCH  66  69
ATOM     69  C   UNL A   1      33.871  22.739  25.339  1.00  0.00     0.185 C 
ATOM     70  C   UNL A   1      33.974  21.468  24.477  1.00  0.00     0.106 C 
ATOM     71  N   UNL A   1      32.446  23.112  25.398  1.00  0.00    -0.316 N 
ATOM     72  S   UNL A   1      32.454  21.273  23.531  1.00  0.00    -0.138 SA
ATOM     73  C   UNL A   1      31.721  22.762  24.193  1.00  0.00     0.190 C 
BRANCH  71  74
ATOM     74  C   UNL A   1      32.009  24.177  26.197  1.00  0.00     0.257 C 
ATOM     75  O   UNL A   1      31.390  24.022  27.242  1.00  0.00    -0.269 OA
BRANCH  74  76
ATOM     76  C   UNL A   1      32.280  25.548  25.671  1.00  0.00     0.066 A 
ATOM     77  C   UNL A   1      33.520  26.131  26.004  1.00  0.00     0.016 A 
ATOM     78  C   UNL A   1      31.296  26.250  24.960  1.00  0.00     0.083 A 
ATOM     79  C   UNL A   1      33.761  27.468  25.716  1.00  0.00     0.002 A 
ATOM     80  C   UNL A   1      31.577  27.607  24.660  1.00  0.00     0.001 A 
ATOM     81  N   UNL A   1      30.114  25.700  24.596  1.00  0.00    -0.255 NA
ATOM     82  C   UNL A   1      32.785  28.207  25.058  1.00  0.00     0.010 A 
ATOM     83  C   UNL A   1      30.620  28.356  23.963  1.00  0.00     0.012 A 
ATOM     84  C   UNL A   1      29.235  26.440  23.884  1.00  0.00     0.112 A 
ATOM     85  C   UNL A   1      29.436  27.762  23.552  1.00  0.00     0.021 A 
ENDBRANCH  74  76
ENDBRANCH  71  74
ENDBRANCH  66  69
ENDBRANCH  64  65
ENDBRANCH  63  64
ENDBRANCH   1  63
TORSDOF 13
ENDMDL
MODEL 2
REMARK VINA RESULT:     -11.4      0.982      1.922
REMARK SMILES O=C(NCCCCNC(=O)[C@H]1CSCN1C(=O)c1cccc2cccnc12)c1ccc(-c2c3nc(c(-c4c(F)cccc4F)c4ccc([nH]4)c(-c4c(F)cccc4F)c4nc(c(-c5c(F)cccc5F)c5ccc2[nH]5)C=C4)C=C3)cc1
REMARK SMILES IDX 5 1 4 2 3 3 1 4 2 5 28 7 29 8 81 9 30 10 80 11 31 12 32 13
REMARK SMILES IDX 33 14 74 15 34 16 79 17 73 18 75 19 35 20 78 21 72 22 71 23
REMARK SMILES IDX 36 25 62 26 45 27 61 28 46 29 49 30 60 31 76 32 47 33 48 34
REMARK SMILES IDX 59 36 77 37 50 38 37 39 38 40 43 41 39 42 40 43 42 44 44 45
REMARK SMILES IDX 41 46 63 47 64 48 69 49 65 50 66 51 68 52 70 53 67 54 51 55
REMARK SMILES IDX 52 56 57 57 53 58 54 59 56 60 58 61 55 62 6 63 7 64 8 65
REMARK SMILES IDX 9 66 10 68 11 69 12 70 15 71 13 72 14 73 16 74 17 75 18 76
REMARK SMILES IDX 19 77 27 78 20 79 22 80 26 81 21 82 23 83 25 84 24 85
REMARK H PARENT 3 6 75 24 49 35 8 67
REMARK Flexibility Score: inf
ROOT
ATOM      1  C   UNL A   1      37.772  19.793  24.803  1.00  0.00     0.023 C 
ENDROOT
BRANCH   1   2
ATOM      2  C   UNL A   1      38.903  20.207  25.736  1.00  0.00     0.116 C 
BRANCH   2   3
ATOM      3  N   UNL A   1      40.050  19.311  25.709  1.00  0.00    -0.352 N 
ATOM      4  O   UNL A   1      42.199  18.648  25.861  1.00  0.00    -0.269 OA
ATOM      5  C   UNL A   1      41.369  19.528  26.049  1.00  0.00     0.251 C 
ATOM      6  H   UNL A   1      39.852  18.399  25.396  1.00  0.00     0.163 HD
BRANCH   5   7
ATOM      7  C   UNL A   1      41.797  20.833  26.607  1.00  0.00     0.039 A 
ATOM      8  C   UNL A   1      41.919  21.024  27.982  1.00  0.00     0.014 A 
ATOM      9  C   UNL A   1      42.094  21.884  25.730  1.00  0.00     0.014 A 
ATOM     10  C   UNL A   1      42.148  22.301  28.485  1.00  0.00     0.010 A 
ATOM     11  C   UNL A   1      42.424  23.146  26.237  1.00  0.00     0.010 A 
ATOM     12  C   UNL A   1      42.412  23.377  27.620  1.00  0.00    -0.014 A 
BRANCH  12  13
ATOM     13  C   UNL A   1      42.720  24.710  28.201  1.00  0.00     0.031 A 
ATOM     14  C   UNL A   1      44.129  25.109  28.549  1.00  0.00     0.074 A 
ATOM     15  C   UNL A   1      41.712  25.590  28.363  1.00  0.00     0.049 A 
ATOM     16  N   UNL A   1      44.568  26.250  29.018  1.00  0.00    -0.248 NA
ATOM     17  C   UNL A   1      45.181  24.099  28.354  1.00  0.00     0.031 C 
ATOM     18  C   UNL A   1      40.303  25.315  28.074  1.00  0.00     0.029 A 
ATOM     19  N   UNL A   1      41.716  26.896  28.780  1.00  0.00    -0.354 N 
ATOM     20  C   UNL A   1      45.939  26.094  29.188  1.00  0.00     0.074 A 
ATOM     21  C   UNL A   1      46.257  24.738  28.795  1.00  0.00     0.031 C 
ATOM     22  C   UNL A   1      39.588  26.432  28.267  1.00  0.00     0.029 A 
ATOM     23  C   UNL A   1      40.475  27.483  28.752  1.00  0.00     0.049 A 
ATOM     24  H   UNL A   1      42.530  27.368  29.070  1.00  0.00     0.167 HD
ATOM     25  C   UNL A   1      46.846  27.001  29.624  1.00  0.00     0.037 A 
ATOM     26  C   UNL A   1      40.086  28.725  29.093  1.00  0.00     0.037 A 
ATOM     27  C   UNL A   1      46.528  28.357  29.996  1.00  0.00     0.049 A 
ATOM     28  C   UNL A   1      41.112  29.703  29.583  1.00  0.00     0.074 A 
ATOM     29  C   UNL A   1      47.387  29.359  30.420  1.00  0.00     0.029 A 
ATOM     30  N   UNL A   1      45.253  28.902  29.988  1.00  0.00    -0.354 N 
ATOM     31  N   UNL A   1      42.405  29.543  29.714  1.00  0.00    -0.248 NA
ATOM     32  C   UNL A   1      40.622  31.029  29.980  1.00  0.00     0.031 C 
ATOM     33  C   UNL A   1      46.625  30.497  30.707  1.00  0.00     0.029 A 
ATOM     34  C   UNL A   1      45.299  30.219  30.420  1.00  0.00     0.049 A 
ATOM     35  H   UNL A   1      44.437  28.424  29.716  1.00  0.00     0.167 HD
ATOM     36  C   UNL A   1      42.887  30.749  30.202  1.00  0.00     0.074 A 
ATOM     37  C   UNL A   1      41.750  31.640  30.315  1.00  0.00     0.031 C 
ATOM     38  C   UNL A   1      44.156  31.088  30.534  1.00  0.00     0.037 A 
BRANCH  25  39
ATOM     39  C   UNL A   1      48.277  26.561  29.735  1.00  0.00     0.057 A 
ATOM     40  C   UNL A   1      48.769  25.926  30.882  1.00  0.00     0.134 A 
ATOM     41  C   UNL A   1      49.157  26.716  28.655  1.00  0.00     0.134 A 
ATOM     42  F   UNL A   1      47.982  25.754  31.955  1.00  0.00    -0.206 F 
ATOM     43  C   UNL A   1      50.088  25.470  30.956  1.00  0.00     0.040 A 
ATOM     44  C   UNL A   1      50.471  26.246  28.709  1.00  0.00     0.040 A 
ATOM     45  F   UNL A   1      48.749  27.310  27.523  1.00  0.00    -0.206 F 
ATOM     46  C   UNL A   1      50.940  25.623  29.863  1.00  0.00     0.006 A 
ENDBRANCH  25  39
BRANCH  26  47
ATOM     47  C   UNL A   1      38.655  29.104  28.989  1.00  0.00     0.057 A 
ATOM     48  C   UNL A   1      37.802  29.030  30.095  1.00  0.00     0.134 A 
ATOM     49  C   UNL A   1      38.110  29.555  27.780  1.00  0.00     0.134 A 
ATOM     50  F   UNL A   1      38.262  28.589  31.274  1.00  0.00    -0.206 F 
ATOM     51  C   UNL A   1      36.455  29.381  30.002  1.00  0.00     0.040 A 
ATOM     52  C   UNL A   1      36.772  29.936  27.680  1.00  0.00     0.040 A 
ATOM     53  F   UNL A   1      38.878  29.654  26.686  1.00  0.00    -0.206 F 
ATOM     54  C   UNL A   1      35.939  29.843  28.792  1.00  0.00     0.006 A 
ENDBRANCH  26  47
BRANCH  38  55
ATOM     55  C   UNL A   1      44.374  32.483  31.037  1.00  0.00     0.057 A 
ATOM     56  C   UNL A   1      44.329  32.786  32.403  1.00  0.00     0.134 A 
ATOM     57  C   UNL A   1      44.638  33.531  30.147  1.00  0.00     0.134 A 
ATOM     58  F   UNL A   1      44.064  31.827  33.304  1.00  0.00    -0.206 F 
ATOM     59  C   UNL A   1      44.514  34.090  32.867  1.00  0.00     0.040 A 
ATOM     60  C   UNL A   1      44.848  34.834  30.600  1.00  0.00     0.040 A 
ATOM     61  F   UNL A   1      44.699  33.306  28.827  1.00  0.00    -0.206 F 
ATOM     62  C   UNL A   1      44.779  35.117  31.963  1.00  0.00     0.006 A 
ENDBRANCH  38  55
ENDBRANCH  12  13
ENDBRANCH   5   7
ENDBRANCH   2   3
ENDBRANCH   1   2
BRANCH   1  63
ATOM     63  C   UNL A   1      36.429  20.488  25.010  1.00  0.00     0.023 C 
BRANCH  63  64
ATOM     64  C   UNL A   1      36.424  22.009  24.909  1.00  0.00     0.116 C 
BRANCH  64  65
ATOM     65  N   UNL A   1      35.975  22.729  26.088  1.00  0.00    -0.354 N 
ATOM     66  C   UNL A   1      34.665  22.940  26.485  1.00  0.00     0.243 C 
ATOM     67  H   UNL A   1      36.677  23.107  26.666  1.00  0.00     0.163 HD
ATOM     68  O   UNL A   1      34.463  23.245  27.661  1.00  0.00    -0.273 OA
BRANCH  66  69
ATOM     69  C   UNL A   1      33.530  22.699  25.447  1.00  0.00     0.185 C 
ATOM     70  C   UNL A   1      32.482  21.809  26.141  1.00  0.00     0.106 C 
ATOM     71  N   UNL A   1      32.819  23.871  24.908  1.00  0.00    -0.316 N 
ATOM     72  S   UNL A   1      30.839  22.296  25.587  1.00  0.00    -0.138 SA
ATOM     73  C   UNL A   1      31.462  23.570  24.500  1.00  0.00     0.190 C 
BRANCH  71  74
ATOM     74  C   UNL A   1      33.516  24.925  24.302  1.00  0.00     0.257 C 
ATOM     75  O   UNL A   1      34.363  24.758  23.432  1.00  0.00    -0.269 OA
BRANCH  74  76
ATOM     76  C   UNL A   1      33.224  26.293  24.822  1.00  0.00     0.066 A 
ATOM     77  C   UNL A   1      33.850  26.672  26.027  1.00  0.00     0.016 A 
ATOM     78  C   UNL A   1      32.289  27.120  24.180  1.00  0.00     0.083 A 
ATOM     79  C   UNL A   1      33.478  27.845  26.668  1.00  0.00     0.002 A 
ATOM     80  C   UNL A   1      31.944  28.323  24.846  1.00  0.00     0.001 A 
ATOM     81  N   UNL A   1      31.703  26.797  23.004  1.00  0.00    -0.255 NA
ATOM     82  C   UNL A   1      32.516  28.661  26.085  1.00  0.00     0.010 A 
ATOM     83  C   UNL A   1      31.005  29.177  24.252  1.00  0.00     0.012 A 
ATOM     84  C   UNL A   1      30.837  27.666  22.439  1.00  0.00     0.112 A 
ATOM     85  C   UNL A   1      30.453  28.855  23.021  1.00  0.00     0.021 A 
ENDBRANCH  74  76
ENDBRANCH  71  74
ENDBRANCH  66  69
ENDBRANCH  64  65
ENDBRANCH  63  64
ENDBRANCH   1  63
TORSDOF 13
ENDMDL
MODEL 3
REMARK VINA RESULT:     -11.4      3.300      8.413
REMARK SMILES O=C(NCCCCNC(=O)[C@H]1CSCN1C(=O)c1cccc2cccnc12)c1ccc(-c2c3nc(c(-c4c(F)cccc4F)c4ccc([nH]4)c(-c4c(F)cccc4F)c4nc(c(-c5c(F)cccc5F)c5ccc2[nH]5)C=C4)C=C3)cc1
REMARK SMILES IDX 5 1 4 2 3 3 1 4 2 5 28 7 29 8 81 9 30 10 80 11 31 12 32 13
REMARK SMILES IDX 33 14 74 15 34 16 79 17 73 18 75 19 35 20 78 21 72 22 71 23
REMARK SMILES IDX 36 25 62 26 45 27 61 28 46 29 49 30 60 31 76 32 47 33 48 34
REMARK SMILES IDX 59 36 77 37 50 38 37 39 38 40 43 41 39 42 40 43 42 44 44 45
REMARK SMILES IDX 41 46 63 47 64 48 69 49 65 50 66 51 68 52 70 53 67 54 51 55
REMARK SMILES IDX 52 56 57 57 53 58 54 59 56 60 58 61 55 62 6 63 7 64 8 65
REMARK SMILES IDX 9 66 10 68 11 69 12 70 15 71 13 72 14 73 16 74 17 75 18 76
REMARK SMILES IDX 19 77 27 78 20 79 22 80 26 81 21 82 23 83 25 84 24 85
REMARK H PARENT 3 6 75 24 49 35 8 67
REMARK Flexibility Score: inf
ROOT
ATOM      1  C   UNL A   1      32.838  30.965  27.559  1.00  0.00     0.023 C 
ENDROOT
BRANCH   1   2
ATOM      2  C   UNL A   1      32.653  32.176  26.653  1.00  0.00     0.116 C 
BRANCH   2   3
ATOM      3  N   UNL A   1      32.321  33.402  27.365  1.00  0.00    -0.352 N 
ATOM      4  O   UNL A   1      32.502  35.066  28.874  1.00  0.00    -0.269 OA
ATOM      5  C   UNL A   1      33.014  34.092  28.338  1.00  0.00     0.251 C 
ATOM      6  H   UNL A   1      31.460  33.806  27.110  1.00  0.00     0.163 HD
BRANCH   5   7
ATOM      7  C   UNL A   1      34.359  33.640  28.767  1.00  0.00     0.039 A 
ATOM      8  C   UNL A   1      35.486  33.892  27.987  1.00  0.00     0.014 A 
ATOM      9  C   UNL A   1      34.493  32.960  29.984  1.00  0.00     0.014 A 
ATOM     10  C   UNL A   1      36.703  33.306  28.322  1.00  0.00     0.010 A 
ATOM     11  C   UNL A   1      35.741  32.457  30.370  1.00  0.00     0.010 A 
ATOM     12  C   UNL A   1      36.849  32.588  29.521  1.00  0.00    -0.014 A 
BRANCH  12  13
ATOM     13  C   UNL A   1      38.183  32.037  29.874  1.00  0.00     0.031 A 
ATOM     14  C   UNL A   1      39.099  32.750  30.833  1.00  0.00     0.074 A 
ATOM     15  C   UNL A   1      38.545  30.846  29.358  1.00  0.00     0.049 A 
ATOM     16  N   UNL A   1      40.273  32.378  31.279  1.00  0.00    -0.248 NA
ATOM     17  C   UNL A   1      38.647  34.049  31.355  1.00  0.00     0.031 C 
ATOM     18  C   UNL A   1      37.749  30.066  28.407  1.00  0.00     0.029 A 
ATOM     19  N   UNL A   1      39.654  30.070  29.577  1.00  0.00    -0.354 N 
ATOM     20  C   UNL A   1      40.705  33.397  32.119  1.00  0.00     0.074 A 
ATOM     21  C   UNL A   1      39.679  34.418  32.102  1.00  0.00     0.031 C 
ATOM     22  C   UNL A   1      38.365  28.900  28.169  1.00  0.00     0.029 A 
ATOM     23  C   UNL A   1      39.628  28.876  28.899  1.00  0.00     0.049 A 
ATOM     24  H   UNL A   1      40.396  30.342  30.163  1.00  0.00     0.167 HD
ATOM     25  C   UNL A   1      41.849  33.470  32.842  1.00  0.00     0.037 A 
ATOM     26  C   UNL A   1      40.525  27.874  28.855  1.00  0.00     0.037 A 
ATOM     27  C   UNL A   1      42.862  32.443  32.871  1.00  0.00     0.049 A 
ATOM     28  C   UNL A   1      41.787  27.989  29.657  1.00  0.00     0.074 A 
ATOM     29  C   UNL A   1      44.040  32.414  33.598  1.00  0.00     0.029 A 
ATOM     30  N   UNL A   1      42.814  31.264  32.142  1.00  0.00    -0.354 N 
ATOM     31  N   UNL A   1      42.167  28.950  30.463  1.00  0.00    -0.248 NA
ATOM     32  C   UNL A   1      42.748  26.885  29.537  1.00  0.00     0.031 C 
ATOM     33  C   UNL A   1      44.724  31.236  33.279  1.00  0.00     0.029 A 
ATOM     34  C   UNL A   1      43.952  30.511  32.387  1.00  0.00     0.049 A 
ATOM     35  H   UNL A   1      42.081  31.002  31.541  1.00  0.00     0.167 HD
ATOM     36  C   UNL A   1      43.407  28.565  30.952  1.00  0.00     0.074 A 
ATOM     37  C   UNL A   1      43.701  27.269  30.374  1.00  0.00     0.031 C 
ATOM     38  C   UNL A   1      44.232  29.228  31.797  1.00  0.00     0.037 A 
BRANCH  25  39
ATOM     39  C   UNL A   1      42.083  34.707  33.660  1.00  0.00     0.057 A 
ATOM     40  C   UNL A   1      42.741  35.827  33.136  1.00  0.00     0.134 A 
ATOM     41  C   UNL A   1      41.585  34.803  34.966  1.00  0.00     0.134 A 
ATOM     42  F   UNL A   1      43.249  35.799  31.895  1.00  0.00    -0.206 F 
ATOM     43  C   UNL A   1      42.905  36.994  33.887  1.00  0.00     0.040 A 
ATOM     44  C   UNL A   1      41.725  35.971  35.718  1.00  0.00     0.040 A 
ATOM     45  F   UNL A   1      40.939  33.769  35.526  1.00  0.00    -0.206 F 
ATOM     46  C   UNL A   1      42.389  37.070  35.179  1.00  0.00     0.006 A 
ENDBRANCH  25  39
BRANCH  26  47
ATOM     47  C   UNL A   1      40.259  26.682  28.011  1.00  0.00     0.057 A 
ATOM     48  C   UNL A   1      40.821  26.556  26.737  1.00  0.00     0.134 A 
ATOM     49  C   UNL A   1      39.442  25.640  28.465  1.00  0.00     0.134 A 
ATOM     50  F   UNL A   1      41.598  27.530  26.241  1.00  0.00    -0.206 F 
ATOM     51  C   UNL A   1      40.571  25.440  25.938  1.00  0.00     0.040 A 
ATOM     52  C   UNL A   1      39.207  24.506  27.688  1.00  0.00     0.040 A 
ATOM     53  F   UNL A   1      38.880  25.700  29.681  1.00  0.00    -0.206 F 
ATOM     54  C   UNL A   1      39.767  24.407  26.417  1.00  0.00     0.006 A 
ENDBRANCH  26  47
BRANCH  38  55
ATOM     55  C   UNL A   1      45.522  28.550  32.152  1.00  0.00     0.057 A 
ATOM     56  C   UNL A   1      45.614  27.675  33.242  1.00  0.00     0.134 A 
ATOM     57  C   UNL A   1      46.677  28.767  31.393  1.00  0.00     0.134 A 
ATOM     58  F   UNL A   1      44.545  27.439  34.018  1.00  0.00    -0.206 F 
ATOM     59  C   UNL A   1      46.820  27.059  33.580  1.00  0.00     0.040 A 
ATOM     60  C   UNL A   1      47.883  28.139  31.708  1.00  0.00     0.040 A 
ATOM     61  F   UNL A   1      46.653  29.590  30.334  1.00  0.00    -0.206 F 
ATOM     62  C   UNL A   1      47.958  27.288  32.809  1.00  0.00     0.006 A 
ENDBRANCH  38  55
ENDBRANCH  12  13
ENDBRANCH   5   7
ENDBRANCH   2   3
ENDBRANCH   1   2
BRANCH   1  63
ATOM     63  C   UNL A   1      34.105  30.142  27.345  1.00  0.00     0.023 C 
BRANCH  63  64
ATOM     64  C   UNL A   1      33.978  28.911  26.453  1.00  0.00     0.116 C 
BRANCH  64  65
ATOM     65  N   UNL A   1      34.237  29.115  25.039  1.00  0.00    -0.354 N 
ATOM     66  C   UNL A   1      33.459  28.675  23.980  1.00  0.00     0.243 C 
ATOM     67  H   UNL A   1      35.050  29.618  24.808  1.00  0.00     0.163 HD
ATOM     68  O   UNL A   1      33.613  29.222  22.888  1.00  0.00    -0.273 OA
BRANCH  66  69
ATOM     69  C   UNL A   1      32.387  27.580  24.255  1.00  0.00     0.185 C 
ATOM     70  C   UNL A   1      31.031  28.304  24.334  1.00  0.00     0.106 C 
ATOM     71  N   UNL A   1      32.242  26.486  23.278  1.00  0.00    -0.316 N 
ATOM     72  S   UNL A   1      29.758  27.248  23.619  1.00  0.00    -0.138 SA
ATOM     73  C   UNL A   1      30.905  25.929  23.250  1.00  0.00     0.190 C 
BRANCH  71  74
ATOM     74  C   UNL A   1      33.339  25.699  22.905  1.00  0.00     0.257 C 
ATOM     75  O   UNL A   1      33.904  25.803  21.823  1.00  0.00    -0.269 OA
BRANCH  74  76
ATOM     76  C   UNL A   1      33.762  24.653  23.884  1.00  0.00     0.066 A 
ATOM     77  C   UNL A   1      34.670  25.042  24.890  1.00  0.00     0.016 A 
ATOM     78  C   UNL A   1      33.340  23.323  23.739  1.00  0.00     0.083 A 
ATOM     79  C   UNL A   1      35.254  24.087  25.710  1.00  0.00     0.002 A 
ATOM     80  C   UNL A   1      33.935  22.371  24.604  1.00  0.00     0.001 A 
ATOM     81  N   UNL A   1      32.441  22.931  22.807  1.00  0.00    -0.255 NA
ATOM     82  C   UNL A   1      34.897  22.752  25.558  1.00  0.00     0.010 A 
ATOM     83  C   UNL A   1      33.558  21.027  24.490  1.00  0.00     0.012 A 
ATOM     84  C   UNL A   1      32.066  21.634  22.757  1.00  0.00     0.112 A 
ATOM     85  C   UNL A   1      32.596  20.651  23.564  1.00  0.00     0.021 A 
ENDBRANCH  74  76
ENDBRANCH  71  74
ENDBRANCH  66  69
ENDBRANCH  64  65
ENDBRANCH  63  64
ENDBRANCH   1  63
TORSDOF 13
ENDMDL
