MODEL 1
REMARK VINA RESULT:     -10.8      0.000      0.000
REMARK SMILES COc1ccccc1C(=O)N/C(=C/c1ccc2c(c1)OCO2)C(=O)Nc1ccc(C(=O)NCCCCNC(=O)c2ccc(-c3c4nc(c(-c5c(F)cccc5F)c5ccc([nH]5)c(-c5c(F)cccc5F)c5nc(c(-c6c(F)cccc6F)c6ccc3[nH]6)C=C5)C=C4)cc2)cc1
REMARK SMILES IDX 33 1 32 2 30 3 31 4 29 6 26 7 27 8 95 9 28 10 94 11 25 12
REMARK SMILES IDX 23 13 24 14 12 16 13 17 11 18 9 19 10 20 8 22 3 23 4 24 5 25
REMARK SMILES IDX 7 26 6 27 2 28 1 29 14 30 15 31 19 32 16 33 18 34 17 35
REMARK SMILES IDX 20 36 22 37 21 38 34 39 35 40 36 41 37 42 38 43 39 45 40 46
REMARK SMILES IDX 41 47 93 48 42 49 92 50 43 51 44 52 45 53 86 54 46 55 91 56
REMARK SMILES IDX 85 57 87 58 47 59 90 60 84 61 83 62 48 64 74 65 57 66 73 67
REMARK SMILES IDX 58 68 61 69 72 70 88 71 59 72 60 73 71 75 89 76 62 77 49 78
REMARK SMILES IDX 50 79 55 80 51 81 52 82 54 83 56 84 53 85 75 86 76 87 81 88
REMARK SMILES IDX 77 89 78 90 80 91 82 92 79 93 63 94 64 95 69 96 65 97 66 98
REMARK SMILES IDX 68 99 70 100 67 101
REMARK H PARENT 32 5 25 15 11 21 37 44 87 63 61 74
REMARK Flexibility Score: inf
ROOT
ATOM      1  C   UNL A   1      40.775  31.907  35.539  1.00  0.00     0.116 C 
ENDROOT
BRANCH   1   2
ATOM      2  N   UNL A   1      41.751  32.997  35.613  1.00  0.00    -0.352 N 
ATOM      3  C   UNL A   1      41.793  34.260  35.025  1.00  0.00     0.251 C 
ATOM      4  O   UNL A   1      42.554  35.111  35.478  1.00  0.00    -0.269 OA
ATOM      5  H   UNL A   1      42.524  32.799  36.188  1.00  0.00     0.163 HD
BRANCH   3   6
ATOM      6  C   UNL A   1      40.893  34.640  33.913  1.00  0.00     0.039 A 
ATOM      7  C   UNL A   1      38.608  34.135  31.109  1.00  0.00     0.041 A 
ATOM      8  C   UNL A   1      37.951  34.715  32.551  1.00  0.00     0.027 A 
ATOM      9  C   UNL A   1      40.271  33.964  31.008  1.00  0.00     0.027 A 
ATOM     10  C   UNL A   1      39.176  35.008  34.196  1.00  0.00     0.016 A 
ATOM     11  C   UNL A   1      41.356  34.219  32.318  1.00  0.00     0.016 A 
BRANCH   7  12
ATOM     12  N   UNL A   1      37.777  33.455  30.197  1.00  0.00    -0.321 N 
ATOM     13  C   UNL A   1      36.426  33.681  29.984  1.00  0.00     0.272 C 
ATOM     14  O   UNL A   1      36.024  34.484  29.143  1.00  0.00    -0.267 OA
ATOM     15  H   UNL A   1      38.198  32.749  29.656  1.00  0.00     0.170 HD
BRANCH  13  16
ATOM     16  C   UNL A   1      35.415  32.723  30.645  1.00  0.00     0.108 C 
ATOM     17  C   UNL A   1      34.942  31.616  30.011  1.00  0.00     0.040 C 
BRANCH  16  18
ATOM     18  N   UNL A   1      34.954  32.865  31.949  1.00  0.00    -0.317 N 
ATOM     19  C   UNL A   1      34.313  33.791  32.731  1.00  0.00     0.259 C 
ATOM     20  O   UNL A   1      34.130  33.496  33.915  1.00  0.00    -0.269 OA
ATOM     21  H   UNL A   1      35.149  32.053  32.472  1.00  0.00     0.170 HD
BRANCH  19  22
ATOM     22  C   UNL A   1      33.881  35.117  32.282  1.00  0.00     0.082 A 
ATOM     23  C   UNL A   1      33.285  35.414  31.061  1.00  0.00     0.131 A 
ATOM     24  C   UNL A   1      33.276  36.752  30.645  1.00  0.00     0.047 A 
ATOM     25  C   UNL A   1      33.643  37.783  31.511  1.00  0.00     0.004 A 
ATOM     26  C   UNL A   1      34.114  36.156  33.205  1.00  0.00     0.018 A 
ATOM     27  C   UNL A   1      33.977  37.487  32.825  1.00  0.00     0.001 A 
BRANCH  23  28
ATOM     28  O   UNL A   1      32.711  34.575  30.148  1.00  0.00    -0.496 OA
ATOM     29  C   UNL A   1      32.863  34.811  28.752  1.00  0.00     0.278 C 
ENDBRANCH  23  28
ENDBRANCH  19  22
ENDBRANCH  16  18
BRANCH  17  30
ATOM     30  C   UNL A   1      34.888  31.473  28.553  1.00  0.00    -0.019 A 
ATOM     31  C   UNL A   1      36.080  30.717  28.195  1.00  0.00     0.012 A 
ATOM     32  C   UNL A   1      33.705  31.663  27.763  1.00  0.00     0.058 A 
ATOM     33  C   UNL A   1      36.045  29.601  27.395  1.00  0.00     0.051 A 
ATOM     34  C   UNL A   1      33.651  30.766  26.719  1.00  0.00     0.166 A 
ATOM     35  C   UNL A   1      34.813  29.432  26.844  1.00  0.00     0.165 A 
ATOM     36  O   UNL A   1      32.018  30.151  26.223  1.00  0.00    -0.454 OA
ATOM     37  O   UNL A   1      33.759  27.723  26.569  1.00  0.00    -0.454 OA
ATOM     38  C   UNL A   1      31.950  28.261  26.099  1.00  0.00     0.468 C 
ENDBRANCH  17  30
ENDBRANCH  13  16
ENDBRANCH   7  12
ENDBRANCH   3   6
ENDBRANCH   1   2
BRANCH   1  39
ATOM     39  C   UNL A   1      39.531  32.012  36.404  1.00  0.00     0.023 C 
BRANCH  39  40
ATOM     40  C   UNL A   1      38.259  31.546  35.734  1.00  0.00     0.023 C 
BRANCH  40  41
ATOM     41  C   UNL A   1      38.292  31.592  34.213  1.00  0.00     0.116 C 
BRANCH  41  42
ATOM     42  N   UNL A   1      37.202  30.861  33.577  1.00  0.00    -0.352 N 
ATOM     43  C   UNL A   1      37.239  30.066  32.454  1.00  0.00     0.251 C 
ATOM     44  H   UNL A   1      36.321  30.948  34.010  1.00  0.00     0.163 HD
ATOM     45  O   UNL A   1      36.202  29.632  31.964  1.00  0.00    -0.269 OA
BRANCH  43  46
ATOM     46  C   UNL A   1      38.542  29.760  31.826  1.00  0.00     0.039 A 
ATOM     47  C   UNL A   1      39.450  28.937  32.495  1.00  0.00     0.014 A 
ATOM     48  C   UNL A   1      38.851  30.261  30.559  1.00  0.00     0.014 A 
ATOM     49  C   UNL A   1      40.644  28.582  31.868  1.00  0.00     0.010 A 
ATOM     50  C   UNL A   1      39.974  29.799  29.887  1.00  0.00     0.010 A 
ATOM     51  C   UNL A   1      40.905  28.986  30.547  1.00  0.00    -0.014 A 
BRANCH  51  52
ATOM     52  C   UNL A   1      42.175  28.620  29.868  1.00  0.00     0.031 A 
ATOM     53  C   UNL A   1      43.333  29.584  29.873  1.00  0.00     0.074 A 
ATOM     54  C   UNL A   1      42.285  27.434  29.238  1.00  0.00     0.049 A 
ATOM     55  N   UNL A   1      44.524  29.447  29.349  1.00  0.00    -0.248 NA
ATOM     56  C   UNL A   1      43.119  30.884  30.532  1.00  0.00     0.031 C 
ATOM     57  C   UNL A   1      41.223  26.433  29.121  1.00  0.00     0.029 A 
ATOM     58  N   UNL A   1      43.349  26.867  28.584  1.00  0.00    -0.354 N 
ATOM     59  C   UNL A   1      45.192  30.636  29.616  1.00  0.00     0.074 A 
ATOM     60  C   UNL A   1      44.250  31.515  30.267  1.00  0.00     0.031 C 
ATOM     61  C   UNL A   1      41.705  25.355  28.481  1.00  0.00     0.029 A 
ATOM     62  C   UNL A   1      43.089  25.607  28.099  1.00  0.00     0.049 A 
ATOM     63  H   UNL A   1      44.217  27.318  28.473  1.00  0.00     0.167 HD
ATOM     64  C   UNL A   1      46.485  30.958  29.374  1.00  0.00     0.037 A 
ATOM     65  C   UNL A   1      43.881  24.755  27.419  1.00  0.00     0.037 A 
ATOM     66  C   UNL A   1      47.423  30.081  28.725  1.00  0.00     0.049 A 
ATOM     67  C   UNL A   1      45.299  25.159  27.119  1.00  0.00     0.074 A 
ATOM     68  C   UNL A   1      48.763  30.298  28.463  1.00  0.00     0.029 A 
ATOM     69  N   UNL A   1      47.115  28.824  28.227  1.00  0.00    -0.354 N 
ATOM     70  N   UNL A   1      45.938  26.259  27.440  1.00  0.00    -0.248 NA
ATOM     71  C   UNL A   1      46.112  24.192  26.369  1.00  0.00     0.031 C 
ATOM     72  C   UNL A   1      49.248  29.207  27.735  1.00  0.00     0.029 A 
ATOM     73  C   UNL A   1      48.234  28.269  27.627  1.00  0.00     0.049 A 
ATOM     74  H   UNL A   1      46.233  28.391  28.289  1.00  0.00     0.167 HD
ATOM     75  C   UNL A   1      47.235  26.098  26.968  1.00  0.00     0.074 A 
ATOM     76  C   UNL A   1      47.296  24.783  26.365  1.00  0.00     0.031 C 
ATOM     77  C   UNL A   1      48.283  26.958  27.028  1.00  0.00     0.037 A 
BRANCH  64  78
ATOM     78  C   UNL A   1      46.955  32.318  29.810  1.00  0.00     0.057 A 
ATOM     79  C   UNL A   1      46.883  33.436  28.965  1.00  0.00     0.134 A 
ATOM     80  C   UNL A   1      47.462  32.520  31.099  1.00  0.00     0.134 A 
ATOM     81  F   UNL A   1      46.419  33.315  27.712  1.00  0.00    -0.206 F 
ATOM     82  C   UNL A   1      47.330  34.694  29.375  1.00  0.00     0.040 A 
ATOM     83  C   UNL A   1      47.876  33.780  31.533  1.00  0.00     0.040 A 
ATOM     84  F   UNL A   1      47.556  31.498  31.963  1.00  0.00    -0.206 F 
ATOM     85  C   UNL A   1      47.820  34.869  30.667  1.00  0.00     0.006 A 
ENDBRANCH  64  78
BRANCH  65  86
ATOM     86  C   UNL A   1      43.363  23.430  26.983  1.00  0.00     0.057 A 
ATOM     87  C   UNL A   1      43.014  23.188  25.648  1.00  0.00     0.134 A 
ATOM     88  C   UNL A   1      43.160  22.389  27.897  1.00  0.00     0.134 A 
ATOM     89  F   UNL A   1      43.169  24.148  24.724  1.00  0.00    -0.206 F 
ATOM     90  C   UNL A   1      42.443  21.979  25.247  1.00  0.00     0.040 A 
ATOM     91  C   UNL A   1      42.626  21.162  27.503  1.00  0.00     0.040 A 
ATOM     92  F   UNL A   1      43.482  22.549  29.189  1.00  0.00    -0.206 F 
ATOM     93  C   UNL A   1      42.251  20.960  26.176  1.00  0.00     0.006 A 
ENDBRANCH  65  86
BRANCH  77  94
ATOM     94  C   UNL A   1      49.598  26.478  26.475  1.00  0.00     0.057 A 
ATOM     95  C   UNL A   1      50.471  25.665  27.209  1.00  0.00     0.134 A 
ATOM     96  C   UNL A   1      49.997  26.843  25.181  1.00  0.00     0.134 A 
ATOM     97  F   UNL A   1      50.156  25.276  28.455  1.00  0.00    -0.206 F 
ATOM     98  C   UNL A   1      51.717  25.285  26.704  1.00  0.00     0.040 A 
ATOM     99  C   UNL A   1      51.219  26.432  24.648  1.00  0.00     0.040 A 
ATOM    100  F   UNL A   1      49.205  27.603  24.410  1.00  0.00    -0.206 F 
ATOM    101  C   UNL A   1      52.091  25.667  25.417  1.00  0.00     0.006 A 
ENDBRANCH  77  94
ENDBRANCH  51  52
ENDBRANCH  43  46
ENDBRANCH  41  42
ENDBRANCH  40  41
ENDBRANCH  39  40
ENDBRANCH   1  39
TORSDOF 17
ENDMDL
MODEL 2
REMARK VINA RESULT:     -10.3      4.064      8.296
REMARK SMILES COc1ccccc1C(=O)N/C(=C/c1ccc2c(c1)OCO2)C(=O)Nc1ccc(C(=O)NCCCCNC(=O)c2ccc(-c3c4nc(c(-c5c(F)cccc5F)c5ccc([nH]5)c(-c5c(F)cccc5F)c5nc(c(-c6c(F)cccc6F)c6ccc3[nH]6)C=C5)C=C4)cc2)cc1
REMARK SMILES IDX 33 1 32 2 30 3 31 4 29 6 26 7 27 8 95 9 28 10 94 11 25 12
REMARK SMILES IDX 23 13 24 14 12 16 13 17 11 18 9 19 10 20 8 22 3 23 4 24 5 25
REMARK SMILES IDX 7 26 6 27 2 28 1 29 14 30 15 31 19 32 16 33 18 34 17 35
REMARK SMILES IDX 20 36 22 37 21 38 34 39 35 40 36 41 37 42 38 43 39 45 40 46
REMARK SMILES IDX 41 47 93 48 42 49 92 50 43 51 44 52 45 53 86 54 46 55 91 56
REMARK SMILES IDX 85 57 87 58 47 59 90 60 84 61 83 62 48 64 74 65 57 66 73 67
REMARK SMILES IDX 58 68 61 69 72 70 88 71 59 72 60 73 71 75 89 76 62 77 49 78
REMARK SMILES IDX 50 79 55 80 51 81 52 82 54 83 56 84 53 85 75 86 76 87 81 88
REMARK SMILES IDX 77 89 78 90 80 91 82 92 79 93 63 94 64 95 69 96 65 97 66 98
REMARK SMILES IDX 68 99 70 100 67 101
REMARK H PARENT 32 5 25 15 11 21 37 44 87 63 61 74
REMARK Flexibility Score: inf
ROOT
ATOM      1  C   UNL A   1      34.703  33.762  30.716  1.00  0.00     0.116 C 
ENDROOT
BRANCH   1   2
ATOM      2  N   UNL A   1      35.421  33.898  29.447  1.00  0.00    -0.352 N 
ATOM      3  C   UNL A   1      35.451  33.112  28.295  1.00  0.00     0.251 C 
ATOM      4  O   UNL A   1      35.885  33.590  27.250  1.00  0.00    -0.269 OA
ATOM      5  H   UNL A   1      35.992  34.698  29.397  1.00  0.00     0.163 HD
BRANCH   3   6
ATOM      6  C   UNL A   1      34.904  31.737  28.268  1.00  0.00     0.039 A 
ATOM      7  C   UNL A   1      33.476  28.710  26.808  1.00  0.00     0.041 A 
ATOM      8  C   UNL A   1      35.079  28.639  27.329  1.00  0.00     0.027 A 
ATOM      9  C   UNL A   1      32.603  30.105  27.119  1.00  0.00     0.027 A 
ATOM     10  C   UNL A   1      35.971  30.319  28.149  1.00  0.00     0.016 A 
ATOM     11  C   UNL A   1      33.262  31.528  27.824  1.00  0.00     0.016 A 
BRANCH   7  12
ATOM     12  N   UNL A   1      33.032  27.812  25.817  1.00  0.00    -0.321 N 
ATOM     13  C   UNL A   1      32.627  26.500  26.013  1.00  0.00     0.272 C 
ATOM     14  O   UNL A   1      31.454  26.208  26.244  1.00  0.00    -0.267 OA
ATOM     15  H   UNL A   1      33.006  28.149  24.893  1.00  0.00     0.170 HD
BRANCH  13  16
ATOM     16  C   UNL A   1      33.627  25.374  25.688  1.00  0.00     0.108 C 
ATOM     17  C   UNL A   1      34.188  25.233  24.457  1.00  0.00     0.040 C 
BRANCH  16  18
ATOM     18  N   UNL A   1      34.089  24.456  26.626  1.00  0.00    -0.317 N 
ATOM     19  C   UNL A   1      34.172  23.099  26.800  1.00  0.00     0.259 C 
ATOM     20  O   UNL A   1      34.648  22.697  27.865  1.00  0.00    -0.269 OA
ATOM     21  H   UNL A   1      34.473  24.924  27.402  1.00  0.00     0.170 HD
BRANCH  19  22
ATOM     22  C   UNL A   1      33.690  22.097  25.845  1.00  0.00     0.082 A 
ATOM     23  C   UNL A   1      32.386  21.970  25.380  1.00  0.00     0.131 A 
ATOM     24  C   UNL A   1      32.021  20.759  24.777  1.00  0.00     0.047 A 
ATOM     25  C   UNL A   1      32.976  19.797  24.446  1.00  0.00     0.004 A 
ATOM     26  C   UNL A   1      34.675  21.199  25.388  1.00  0.00     0.018 A 
ATOM     27  C   UNL A   1      34.320  20.060  24.673  1.00  0.00     0.001 A 
BRANCH  23  28
ATOM     28  O   UNL A   1      31.351  22.859  25.446  1.00  0.00    -0.496 OA
ATOM     29  C   UNL A   1      30.416  22.804  26.519  1.00  0.00     0.278 C 
ENDBRANCH  23  28
ENDBRANCH  19  22
ENDBRANCH  16  18
BRANCH  17  30
ATOM     30  C   UNL A   1      33.576  25.731  23.221  1.00  0.00    -0.019 A 
ATOM     31  C   UNL A   1      32.593  24.725  22.845  1.00  0.00     0.012 A 
ATOM     32  C   UNL A   1      33.647  27.092  22.774  1.00  0.00     0.058 A 
ATOM     33  C   UNL A   1      31.290  25.031  22.539  1.00  0.00     0.051 A 
ATOM     34  C   UNL A   1      32.470  27.486  22.178  1.00  0.00     0.166 A 
ATOM     35  C   UNL A   1      31.112  26.376  22.447  1.00  0.00     0.165 A 
ATOM     36  O   UNL A   1      31.947  29.208  22.403  1.00  0.00    -0.454 OA
ATOM     37  O   UNL A   1      29.564  27.510  23.102  1.00  0.00    -0.454 OA
ATOM     38  C   UNL A   1      30.150  29.361  22.987  1.00  0.00     0.468 C 
ENDBRANCH  17  30
ENDBRANCH  13  16
ENDBRANCH   7  12
ENDBRANCH   3   6
ENDBRANCH   1   2
BRANCH   1  39
ATOM     39  C   UNL A   1      35.417  34.199  31.983  1.00  0.00     0.023 C 
BRANCH  39  40
ATOM     40  C   UNL A   1      35.350  33.204  33.118  1.00  0.00     0.023 C 
BRANCH  40  41
ATOM     41  C   UNL A   1      36.652  32.463  33.387  1.00  0.00     0.116 C 
BRANCH  41  42
ATOM     42  N   UNL A   1      36.547  31.016  33.241  1.00  0.00    -0.352 N 
ATOM     43  C   UNL A   1      37.355  30.163  32.523  1.00  0.00     0.251 C 
ATOM     44  H   UNL A   1      35.799  30.592  33.721  1.00  0.00     0.163 HD
ATOM     45  O   UNL A   1      37.049  28.983  32.386  1.00  0.00    -0.269 OA
BRANCH  43  46
ATOM     46  C   UNL A   1      38.585  30.689  31.894  1.00  0.00     0.039 A 
ATOM     47  C   UNL A   1      39.713  30.923  32.682  1.00  0.00     0.014 A 
ATOM     48  C   UNL A   1      38.631  30.919  30.516  1.00  0.00     0.014 A 
ATOM     49  C   UNL A   1      40.898  31.341  32.076  1.00  0.00     0.010 A 
ATOM     50  C   UNL A   1      39.843  31.204  29.903  1.00  0.00     0.010 A 
ATOM     51  C   UNL A   1      40.982  31.458  30.677  1.00  0.00    -0.014 A 
BRANCH  51  52
ATOM     52  C   UNL A   1      42.236  31.907  30.018  1.00  0.00     0.031 A 
ATOM     53  C   UNL A   1      42.422  33.362  29.672  1.00  0.00     0.074 A 
ATOM     54  C   UNL A   1      43.197  31.013  29.718  1.00  0.00     0.049 A 
ATOM     55  N   UNL A   1      43.444  33.953  29.108  1.00  0.00    -0.248 NA
ATOM     56  C   UNL A   1      41.304  34.271  29.979  1.00  0.00     0.031 C 
ATOM     57  C   UNL A   1      43.120  29.570  29.957  1.00  0.00     0.029 A 
ATOM     58  N   UNL A   1      44.435  31.189  29.152  1.00  0.00    -0.354 N 
ATOM     59  C   UNL A   1      43.089  35.292  28.995  1.00  0.00     0.074 A 
ATOM     60  C   UNL A   1      41.729  35.412  29.465  1.00  0.00     0.031 C 
ATOM     61  C   UNL A   1      44.279  29.001  29.588  1.00  0.00     0.029 A 
ATOM     62  C   UNL A   1      45.160  30.027  29.041  1.00  0.00     0.049 A 
ATOM     63  H   UNL A   1      44.772  32.065  28.855  1.00  0.00     0.167 HD
ATOM     64  C   UNL A   1      43.838  36.337  28.572  1.00  0.00     0.037 A 
ATOM     65  C   UNL A   1      46.396  29.815  28.549  1.00  0.00     0.037 A 
ATOM     66  C   UNL A   1      45.194  36.217  28.104  1.00  0.00     0.049 A 
ATOM     67  C   UNL A   1      47.189  30.988  28.038  1.00  0.00     0.074 A 
ATOM     68  C   UNL A   1      46.051  37.217  27.684  1.00  0.00     0.029 A 
ATOM     69  N   UNL A   1      45.884  35.020  27.983  1.00  0.00    -0.354 N 
ATOM     70  N   UNL A   1      46.867  32.260  28.003  1.00  0.00    -0.248 NA
ATOM     71  C   UNL A   1      48.527  30.695  27.506  1.00  0.00     0.031 C 
ATOM     72  C   UNL A   1      47.232  36.620  27.235  1.00  0.00     0.029 A 
ATOM     73  C   UNL A   1      47.146  35.255  27.462  1.00  0.00     0.049 A 
ATOM     74  H   UNL A   1      45.530  34.135  28.230  1.00  0.00     0.167 HD
ATOM     75  C   UNL A   1      47.975  32.920  27.486  1.00  0.00     0.074 A 
ATOM     76  C   UNL A   1      48.985  31.910  27.249  1.00  0.00     0.031 C 
ATOM     77  C   UNL A   1      48.145  34.242  27.230  1.00  0.00     0.037 A 
BRANCH  64  78
ATOM     78  C   UNL A   1      43.203  37.700  28.592  1.00  0.00     0.057 A 
ATOM     79  C   UNL A   1      43.376  38.585  29.667  1.00  0.00     0.134 A 
ATOM     80  C   UNL A   1      42.430  38.144  27.513  1.00  0.00     0.134 A 
ATOM     81  F   UNL A   1      44.093  38.222  30.741  1.00  0.00    -0.206 F 
ATOM     82  C   UNL A   1      42.775  39.846  29.681  1.00  0.00     0.040 A 
ATOM     83  C   UNL A   1      41.856  39.416  27.499  1.00  0.00     0.040 A 
ATOM     84  F   UNL A   1      42.227  37.353  26.448  1.00  0.00    -0.206 F 
ATOM     85  C   UNL A   1      42.019  40.266  28.590  1.00  0.00     0.006 A 
ENDBRANCH  64  78
BRANCH  65  86
ATOM     86  C   UNL A   1      46.973  28.444  28.523  1.00  0.00     0.057 A 
ATOM     87  C   UNL A   1      47.793  27.979  29.560  1.00  0.00     0.134 A 
ATOM     88  C   UNL A   1      46.759  27.582  27.441  1.00  0.00     0.134 A 
ATOM     89  F   UNL A   1      48.051  28.760  30.619  1.00  0.00    -0.206 F 
ATOM     90  C   UNL A   1      48.412  26.730  29.501  1.00  0.00     0.040 A 
ATOM     91  C   UNL A   1      47.341  26.315  27.386  1.00  0.00     0.040 A 
ATOM     92  F   UNL A   1      45.977  27.960  26.419  1.00  0.00    -0.206 F 
ATOM     93  C   UNL A   1      48.184  25.892  28.412  1.00  0.00     0.006 A 
ENDBRANCH  65  86
BRANCH  77  94
ATOM     94  C   UNL A   1      49.492  34.674  26.717  1.00  0.00     0.057 A 
ATOM     95  C   UNL A   1      50.621  34.753  27.544  1.00  0.00     0.134 A 
ATOM     96  C   UNL A   1      49.658  35.023  25.370  1.00  0.00     0.134 A 
ATOM     97  F   UNL A   1      50.537  34.435  28.845  1.00  0.00    -0.206 F 
ATOM     98  C   UNL A   1      51.847  35.221  27.066  1.00  0.00     0.040 A 
ATOM     99  C   UNL A   1      50.890  35.448  24.870  1.00  0.00     0.040 A 
ATOM    100  F   UNL A   1      48.628  34.954  24.513  1.00  0.00    -0.206 F 
ATOM    101  C   UNL A   1      51.983  35.567  25.723  1.00  0.00     0.006 A 
ENDBRANCH  77  94
ENDBRANCH  51  52
ENDBRANCH  43  46
ENDBRANCH  41  42
ENDBRANCH  40  41
ENDBRANCH  39  40
ENDBRANCH   1  39
TORSDOF 17
ENDMDL
MODEL 3
REMARK VINA RESULT:     -10.2      4.477     10.837
REMARK SMILES COc1ccccc1C(=O)N/C(=C/c1ccc2c(c1)OCO2)C(=O)Nc1ccc(C(=O)NCCCCNC(=O)c2ccc(-c3c4nc(c(-c5c(F)cccc5F)c5ccc([nH]5)c(-c5c(F)cccc5F)c5nc(c(-c6c(F)cccc6F)c6ccc3[nH]6)C=C5)C=C4)cc2)cc1
REMARK SMILES IDX 33 1 32 2 30 3 31 4 29 6 26 7 27 8 95 9 28 10 94 11 25 12
REMARK SMILES IDX 23 13 24 14 12 16 13 17 11 18 9 19 10 20 8 22 3 23 4 24 5 25
REMARK SMILES IDX 7 26 6 27 2 28 1 29 14 30 15 31 19 32 16 33 18 34 17 35
REMARK SMILES IDX 20 36 22 37 21 38 34 39 35 40 36 41 37 42 38 43 39 45 40 46
REMARK SMILES IDX 41 47 93 48 42 49 92 50 43 51 44 52 45 53 86 54 46 55 91 56
REMARK SMILES IDX 85 57 87 58 47 59 90 60 84 61 83 62 48 64 74 65 57 66 73 67
REMARK SMILES IDX 58 68 61 69 72 70 88 71 59 72 60 73 71 75 89 76 62 77 49 78
REMARK SMILES IDX 50 79 55 80 51 81 52 82 54 83 56 84 53 85 75 86 76 87 81 88
REMARK SMILES IDX 77 89 78 90 80 91 82 92 79 93 63 94 64 95 69 96 65 97 66 98
REMARK SMILES IDX 68 99 70 100 67 101
REMARK H PARENT 32 5 25 15 11 21 37 44 87 63 61 74
REMARK Flexibility Score: inf
ROOT
ATOM      1  C   UNL A   1      44.847  24.493  25.723  1.00  0.00     0.116 C 
ENDROOT
BRANCH   1   2
ATOM      2  N   UNL A   1      46.280  24.708  25.936  1.00  0.00    -0.352 N 
ATOM      3  C   UNL A   1      47.084  24.627  27.072  1.00  0.00     0.251 C 
ATOM      4  O   UNL A   1      48.303  24.550  26.944  1.00  0.00    -0.269 OA
ATOM      5  H   UNL A   1      46.769  24.958  25.119  1.00  0.00     0.163 HD
BRANCH   3   6
ATOM      6  C   UNL A   1      46.511  24.554  28.435  1.00  0.00     0.039 A 
ATOM      7  C   UNL A   1      44.602  25.654  31.348  1.00  0.00     0.041 A 
ATOM      8  C   UNL A   1      43.960  24.392  30.430  1.00  0.00     0.027 A 
ATOM      9  C   UNL A   1      46.127  26.223  30.955  1.00  0.00     0.027 A 
ATOM     10  C   UNL A   1      44.970  23.724  28.749  1.00  0.00     0.016 A 
ATOM     11  C   UNL A   1      47.042  25.697  29.597  1.00  0.00     0.016 A 
BRANCH   7  12
ATOM     12  N   UNL A   1      43.739  26.446  32.131  1.00  0.00    -0.321 N 
ATOM     13  C   UNL A   1      44.114  27.421  33.043  1.00  0.00     0.272 C 
ATOM     14  O   UNL A   1      44.257  28.598  32.717  1.00  0.00    -0.267 OA
ATOM     15  H   UNL A   1      42.774  26.294  32.018  1.00  0.00     0.170 HD
BRANCH  13  16
ATOM     16  C   UNL A   1      44.108  27.056  34.541  1.00  0.00     0.108 C 
ATOM     17  C   UNL A   1      45.235  26.675  35.201  1.00  0.00     0.040 C 
BRANCH  16  18
ATOM     18  N   UNL A   1      42.982  27.145  35.353  1.00  0.00    -0.317 N 
ATOM     19  C   UNL A   1      41.976  28.029  35.643  1.00  0.00     0.259 C 
ATOM     20  O   UNL A   1      41.163  27.691  36.509  1.00  0.00    -0.269 OA
ATOM     21  H   UNL A   1      42.876  26.321  35.882  1.00  0.00     0.170 HD
BRANCH  19  22
ATOM     22  C   UNL A   1      41.826  29.359  35.047  1.00  0.00     0.082 A 
ATOM     23  C   UNL A   1      40.853  29.739  34.129  1.00  0.00     0.131 A 
ATOM     24  C   UNL A   1      41.071  30.910  33.391  1.00  0.00     0.047 A 
ATOM     25  C   UNL A   1      42.106  31.788  33.714  1.00  0.00     0.004 A 
ATOM     26  C   UNL A   1      42.780  30.305  35.470  1.00  0.00     0.018 A 
ATOM     27  C   UNL A   1      42.908  31.526  34.816  1.00  0.00     0.001 A 
BRANCH  23  28
ATOM     28  O   UNL A   1      39.686  29.114  33.792  1.00  0.00    -0.496 OA
ATOM     29  C   UNL A   1      39.627  28.248  32.664  1.00  0.00     0.278 C 
ENDBRANCH  23  28
ENDBRANCH  19  22
ENDBRANCH  16  18
BRANCH  17  30
ATOM     30  C   UNL A   1      46.400  26.074  34.543  1.00  0.00    -0.019 A 
ATOM     31  C   UNL A   1      47.437  27.095  34.587  1.00  0.00     0.012 A 
ATOM     32  C   UNL A   1      46.568  24.666  34.324  1.00  0.00     0.058 A 
ATOM     33  C   UNL A   1      48.708  26.849  35.044  1.00  0.00     0.051 A 
ATOM     34  C   UNL A   1      47.883  24.289  34.483  1.00  0.00     0.166 A 
ATOM     35  C   UNL A   1      48.905  25.519  35.250  1.00  0.00     0.165 A 
ATOM     36  O   UNL A   1      48.209  22.651  35.190  1.00  0.00    -0.454 OA
ATOM     37  O   UNL A   1      49.885  24.591  36.763  1.00  0.00    -0.454 OA
ATOM     38  C   UNL A   1      49.440  22.702  36.631  1.00  0.00     0.468 C 
ENDBRANCH  17  30
ENDBRANCH  13  16
ENDBRANCH   7  12
ENDBRANCH   3   6
ENDBRANCH   1   2
BRANCH   1  39
ATOM     39  C   UNL A   1      44.393  23.099  25.325  1.00  0.00     0.023 C 
BRANCH  39  40
ATOM     40  C   UNL A   1      42.899  22.947  25.162  1.00  0.00     0.023 C 
BRANCH  40  41
ATOM     41  C   UNL A   1      42.251  21.975  26.139  1.00  0.00     0.116 C 
BRANCH  41  42
ATOM     42  N   UNL A   1      40.822  21.786  25.921  1.00  0.00    -0.352 N 
ATOM     43  C   UNL A   1      39.781  22.616  26.271  1.00  0.00     0.251 C 
ATOM     44  H   UNL A   1      40.567  20.952  25.462  1.00  0.00     0.163 HD
ATOM     45  O   UNL A   1      38.619  22.245  26.142  1.00  0.00    -0.269 OA
BRANCH  43  46
ATOM     46  C   UNL A   1      40.076  23.953  26.829  1.00  0.00     0.039 A 
ATOM     47  C   UNL A   1      40.446  24.069  28.170  1.00  0.00     0.014 A 
ATOM     48  C   UNL A   1      40.019  25.086  26.015  1.00  0.00     0.014 A 
ATOM     49  C   UNL A   1      40.804  25.320  28.676  1.00  0.00     0.010 A 
ATOM     50  C   UNL A   1      40.503  26.300  26.484  1.00  0.00     0.010 A 
ATOM     51  C   UNL A   1      40.863  26.442  27.831  1.00  0.00    -0.014 A 
BRANCH  51  52
ATOM     52  C   UNL A   1      41.237  27.780  28.356  1.00  0.00     0.031 A 
ATOM     53  C   UNL A   1      42.684  28.201  28.373  1.00  0.00     0.074 A 
ATOM     54  C   UNL A   1      40.287  28.609  28.828  1.00  0.00     0.049 A 
ATOM     55  N   UNL A   1      43.213  29.328  28.778  1.00  0.00    -0.248 NA
ATOM     56  C   UNL A   1      43.672  27.219  27.893  1.00  0.00     0.031 C 
ATOM     57  C   UNL A   1      38.857  28.303  28.911  1.00  0.00     0.029 A 
ATOM     58  N   UNL A   1      40.381  29.886  29.322  1.00  0.00    -0.354 N 
ATOM     59  C   UNL A   1      44.584  29.186  28.602  1.00  0.00     0.074 A 
ATOM     60  C   UNL A   1      44.815  27.838  28.139  1.00  0.00     0.031 C 
ATOM     61  C   UNL A   1      38.204  29.380  29.376  1.00  0.00     0.029 A 
ATOM     62  C   UNL A   1      39.170  30.432  29.672  1.00  0.00     0.049 A 
ATOM     63  H   UNL A   1      41.235  30.366  29.415  1.00  0.00     0.167 HD
ATOM     64  C   UNL A   1      45.563  30.105  28.774  1.00  0.00     0.037 A 
ATOM     65  C   UNL A   1      38.874  31.645  30.178  1.00  0.00     0.037 A 
ATOM     66  C   UNL A   1      45.331  31.448  29.236  1.00  0.00     0.049 A 
ATOM     67  C   UNL A   1      39.988  32.630  30.408  1.00  0.00     0.074 A 
ATOM     68  C   UNL A   1      46.249  32.467  29.413  1.00  0.00     0.029 A 
ATOM     69  N   UNL A   1      44.094  31.955  29.603  1.00  0.00    -0.354 N 
ATOM     70  N   UNL A   1      41.273  32.506  30.170  1.00  0.00    -0.248 NA
ATOM     71  C   UNL A   1      39.607  33.933  30.970  1.00  0.00     0.031 C 
ATOM     72  C   UNL A   1      45.582  33.565  29.963  1.00  0.00     0.029 A 
ATOM     73  C   UNL A   1      44.231  33.262  30.040  1.00  0.00     0.049 A 
ATOM     74  H   UNL A   1      43.244  31.459  29.562  1.00  0.00     0.167 HD
ATOM     75  C   UNL A   1      41.843  33.726  30.513  1.00  0.00     0.074 A 
ATOM     76  C   UNL A   1      40.760  34.583  30.948  1.00  0.00     0.031 C 
ATOM     77  C   UNL A   1      43.146  34.106  30.472  1.00  0.00     0.037 A 
BRANCH  64  78
ATOM     78  C   UNL A   1      46.973  29.683  28.468  1.00  0.00     0.057 A 
ATOM     79  C   UNL A   1      47.849  29.235  29.468  1.00  0.00     0.134 A 
ATOM     80  C   UNL A   1      47.454  29.700  27.153  1.00  0.00     0.134 A 
ATOM     81  F   UNL A   1      47.461  29.204  30.752  1.00  0.00    -0.206 F 
ATOM     82  C   UNL A   1      49.160  28.853  29.175  1.00  0.00     0.040 A 
ATOM     83  C   UNL A   1      48.750  29.284  26.843  1.00  0.00     0.040 A 
ATOM     84  F   UNL A   1      46.670  30.111  26.145  1.00  0.00    -0.206 F 
ATOM     85  C   UNL A   1      49.610  28.870  27.857  1.00  0.00     0.006 A 
ENDBRANCH  64  78
BRANCH  65  86
ATOM     86  C   UNL A   1      37.466  32.008  30.493  1.00  0.00     0.057 A 
ATOM     87  C   UNL A   1      36.663  32.685  29.565  1.00  0.00     0.134 A 
ATOM     88  C   UNL A   1      36.903  31.732  31.745  1.00  0.00     0.134 A 
ATOM     89  F   UNL A   1      37.147  32.994  28.352  1.00  0.00    -0.206 F 
ATOM     90  C   UNL A   1      35.373  33.111  29.884  1.00  0.00     0.040 A 
ATOM     91  C   UNL A   1      35.601  32.118  32.064  1.00  0.00     0.040 A 
ATOM     92  F   UNL A   1      37.612  31.078  32.677  1.00  0.00    -0.206 F 
ATOM     93  C   UNL A   1      34.837  32.824  31.137  1.00  0.00     0.006 A 
ENDBRANCH  65  86
BRANCH  77  94
ATOM     94  C   UNL A   1      43.458  35.527  30.855  1.00  0.00     0.057 A 
ATOM     95  C   UNL A   1      43.673  35.917  32.185  1.00  0.00     0.134 A 
ATOM     96  C   UNL A   1      43.541  36.524  29.874  1.00  0.00     0.134 A 
ATOM     97  F   UNL A   1      43.610  35.017  33.178  1.00  0.00    -0.206 F 
ATOM     98  C   UNL A   1      43.895  37.253  32.528  1.00  0.00     0.040 A 
ATOM     99  C   UNL A   1      43.808  37.854  30.200  1.00  0.00     0.040 A 
ATOM    100  F   UNL A   1      43.366  36.224  28.578  1.00  0.00    -0.206 F 
ATOM    101  C   UNL A   1      43.966  38.225  31.533  1.00  0.00     0.006 A 
ENDBRANCH  77  94
ENDBRANCH  51  52
ENDBRANCH  43  46
ENDBRANCH  41  42
ENDBRANCH  40  41
ENDBRANCH  39  40
ENDBRANCH   1  39
TORSDOF 17
ENDMDL
