MODEL 1
REMARK VINA RESULT:     -12.1      0.000      0.000
REMARK SMILES Cc1c(Br)c(C)c2c(c1Br)O[C@H](C(F)(F)F)C(C(=O)NCCCCNC(=O)c1ccc(-c3c4nc(c(-c5c(F)cccc5F)c5ccc([nH]5)c(-c5c(F)cccc5F)c5nc(c(-c6c(F)cccc6F)c6ccc3[nH]6)C=C5)C=C4)cc1)=C2
REMARK SMILES IDX 23 1 22 2 21 3 20 4 18 5 19 6 17 8 1 9 2 10 3 11 9 12 4 13
REMARK SMILES IDX 5 14 8 15 10 16 6 17 7 18 11 19 82 20 12 21 13 22 14 23
REMARK SMILES IDX 15 24 16 25 24 26 25 27 26 28 27 30 28 31 29 32 81 33 30 34
REMARK SMILES IDX 80 35 31 36 32 37 33 38 74 39 34 40 79 41 73 42 75 43 35 44
REMARK SMILES IDX 78 45 72 46 71 47 36 49 62 50 45 51 61 52 46 53 49 54 60 55
REMARK SMILES IDX 76 56 47 57 48 58 59 60 77 61 50 62 37 63 38 64 43 65 39 66
REMARK SMILES IDX 40 67 42 68 44 69 41 70 63 71 64 72 69 73 65 74 66 75 68 76
REMARK SMILES IDX 70 77 67 78 51 79 52 80 57 81 53 82 54 83 56 84 58 85 55 86
REMARK H PARENT 20 7 25 29 75 48 49 59
REMARK Flexibility Score: inf
ROOT
ATOM      1  C   UNL A   1      33.578  28.924  25.470  1.00  0.00     0.023 C 
ENDROOT
BRANCH   1   2
ATOM      2  C   UNL A   1      33.835  27.686  24.607  1.00  0.00     0.023 C 
BRANCH   2   3
ATOM      3  C   UNL A   1      32.566  26.970  24.150  1.00  0.00     0.116 C 
BRANCH   3   4
ATOM      4  N   UNL A   1      31.790  26.477  25.273  1.00  0.00    -0.352 N 
ATOM      5  C   UNL A   1      31.647  25.307  25.939  1.00  0.00     0.251 C 
ATOM      6  O   UNL A   1      30.829  25.328  26.864  1.00  0.00    -0.270 OA
ATOM      7  H   UNL A   1      31.213  27.180  25.651  1.00  0.00     0.163 HD
BRANCH   5   8
ATOM      8  C   UNL A   1      32.390  24.046  25.641  1.00  0.00     0.067 C 
ATOM      9  C   UNL A   1      36.807  19.250  24.822  1.00  0.00     0.047 C 
ATOM     10  C   UNL A   1      36.001  20.495  25.112  1.00  0.00    -0.019 A 
ATOM     11  C   UNL A   1      36.658  21.693  25.501  1.00  0.00     0.025 A 
ATOM     12  C   UNL A   1      34.598  20.510  25.022  1.00  0.00     0.064 A 
ATOM     13  Br  UNL A   1      38.574  21.673  25.665  1.00  0.00    -0.050 Br
ATOM     14  C   UNL A   1      35.939  22.885  25.778  1.00  0.00    -0.026 A 
ATOM     15  C   UNL A   1      33.877  21.686  25.293  1.00  0.00     0.142 A 
ATOM     16  Br  UNL A   1      33.602  18.952  24.522  1.00  0.00    -0.046 Br
ATOM     17  C   UNL A   1      36.623  24.171  26.192  1.00  0.00     0.046 C 
ATOM     18  C   UNL A   1      34.528  22.866  25.672  1.00  0.00     0.022 A 
ATOM     19  O   UNL A   1      32.508  21.615  25.228  1.00  0.00    -0.474 OA
ATOM     20  C   UNL A   1      33.693  24.038  25.978  1.00  0.00     0.026 C 
ATOM     21  C   UNL A   1      31.794  22.848  24.972  1.00  0.00     0.314 C 
BRANCH  21  22
ATOM     22  C   UNL A   1      31.598  23.038  23.457  1.00  0.00     0.429 C 
ATOM     23  F   UNL A   1      30.367  23.543  23.197  1.00  0.00    -0.167 F 
ATOM     24  F   UNL A   1      32.488  23.911  22.928  1.00  0.00    -0.167 F 
ATOM     25  F   UNL A   1      31.720  21.883  22.766  1.00  0.00    -0.167 F 
ENDBRANCH  21  22
ENDBRANCH   5   8
ENDBRANCH   3   4
ENDBRANCH   2   3
ENDBRANCH   1   2
BRANCH   1  26
ATOM     26  C   UNL A   1      34.012  28.807  26.931  1.00  0.00     0.116 C 
BRANCH  26  27
ATOM     27  N   UNL A   1      33.897  30.050  27.681  1.00  0.00    -0.352 N 
ATOM     28  C   UNL A   1      34.844  30.649  28.475  1.00  0.00     0.251 C 
ATOM     29  H   UNL A   1      33.034  30.519  27.609  1.00  0.00     0.163 HD
ATOM     30  O   UNL A   1      34.579  31.663  29.114  1.00  0.00    -0.269 OA
BRANCH  28  31
ATOM     31  C   UNL A   1      36.176  30.028  28.584  1.00  0.00     0.039 A 
ATOM     32  C   UNL A   1      37.053  30.122  27.500  1.00  0.00     0.014 A 
ATOM     33  C   UNL A   1      36.571  29.410  29.773  1.00  0.00     0.014 A 
ATOM     34  C   UNL A   1      38.362  29.660  27.637  1.00  0.00     0.010 A 
ATOM     35  C   UNL A   1      37.891  29.001  29.925  1.00  0.00     0.010 A 
ATOM     36  C   UNL A   1      38.798  29.131  28.862  1.00  0.00    -0.014 A 
BRANCH  36  37
ATOM     37  C   UNL A   1      40.202  28.706  29.063  1.00  0.00     0.031 A 
ATOM     38  C   UNL A   1      41.195  29.666  29.648  1.00  0.00     0.074 A 
ATOM     39  C   UNL A   1      40.596  27.488  28.644  1.00  0.00     0.049 A 
ATOM     40  N   UNL A   1      42.488  29.535  29.785  1.00  0.00    -0.248 NA
ATOM     41  C   UNL A   1      40.664  30.955  30.118  1.00  0.00     0.031 C 
ATOM     42  C   UNL A   1      39.729  26.479  28.035  1.00  0.00     0.029 A 
ATOM     43  N   UNL A   1      41.835  26.900  28.655  1.00  0.00    -0.354 N 
ATOM     44  C   UNL A   1      42.928  30.728  30.342  1.00  0.00     0.074 A 
ATOM     45  C   UNL A   1      41.770  31.587  30.478  1.00  0.00     0.031 C 
ATOM     46  C   UNL A   1      40.459  25.389  27.746  1.00  0.00     0.029 A 
ATOM     47  C   UNL A   1      41.849  25.638  28.114  1.00  0.00     0.049 A 
ATOM     48  H   UNL A   1      42.638  27.340  29.016  1.00  0.00     0.167 HD
ATOM     49  C   UNL A   1      44.181  31.070  30.722  1.00  0.00     0.037 A 
ATOM     50  C   UNL A   1      42.871  24.781  27.929  1.00  0.00     0.037 A 
ATOM     51  C   UNL A   1      45.325  30.205  30.606  1.00  0.00     0.049 A 
ATOM     52  C   UNL A   1      44.255  25.185  28.353  1.00  0.00     0.074 A 
ATOM     53  C   UNL A   1      46.632  30.447  30.992  1.00  0.00     0.029 A 
ATOM     54  N   UNL A   1      45.296  28.928  30.066  1.00  0.00    -0.354 N 
ATOM     55  N   UNL A   1      44.655  26.308  28.896  1.00  0.00    -0.248 NA
ATOM     56  C   UNL A   1      45.327  24.204  28.137  1.00  0.00     0.031 C 
ATOM     57  C   UNL A   1      47.399  29.325  30.661  1.00  0.00     0.029 A 
ATOM     58  C   UNL A   1      46.564  28.371  30.102  1.00  0.00     0.049 A 
ATOM     59  H   UNL A   1      44.493  28.483  29.710  1.00  0.00     0.167 HD
ATOM     60  C   UNL A   1      46.020  26.165  29.107  1.00  0.00     0.074 A 
ATOM     61  C   UNL A   1      46.376  24.839  28.642  1.00  0.00     0.031 C 
ATOM     62  C   UNL A   1      46.898  27.050  29.637  1.00  0.00     0.037 A 
BRANCH  49  63
ATOM     63  C   UNL A   1      44.374  32.437  31.305  1.00  0.00     0.057 A 
ATOM     64  C   UNL A   1      44.219  32.679  32.676  1.00  0.00     0.134 A 
ATOM     65  C   UNL A   1      44.741  33.518  30.494  1.00  0.00     0.134 A 
ATOM     66  F   UNL A   1      43.852  31.688  33.504  1.00  0.00    -0.206 F 
ATOM     67  C   UNL A   1      44.403  33.952  33.217  1.00  0.00     0.040 A 
ATOM     68  C   UNL A   1      44.952  34.791  31.028  1.00  0.00     0.040 A 
ATOM     69  F   UNL A   1      44.907  33.353  29.173  1.00  0.00    -0.206 F 
ATOM     70  C   UNL A   1      44.777  35.011  32.392  1.00  0.00     0.006 A 
ENDBRANCH  49  63
BRANCH  50  71
ATOM     71  C   UNL A   1      42.613  23.445  27.341  1.00  0.00     0.057 A 
ATOM     72  C   UNL A   1      42.756  23.229  25.966  1.00  0.00     0.134 A 
ATOM     73  C   UNL A   1      42.242  22.352  28.133  1.00  0.00     0.134 A 
ATOM     74  F   UNL A   1      43.092  24.242  25.155  1.00  0.00    -0.206 F 
ATOM     75  C   UNL A   1      42.534  21.974  25.396  1.00  0.00     0.040 A 
ATOM     76  C   UNL A   1      42.036  21.087  27.580  1.00  0.00     0.040 A 
ATOM     77  F   UNL A   1      42.096  22.495  29.458  1.00  0.00    -0.206 F 
ATOM     78  C   UNL A   1      42.179  20.897  26.207  1.00  0.00     0.006 A 
ENDBRANCH  50  71
BRANCH  62  79
ATOM     79  C   UNL A   1      48.325  26.608  29.766  1.00  0.00     0.057 A 
ATOM     80  C   UNL A   1      49.278  26.904  28.785  1.00  0.00     0.134 A 
ATOM     81  C   UNL A   1      48.759  25.927  30.910  1.00  0.00     0.134 A 
ATOM     82  F   UNL A   1      48.921  27.545  27.661  1.00  0.00    -0.206 F 
ATOM     83  C   UNL A   1      50.613  26.524  28.930  1.00  0.00     0.040 A 
ATOM     84  C   UNL A   1      50.095  25.560  31.075  1.00  0.00     0.040 A 
ATOM     85  F   UNL A   1      47.895  25.621  31.889  1.00  0.00    -0.206 F 
ATOM     86  C   UNL A   1      51.026  25.857  30.082  1.00  0.00     0.006 A 
ENDBRANCH  62  79
ENDBRANCH  36  37
ENDBRANCH  28  31
ENDBRANCH  26  27
ENDBRANCH   1  26
TORSDOF 12
ENDMDL
MODEL 2
REMARK VINA RESULT:     -11.9      2.614      7.569
REMARK SMILES Cc1c(Br)c(C)c2c(c1Br)O[C@H](C(F)(F)F)C(C(=O)NCCCCNC(=O)c1ccc(-c3c4nc(c(-c5c(F)cccc5F)c5ccc([nH]5)c(-c5c(F)cccc5F)c5nc(c(-c6c(F)cccc6F)c6ccc3[nH]6)C=C5)C=C4)cc1)=C2
REMARK SMILES IDX 23 1 22 2 21 3 20 4 18 5 19 6 17 8 1 9 2 10 3 11 9 12 4 13
REMARK SMILES IDX 5 14 8 15 10 16 6 17 7 18 11 19 82 20 12 21 13 22 14 23
REMARK SMILES IDX 15 24 16 25 24 26 25 27 26 28 27 30 28 31 29 32 81 33 30 34
REMARK SMILES IDX 80 35 31 36 32 37 33 38 74 39 34 40 79 41 73 42 75 43 35 44
REMARK SMILES IDX 78 45 72 46 71 47 36 49 62 50 45 51 61 52 46 53 49 54 60 55
REMARK SMILES IDX 76 56 47 57 48 58 59 60 77 61 50 62 37 63 38 64 43 65 39 66
REMARK SMILES IDX 40 67 42 68 44 69 41 70 63 71 64 72 69 73 65 74 66 75 68 76
REMARK SMILES IDX 70 77 67 78 51 79 52 80 57 81 53 82 54 83 56 84 58 85 55 86
REMARK H PARENT 20 7 25 29 75 48 49 59
REMARK Flexibility Score: inf
ROOT
ATOM      1  C   UNL A   1      37.762  20.089  24.970  1.00  0.00     0.023 C 
ENDROOT
BRANCH   1   2
ATOM      2  C   UNL A   1      36.843  21.259  24.608  1.00  0.00     0.023 C 
BRANCH   2   3
ATOM      3  C   UNL A   1      36.926  22.439  25.574  1.00  0.00     0.116 C 
BRANCH   3   4
ATOM      4  N   UNL A   1      35.856  22.409  26.555  1.00  0.00    -0.352 N 
ATOM      5  C   UNL A   1      34.632  22.969  26.699  1.00  0.00     0.251 C 
ATOM      6  O   UNL A   1      34.040  22.672  27.742  1.00  0.00    -0.270 OA
ATOM      7  H   UNL A   1      36.080  21.829  27.318  1.00  0.00     0.163 HD
BRANCH   5   8
ATOM      8  C   UNL A   1      33.976  23.881  25.715  1.00  0.00     0.067 C 
ATOM      9  C   UNL A   1      31.200  28.870  22.462  1.00  0.00     0.047 C 
ATOM     10  C   UNL A   1      31.870  27.904  23.412  1.00  0.00    -0.019 A 
ATOM     11  C   UNL A   1      32.100  28.279  24.763  1.00  0.00     0.025 A 
ATOM     12  C   UNL A   1      32.293  26.629  22.999  1.00  0.00     0.064 A 
ATOM     13  Br  UNL A   1      31.560  30.036  25.328  1.00  0.00    -0.050 Br
ATOM     14  C   UNL A   1      32.722  27.401  25.688  1.00  0.00    -0.026 A 
ATOM     15  C   UNL A   1      32.908  25.751  23.908  1.00  0.00     0.142 A 
ATOM     16  Br  UNL A   1      32.050  26.019  21.199  1.00  0.00    -0.046 Br
ATOM     17  C   UNL A   1      32.973  27.783  27.131  1.00  0.00     0.046 C 
ATOM     18  C   UNL A   1      33.130  26.123  25.240  1.00  0.00     0.022 A 
ATOM     19  O   UNL A   1      33.335  24.540  23.424  1.00  0.00    -0.474 OA
ATOM     20  C   UNL A   1      33.818  25.158  26.111  1.00  0.00     0.026 C 
ATOM     21  C   UNL A   1      33.463  23.456  24.375  1.00  0.00     0.314 C 
BRANCH  21  22
ATOM     22  C   UNL A   1      32.144  22.668  24.456  1.00  0.00     0.429 C 
ATOM     23  F   UNL A   1      31.320  23.214  25.383  1.00  0.00    -0.167 F 
ATOM     24  F   UNL A   1      31.463  22.682  23.285  1.00  0.00    -0.167 F 
ATOM     25  F   UNL A   1      32.330  21.371  24.787  1.00  0.00    -0.167 F 
ENDBRANCH  21  22
ENDBRANCH   5   8
ENDBRANCH   3   4
ENDBRANCH   2   3
ENDBRANCH   1   2
BRANCH   1  26
ATOM     26  C   UNL A   1      39.014  20.459  25.764  1.00  0.00     0.116 C 
BRANCH  26  27
ATOM     27  N   UNL A   1      40.039  19.425  25.761  1.00  0.00    -0.352 N 
ATOM     28  C   UNL A   1      41.360  19.543  26.122  1.00  0.00     0.251 C 
ATOM     29  H   UNL A   1      39.751  18.532  25.465  1.00  0.00     0.163 HD
ATOM     30  O   UNL A   1      42.133  18.599  25.994  1.00  0.00    -0.269 OA
BRANCH  28  31
ATOM     31  C   UNL A   1      41.845  20.840  26.626  1.00  0.00     0.039 A 
ATOM     32  C   UNL A   1      42.311  21.786  25.710  1.00  0.00     0.014 A 
ATOM     33  C   UNL A   1      41.782  21.134  27.990  1.00  0.00     0.014 A 
ATOM     34  C   UNL A   1      42.645  23.064  26.157  1.00  0.00     0.010 A 
ATOM     35  C   UNL A   1      42.063  22.424  28.425  1.00  0.00     0.010 A 
ATOM     36  C   UNL A   1      42.488  23.401  27.511  1.00  0.00    -0.014 A 
BRANCH  36  37
ATOM     37  C   UNL A   1      42.758  24.772  28.001  1.00  0.00     0.031 A 
ATOM     38  C   UNL A   1      44.147  25.155  28.415  1.00  0.00     0.074 A 
ATOM     39  C   UNL A   1      41.739  25.640  28.149  1.00  0.00     0.049 A 
ATOM     40  N   UNL A   1      44.566  26.254  28.987  1.00  0.00    -0.248 NA
ATOM     41  C   UNL A   1      45.203  24.158  28.176  1.00  0.00     0.031 C 
ATOM     42  C   UNL A   1      40.340  25.373  27.806  1.00  0.00     0.029 A 
ATOM     43  N   UNL A   1      41.722  26.921  28.639  1.00  0.00    -0.354 N 
ATOM     44  C   UNL A   1      45.927  26.075  29.191  1.00  0.00     0.074 A 
ATOM     45  C   UNL A   1      46.257  24.746  28.720  1.00  0.00     0.031 C 
ATOM     46  C   UNL A   1      39.605  26.462  28.081  1.00  0.00     0.029 A 
ATOM     47  C   UNL A   1      40.472  27.488  28.653  1.00  0.00     0.049 A 
ATOM     48  H   UNL A   1      42.530  27.388  28.951  1.00  0.00     0.167 HD
ATOM     49  C   UNL A   1      46.824  26.947  29.707  1.00  0.00     0.037 A 
ATOM     50  C   UNL A   1      40.069  28.697  29.088  1.00  0.00     0.037 A 
ATOM     51  C   UNL A   1      46.496  28.275  30.154  1.00  0.00     0.049 A 
ATOM     52  C   UNL A   1      41.082  29.646  29.663  1.00  0.00     0.074 A 
ATOM     53  C   UNL A   1      47.339  29.247  30.663  1.00  0.00     0.029 A 
ATOM     54  N   UNL A   1      45.220  28.819  30.139  1.00  0.00    -0.354 N 
ATOM     55  N   UNL A   1      42.370  29.473  29.833  1.00  0.00    -0.248 NA
ATOM     56  C   UNL A   1      40.586  30.955  30.108  1.00  0.00     0.031 C 
ATOM     57  C   UNL A   1      46.568  30.370  30.982  1.00  0.00     0.029 A 
ATOM     58  C   UNL A   1      45.251  30.110  30.637  1.00  0.00     0.049 A 
ATOM     59  H   UNL A   1      44.411  28.355  29.821  1.00  0.00     0.167 HD
ATOM     60  C   UNL A   1      42.844  30.655  30.384  1.00  0.00     0.074 A 
ATOM     61  C   UNL A   1      41.705  31.543  30.510  1.00  0.00     0.031 C 
ATOM     62  C   UNL A   1      44.107  30.978  30.753  1.00  0.00     0.037 A 
BRANCH  49  63
ATOM     63  C   UNL A   1      48.247  26.489  29.810  1.00  0.00     0.057 A 
ATOM     64  C   UNL A   1      49.170  26.728  28.783  1.00  0.00     0.134 A 
ATOM     65  C   UNL A   1      48.708  25.826  30.954  1.00  0.00     0.134 A 
ATOM     66  F   UNL A   1      48.787  27.344  27.654  1.00  0.00    -0.206 F 
ATOM     67  C   UNL A   1      50.496  26.304  28.882  1.00  0.00     0.040 A 
ATOM     68  C   UNL A   1      50.037  25.419  31.075  1.00  0.00     0.040 A 
ATOM     69  F   UNL A   1      47.875  25.568  31.973  1.00  0.00    -0.206 F 
ATOM     70  C   UNL A   1      50.934  25.653  30.034  1.00  0.00     0.006 A 
ENDBRANCH  49  63
BRANCH  50  71
ATOM     71  C   UNL A   1      38.644  29.086  28.963  1.00  0.00     0.057 A 
ATOM     72  C   UNL A   1      37.785  29.018  30.065  1.00  0.00     0.134 A 
ATOM     73  C   UNL A   1      38.113  29.553  27.755  1.00  0.00     0.134 A 
ATOM     74  F   UNL A   1      38.234  28.561  31.243  1.00  0.00    -0.206 F 
ATOM     75  C   UNL A   1      36.445  29.396  29.972  1.00  0.00     0.040 A 
ATOM     76  C   UNL A   1      36.779  29.953  27.652  1.00  0.00     0.040 A 
ATOM     77  F   UNL A   1      38.888  29.647  26.666  1.00  0.00    -0.206 F 
ATOM     78  C   UNL A   1      35.940  29.872  28.762  1.00  0.00     0.006 A 
ENDBRANCH  50  71
BRANCH  62  79
ATOM     79  C   UNL A   1      44.332  32.354  31.304  1.00  0.00     0.057 A 
ATOM     80  C   UNL A   1      44.280  32.612  32.679  1.00  0.00     0.134 A 
ATOM     81  C   UNL A   1      44.656  33.419  30.455  1.00  0.00     0.134 A 
ATOM     82  F   UNL A   1      43.964  31.635  33.544  1.00  0.00    -0.206 F 
ATOM     83  C   UNL A   1      44.529  33.886  33.190  1.00  0.00     0.040 A 
ATOM     84  C   UNL A   1      44.927  34.692  30.955  1.00  0.00     0.040 A 
ATOM     85  F   UNL A   1      44.729  33.234  29.129  1.00  0.00    -0.206 F 
ATOM     86  C   UNL A   1      44.861  34.929  32.327  1.00  0.00     0.006 A 
ENDBRANCH  62  79
ENDBRANCH  36  37
ENDBRANCH  28  31
ENDBRANCH  26  27
ENDBRANCH   1  26
TORSDOF 12
ENDMDL
MODEL 3
REMARK VINA RESULT:     -11.8      3.399      8.152
REMARK SMILES Cc1c(Br)c(C)c2c(c1Br)O[C@H](C(F)(F)F)C(C(=O)NCCCCNC(=O)c1ccc(-c3c4nc(c(-c5c(F)cccc5F)c5ccc([nH]5)c(-c5c(F)cccc5F)c5nc(c(-c6c(F)cccc6F)c6ccc3[nH]6)C=C5)C=C4)cc1)=C2
REMARK SMILES IDX 23 1 22 2 21 3 20 4 18 5 19 6 17 8 1 9 2 10 3 11 9 12 4 13
REMARK SMILES IDX 5 14 8 15 10 16 6 17 7 18 11 19 82 20 12 21 13 22 14 23
REMARK SMILES IDX 15 24 16 25 24 26 25 27 26 28 27 30 28 31 29 32 81 33 30 34
REMARK SMILES IDX 80 35 31 36 32 37 33 38 74 39 34 40 79 41 73 42 75 43 35 44
REMARK SMILES IDX 78 45 72 46 71 47 36 49 62 50 45 51 61 52 46 53 49 54 60 55
REMARK SMILES IDX 76 56 47 57 48 58 59 60 77 61 50 62 37 63 38 64 43 65 39 66
REMARK SMILES IDX 40 67 42 68 44 69 41 70 63 71 64 72 69 73 65 74 66 75 68 76
REMARK SMILES IDX 70 77 67 78 51 79 52 80 57 81 53 82 54 83 56 84 58 85 55 86
REMARK H PARENT 20 7 25 29 75 48 49 59
REMARK Flexibility Score: inf
ROOT
ATOM      1  C   UNL A   1      35.947  23.719  26.078  1.00  0.00     0.023 C 
ENDROOT
BRANCH   1   2
ATOM      2  C   UNL A   1      34.916  22.598  25.922  1.00  0.00     0.023 C 
BRANCH   2   3
ATOM      3  C   UNL A   1      33.609  23.039  25.266  1.00  0.00     0.116 C 
BRANCH   3   4
ATOM      4  N   UNL A   1      33.778  23.300  23.848  1.00  0.00    -0.352 N 
ATOM      5  C   UNL A   1      33.465  24.291  22.981  1.00  0.00     0.251 C 
ATOM      6  O   UNL A   1      33.796  24.085  21.809  1.00  0.00    -0.270 OA
ATOM      7  H   UNL A   1      34.243  22.559  23.397  1.00  0.00     0.163 HD
BRANCH   5   8
ATOM      8  C   UNL A   1      32.779  25.569  23.338  1.00  0.00     0.067 C 
ATOM      9  C   UNL A   1      30.927  31.389  25.762  1.00  0.00     0.047 C 
ATOM     10  C   UNL A   1      31.578  30.087  25.355  1.00  0.00    -0.019 A 
ATOM     11  C   UNL A   1      32.754  29.643  26.017  1.00  0.00     0.025 A 
ATOM     12  C   UNL A   1      31.061  29.290  24.318  1.00  0.00     0.064 A 
ATOM     13  Br  UNL A   1      33.491  30.745  27.409  1.00  0.00    -0.050 Br
ATOM     14  C   UNL A   1      33.394  28.425  25.667  1.00  0.00    -0.026 A 
ATOM     15  C   UNL A   1      31.686  28.082  23.967  1.00  0.00     0.142 A 
ATOM     16  Br  UNL A   1      29.490  29.794  23.345  1.00  0.00    -0.046 Br
ATOM     17  C   UNL A   1      34.646  27.935  26.363  1.00  0.00     0.046 C 
ATOM     18  C   UNL A   1      32.844  27.645  24.624  1.00  0.00     0.022 A 
ATOM     19  O   UNL A   1      31.153  27.378  22.917  1.00  0.00    -0.474 OA
ATOM     20  C   UNL A   1      33.456  26.389  24.164  1.00  0.00     0.026 C 
ATOM     21  C   UNL A   1      31.409  25.953  22.879  1.00  0.00     0.314 C 
BRANCH  21  22
ATOM     22  C   UNL A   1      30.290  25.198  23.618  1.00  0.00     0.429 C 
ATOM     23  F   UNL A   1      30.028  24.017  23.004  1.00  0.00    -0.167 F 
ATOM     24  F   UNL A   1      30.628  24.896  24.895  1.00  0.00    -0.167 F 
ATOM     25  F   UNL A   1      29.135  25.896  23.671  1.00  0.00    -0.167 F 
ENDBRANCH  21  22
ENDBRANCH   5   8
ENDBRANCH   3   4
ENDBRANCH   2   3
ENDBRANCH   1   2
BRANCH   1  26
ATOM     26  C   UNL A   1      37.085  23.710  25.058  1.00  0.00     0.116 C 
BRANCH  26  27
ATOM     27  N   UNL A   1      38.151  22.770  25.374  1.00  0.00    -0.352 N 
ATOM     28  C   UNL A   1      39.263  22.984  26.152  1.00  0.00     0.251 C 
ATOM     29  H   UNL A   1      38.064  21.871  24.982  1.00  0.00     0.163 HD
ATOM     30  O   UNL A   1      40.125  22.118  26.269  1.00  0.00    -0.269 OA
BRANCH  28  31
ATOM     31  C   UNL A   1      39.428  24.291  26.813  1.00  0.00     0.039 A 
ATOM     32  C   UNL A   1      38.931  24.458  28.108  1.00  0.00     0.014 A 
ATOM     33  C   UNL A   1      40.122  25.321  26.174  1.00  0.00     0.014 A 
ATOM     34  C   UNL A   1      39.199  25.641  28.796  1.00  0.00     0.010 A 
ATOM     35  C   UNL A   1      40.434  26.476  26.881  1.00  0.00     0.010 A 
ATOM     36  C   UNL A   1      39.983  26.642  28.200  1.00  0.00    -0.014 A 
BRANCH  36  37
ATOM     37  C   UNL A   1      40.350  27.874  28.934  1.00  0.00     0.031 A 
ATOM     38  C   UNL A   1      41.689  27.971  29.604  1.00  0.00     0.074 A 
ATOM     39  C   UNL A   1      39.449  28.866  29.063  1.00  0.00     0.049 A 
ATOM     40  N   UNL A   1      42.150  28.902  30.397  1.00  0.00    -0.248 NA
ATOM     41  C   UNL A   1      42.623  26.858  29.370  1.00  0.00     0.031 C 
ATOM     42  C   UNL A   1      38.107  28.875  28.480  1.00  0.00     0.029 A 
ATOM     43  N   UNL A   1      39.526  30.057  29.741  1.00  0.00    -0.354 N 
ATOM     44  C   UNL A   1      43.419  28.482  30.770  1.00  0.00     0.074 A 
ATOM     45  C   UNL A   1      43.640  27.192  30.150  1.00  0.00     0.031 C 
ATOM     46  C   UNL A   1      37.492  30.022  28.811  1.00  0.00     0.029 A 
ATOM     47  C   UNL A   1      38.381  30.810  29.658  1.00  0.00     0.049 A 
ATOM     48  H   UNL A   1      40.325  30.343  30.239  1.00  0.00     0.167 HD
ATOM     49  C   UNL A   1      44.326  29.123  31.543  1.00  0.00     0.037 A 
ATOM     50  C   UNL A   1      38.079  31.999  30.213  1.00  0.00     0.037 A 
ATOM     51  C   UNL A   1      44.112  30.414  32.139  1.00  0.00     0.049 A 
ATOM     52  C   UNL A   1      39.100  32.689  31.074  1.00  0.00     0.074 A 
ATOM     53  C   UNL A   1      44.982  31.162  32.913  1.00  0.00     0.029 A 
ATOM     54  N   UNL A   1      42.944  31.153  32.021  1.00  0.00    -0.354 N 
ATOM     55  N   UNL A   1      40.304  32.290  31.403  1.00  0.00    -0.248 NA
ATOM     56  C   UNL A   1      38.719  33.990  31.641  1.00  0.00     0.031 C 
ATOM     57  C   UNL A   1      44.328  32.342  33.287  1.00  0.00     0.029 A 
ATOM     58  C   UNL A   1      43.066  32.345  32.714  1.00  0.00     0.049 A 
ATOM     59  H   UNL A   1      42.145  30.871  31.518  1.00  0.00     0.167 HD
ATOM     60  C   UNL A   1      40.835  33.298  32.197  1.00  0.00     0.074 A 
ATOM     61  C   UNL A   1      39.823  34.331  32.291  1.00  0.00     0.031 C 
ATOM     62  C   UNL A   1      42.049  33.361  32.795  1.00  0.00     0.037 A 
BRANCH  49  63
ATOM     63  C   UNL A   1      45.635  28.433  31.782  1.00  0.00     0.057 A 
ATOM     64  C   UNL A   1      45.819  27.564  32.866  1.00  0.00     0.134 A 
ATOM     65  C   UNL A   1      46.714  28.616  30.908  1.00  0.00     0.134 A 
ATOM     66  F   UNL A   1      44.830  27.359  33.748  1.00  0.00    -0.206 F 
ATOM     67  C   UNL A   1      47.038  26.919  33.084  1.00  0.00     0.040 A 
ATOM     68  C   UNL A   1      47.929  27.958  31.102  1.00  0.00     0.040 A 
ATOM     69  F   UNL A   1      46.602  29.434  29.850  1.00  0.00    -0.206 F 
ATOM     70  C   UNL A   1      48.095  27.110  32.196  1.00  0.00     0.006 A 
ENDBRANCH  49  63
BRANCH  50  71
ATOM     71  C   UNL A   1      36.763  32.625  29.941  1.00  0.00     0.057 A 
ATOM     72  C   UNL A   1      35.663  32.363  30.766  1.00  0.00     0.134 A 
ATOM     73  C   UNL A   1      36.576  33.511  28.874  1.00  0.00     0.134 A 
ATOM     74  F   UNL A   1      35.778  31.509  31.793  1.00  0.00    -0.206 F 
ATOM     75  C   UNL A   1      34.420  32.956  30.536  1.00  0.00     0.040 A 
ATOM     76  C   UNL A   1      35.344  34.125  28.644  1.00  0.00     0.040 A 
ATOM     77  F   UNL A   1      37.594  33.806  28.054  1.00  0.00    -0.206 F 
ATOM     78  C   UNL A   1      34.261  33.845  29.475  1.00  0.00     0.006 A 
ENDBRANCH  50  71
BRANCH  62  79
ATOM     79  C   UNL A   1      42.363  34.598  33.582  1.00  0.00     0.057 A 
ATOM     80  C   UNL A   1      42.930  35.728  32.982  1.00  0.00     0.134 A 
ATOM     81  C   UNL A   1      42.044  34.677  34.943  1.00  0.00     0.134 A 
ATOM     82  F   UNL A   1      43.268  35.711  31.683  1.00  0.00    -0.206 F 
ATOM     83  C   UNL A   1      43.182  36.890  33.711  1.00  0.00     0.040 A 
ATOM     84  C   UNL A   1      42.272  35.840  35.679  1.00  0.00     0.040 A 
ATOM     85  F   UNL A   1      41.491  33.630  35.575  1.00  0.00    -0.206 F 
ATOM     86  C   UNL A   1      42.846  36.950  35.063  1.00  0.00     0.006 A 
ENDBRANCH  62  79
ENDBRANCH  36  37
ENDBRANCH  28  31
ENDBRANCH  26  27
ENDBRANCH   1  26
TORSDOF 12
ENDMDL
