MODEL 1
REMARK VINA RESULT:     -11.6      0.000      0.000
REMARK SMILES CC(C)[C@@H](C)[N@@H+]1[C@@H](C(=O)NCCCCNC(=O)c2ccc(-c3c4nc(c(-c5c(F)cccc5F)c5ccc([nH]5)c(-c5c(F)cccc5F)c5nc(c(-c6c(F)cccc6F)c6ccc3[nH]6)C=C5)C=C4)cc2)C[C@H]2CCCC[C@H]21
REMARK SMILES IDX 12 1 11 2 10 3 8 4 9 5 7 7 6 8 78 9 72 11 73 12 77 13 74 14
REMARK SMILES IDX 76 15 75 16 4 17 5 18 2 19 1 20 3 21 13 22 14 23 15 24 16 25
REMARK SMILES IDX 17 27 18 28 19 29 71 30 20 31 70 32 21 33 22 34 23 35 64 36
REMARK SMILES IDX 24 37 69 38 63 39 65 40 25 41 68 42 62 43 61 44 26 46 52 47
REMARK SMILES IDX 35 48 51 49 36 50 39 51 50 52 66 53 37 54 38 55 49 57 67 58
REMARK SMILES IDX 40 59 27 60 28 61 33 62 29 63 30 64 32 65 34 66 31 67 53 68
REMARK SMILES IDX 54 69 59 70 55 71 56 72 58 73 60 74 57 75 41 76 42 77 47 78
REMARK SMILES IDX 43 79 44 80 46 81 48 82 45 83
REMARK H PARENT 10 6 6 10 15 26 65 45 39 56
REMARK Flexibility Score: inf
ROOT
ATOM      1  C   UNL A   1      36.892  20.691  25.060  1.00  0.00     0.023 C 
ENDROOT
BRANCH   1   2
ATOM      2  C   UNL A   1      37.249  22.103  24.616  1.00  0.00     0.116 C 
BRANCH   2   3
ATOM      3  N   UNL A   1      36.465  22.544  23.483  1.00  0.00    -0.351 N 
ATOM      4  C   UNL A   1      35.240  23.157  23.475  1.00  0.00     0.278 C 
ATOM      5  O   UNL A   1      34.776  23.463  22.376  1.00  0.00    -0.268 OA
ATOM      6  H   UNL A   1      36.865  22.382  22.599  1.00  0.00     0.163 HD
BRANCH   4   7
ATOM      7  C   UNL A   1      34.527  23.398  24.826  1.00  0.00     0.275 C 
ATOM      8  N   UNL A   1      33.037  23.216  24.681  1.00  0.00    -0.320 N 
ATOM      9  C   UNL A   1      32.469  24.553  24.967  1.00  0.00     0.188 C 
ATOM     10  H   UNL A   1      32.731  22.937  23.748  1.00  0.00     0.349 HD
ATOM     11  C   UNL A   1      34.779  24.811  25.362  1.00  0.00     0.085 C 
ATOM     12  C   UNL A   1      33.441  25.202  25.942  1.00  0.00     0.054 C 
ATOM     13  C   UNL A   1      32.343  25.352  23.649  1.00  0.00     0.065 C 
ATOM     14  C   UNL A   1      33.251  26.704  26.123  1.00  0.00     0.010 C 
ATOM     15  C   UNL A   1      32.105  26.844  23.885  1.00  0.00     0.006 C 
ATOM     16  C   UNL A   1      33.158  27.458  24.802  1.00  0.00     0.001 C 
BRANCH   8  17
ATOM     17  C   UNL A   1      32.532  22.051  25.466  1.00  0.00     0.184 C 
ATOM     18  C   UNL A   1      33.622  21.607  26.497  1.00  0.00     0.075 C 
BRANCH  17  19
ATOM     19  C   UNL A   1      32.153  20.729  24.679  1.00  0.00     0.041 C 
ATOM     20  C   UNL A   1      32.163  20.977  23.153  1.00  0.00     0.013 C 
ATOM     21  C   UNL A   1      33.016  19.492  24.921  1.00  0.00     0.013 C 
ENDBRANCH  17  19
ENDBRANCH   8  17
ENDBRANCH   4   7
ENDBRANCH   2   3
ENDBRANCH   1   2
BRANCH   1  22
ATOM     22  C   UNL A   1      38.035  19.684  24.998  1.00  0.00     0.023 C 
BRANCH  22  23
ATOM     23  C   UNL A   1      39.297  20.085  25.752  1.00  0.00     0.116 C 
BRANCH  23  24
ATOM     24  N   UNL A   1      40.276  19.013  25.842  1.00  0.00    -0.352 N 
ATOM     25  C   UNL A   1      41.627  19.090  26.102  1.00  0.00     0.251 C 
ATOM     26  H   UNL A   1      39.925  18.105  25.697  1.00  0.00     0.163 HD
ATOM     27  O   UNL A   1      42.331  18.098  26.035  1.00  0.00    -0.269 OA
BRANCH  25  28
ATOM     28  C   UNL A   1      42.218  20.406  26.422  1.00  0.00     0.039 A 
ATOM     29  C   UNL A   1      42.668  21.214  25.376  1.00  0.00     0.014 A 
ATOM     30  C   UNL A   1      42.272  20.859  27.742  1.00  0.00     0.014 A 
ATOM     31  C   UNL A   1      43.093  22.515  25.647  1.00  0.00     0.010 A 
ATOM     32  C   UNL A   1      42.618  22.180  28.000  1.00  0.00     0.010 A 
ATOM     33  C   UNL A   1      43.027  23.023  26.955  1.00  0.00    -0.014 A 
BRANCH  33  34
ATOM     34  C   UNL A   1      43.377  24.433  27.255  1.00  0.00     0.031 A 
ATOM     35  C   UNL A   1      44.807  24.886  27.174  1.00  0.00     0.074 A 
ATOM     36  C   UNL A   1      42.420  25.285  27.676  1.00  0.00     0.049 A 
ATOM     37  N   UNL A   1      45.326  26.047  27.481  1.00  0.00    -0.248 NA
ATOM     38  C   UNL A   1      45.790  23.891  26.716  1.00  0.00     0.031 C 
ATOM     39  C   UNL A   1      41.004  24.951  27.848  1.00  0.00     0.029 A 
ATOM     40  N   UNL A   1      42.498  26.602  28.049  1.00  0.00    -0.354 N 
ATOM     41  C   UNL A   1      46.692  25.915  27.275  1.00  0.00     0.074 A 
ATOM     42  C   UNL A   1      46.930  24.548  26.867  1.00  0.00     0.031 C 
ATOM     43  C   UNL A   1      40.345  26.043  28.272  1.00  0.00     0.029 A 
ATOM     44  C   UNL A   1      41.294  27.138  28.436  1.00  0.00     0.049 A 
ATOM     45  H   UNL A   1      43.338  27.117  28.040  1.00  0.00     0.167 HD
ATOM     46  C   UNL A   1      47.658  26.856  27.389  1.00  0.00     0.037 A 
ATOM     47  C   UNL A   1      40.992  28.372  28.884  1.00  0.00     0.037 A 
ATOM     48  C   UNL A   1      47.414  28.224  27.759  1.00  0.00     0.049 A 
ATOM     49  C   UNL A   1      42.083  29.399  29.006  1.00  0.00     0.074 A 
ATOM     50  C   UNL A   1      48.315  29.273  27.823  1.00  0.00     0.029 A 
ATOM     51  N   UNL A   1      46.178  28.732  28.129  1.00  0.00    -0.354 N 
ATOM     52  N   UNL A   1      43.359  29.282  28.730  1.00  0.00    -0.248 NA
ATOM     53  C   UNL A   1      41.694  30.727  29.501  1.00  0.00     0.031 C 
ATOM     54  C   UNL A   1      47.631  30.407  28.271  1.00  0.00     0.029 A 
ATOM     55  C   UNL A   1      46.297  30.074  28.447  1.00  0.00     0.049 A 
ATOM     56  H   UNL A   1      45.341  28.215  28.159  1.00  0.00     0.167 HD
ATOM     57  C   UNL A   1      43.921  30.524  28.996  1.00  0.00     0.074 A 
ATOM     58  C   UNL A   1      42.845  31.383  29.442  1.00  0.00     0.031 C 
ATOM     59  C   UNL A   1      45.213  30.916  28.883  1.00  0.00     0.037 A 
BRANCH  46  60
ATOM     60  C   UNL A   1      49.069  26.436  27.100  1.00  0.00     0.057 A 
ATOM     61  C   UNL A   1      49.922  25.972  28.112  1.00  0.00     0.134 A 
ATOM     62  C   UNL A   1      49.572  26.465  25.793  1.00  0.00     0.134 A 
ATOM     63  F   UNL A   1      49.506  25.931  29.386  1.00  0.00    -0.206 F 
ATOM     64  C   UNL A   1      51.232  25.579  27.837  1.00  0.00     0.040 A 
ATOM     65  C   UNL A   1      50.872  26.050  25.503  1.00  0.00     0.040 A 
ATOM     66  F   UNL A   1      48.805  26.892  24.778  1.00  0.00    -0.206 F 
ATOM     67  C   UNL A   1      51.709  25.611  26.528  1.00  0.00     0.006 A 
ENDBRANCH  46  60
BRANCH  47  68
ATOM     68  C   UNL A   1      39.590  28.714  29.234  1.00  0.00     0.057 A 
ATOM     69  C   UNL A   1      39.101  28.505  30.529  1.00  0.00     0.134 A 
ATOM     70  C   UNL A   1      38.707  29.249  28.289  1.00  0.00     0.134 A 
ATOM     71  F   UNL A   1      39.894  27.978  31.473  1.00  0.00    -0.206 F 
ATOM     72  C   UNL A   1      37.779  28.801  30.868  1.00  0.00     0.040 A 
ATOM     73  C   UNL A   1      37.389  29.570  28.620  1.00  0.00     0.040 A 
ATOM     74  F   UNL A   1      39.116  29.478  27.033  1.00  0.00    -0.206 F 
ATOM     75  C   UNL A   1      36.920  29.339  29.913  1.00  0.00     0.006 A 
ENDBRANCH  47  68
BRANCH  59  76
ATOM     76  C   UNL A   1      45.533  32.340  29.226  1.00  0.00     0.057 A 
ATOM     77  C   UNL A   1      45.972  32.707  30.503  1.00  0.00     0.134 A 
ATOM     78  C   UNL A   1      45.461  33.342  28.250  1.00  0.00     0.134 A 
ATOM     79  F   UNL A   1      46.050  31.795  31.484  1.00  0.00    -0.206 F 
ATOM     80  C   UNL A   1      46.318  34.026  30.801  1.00  0.00     0.040 A 
ATOM     81  C   UNL A   1      45.828  34.659  28.530  1.00  0.00     0.040 A 
ATOM     82  F   UNL A   1      45.056  33.052  27.004  1.00  0.00    -0.206 F 
ATOM     83  C   UNL A   1      46.255  35.004  29.810  1.00  0.00     0.006 A 
ENDBRANCH  59  76
ENDBRANCH  33  34
ENDBRANCH  25  28
ENDBRANCH  23  24
ENDBRANCH  22  23
ENDBRANCH   1  22
TORSDOF 13
ENDMDL
MODEL 2
REMARK VINA RESULT:     -11.5      5.168      9.381
REMARK SMILES CC(C)[C@@H](C)[N@@H+]1[C@@H](C(=O)NCCCCNC(=O)c2ccc(-c3c4nc(c(-c5c(F)cccc5F)c5ccc([nH]5)c(-c5c(F)cccc5F)c5nc(c(-c6c(F)cccc6F)c6ccc3[nH]6)C=C5)C=C4)cc2)C[C@H]2CCCC[C@H]21
REMARK SMILES IDX 12 1 11 2 10 3 8 4 9 5 7 7 6 8 78 9 72 11 73 12 77 13 74 14
REMARK SMILES IDX 76 15 75 16 4 17 5 18 2 19 1 20 3 21 13 22 14 23 15 24 16 25
REMARK SMILES IDX 17 27 18 28 19 29 71 30 20 31 70 32 21 33 22 34 23 35 64 36
REMARK SMILES IDX 24 37 69 38 63 39 65 40 25 41 68 42 62 43 61 44 26 46 52 47
REMARK SMILES IDX 35 48 51 49 36 50 39 51 50 52 66 53 37 54 38 55 49 57 67 58
REMARK SMILES IDX 40 59 27 60 28 61 33 62 29 63 30 64 32 65 34 66 31 67 53 68
REMARK SMILES IDX 54 69 59 70 55 71 56 72 58 73 60 74 57 75 41 76 42 77 47 78
REMARK SMILES IDX 43 79 44 80 46 81 48 82 45 83
REMARK H PARENT 10 6 6 10 15 26 65 45 39 56
REMARK Flexibility Score: inf
ROOT
ATOM      1  C   UNL A   1      31.573  30.700  26.228  1.00  0.00     0.023 C 
ENDROOT
BRANCH   1   2
ATOM      2  C   UNL A   1      32.242  29.653  27.107  1.00  0.00     0.116 C 
BRANCH   2   3
ATOM      3  N   UNL A   1      31.444  28.455  27.249  1.00  0.00    -0.351 N 
ATOM      4  C   UNL A   1      31.521  27.285  26.542  1.00  0.00     0.278 C 
ATOM      5  O   UNL A   1      30.743  26.386  26.863  1.00  0.00    -0.268 OA
ATOM      6  H   UNL A   1      30.753  28.484  27.949  1.00  0.00     0.163 HD
BRANCH   4   7
ATOM      7  C   UNL A   1      32.551  27.184  25.392  1.00  0.00     0.275 C 
ATOM      8  N   UNL A   1      31.954  26.469  24.205  1.00  0.00    -0.320 N 
ATOM      9  C   UNL A   1      32.763  25.236  24.069  1.00  0.00     0.188 C 
ATOM     10  H   UNL A   1      30.978  26.194  24.321  1.00  0.00     0.349 HD
ATOM     11  C   UNL A   1      33.810  26.421  25.817  1.00  0.00     0.085 C 
ATOM     12  C   UNL A   1      34.144  25.601  24.594  1.00  0.00     0.054 C 
ATOM     13  C   UNL A   1      32.109  24.098  24.886  1.00  0.00     0.065 C 
ATOM     14  C   UNL A   1      35.054  24.410  24.869  1.00  0.00     0.010 C 
ATOM     15  C   UNL A   1      33.046  22.907  25.092  1.00  0.00     0.006 C 
ATOM     16  C   UNL A   1      34.382  23.322  25.699  1.00  0.00     0.001 C 
BRANCH   8  17
ATOM     17  C   UNL A   1      31.822  27.362  23.018  1.00  0.00     0.184 C 
ATOM     18  C   UNL A   1      32.598  28.696  23.280  1.00  0.00     0.075 C 
BRANCH  17  19
ATOM     19  C   UNL A   1      30.368  27.817  22.583  1.00  0.00     0.041 C 
ATOM     20  C   UNL A   1      29.302  27.225  23.535  1.00  0.00     0.013 C 
ATOM     21  C   UNL A   1      30.091  29.317  22.506  1.00  0.00     0.013 C 
ENDBRANCH  17  19
ENDBRANCH   8  17
ENDBRANCH   4   7
ENDBRANCH   2   3
ENDBRANCH   1   2
BRANCH   1  22
ATOM     22  C   UNL A   1      31.375  32.063  26.883  1.00  0.00     0.023 C 
BRANCH  22  23
ATOM     23  C   UNL A   1      32.598  32.971  26.876  1.00  0.00     0.116 C 
BRANCH  23  24
ATOM     24  N   UNL A   1      32.423  34.177  27.670  1.00  0.00    -0.352 N 
ATOM     25  C   UNL A   1      33.156  34.623  28.748  1.00  0.00     0.251 C 
ATOM     26  H   UNL A   1      31.674  34.757  27.400  1.00  0.00     0.163 HD
ATOM     27  O   UNL A   1      32.807  35.609  29.373  1.00  0.00    -0.269 OA
BRANCH  25  28
ATOM     28  C   UNL A   1      34.352  33.860  29.161  1.00  0.00     0.039 A 
ATOM     29  C   UNL A   1      35.615  34.408  28.927  1.00  0.00     0.014 A 
ATOM     30  C   UNL A   1      34.220  32.640  29.829  1.00  0.00     0.014 A 
ATOM     31  C   UNL A   1      36.746  33.772  29.440  1.00  0.00     0.010 A 
ATOM     32  C   UNL A   1      35.339  32.052  30.409  1.00  0.00     0.010 A 
ATOM     33  C   UNL A   1      36.611  32.615  30.224  1.00  0.00    -0.014 A 
BRANCH  33  34
ATOM     34  C   UNL A   1      37.787  31.976  30.866  1.00  0.00     0.031 A 
ATOM     35  C   UNL A   1      38.547  30.902  30.140  1.00  0.00     0.074 A 
ATOM     36  C   UNL A   1      38.120  32.305  32.130  1.00  0.00     0.049 A 
ATOM     37  N   UNL A   1      39.541  30.164  30.562  1.00  0.00    -0.248 NA
ATOM     38  C   UNL A   1      38.110  30.595  28.769  1.00  0.00     0.031 C 
ATOM     39  C   UNL A   1      37.427  33.294  32.959  1.00  0.00     0.029 A 
ATOM     40  N   UNL A   1      39.120  31.833  32.942  1.00  0.00    -0.354 N 
ATOM     41  C   UNL A   1      39.834  29.295  29.520  1.00  0.00     0.074 A 
ATOM     42  C   UNL A   1      38.880  29.560  28.466  1.00  0.00     0.031 C 
ATOM     43  C   UNL A   1      38.037  33.369  34.154  1.00  0.00     0.029 A 
ATOM     44  C   UNL A   1      39.137  32.411  34.188  1.00  0.00     0.049 A 
ATOM     45  H   UNL A   1      39.765  31.146  32.659  1.00  0.00     0.167 HD
ATOM     46  C   UNL A   1      40.825  28.377  29.438  1.00  0.00     0.037 A 
ATOM     47  C   UNL A   1      39.943  32.185  35.243  1.00  0.00     0.037 A 
ATOM     48  C   UNL A   1      41.795  28.142  30.473  1.00  0.00     0.049 A 
ATOM     49  C   UNL A   1      41.035  31.158  35.129  1.00  0.00     0.074 A 
ATOM     50  C   UNL A   1      42.887  27.292  30.453  1.00  0.00     0.029 A 
ATOM     51  N   UNL A   1      41.788  28.758  31.715  1.00  0.00    -0.354 N 
ATOM     52  N   UNL A   1      41.350  30.400  34.107  1.00  0.00    -0.248 NA
ATOM     53  C   UNL A   1      41.882  30.954  36.313  1.00  0.00     0.031 C 
ATOM     54  C   UNL A   1      43.518  27.364  31.699  1.00  0.00     0.029 A 
ATOM     55  C   UNL A   1      42.843  28.288  32.479  1.00  0.00     0.049 A 
ATOM     56  H   UNL A   1      41.132  29.430  32.009  1.00  0.00     0.167 HD
ATOM     57  C   UNL A   1      42.443  29.647  34.515  1.00  0.00     0.074 A 
ATOM     58  C   UNL A   1      42.745  30.048  35.873  1.00  0.00     0.031 C 
ATOM     59  C   UNL A   1      43.132  28.704  33.828  1.00  0.00     0.037 A 
BRANCH  46  60
ATOM     60  C   UNL A   1      40.913  27.566  28.180  1.00  0.00     0.057 A 
ATOM     61  C   UNL A   1      40.247  26.340  28.044  1.00  0.00     0.134 A 
ATOM     62  C   UNL A   1      41.647  28.028  27.079  1.00  0.00     0.134 A 
ATOM     63  F   UNL A   1      39.538  25.836  29.065  1.00  0.00    -0.206 F 
ATOM     64  C   UNL A   1      40.329  25.591  26.869  1.00  0.00     0.040 A 
ATOM     65  C   UNL A   1      41.715  27.300  25.890  1.00  0.00     0.040 A 
ATOM     66  F   UNL A   1      42.303  29.197  27.141  1.00  0.00    -0.206 F 
ATOM     67  C   UNL A   1      41.060  26.074  25.786  1.00  0.00     0.006 A 
ENDBRANCH  46  60
BRANCH  47  68
ATOM     68  C   UNL A   1      39.762  32.960  36.497  1.00  0.00     0.057 A 
ATOM     69  C   UNL A   1      40.545  34.090  36.763  1.00  0.00     0.134 A 
ATOM     70  C   UNL A   1      38.813  32.591  37.457  1.00  0.00     0.134 A 
ATOM     71  F   UNL A   1      41.483  34.482  35.889  1.00  0.00    -0.206 F 
ATOM     72  C   UNL A   1      40.401  34.817  37.947  1.00  0.00     0.040 A 
ATOM     73  C   UNL A   1      38.644  33.321  38.635  1.00  0.00     0.040 A 
ATOM     74  F   UNL A   1      38.029  31.522  37.258  1.00  0.00    -0.206 F 
ATOM     75  C   UNL A   1      39.445  34.434  38.885  1.00  0.00     0.006 A 
ENDBRANCH  47  68
BRANCH  59  76
ATOM     76  C   UNL A   1      44.294  28.058  34.521  1.00  0.00     0.057 A 
ATOM     77  C   UNL A   1      45.571  28.630  34.502  1.00  0.00     0.134 A 
ATOM     78  C   UNL A   1      44.118  26.885  35.266  1.00  0.00     0.134 A 
ATOM     79  F   UNL A   1      45.806  29.746  33.795  1.00  0.00    -0.206 F 
ATOM     80  C   UNL A   1      46.637  28.051  35.192  1.00  0.00     0.040 A 
ATOM     81  C   UNL A   1      45.170  26.311  35.980  1.00  0.00     0.040 A 
ATOM     82  F   UNL A   1      42.915  26.293  35.330  1.00  0.00    -0.206 F 
ATOM     83  C   UNL A   1      46.435  26.893  35.941  1.00  0.00     0.006 A 
ENDBRANCH  59  76
ENDBRANCH  33  34
ENDBRANCH  25  28
ENDBRANCH  23  24
ENDBRANCH  22  23
ENDBRANCH   1  22
TORSDOF 13
ENDMDL
MODEL 3
REMARK VINA RESULT:     -11.5      5.453      9.835
REMARK SMILES CC(C)[C@@H](C)[N@@H+]1[C@@H](C(=O)NCCCCNC(=O)c2ccc(-c3c4nc(c(-c5c(F)cccc5F)c5ccc([nH]5)c(-c5c(F)cccc5F)c5nc(c(-c6c(F)cccc6F)c6ccc3[nH]6)C=C5)C=C4)cc2)C[C@H]2CCCC[C@H]21
REMARK SMILES IDX 12 1 11 2 10 3 8 4 9 5 7 7 6 8 78 9 72 11 73 12 77 13 74 14
REMARK SMILES IDX 76 15 75 16 4 17 5 18 2 19 1 20 3 21 13 22 14 23 15 24 16 25
REMARK SMILES IDX 17 27 18 28 19 29 71 30 20 31 70 32 21 33 22 34 23 35 64 36
REMARK SMILES IDX 24 37 69 38 63 39 65 40 25 41 68 42 62 43 61 44 26 46 52 47
REMARK SMILES IDX 35 48 51 49 36 50 39 51 50 52 66 53 37 54 38 55 49 57 67 58
REMARK SMILES IDX 40 59 27 60 28 61 33 62 29 63 30 64 32 65 34 66 31 67 53 68
REMARK SMILES IDX 54 69 59 70 55 71 56 72 58 73 60 74 57 75 41 76 42 77 47 78
REMARK SMILES IDX 43 79 44 80 46 81 48 82 45 83
REMARK H PARENT 10 6 6 10 15 26 65 45 39 56
REMARK Flexibility Score: inf
ROOT
ATOM      1  C   UNL A   1      32.025  30.499  26.266  1.00  0.00     0.023 C 
ENDROOT
BRANCH   1   2
ATOM      2  C   UNL A   1      32.518  29.462  27.265  1.00  0.00     0.116 C 
BRANCH   2   3
ATOM      3  N   UNL A   1      31.628  28.326  27.372  1.00  0.00    -0.351 N 
ATOM      4  C   UNL A   1      31.575  27.203  26.592  1.00  0.00     0.278 C 
ATOM      5  O   UNL A   1      30.737  26.352  26.894  1.00  0.00    -0.268 OA
ATOM      6  H   UNL A   1      30.972  28.367  28.105  1.00  0.00     0.163 HD
BRANCH   4   7
ATOM      7  C   UNL A   1      32.542  27.093  25.390  1.00  0.00     0.275 C 
ATOM      8  N   UNL A   1      31.892  26.349  24.250  1.00  0.00    -0.320 N 
ATOM      9  C   UNL A   1      32.707  25.124  24.092  1.00  0.00     0.188 C 
ATOM     10  H   UNL A   1      30.927  26.066  24.422  1.00  0.00     0.349 HD
ATOM     11  C   UNL A   1      33.832  26.352  25.760  1.00  0.00     0.085 C 
ATOM     12  C   UNL A   1      34.110  25.514  24.535  1.00  0.00     0.054 C 
ATOM     13  C   UNL A   1      32.112  23.993  24.962  1.00  0.00     0.065 C 
ATOM     14  C   UNL A   1      35.048  24.338  24.781  1.00  0.00     0.010 C 
ATOM     15  C   UNL A   1      33.073  22.817  25.138  1.00  0.00     0.006 C 
ATOM     16  C   UNL A   1      34.435  23.258  25.665  1.00  0.00     0.001 C 
BRANCH   8  17
ATOM     17  C   UNL A   1      31.685  27.220  23.055  1.00  0.00     0.184 C 
ATOM     18  C   UNL A   1      32.634  28.461  23.145  1.00  0.00     0.075 C 
BRANCH  17  19
ATOM     19  C   UNL A   1      30.241  27.827  22.815  1.00  0.00     0.041 C 
ATOM     20  C   UNL A   1      29.175  27.036  23.609  1.00  0.00     0.013 C 
ATOM     21  C   UNL A   1      30.030  29.301  23.158  1.00  0.00     0.013 C 
ENDBRANCH  17  19
ENDBRANCH   8  17
ENDBRANCH   4   7
ENDBRANCH   2   3
ENDBRANCH   1   2
BRANCH   1  22
ATOM     22  C   UNL A   1      31.631  31.843  26.870  1.00  0.00     0.023 C 
BRANCH  22  23
ATOM     23  C   UNL A   1      32.792  32.711  27.339  1.00  0.00     0.116 C 
BRANCH  23  24
ATOM     24  N   UNL A   1      32.406  34.085  27.617  1.00  0.00    -0.352 N 
ATOM     25  C   UNL A   1      32.953  34.977  28.514  1.00  0.00     0.251 C 
ATOM     26  H   UNL A   1      31.647  34.426  27.091  1.00  0.00     0.163 HD
ATOM     27  O   UNL A   1      32.437  36.065  28.703  1.00  0.00    -0.269 OA
BRANCH  25  28
ATOM     28  C   UNL A   1      34.152  34.575  29.278  1.00  0.00     0.039 A 
ATOM     29  C   UNL A   1      33.988  34.031  30.553  1.00  0.00     0.014 A 
ATOM     30  C   UNL A   1      35.424  34.683  28.710  1.00  0.00     0.014 A 
ATOM     31  C   UNL A   1      35.095  33.514  31.227  1.00  0.00     0.010 A 
ATOM     32  C   UNL A   1      36.511  34.095  29.347  1.00  0.00     0.010 A 
ATOM     33  C   UNL A   1      36.356  33.500  30.609  1.00  0.00    -0.014 A 
BRANCH  33  34
ATOM     34  C   UNL A   1      37.528  32.865  31.261  1.00  0.00     0.031 A 
ATOM     35  C   UNL A   1      38.175  31.662  30.634  1.00  0.00     0.074 A 
ATOM     36  C   UNL A   1      37.960  33.322  32.453  1.00  0.00     0.049 A 
ATOM     37  N   UNL A   1      39.148  30.916  31.090  1.00  0.00    -0.248 NA
ATOM     38  C   UNL A   1      37.636  31.222  29.338  1.00  0.00     0.031 C 
ATOM     39  C   UNL A   1      37.381  34.448  33.190  1.00  0.00     0.029 A 
ATOM     40  N   UNL A   1      38.978  32.885  33.262  1.00  0.00    -0.354 N 
ATOM     41  C   UNL A   1      39.321  29.909  30.150  1.00  0.00     0.074 A 
ATOM     42  C   UNL A   1      38.321  30.109  29.125  1.00  0.00     0.031 C 
ATOM     43  C   UNL A   1      38.068  34.626  34.331  1.00  0.00     0.029 A 
ATOM     44  C   UNL A   1      39.108  33.606  34.424  1.00  0.00     0.049 A 
ATOM     45  H   UNL A   1      39.561  32.126  33.032  1.00  0.00     0.167 HD
ATOM     46  C   UNL A   1      40.248  28.923  30.128  1.00  0.00     0.037 A 
ATOM     47  C   UNL A   1      39.964  33.456  35.453  1.00  0.00     0.037 A 
ATOM     48  C   UNL A   1      41.265  28.749  31.130  1.00  0.00     0.049 A 
ATOM     49  C   UNL A   1      40.981  32.350  35.408  1.00  0.00     0.074 A 
ATOM     50  C   UNL A   1      42.300  27.831  31.156  1.00  0.00     0.029 A 
ATOM     51  N   UNL A   1      41.373  29.510  32.284  1.00  0.00    -0.354 N 
ATOM     52  N   UNL A   1      41.185  31.455  34.473  1.00  0.00    -0.248 NA
ATOM     53  C   UNL A   1      41.887  32.234  36.561  1.00  0.00     0.031 C 
ATOM     54  C   UNL A   1      43.011  28.010  32.347  1.00  0.00     0.029 A 
ATOM     55  C   UNL A   1      42.442  29.065  33.042  1.00  0.00     0.049 A 
ATOM     56  H   UNL A   1      40.778  30.256  32.527  1.00  0.00     0.167 HD
ATOM     57  C   UNL A   1      42.254  30.684  34.912  1.00  0.00     0.074 A 
ATOM     58  C   UNL A   1      42.664  31.225  36.190  1.00  0.00     0.031 C 
ATOM     59  C   UNL A   1      42.841  29.621  34.310  1.00  0.00     0.037 A 
BRANCH  46  60
ATOM     60  C   UNL A   1      40.207  27.962  28.978  1.00  0.00     0.057 A 
ATOM     61  C   UNL A   1      40.905  28.207  27.787  1.00  0.00     0.134 A 
ATOM     62  C   UNL A   1      39.488  26.763  29.070  1.00  0.00     0.134 A 
ATOM     63  F   UNL A   1      41.602  29.342  27.630  1.00  0.00    -0.206 F 
ATOM     64  C   UNL A   1      40.867  27.308  26.721  1.00  0.00     0.040 A 
ATOM     65  C   UNL A   1      39.464  25.844  28.020  1.00  0.00     0.040 A 
ATOM     66  F   UNL A   1      38.803  26.464  30.185  1.00  0.00    -0.206 F 
ATOM     67  C   UNL A   1      40.150  26.119  26.838  1.00  0.00     0.006 A 
ENDBRANCH  46  60
BRANCH  47  68
ATOM     68  C   UNL A   1      39.909  34.387  36.609  1.00  0.00     0.057 A 
ATOM     69  C   UNL A   1      39.108  34.104  37.722  1.00  0.00     0.134 A 
ATOM     70  C   UNL A   1      40.646  35.576  36.628  1.00  0.00     0.134 A 
ATOM     71  F   UNL A   1      38.365  32.988  37.753  1.00  0.00    -0.206 F 
ATOM     72  C   UNL A   1      39.029  34.980  38.806  1.00  0.00     0.040 A 
ATOM     73  C   UNL A   1      40.593  36.450  37.716  1.00  0.00     0.040 A 
ATOM     74  F   UNL A   1      41.436  35.901  35.595  1.00  0.00    -0.206 F 
ATOM     75  C   UNL A   1      39.776  36.155  38.807  1.00  0.00     0.006 A 
ENDBRANCH  47  68
BRANCH  59  76
ATOM     76  C   UNL A   1      44.002  28.985  35.014  1.00  0.00     0.057 A 
ATOM     77  C   UNL A   1      43.823  27.958  35.947  1.00  0.00     0.134 A 
ATOM     78  C   UNL A   1      45.316  29.363  34.707  1.00  0.00     0.134 A 
ATOM     79  F   UNL A   1      42.588  27.560  36.292  1.00  0.00    -0.206 F 
ATOM     80  C   UNL A   1      44.911  27.334  36.560  1.00  0.00     0.040 A 
ATOM     81  C   UNL A   1      46.411  28.731  35.296  1.00  0.00     0.040 A 
ATOM     82  F   UNL A   1      45.553  30.336  33.815  1.00  0.00    -0.206 F 
ATOM     83  C   UNL A   1      46.209  27.715  36.228  1.00  0.00     0.006 A 
ENDBRANCH  59  76
ENDBRANCH  33  34
ENDBRANCH  25  28
ENDBRANCH  23  24
ENDBRANCH  22  23
ENDBRANCH   1  22
TORSDOF 13
ENDMDL
