MODEL 1
REMARK VINA RESULT:     -11.0      0.000      0.000
REMARK SMILES COCc1cccc(O[C@@H](C)c2ccc(C(=O)NCCCCNC(=O)c3ccc(-c4c5nc(c(-c6c(F)cccc6F)c6ccc([nH]6)c(-c6c(F)cccc6F)c6nc(c(-c7c(F)cccc7F)c7ccc4[nH]7)C=C6)C=C5)cc3)o2)c1
REMARK SMILES IDX 19 1 18 2 16 3 17 4 15 6 12 7 13 8 80 9 14 10 10 11 11 12
REMARK SMILES IDX 9 13 8 14 4 15 5 16 81 17 6 18 7 19 3 20 2 21 1 22 20 23
REMARK SMILES IDX 21 24 22 25 23 26 24 27 25 29 26 30 27 31 79 32 28 33 78 34
REMARK SMILES IDX 29 35 30 36 31 37 72 38 32 39 77 40 71 41 73 42 33 43 76 44
REMARK SMILES IDX 70 45 69 46 34 48 60 49 43 50 59 51 44 52 47 53 58 54 74 55
REMARK SMILES IDX 45 56 46 57 57 59 75 60 48 61 35 62 36 63 41 64 37 65 38 66
REMARK SMILES IDX 40 67 42 68 39 69 61 70 62 71 67 72 63 73 64 74 66 75 68 76
REMARK SMILES IDX 65 77 49 78 50 79 55 80 51 81 52 82 54 83 56 84 53 85
REMARK H PARENT 18 5 23 28 73 47 47 58
REMARK Flexibility Score: inf
ROOT
ATOM      1  C   UNL A   1      39.744  21.558  26.177  1.00  0.00     0.116 C 
ENDROOT
BRANCH   1   2
ATOM      2  N   UNL A   1      39.529  22.973  26.408  1.00  0.00    -0.349 N 
ATOM      3  C   UNL A   1      38.381  23.721  26.245  1.00  0.00     0.286 C 
ATOM      4  O   UNL A   1      38.379  24.834  26.780  1.00  0.00    -0.266 OA
ATOM      5  H   UNL A   1      40.316  23.472  26.726  1.00  0.00     0.163 HD
BRANCH   3   6
ATOM      6  C   UNL A   1      37.261  23.210  25.475  1.00  0.00     0.191 A 
ATOM      7  C   UNL A   1      35.162  22.508  25.237  1.00  0.00     0.145 A 
ATOM      8  C   UNL A   1      35.701  22.609  23.970  1.00  0.00     0.050 A 
ATOM      9  O   UNL A   1      36.103  22.899  26.152  1.00  0.00    -0.452 OA
ATOM     10  C   UNL A   1      37.043  23.009  24.126  1.00  0.00     0.057 A 
BRANCH   7  11
ATOM     11  C   UNL A   1      33.800  22.147  25.764  1.00  0.00     0.236 C 
ATOM     12  C   UNL A   1      33.305  22.975  26.946  1.00  0.00     0.062 C 
BRANCH  11  13
ATOM     13  O   UNL A   1      33.632  20.727  26.002  1.00  0.00    -0.483 OA
BRANCH  13  14
ATOM     14  C   UNL A   1      33.198  19.877  25.025  1.00  0.00     0.120 A 
ATOM     15  C   UNL A   1      33.126  17.748  23.841  1.00  0.00    -0.019 A 
ATOM     16  C   UNL A   1      32.481  18.388  22.771  1.00  0.00     0.006 A 
ATOM     17  C   UNL A   1      33.449  18.507  24.974  1.00  0.00     0.052 A 
ATOM     18  C   UNL A   1      32.158  19.743  22.845  1.00  0.00     0.004 A 
ATOM     19  C   UNL A   1      32.514  20.483  23.971  1.00  0.00     0.046 A 
BRANCH  15  20
ATOM     20  C   UNL A   1      33.557  16.305  23.696  1.00  0.00     0.195 C 
BRANCH  20  21
ATOM     21  O   UNL A   1      33.780  15.627  24.933  1.00  0.00    -0.380 OA
ATOM     22  C   UNL A   1      32.651  14.919  25.430  1.00  0.00     0.195 C 
ENDBRANCH  20  21
ENDBRANCH  15  20
ENDBRANCH  13  14
ENDBRANCH  11  13
ENDBRANCH   7  11
ENDBRANCH   3   6
ENDBRANCH   1   2
BRANCH   1  23
ATOM     23  C   UNL A   1      41.215  21.153  26.266  1.00  0.00     0.023 C 
BRANCH  23  24
ATOM     24  C   UNL A   1      41.527  19.694  25.934  1.00  0.00     0.023 C 
BRANCH  24  25
ATOM     25  C   UNL A   1      42.946  19.228  26.241  1.00  0.00     0.116 C 
BRANCH  25  26
ATOM     26  N   UNL A   1      43.680  18.762  25.075  1.00  0.00    -0.352 N 
ATOM     27  C   UNL A   1      44.580  19.447  24.292  1.00  0.00     0.251 C 
ATOM     28  H   UNL A   1      43.511  17.828  24.811  1.00  0.00     0.163 HD
ATOM     29  O   UNL A   1      45.058  18.916  23.294  1.00  0.00    -0.269 OA
BRANCH  27  30
ATOM     30  C   UNL A   1      44.930  20.845  24.626  1.00  0.00     0.039 A 
ATOM     31  C   UNL A   1      44.551  21.860  23.743  1.00  0.00     0.014 A 
ATOM     32  C   UNL A   1      45.600  21.159  25.811  1.00  0.00     0.014 A 
ATOM     33  C   UNL A   1      44.764  23.196  24.090  1.00  0.00     0.010 A 
ATOM     34  C   UNL A   1      45.758  22.491  26.184  1.00  0.00     0.010 A 
ATOM     35  C   UNL A   1      45.328  23.521  25.334  1.00  0.00    -0.014 A 
BRANCH  35  36
ATOM     36  C   UNL A   1      45.452  24.931  25.779  1.00  0.00     0.031 A 
ATOM     37  C   UNL A   1      46.784  25.624  25.740  1.00  0.00     0.074 A 
ATOM     38  C   UNL A   1      44.379  25.558  26.297  1.00  0.00     0.049 A 
ATOM     39  N   UNL A   1      47.107  26.814  26.177  1.00  0.00    -0.248 NA
ATOM     40  C   UNL A   1      47.903  24.871  25.156  1.00  0.00     0.031 C 
ATOM     41  C   UNL A   1      43.042  24.978  26.436  1.00  0.00     0.029 A 
ATOM     42  N   UNL A   1      44.248  26.820  26.821  1.00  0.00    -0.354 N 
ATOM     43  C   UNL A   1      48.469  26.945  25.940  1.00  0.00     0.074 A 
ATOM     44  C   UNL A   1      48.919  25.701  25.354  1.00  0.00     0.031 C 
ATOM     45  C   UNL A   1      42.224  25.885  26.994  1.00  0.00     0.029 A 
ATOM     46  C   UNL A   1      42.984  27.098  27.280  1.00  0.00     0.049 A 
ATOM     47  H   UNL A   1      44.990  27.466  26.863  1.00  0.00     0.167 HD
ATOM     48  C   UNL A   1      49.268  28.014  26.172  1.00  0.00     0.037 A 
ATOM     49  C   UNL A   1      42.494  28.204  27.872  1.00  0.00     0.037 A 
ATOM     50  C   UNL A   1      48.817  29.264  26.724  1.00  0.00     0.049 A 
ATOM     51  C   UNL A   1      43.399  29.379  28.105  1.00  0.00     0.074 A 
ATOM     52  C   UNL A   1      49.541  30.424  26.938  1.00  0.00     0.029 A 
ATOM     53  N   UNL A   1      47.521  29.516  27.147  1.00  0.00    -0.354 N 
ATOM     54  N   UNL A   1      44.672  29.509  27.822  1.00  0.00    -0.248 NA
ATOM     55  C   UNL A   1      42.798  30.563  28.735  1.00  0.00     0.031 C 
ATOM     56  C   UNL A   1      48.688  31.371  27.515  1.00  0.00     0.029 A 
ATOM     57  C   UNL A   1      47.427  30.810  27.632  1.00  0.00     0.049 A 
ATOM     58  H   UNL A   1      46.778  28.871  27.107  1.00  0.00     0.167 HD
ATOM     59  C   UNL A   1      45.020  30.793  28.220  1.00  0.00     0.074 A 
ATOM     60  C   UNL A   1      43.821  31.407  28.752  1.00  0.00     0.031 C 
ATOM     61  C   UNL A   1      46.225  31.407  28.149  1.00  0.00     0.037 A 
BRANCH  48  62
ATOM     62  C   UNL A   1      50.718  27.878  25.818  1.00  0.00     0.057 A 
ATOM     63  C   UNL A   1      51.172  28.051  24.504  1.00  0.00     0.134 A 
ATOM     64  C   UNL A   1      51.674  27.607  26.804  1.00  0.00     0.134 A 
ATOM     65  F   UNL A   1      50.303  28.299  23.512  1.00  0.00    -0.206 F 
ATOM     66  C   UNL A   1      52.525  27.940  24.179  1.00  0.00     0.040 A 
ATOM     67  C   UNL A   1      53.032  27.515  26.495  1.00  0.00     0.040 A 
ATOM     68  F   UNL A   1      51.306  27.434  28.081  1.00  0.00    -0.206 F 
ATOM     69  C   UNL A   1      53.460  27.677  25.178  1.00  0.00     0.006 A 
ENDBRANCH  48  62
BRANCH  49  70
ATOM     70  C   UNL A   1      41.066  28.261  28.268  1.00  0.00     0.057 A 
ATOM     71  C   UNL A   1      40.102  28.792  27.404  1.00  0.00     0.134 A 
ATOM     72  C   UNL A   1      40.633  27.800  29.517  1.00  0.00     0.134 A 
ATOM     73  F   UNL A   1      40.463  29.267  26.203  1.00  0.00    -0.206 F 
ATOM     74  C   UNL A   1      38.759  28.878  27.772  1.00  0.00     0.040 A 
ATOM     75  C   UNL A   1      39.290  27.861  29.891  1.00  0.00     0.040 A 
ATOM     76  F   UNL A   1      41.510  27.276  30.386  1.00  0.00    -0.206 F 
ATOM     77  C   UNL A   1      38.349  28.408  29.019  1.00  0.00     0.006 A 
ENDBRANCH  49  70
BRANCH  61  78
ATOM     78  C   UNL A   1      46.298  32.823  28.635  1.00  0.00     0.057 A 
ATOM     79  C   UNL A   1      46.036  33.905  27.787  1.00  0.00     0.134 A 
ATOM     80  C   UNL A   1      46.598  33.103  29.974  1.00  0.00     0.134 A 
ATOM     81  F   UNL A   1      45.758  33.701  26.490  1.00  0.00    -0.206 F 
ATOM     82  C   UNL A   1      46.086  35.221  28.250  1.00  0.00     0.040 A 
ATOM     83  C   UNL A   1      46.630  34.412  30.454  1.00  0.00     0.040 A 
ATOM     84  F   UNL A   1      46.853  32.108  30.837  1.00  0.00    -0.206 F 
ATOM     85  C   UNL A   1      46.377  35.476  29.590  1.00  0.00     0.006 A 
ENDBRANCH  61  78
ENDBRANCH  35  36
ENDBRANCH  27  30
ENDBRANCH  25  26
ENDBRANCH  24  25
ENDBRANCH  23  24
ENDBRANCH   1  23
TORSDOF 16
ENDMDL
MODEL 2
REMARK VINA RESULT:     -10.9      2.298      3.062
REMARK SMILES COCc1cccc(O[C@@H](C)c2ccc(C(=O)NCCCCNC(=O)c3ccc(-c4c5nc(c(-c6c(F)cccc6F)c6ccc([nH]6)c(-c6c(F)cccc6F)c6nc(c(-c7c(F)cccc7F)c7ccc4[nH]7)C=C6)C=C5)cc3)o2)c1
REMARK SMILES IDX 19 1 18 2 16 3 17 4 15 6 12 7 13 8 80 9 14 10 10 11 11 12
REMARK SMILES IDX 9 13 8 14 4 15 5 16 81 17 6 18 7 19 3 20 2 21 1 22 20 23
REMARK SMILES IDX 21 24 22 25 23 26 24 27 25 29 26 30 27 31 79 32 28 33 78 34
REMARK SMILES IDX 29 35 30 36 31 37 72 38 32 39 77 40 71 41 73 42 33 43 76 44
REMARK SMILES IDX 70 45 69 46 34 48 60 49 43 50 59 51 44 52 47 53 58 54 74 55
REMARK SMILES IDX 45 56 46 57 57 59 75 60 48 61 35 62 36 63 41 64 37 65 38 66
REMARK SMILES IDX 40 67 42 68 39 69 61 70 62 71 67 72 63 73 64 74 66 75 68 76
REMARK SMILES IDX 65 77 49 78 50 79 55 80 51 81 52 82 54 83 56 84 53 85
REMARK H PARENT 18 5 23 28 73 47 47 58
REMARK Flexibility Score: inf
ROOT
ATOM      1  C   UNL A   1      37.783  23.375  25.859  1.00  0.00     0.116 C 
ENDROOT
BRANCH   1   2
ATOM      2  N   UNL A   1      37.586  23.068  24.456  1.00  0.00    -0.349 N 
ATOM      3  C   UNL A   1      36.471  23.265  23.666  1.00  0.00     0.286 C 
ATOM      4  O   UNL A   1      36.651  23.188  22.446  1.00  0.00    -0.266 OA
ATOM      5  H   UNL A   1      38.357  22.660  24.002  1.00  0.00     0.163 HD
BRANCH   3   6
ATOM      6  C   UNL A   1      35.174  23.532  24.260  1.00  0.00     0.191 A 
ATOM      7  C   UNL A   1      33.163  22.937  25.007  1.00  0.00     0.145 A 
ATOM      8  C   UNL A   1      33.351  24.257  25.362  1.00  0.00     0.050 A 
ATOM      9  O   UNL A   1      34.282  22.487  24.358  1.00  0.00    -0.452 OA
ATOM     10  C   UNL A   1      34.605  24.646  24.849  1.00  0.00     0.057 A 
BRANCH   7  11
ATOM     11  C   UNL A   1      32.063  21.940  25.248  1.00  0.00     0.236 C 
ATOM     12  C   UNL A   1      30.849  22.462  26.011  1.00  0.00     0.062 C 
BRANCH  11  13
ATOM     13  O   UNL A   1      32.534  20.683  25.795  1.00  0.00    -0.483 OA
BRANCH  13  14
ATOM     14  C   UNL A   1      32.521  19.527  25.066  1.00  0.00     0.120 A 
ATOM     15  C   UNL A   1      32.891  17.142  24.728  1.00  0.00    -0.019 A 
ATOM     16  C   UNL A   1      32.765  17.340  23.344  1.00  0.00     0.006 A 
ATOM     17  C   UNL A   1      32.735  18.248  25.576  1.00  0.00     0.052 A 
ATOM     18  C   UNL A   1      32.476  18.605  22.831  1.00  0.00     0.004 A 
ATOM     19  C   UNL A   1      32.353  19.694  23.692  1.00  0.00     0.046 A 
BRANCH  15  20
ATOM     20  C   UNL A   1      33.306  15.785  25.252  1.00  0.00     0.195 C 
BRANCH  20  21
ATOM     21  O   UNL A   1      34.559  15.316  24.752  1.00  0.00    -0.380 OA
ATOM     22  C   UNL A   1      35.695  15.804  25.455  1.00  0.00     0.195 C 
ENDBRANCH  20  21
ENDBRANCH  15  20
ENDBRANCH  13  14
ENDBRANCH  11  13
ENDBRANCH   7  11
ENDBRANCH   3   6
ENDBRANCH   1   2
BRANCH   1  23
ATOM     23  C   UNL A   1      38.937  22.595  26.486  1.00  0.00     0.023 C 
BRANCH  23  24
ATOM     24  C   UNL A   1      39.442  21.393  25.688  1.00  0.00     0.023 C 
BRANCH  24  25
ATOM     25  C   UNL A   1      39.685  20.116  26.485  1.00  0.00     0.116 C 
BRANCH  25  26
ATOM     26  N   UNL A   1      40.794  19.314  25.992  1.00  0.00    -0.352 N 
ATOM     27  C   UNL A   1      42.131  19.631  25.939  1.00  0.00     0.251 C 
ATOM     28  H   UNL A   1      40.554  18.422  25.650  1.00  0.00     0.163 HD
ATOM     29  O   UNL A   1      42.928  18.855  25.421  1.00  0.00    -0.269 OA
BRANCH  27  30
ATOM     30  C   UNL A   1      42.599  20.933  26.460  1.00  0.00     0.039 A 
ATOM     31  C   UNL A   1      43.079  21.885  25.555  1.00  0.00     0.014 A 
ATOM     32  C   UNL A   1      42.539  21.229  27.825  1.00  0.00     0.014 A 
ATOM     33  C   UNL A   1      43.415  23.163  26.007  1.00  0.00     0.010 A 
ATOM     34  C   UNL A   1      42.817  22.521  28.265  1.00  0.00     0.010 A 
ATOM     35  C   UNL A   1      43.244  23.503  27.358  1.00  0.00    -0.014 A 
BRANCH  35  36
ATOM     36  C   UNL A   1      43.477  24.887  27.840  1.00  0.00     0.031 A 
ATOM     37  C   UNL A   1      44.862  25.344  28.192  1.00  0.00     0.074 A 
ATOM     38  C   UNL A   1      42.424  25.703  28.040  1.00  0.00     0.049 A 
ATOM     39  N   UNL A   1      45.248  26.478  28.720  1.00  0.00    -0.248 NA
ATOM     40  C   UNL A   1      45.955  24.394  27.940  1.00  0.00     0.031 C 
ATOM     41  C   UNL A   1      41.024  25.361  27.784  1.00  0.00     0.029 A 
ATOM     42  N   UNL A   1      42.369  26.987  28.523  1.00  0.00    -0.354 N 
ATOM     43  C   UNL A   1      46.622  26.370  28.882  1.00  0.00     0.074 A 
ATOM     44  C   UNL A   1      46.999  25.047  28.431  1.00  0.00     0.031 C 
ATOM     45  C   UNL A   1      40.249  26.412  28.099  1.00  0.00     0.029 A 
ATOM     46  C   UNL A   1      41.093  27.489  28.607  1.00  0.00     0.049 A 
ATOM     47  H   UNL A   1      43.167  27.500  28.784  1.00  0.00     0.167 HD
ATOM     48  C   UNL A   1      47.493  27.296  29.348  1.00  0.00     0.037 A 
ATOM     49  C   UNL A   1      40.652  28.682  29.051  1.00  0.00     0.037 A 
ATOM     50  C   UNL A   1      47.126  28.622  29.767  1.00  0.00     0.049 A 
ATOM     51  C   UNL A   1      41.641  29.695  29.548  1.00  0.00     0.074 A 
ATOM     52  C   UNL A   1      47.947  29.651  30.194  1.00  0.00     0.029 A 
ATOM     53  N   UNL A   1      45.826  29.104  29.806  1.00  0.00    -0.354 N 
ATOM     54  N   UNL A   1      42.945  29.599  29.642  1.00  0.00    -0.248 NA
ATOM     55  C   UNL A   1      41.099  30.985  29.998  1.00  0.00     0.031 C 
ATOM     56  C   UNL A   1      47.141  30.748  30.519  1.00  0.00     0.029 A 
ATOM     57  C   UNL A   1      45.822  30.412  30.263  1.00  0.00     0.049 A 
ATOM     58  H   UNL A   1      45.026  28.592  29.548  1.00  0.00     0.167 HD
ATOM     59  C   UNL A   1      43.381  30.820  30.141  1.00  0.00     0.074 A 
ATOM     60  C   UNL A   1      42.203  31.645  30.318  1.00  0.00     0.031 C 
ATOM     61  C   UNL A   1      44.643  31.220  30.425  1.00  0.00     0.037 A 
BRANCH  48  62
ATOM     62  C   UNL A   1      48.939  26.906  29.419  1.00  0.00     0.057 A 
ATOM     63  C   UNL A   1      49.813  27.128  28.348  1.00  0.00     0.134 A 
ATOM     64  C   UNL A   1      49.471  26.336  30.583  1.00  0.00     0.134 A 
ATOM     65  F   UNL A   1      49.361  27.659  27.202  1.00  0.00    -0.206 F 
ATOM     66  C   UNL A   1      51.162  26.779  28.423  1.00  0.00     0.040 A 
ATOM     67  C   UNL A   1      50.823  26.002  30.677  1.00  0.00     0.040 A 
ATOM     68  F   UNL A   1      48.688  26.100  31.645  1.00  0.00    -0.206 F 
ATOM     69  C   UNL A   1      51.671  26.219  29.592  1.00  0.00     0.006 A 
ENDBRANCH  48  62
BRANCH  49  70
ATOM     70  C   UNL A   1      39.203  28.992  29.025  1.00  0.00     0.057 A 
ATOM     71  C   UNL A   1      38.422  28.875  30.179  1.00  0.00     0.134 A 
ATOM     72  C   UNL A   1      38.562  29.402  27.849  1.00  0.00     0.134 A 
ATOM     73  F   UNL A   1      38.978  28.467  31.330  1.00  0.00    -0.206 F 
ATOM     74  C   UNL A   1      37.052  29.138  30.165  1.00  0.00     0.040 A 
ATOM     75  C   UNL A   1      37.197  29.687  27.824  1.00  0.00     0.040 A 
ATOM     76  F   UNL A   1      39.259  29.539  26.712  1.00  0.00    -0.206 F 
ATOM     77  C   UNL A   1      36.436  29.549  28.984  1.00  0.00     0.006 A 
ENDBRANCH  49  70
BRANCH  61  78
ATOM     78  C   UNL A   1      44.817  32.620  30.931  1.00  0.00     0.057 A 
ATOM     79  C   UNL A   1      44.960  33.704  30.059  1.00  0.00     0.134 A 
ATOM     80  C   UNL A   1      44.803  32.887  32.306  1.00  0.00     0.134 A 
ATOM     81  F   UNL A   1      44.996  33.510  28.732  1.00  0.00    -0.206 F 
ATOM     82  C   UNL A   1      45.101  35.008  30.537  1.00  0.00     0.040 A 
ATOM     83  C   UNL A   1      44.923  34.188  32.795  1.00  0.00     0.040 A 
ATOM     84  F   UNL A   1      44.663  31.890  33.193  1.00  0.00    -0.206 F 
ATOM     85  C   UNL A   1      45.076  35.253  31.909  1.00  0.00     0.006 A 
ENDBRANCH  61  78
ENDBRANCH  35  36
ENDBRANCH  27  30
ENDBRANCH  25  26
ENDBRANCH  24  25
ENDBRANCH  23  24
ENDBRANCH   1  23
TORSDOF 16
ENDMDL
MODEL 3
REMARK VINA RESULT:     -10.7      2.522      4.343
REMARK SMILES COCc1cccc(O[C@@H](C)c2ccc(C(=O)NCCCCNC(=O)c3ccc(-c4c5nc(c(-c6c(F)cccc6F)c6ccc([nH]6)c(-c6c(F)cccc6F)c6nc(c(-c7c(F)cccc7F)c7ccc4[nH]7)C=C6)C=C5)cc3)o2)c1
REMARK SMILES IDX 19 1 18 2 16 3 17 4 15 6 12 7 13 8 80 9 14 10 10 11 11 12
REMARK SMILES IDX 9 13 8 14 4 15 5 16 81 17 6 18 7 19 3 20 2 21 1 22 20 23
REMARK SMILES IDX 21 24 22 25 23 26 24 27 25 29 26 30 27 31 79 32 28 33 78 34
REMARK SMILES IDX 29 35 30 36 31 37 72 38 32 39 77 40 71 41 73 42 33 43 76 44
REMARK SMILES IDX 70 45 69 46 34 48 60 49 43 50 59 51 44 52 47 53 58 54 74 55
REMARK SMILES IDX 45 56 46 57 57 59 75 60 48 61 35 62 36 63 41 64 37 65 38 66
REMARK SMILES IDX 40 67 42 68 39 69 61 70 62 71 67 72 63 73 64 74 66 75 68 76
REMARK SMILES IDX 65 77 49 78 50 79 55 80 51 81 52 82 54 83 56 84 53 85
REMARK H PARENT 18 5 23 28 73 47 47 58
REMARK Flexibility Score: inf
ROOT
ATOM      1  C   UNL A   1      35.962  21.101  25.252  1.00  0.00     0.116 C 
ENDROOT
BRANCH   1   2
ATOM      2  N   UNL A   1      35.277  19.834  25.089  1.00  0.00    -0.349 N 
ATOM      3  C   UNL A   1      33.975  19.586  24.703  1.00  0.00     0.286 C 
ATOM      4  O   UNL A   1      33.721  18.426  24.363  1.00  0.00    -0.266 OA
ATOM      5  H   UNL A   1      35.818  19.035  25.283  1.00  0.00     0.163 HD
BRANCH   3   6
ATOM      6  C   UNL A   1      32.980  20.643  24.716  1.00  0.00     0.191 A 
ATOM      7  C   UNL A   1      31.685  22.149  25.721  1.00  0.00     0.145 A 
ATOM      8  C   UNL A   1      31.574  22.364  24.363  1.00  0.00     0.050 A 
ATOM      9  O   UNL A   1      32.560  21.118  25.938  1.00  0.00    -0.452 OA
ATOM     10  C   UNL A   1      32.358  21.382  23.726  1.00  0.00     0.057 A 
BRANCH   7  11
ATOM     11  C   UNL A   1      31.121  22.837  26.935  1.00  0.00     0.236 C 
ATOM     12  C   UNL A   1      29.604  22.990  26.967  1.00  0.00     0.062 C 
BRANCH  11  13
ATOM     13  O   UNL A   1      31.789  24.084  27.252  1.00  0.00    -0.483 OA
BRANCH  13  14
ATOM     14  C   UNL A   1      32.161  24.972  26.282  1.00  0.00     0.120 A 
ATOM     15  C   UNL A   1      31.751  26.474  24.407  1.00  0.00    -0.019 A 
ATOM     16  C   UNL A   1      33.130  26.485  24.142  1.00  0.00     0.006 A 
ATOM     17  C   UNL A   1      31.290  25.732  25.504  1.00  0.00     0.052 A 
ATOM     18  C   UNL A   1      34.017  25.787  24.962  1.00  0.00     0.004 A 
ATOM     19  C   UNL A   1      33.532  25.035  26.030  1.00  0.00     0.046 A 
BRANCH  15  20
ATOM     20  C   UNL A   1      30.801  27.153  23.445  1.00  0.00     0.195 C 
BRANCH  20  21
ATOM     21  O   UNL A   1      31.097  28.527  23.193  1.00  0.00    -0.380 OA
ATOM     22  C   UNL A   1      30.916  29.385  24.313  1.00  0.00     0.195 C 
ENDBRANCH  20  21
ENDBRANCH  15  20
ENDBRANCH  13  14
ENDBRANCH  11  13
ENDBRANCH   7  11
ENDBRANCH   3   6
ENDBRANCH   1   2
BRANCH   1  23
ATOM     23  C   UNL A   1      37.367  21.104  24.651  1.00  0.00     0.023 C 
BRANCH  23  24
ATOM     24  C   UNL A   1      38.217  19.866  24.935  1.00  0.00     0.023 C 
BRANCH  24  25
ATOM     25  C   UNL A   1      39.337  20.044  25.954  1.00  0.00     0.116 C 
BRANCH  25  26
ATOM     26  N   UNL A   1      40.370  19.022  25.882  1.00  0.00    -0.352 N 
ATOM     27  C   UNL A   1      41.725  19.151  26.079  1.00  0.00     0.251 C 
ATOM     28  H   UNL A   1      40.055  18.115  25.663  1.00  0.00     0.163 HD
ATOM     29  O   UNL A   1      42.467  18.188  25.907  1.00  0.00    -0.269 OA
BRANCH  27  30
ATOM     30  C   UNL A   1      42.293  20.466  26.447  1.00  0.00     0.039 A 
ATOM     31  C   UNL A   1      42.825  21.273  25.437  1.00  0.00     0.014 A 
ATOM     32  C   UNL A   1      42.276  20.915  27.770  1.00  0.00     0.014 A 
ATOM     33  C   UNL A   1      43.259  22.566  25.740  1.00  0.00     0.010 A 
ATOM     34  C   UNL A   1      42.653  22.224  28.060  1.00  0.00     0.010 A 
ATOM     35  C   UNL A   1      43.134  23.065  27.046  1.00  0.00    -0.014 A 
BRANCH  35  36
ATOM     36  C   UNL A   1      43.472  24.474  27.367  1.00  0.00     0.031 A 
ATOM     37  C   UNL A   1      44.904  24.926  27.378  1.00  0.00     0.074 A 
ATOM     38  C   UNL A   1      42.493  25.323  27.734  1.00  0.00     0.049 A 
ATOM     39  N   UNL A   1      45.400  26.085  27.729  1.00  0.00    -0.248 NA
ATOM     40  C   UNL A   1      45.911  23.940  26.962  1.00  0.00     0.031 C 
ATOM     41  C   UNL A   1      41.068  24.992  27.812  1.00  0.00     0.029 A 
ATOM     42  N   UNL A   1      42.550  26.637  28.125  1.00  0.00    -0.354 N 
ATOM     43  C   UNL A   1      46.777  25.961  27.596  1.00  0.00     0.074 A 
ATOM     44  C   UNL A   1      47.040  24.604  27.168  1.00  0.00     0.031 C 
ATOM     45  C   UNL A   1      40.386  26.077  28.213  1.00  0.00     0.029 A 
ATOM     46  C   UNL A   1      41.325  27.169  28.449  1.00  0.00     0.049 A 
ATOM     47  H   UNL A   1      43.389  27.150  28.171  1.00  0.00     0.167 HD
ATOM     48  C   UNL A   1      47.733  26.899  27.796  1.00  0.00     0.037 A 
ATOM     49  C   UNL A   1      40.997  28.397  28.893  1.00  0.00     0.037 A 
ATOM     50  C   UNL A   1      47.471  28.258  28.190  1.00  0.00     0.049 A 
ATOM     51  C   UNL A   1      42.076  29.422  29.092  1.00  0.00     0.074 A 
ATOM     52  C   UNL A   1      48.371  29.297  28.356  1.00  0.00     0.029 A 
ATOM     53  N   UNL A   1      46.214  28.767  28.477  1.00  0.00    -0.354 N 
ATOM     54  N   UNL A   1      43.368  29.307  28.907  1.00  0.00    -0.248 NA
ATOM     55  C   UNL A   1      41.650  30.750  29.558  1.00  0.00     0.031 C 
ATOM     56  C   UNL A   1      47.659  30.429  28.770  1.00  0.00     0.029 A 
ATOM     57  C   UNL A   1      46.315  30.102  28.831  1.00  0.00     0.049 A 
ATOM     58  H   UNL A   1      45.374  28.254  28.435  1.00  0.00     0.167 HD
ATOM     59  C   UNL A   1      43.908  30.549  29.213  1.00  0.00     0.074 A 
ATOM     60  C   UNL A   1      42.801  31.407  29.583  1.00  0.00     0.031 C 
ATOM     61  C   UNL A   1      45.204  30.943  29.188  1.00  0.00     0.037 A 
BRANCH  48  62
ATOM     62  C   UNL A   1      49.157  26.486  27.579  1.00  0.00     0.057 A 
ATOM     63  C   UNL A   1      49.760  26.564  26.317  1.00  0.00     0.134 A 
ATOM     64  C   UNL A   1      49.945  26.041  28.648  1.00  0.00     0.134 A 
ATOM     65  F   UNL A   1      49.054  26.970  25.251  1.00  0.00    -0.206 F 
ATOM     66  C   UNL A   1      51.092  26.194  26.121  1.00  0.00     0.040 A 
ATOM     67  C   UNL A   1      51.283  25.689  28.468  1.00  0.00     0.040 A 
ATOM     68  F   UNL A   1      49.428  25.947  29.882  1.00  0.00    -0.206 F 
ATOM     69  C   UNL A   1      51.859  25.760  27.200  1.00  0.00     0.006 A 
ENDBRANCH  48  62
BRANCH  49  70
ATOM     70  C   UNL A   1      39.578  28.734  29.160  1.00  0.00     0.057 A 
ATOM     71  C   UNL A   1      39.017  28.530  30.426  1.00  0.00     0.134 A 
ATOM     72  C   UNL A   1      38.749  29.255  28.161  1.00  0.00     0.134 A 
ATOM     73  F   UNL A   1      39.760  28.014  31.416  1.00  0.00    -0.206 F 
ATOM     74  C   UNL A   1      37.677  28.817  30.686  1.00  0.00     0.040 A 
ATOM     75  C   UNL A   1      37.412  29.565  28.411  1.00  0.00     0.040 A 
ATOM     76  F   UNL A   1      39.231  29.478  26.930  1.00  0.00    -0.206 F 
ATOM     77  C   UNL A   1      36.871  29.340  29.677  1.00  0.00     0.006 A 
ENDBRANCH  49  70
BRANCH  61  78
ATOM     78  C   UNL A   1      45.490  32.370  29.545  1.00  0.00     0.057 A 
ATOM     79  C   UNL A   1      45.454  33.388  28.587  1.00  0.00     0.134 A 
ATOM     80  C   UNL A   1      45.769  32.730  30.869  1.00  0.00     0.134 A 
ATOM     81  F   UNL A   1      45.207  33.103  27.299  1.00  0.00    -0.206 F 
ATOM     82  C   UNL A   1      45.701  34.718  28.930  1.00  0.00     0.040 A 
ATOM     83  C   UNL A   1      45.998  34.059  31.228  1.00  0.00     0.040 A 
ATOM     84  F   UNL A   1      45.813  31.799  31.834  1.00  0.00    -0.206 F 
ATOM     85  C   UNL A   1      45.968  35.057  30.256  1.00  0.00     0.006 A 
ENDBRANCH  61  78
ENDBRANCH  35  36
ENDBRANCH  27  30
ENDBRANCH  25  26
ENDBRANCH  24  25
ENDBRANCH  23  24
ENDBRANCH   1  23
TORSDOF 16
ENDMDL
