MODEL 1
REMARK VINA RESULT:     -11.9      0.000      0.000
REMARK SMILES Cc1cc(C)c2c(c1)C=C(C(=O)NCCCCNC(=O)c1ccc(-c3c4nc(c(-c5c(F)cccc5F)c5ccc([nH]5)c(-c5c(F)cccc5F)c5nc(c(-c6c(F)cccc6F)c6ccc3[nH]6)C=C5)C=C4)cc1)[C@@H](C(F)(F)F)O2
REMARK SMILES IDX 16 1 15 2 14 3 13 4 11 5 12 6 10 8 1 9 2 10 3 11 8 12 4 13
REMARK SMILES IDX 7 14 5 15 6 16 9 17 80 18 75 19 76 20 77 21 78 22 79 23
REMARK SMILES IDX 17 24 18 25 19 26 20 28 21 29 22 30 74 31 23 32 73 33 24 34
REMARK SMILES IDX 25 35 26 36 67 37 27 38 72 39 66 40 68 41 28 42 71 43 65 44
REMARK SMILES IDX 64 45 29 47 55 48 38 49 54 50 39 51 42 52 53 53 69 54 40 55
REMARK SMILES IDX 41 56 52 58 70 59 43 60 30 61 31 62 36 63 32 64 33 65 35 66
REMARK SMILES IDX 37 67 34 68 56 69 57 70 62 71 58 72 59 73 61 74 63 75 60 76
REMARK SMILES IDX 44 77 45 78 50 79 46 80 47 81 49 82 51 83 48 84
REMARK H PARENT 13 7 18 27 68 46 42 57
REMARK Flexibility Score: inf
ROOT
ATOM      1  C   UNL A   1      33.940  28.642  25.793  1.00  0.00     0.023 C 
ENDROOT
BRANCH   1   2
ATOM      2  C   UNL A   1      32.759  29.012  24.890  1.00  0.00     0.023 C 
BRANCH   2   3
ATOM      3  C   UNL A   1      32.037  27.814  24.280  1.00  0.00     0.116 C 
BRANCH   3   4
ATOM      4  N   UNL A   1      31.145  27.175  25.228  1.00  0.00    -0.352 N 
ATOM      5  C   UNL A   1      31.028  25.953  25.801  1.00  0.00     0.251 C 
ATOM      6  O   UNL A   1      30.070  25.829  26.573  1.00  0.00    -0.270 OA
ATOM      7  H   UNL A   1      30.441  27.791  25.537  1.00  0.00     0.163 HD
BRANCH   5   8
ATOM      8  C   UNL A   1      31.944  24.798  25.569  1.00  0.00     0.067 C 
ATOM      9  C   UNL A   1      37.946  23.330  25.887  1.00  0.00     0.044 C 
ATOM     10  C   UNL A   1      36.478  23.102  25.677  1.00  0.00    -0.050 A 
ATOM     11  C   UNL A   1      36.006  21.829  25.331  1.00  0.00     0.010 A 
ATOM     12  C   UNL A   1      35.560  24.140  25.884  1.00  0.00     0.015 A 
ATOM     13  C   UNL A   1      34.635  21.588  25.167  1.00  0.00    -0.008 A 
ATOM     14  C   UNL A   1      34.190  23.918  25.716  1.00  0.00     0.018 A 
ATOM     15  C   UNL A   1      34.144  20.221  24.789  1.00  0.00     0.048 C 
ATOM     16  C   UNL A   1      33.738  22.648  25.351  1.00  0.00     0.130 A 
ATOM     17  C   UNL A   1      33.222  24.984  25.949  1.00  0.00     0.025 C 
ATOM     18  O   UNL A   1      32.403  22.375  25.212  1.00  0.00    -0.475 OA
ATOM     19  C   UNL A   1      31.546  23.508  24.910  1.00  0.00     0.314 C 
BRANCH  19  20
ATOM     20  C   UNL A   1      31.391  23.640  23.384  1.00  0.00     0.429 C 
ATOM     21  F   UNL A   1      30.098  23.898  23.060  1.00  0.00    -0.167 F 
ATOM     22  F   UNL A   1      32.121  24.662  22.877  1.00  0.00    -0.167 F 
ATOM     23  F   UNL A   1      31.762  22.525  22.717  1.00  0.00    -0.167 F 
ENDBRANCH  19  20
ENDBRANCH   5   8
ENDBRANCH   3   4
ENDBRANCH   2   3
ENDBRANCH   1   2
BRANCH   1  24
ATOM     24  C   UNL A   1      33.679  28.750  27.295  1.00  0.00     0.116 C 
BRANCH  24  25
ATOM     25  N   UNL A   1      33.697  30.112  27.807  1.00  0.00    -0.352 N 
ATOM     26  C   UNL A   1      34.763  30.786  28.357  1.00  0.00     0.251 C 
ATOM     27  H   UNL A   1      32.849  30.610  27.755  1.00  0.00     0.163 HD
ATOM     28  O   UNL A   1      34.638  31.920  28.803  1.00  0.00    -0.269 OA
BRANCH  26  29
ATOM     29  C   UNL A   1      36.055  30.083  28.452  1.00  0.00     0.039 A 
ATOM     30  C   UNL A   1      36.938  30.162  27.374  1.00  0.00     0.014 A 
ATOM     31  C   UNL A   1      36.429  29.459  29.645  1.00  0.00     0.014 A 
ATOM     32  C   UNL A   1      38.241  29.691  27.525  1.00  0.00     0.010 A 
ATOM     33  C   UNL A   1      37.745  29.039  29.812  1.00  0.00     0.010 A 
ATOM     34  C   UNL A   1      38.664  29.171  28.760  1.00  0.00    -0.014 A 
BRANCH  34  35
ATOM     35  C   UNL A   1      40.083  28.806  28.976  1.00  0.00     0.031 A 
ATOM     36  C   UNL A   1      41.015  29.761  29.656  1.00  0.00     0.074 A 
ATOM     37  C   UNL A   1      40.537  27.626  28.511  1.00  0.00     0.049 A 
ATOM     38  N   UNL A   1      42.286  29.613  29.933  1.00  0.00    -0.248 NA
ATOM     39  C   UNL A   1      40.457  31.061  30.058  1.00  0.00     0.031 C 
ATOM     40  C   UNL A   1      39.737  26.639  27.781  1.00  0.00     0.029 A 
ATOM     41  N   UNL A   1      41.781  27.053  28.588  1.00  0.00    -0.354 N 
ATOM     42  C   UNL A   1      42.678  30.799  30.536  1.00  0.00     0.074 A 
ATOM     43  C   UNL A   1      41.527  31.676  30.541  1.00  0.00     0.031 C 
ATOM     44  C   UNL A   1      40.500  25.567  27.511  1.00  0.00     0.029 A 
ATOM     45  C   UNL A   1      41.844  25.798  28.031  1.00  0.00     0.049 A 
ATOM     46  H   UNL A   1      42.554  27.499  29.002  1.00  0.00     0.167 HD
ATOM     47  C   UNL A   1      43.883  31.117  31.063  1.00  0.00     0.037 A 
ATOM     48  C   UNL A   1      42.868  24.928  27.963  1.00  0.00     0.037 A 
ATOM     49  C   UNL A   1      45.016  30.234  31.086  1.00  0.00     0.049 A 
ATOM     50  C   UNL A   1      44.191  25.300  28.568  1.00  0.00     0.074 A 
ATOM     51  C   UNL A   1      46.259  30.441  31.658  1.00  0.00     0.029 A 
ATOM     52  N   UNL A   1      45.041  28.970  30.516  1.00  0.00    -0.354 N 
ATOM     53  N   UNL A   1      44.530  26.398  29.196  1.00  0.00    -0.248 NA
ATOM     54  C   UNL A   1      45.274  24.311  28.456  1.00  0.00     0.031 C 
ATOM     55  C   UNL A   1      47.044  29.309  31.413  1.00  0.00     0.029 A 
ATOM     56  C   UNL A   1      46.281  28.391  30.710  1.00  0.00     0.049 A 
ATOM     57  H   UNL A   1      44.287  28.549  30.043  1.00  0.00     0.167 HD
ATOM     58  C   UNL A   1      45.855  26.228  29.573  1.00  0.00     0.074 A 
ATOM     59  C   UNL A   1      46.259  24.917  29.107  1.00  0.00     0.031 C 
ATOM     60  C   UNL A   1      46.661  27.083  30.245  1.00  0.00     0.037 A 
BRANCH  47  61
ATOM     61  C   UNL A   1      44.024  32.474  31.679  1.00  0.00     0.057 A 
ATOM     62  C   UNL A   1      44.447  33.576  30.926  1.00  0.00     0.134 A 
ATOM     63  C   UNL A   1      43.706  32.690  33.025  1.00  0.00     0.134 A 
ATOM     64  F   UNL A   1      44.779  33.428  29.634  1.00  0.00    -0.206 F 
ATOM     65  C   UNL A   1      44.569  34.844  31.495  1.00  0.00     0.040 A 
ATOM     66  C   UNL A   1      43.805  33.957  33.601  1.00  0.00     0.040 A 
ATOM     67  F   UNL A   1      43.292  31.675  33.799  1.00  0.00    -0.206 F 
ATOM     68  C   UNL A   1      44.242  35.037  32.836  1.00  0.00     0.006 A 
ENDBRANCH  47  61
BRANCH  48  69
ATOM     69  C   UNL A   1      42.662  23.595  27.350  1.00  0.00     0.057 A 
ATOM     70  C   UNL A   1      42.296  22.497  28.136  1.00  0.00     0.134 A 
ATOM     71  C   UNL A   1      42.802  23.390  25.973  1.00  0.00     0.134 A 
ATOM     72  F   UNL A   1      42.159  22.634  29.463  1.00  0.00    -0.206 F 
ATOM     73  C   UNL A   1      42.084  21.238  27.577  1.00  0.00     0.040 A 
ATOM     74  C   UNL A   1      42.579  22.138  25.398  1.00  0.00     0.040 A 
ATOM     75  F   UNL A   1      43.144  24.406  25.169  1.00  0.00    -0.206 F 
ATOM     76  C   UNL A   1      42.222  21.056  26.202  1.00  0.00     0.006 A 
ENDBRANCH  48  69
BRANCH  60  77
ATOM     77  C   UNL A   1      48.058  26.628  30.533  1.00  0.00     0.057 A 
ATOM     78  C   UNL A   1      48.358  25.872  31.672  1.00  0.00     0.134 A 
ATOM     79  C   UNL A   1      49.092  26.881  29.625  1.00  0.00     0.134 A 
ATOM     80  F   UNL A   1      47.409  25.608  32.581  1.00  0.00    -0.206 F 
ATOM     81  C   UNL A   1      49.643  25.379  31.896  1.00  0.00     0.040 A 
ATOM     82  C   UNL A   1      50.379  26.382  29.832  1.00  0.00     0.040 A 
ATOM     83  F   UNL A   1      48.863  27.597  28.513  1.00  0.00    -0.206 F 
ATOM     84  C   UNL A   1      50.656  25.626  30.970  1.00  0.00     0.006 A 
ENDBRANCH  60  77
ENDBRANCH  34  35
ENDBRANCH  26  29
ENDBRANCH  24  25
ENDBRANCH   1  24
TORSDOF 12
ENDMDL
MODEL 2
REMARK VINA RESULT:     -11.8      2.891      7.657
REMARK SMILES Cc1cc(C)c2c(c1)C=C(C(=O)NCCCCNC(=O)c1ccc(-c3c4nc(c(-c5c(F)cccc5F)c5ccc([nH]5)c(-c5c(F)cccc5F)c5nc(c(-c6c(F)cccc6F)c6ccc3[nH]6)C=C5)C=C4)cc1)[C@@H](C(F)(F)F)O2
REMARK SMILES IDX 16 1 15 2 14 3 13 4 11 5 12 6 10 8 1 9 2 10 3 11 8 12 4 13
REMARK SMILES IDX 7 14 5 15 6 16 9 17 80 18 75 19 76 20 77 21 78 22 79 23
REMARK SMILES IDX 17 24 18 25 19 26 20 28 21 29 22 30 74 31 23 32 73 33 24 34
REMARK SMILES IDX 25 35 26 36 67 37 27 38 72 39 66 40 68 41 28 42 71 43 65 44
REMARK SMILES IDX 64 45 29 47 55 48 38 49 54 50 39 51 42 52 53 53 69 54 40 55
REMARK SMILES IDX 41 56 52 58 70 59 43 60 30 61 31 62 36 63 32 64 33 65 35 66
REMARK SMILES IDX 37 67 34 68 56 69 57 70 62 71 58 72 59 73 61 74 63 75 60 76
REMARK SMILES IDX 44 77 45 78 50 79 46 80 47 81 49 82 51 83 48 84
REMARK H PARENT 13 7 18 27 68 46 42 57
REMARK Flexibility Score: inf
ROOT
ATOM      1  C   UNL A   1      38.010  20.279  25.000  1.00  0.00     0.023 C 
ENDROOT
BRANCH   1   2
ATOM      2  C   UNL A   1      37.402  21.611  24.552  1.00  0.00     0.023 C 
BRANCH   2   3
ATOM      3  C   UNL A   1      37.407  22.695  25.627  1.00  0.00     0.116 C 
BRANCH   3   4
ATOM      4  N   UNL A   1      36.253  22.600  26.501  1.00  0.00    -0.352 N 
ATOM      5  C   UNL A   1      34.959  22.999  26.470  1.00  0.00     0.251 C 
ATOM      6  O   UNL A   1      34.302  22.711  27.476  1.00  0.00    -0.270 OA
ATOM      7  H   UNL A   1      36.466  22.119  27.334  1.00  0.00     0.163 HD
BRANCH   5   8
ATOM      8  C   UNL A   1      34.307  23.730  25.345  1.00  0.00     0.067 C 
ATOM      9  C   UNL A   1      31.028  28.862  24.253  1.00  0.00     0.044 C 
ATOM     10  C   UNL A   1      31.770  27.601  23.921  1.00  0.00    -0.050 A 
ATOM     11  C   UNL A   1      31.880  27.179  22.590  1.00  0.00     0.010 A 
ATOM     12  C   UNL A   1      32.412  26.868  24.928  1.00  0.00     0.015 A 
ATOM     13  C   UNL A   1      32.600  26.024  22.257  1.00  0.00    -0.008 A 
ATOM     14  C   UNL A   1      33.127  25.709  24.613  1.00  0.00     0.018 A 
ATOM     15  C   UNL A   1      32.704  25.579  20.827  1.00  0.00     0.048 C 
ATOM     16  C   UNL A   1      33.210  25.291  23.283  1.00  0.00     0.130 A 
ATOM     17  C   UNL A   1      33.818  24.948  25.648  1.00  0.00     0.025 C 
ATOM     18  O   UNL A   1      33.930  24.183  22.923  1.00  0.00    -0.475 OA
ATOM     19  C   UNL A   1      34.126  23.182  23.958  1.00  0.00     0.314 C 
BRANCH  19  20
ATOM     20  C   UNL A   1      33.002  22.133  23.872  1.00  0.00     0.429 C 
ATOM     21  F   UNL A   1      32.582  21.994  22.589  1.00  0.00    -0.167 F 
ATOM     22  F   UNL A   1      33.410  20.906  24.274  1.00  0.00    -0.167 F 
ATOM     23  F   UNL A   1      31.924  22.452  24.620  1.00  0.00    -0.167 F 
ENDBRANCH  19  20
ENDBRANCH   5   8
ENDBRANCH   3   4
ENDBRANCH   2   3
ENDBRANCH   1   2
BRANCH   1  24
ATOM     24  C   UNL A   1      39.292  20.385  25.825  1.00  0.00     0.116 C 
BRANCH  24  25
ATOM     25  N   UNL A   1      40.141  19.203  25.765  1.00  0.00    -0.352 N 
ATOM     26  C   UNL A   1      41.492  19.129  26.013  1.00  0.00     0.251 C 
ATOM     27  H   UNL A   1      39.697  18.360  25.519  1.00  0.00     0.163 HD
ATOM     28  O   UNL A   1      42.107  18.078  25.878  1.00  0.00    -0.269 OA
BRANCH  26  29
ATOM     29  C   UNL A   1      42.198  20.366  26.390  1.00  0.00     0.039 A 
ATOM     30  C   UNL A   1      42.724  21.169  25.377  1.00  0.00     0.014 A 
ATOM     31  C   UNL A   1      42.227  20.780  27.725  1.00  0.00     0.014 A 
ATOM     32  C   UNL A   1      43.203  22.438  25.694  1.00  0.00     0.010 A 
ATOM     33  C   UNL A   1      42.654  22.068  28.031  1.00  0.00     0.010 A 
ATOM     34  C   UNL A   1      43.126  22.913  27.014  1.00  0.00    -0.014 A 
BRANCH  34  35
ATOM     35  C   UNL A   1      43.492  24.311  27.334  1.00  0.00     0.031 A 
ATOM     36  C   UNL A   1      44.916  24.765  27.226  1.00  0.00     0.074 A 
ATOM     37  C   UNL A   1      42.539  25.158  27.770  1.00  0.00     0.049 A 
ATOM     38  N   UNL A   1      45.422  25.948  27.462  1.00  0.00    -0.248 NA
ATOM     39  C   UNL A   1      45.906  23.754  26.822  1.00  0.00     0.031 C 
ATOM     40  C   UNL A   1      41.129  24.815  27.972  1.00  0.00     0.029 A 
ATOM     41  N   UNL A   1      42.611  26.483  28.117  1.00  0.00    -0.354 N 
ATOM     42  C   UNL A   1      46.786  25.823  27.240  1.00  0.00     0.074 A 
ATOM     43  C   UNL A   1      47.037  24.440  26.900  1.00  0.00     0.031 C 
ATOM     44  C   UNL A   1      40.463  25.911  28.370  1.00  0.00     0.029 A 
ATOM     45  C   UNL A   1      41.399  27.026  28.469  1.00  0.00     0.049 A 
ATOM     46  H   UNL A   1      43.451  26.995  28.114  1.00  0.00     0.167 HD
ATOM     47  C   UNL A   1      47.738  26.782  27.289  1.00  0.00     0.037 A 
ATOM     48  C   UNL A   1      41.079  28.286  28.816  1.00  0.00     0.037 A 
ATOM     49  C   UNL A   1      47.483  28.163  27.596  1.00  0.00     0.049 A 
ATOM     50  C   UNL A   1      42.152  29.336  28.850  1.00  0.00     0.074 A 
ATOM     51  C   UNL A   1      48.372  29.223  27.605  1.00  0.00     0.029 A 
ATOM     52  N   UNL A   1      46.243  28.675  27.944  1.00  0.00    -0.354 N 
ATOM     53  N   UNL A   1      43.427  29.219  28.572  1.00  0.00    -0.248 NA
ATOM     54  C   UNL A   1      41.742  30.692  29.244  1.00  0.00     0.031 C 
ATOM     55  C   UNL A   1      47.672  30.374  27.981  1.00  0.00     0.029 A 
ATOM     56  C   UNL A   1      46.345  30.033  28.183  1.00  0.00     0.049 A 
ATOM     57  H   UNL A   1      45.413  28.150  28.012  1.00  0.00     0.167 HD
ATOM     58  C   UNL A   1      43.969  30.485  28.737  1.00  0.00     0.074 A 
ATOM     59  C   UNL A   1      42.884  31.359  29.134  1.00  0.00     0.031 C 
ATOM     60  C   UNL A   1      45.252  30.886  28.571  1.00  0.00     0.037 A 
BRANCH  47  61
ATOM     61  C   UNL A   1      49.143  26.369  26.979  1.00  0.00     0.057 A 
ATOM     62  C   UNL A   1      49.631  26.371  25.666  1.00  0.00     0.134 A 
ATOM     63  C   UNL A   1      50.025  25.996  28.000  1.00  0.00     0.134 A 
ATOM     64  F   UNL A   1      48.827  26.706  24.644  1.00  0.00    -0.206 F 
ATOM     65  C   UNL A   1      50.942  25.996  25.376  1.00  0.00     0.040 A 
ATOM     66  C   UNL A   1      51.346  25.637  27.724  1.00  0.00     0.040 A 
ATOM     67  F   UNL A   1      49.620  25.976  29.278  1.00  0.00    -0.206 F 
ATOM     68  C   UNL A   1      51.806  25.633  26.408  1.00  0.00     0.006 A 
ENDBRANCH  47  61
BRANCH  48  69
ATOM     69  C   UNL A   1      39.667  28.634  29.101  1.00  0.00     0.057 A 
ATOM     70  C   UNL A   1      39.140  28.477  30.388  1.00  0.00     0.134 A 
ATOM     71  C   UNL A   1      38.822  29.148  28.112  1.00  0.00     0.134 A 
ATOM     72  F   UNL A   1      39.901  27.977  31.372  1.00  0.00    -0.206 F 
ATOM     73  C   UNL A   1      37.818  28.811  30.680  1.00  0.00     0.040 A 
ATOM     74  C   UNL A   1      37.502  29.501  28.394  1.00  0.00     0.040 A 
ATOM     75  F   UNL A   1      39.275  29.328  26.863  1.00  0.00    -0.206 F 
ATOM     76  C   UNL A   1      36.995  29.329  29.681  1.00  0.00     0.006 A 
ENDBRANCH  48  69
BRANCH  60  77
ATOM     77  C   UNL A   1      45.557  32.333  28.804  1.00  0.00     0.057 A 
ATOM     78  C   UNL A   1      45.995  32.794  30.050  1.00  0.00     0.134 A 
ATOM     79  C   UNL A   1      45.489  33.255  27.752  1.00  0.00     0.134 A 
ATOM     80  F   UNL A   1      46.070  31.958  31.096  1.00  0.00    -0.206 F 
ATOM     81  C   UNL A   1      46.359  34.127  30.242  1.00  0.00     0.040 A 
ATOM     82  C   UNL A   1      45.863  34.587  27.929  1.00  0.00     0.040 A 
ATOM     83  F   UNL A   1      45.081  32.869  26.533  1.00  0.00    -0.206 F 
ATOM     84  C   UNL A   1      46.301  35.025  29.178  1.00  0.00     0.006 A 
ENDBRANCH  60  77
ENDBRANCH  34  35
ENDBRANCH  26  29
ENDBRANCH  24  25
ENDBRANCH   1  24
TORSDOF 12
ENDMDL
MODEL 3
REMARK VINA RESULT:     -11.8      1.860      3.864
REMARK SMILES Cc1cc(C)c2c(c1)C=C(C(=O)NCCCCNC(=O)c1ccc(-c3c4nc(c(-c5c(F)cccc5F)c5ccc([nH]5)c(-c5c(F)cccc5F)c5nc(c(-c6c(F)cccc6F)c6ccc3[nH]6)C=C5)C=C4)cc1)[C@@H](C(F)(F)F)O2
REMARK SMILES IDX 16 1 15 2 14 3 13 4 11 5 12 6 10 8 1 9 2 10 3 11 8 12 4 13
REMARK SMILES IDX 7 14 5 15 6 16 9 17 80 18 75 19 76 20 77 21 78 22 79 23
REMARK SMILES IDX 17 24 18 25 19 26 20 28 21 29 22 30 74 31 23 32 73 33 24 34
REMARK SMILES IDX 25 35 26 36 67 37 27 38 72 39 66 40 68 41 28 42 71 43 65 44
REMARK SMILES IDX 64 45 29 47 55 48 38 49 54 50 39 51 42 52 53 53 69 54 40 55
REMARK SMILES IDX 41 56 52 58 70 59 43 60 30 61 31 62 36 63 32 64 33 65 35 66
REMARK SMILES IDX 37 67 34 68 56 69 57 70 62 71 58 72 59 73 61 74 63 75 60 76
REMARK SMILES IDX 44 77 45 78 50 79 46 80 47 81 49 82 51 83 48 84
REMARK H PARENT 13 7 18 27 68 46 42 57
REMARK Flexibility Score: inf
ROOT
ATOM      1  C   UNL A   1      33.304  29.083  25.749  1.00  0.00     0.023 C 
ENDROOT
BRANCH   1   2
ATOM      2  C   UNL A   1      34.021  28.200  24.723  1.00  0.00     0.023 C 
BRANCH   2   3
ATOM      3  C   UNL A   1      33.888  26.703  24.983  1.00  0.00     0.116 C 
BRANCH   3   4
ATOM      4  N   UNL A   1      33.581  25.966  23.772  1.00  0.00    -0.352 N 
ATOM      5  C   UNL A   1      32.513  25.820  22.952  1.00  0.00     0.251 C 
ATOM      6  O   UNL A   1      32.686  25.048  22.003  1.00  0.00    -0.270 OA
ATOM      7  H   UNL A   1      34.351  25.433  23.465  1.00  0.00     0.163 HD
BRANCH   5   8
ATOM      8  C   UNL A   1      31.197  26.505  23.117  1.00  0.00     0.067 C 
ATOM      9  C   UNL A   1      28.516  31.992  22.126  1.00  0.00     0.044 C 
ATOM     10  C   UNL A   1      28.599  30.548  22.523  1.00  0.00    -0.050 A 
ATOM     11  C   UNL A   1      27.456  29.876  22.976  1.00  0.00     0.010 A 
ATOM     12  C   UNL A   1      29.801  29.841  22.388  1.00  0.00     0.015 A 
ATOM     13  C   UNL A   1      27.507  28.517  23.317  1.00  0.00    -0.008 A 
ATOM     14  C   UNL A   1      29.870  28.488  22.732  1.00  0.00     0.018 A 
ATOM     15  C   UNL A   1      26.276  27.811  23.807  1.00  0.00     0.048 C 
ATOM     16  C   UNL A   1      28.726  27.837  23.201  1.00  0.00     0.130 A 
ATOM     17  C   UNL A   1      31.109  27.735  22.576  1.00  0.00     0.025 C 
ATOM     18  O   UNL A   1      28.736  26.504  23.514  1.00  0.00    -0.475 OA
ATOM     19  C   UNL A   1      30.027  25.941  23.872  1.00  0.00     0.314 C 
BRANCH  19  20
ATOM     20  C   UNL A   1      30.210  26.013  25.399  1.00  0.00     0.429 C 
ATOM     21  F   UNL A   1      30.627  27.252  25.767  1.00  0.00    -0.167 F 
ATOM     22  F   UNL A   1      29.054  25.787  26.068  1.00  0.00    -0.167 F 
ATOM     23  F   UNL A   1      31.114  25.125  25.866  1.00  0.00    -0.167 F 
ENDBRANCH  19  20
ENDBRANCH   5   8
ENDBRANCH   3   4
ENDBRANCH   2   3
ENDBRANCH   1   2
BRANCH   1  24
ATOM     24  C   UNL A   1      33.848  29.009  27.175  1.00  0.00     0.116 C 
BRANCH  24  25
ATOM     25  N   UNL A   1      33.843  30.281  27.884  1.00  0.00    -0.352 N 
ATOM     26  C   UNL A   1      34.884  30.861  28.571  1.00  0.00     0.251 C 
ATOM     27  H   UNL A   1      32.997  30.785  27.869  1.00  0.00     0.163 HD
ATOM     28  O   UNL A   1      34.739  31.917  29.174  1.00  0.00    -0.269 OA
BRANCH  26  29
ATOM     29  C   UNL A   1      36.172  30.144  28.617  1.00  0.00     0.039 A 
ATOM     30  C   UNL A   1      37.024  30.234  27.515  1.00  0.00     0.014 A 
ATOM     31  C   UNL A   1      36.574  29.497  29.788  1.00  0.00     0.014 A 
ATOM     32  C   UNL A   1      38.325  29.748  27.620  1.00  0.00     0.010 A 
ATOM     33  C   UNL A   1      37.890  29.062  29.909  1.00  0.00     0.010 A 
ATOM     34  C   UNL A   1      38.779  29.203  28.833  1.00  0.00    -0.014 A 
BRANCH  34  35
ATOM     35  C   UNL A   1      40.200  28.821  29.001  1.00  0.00     0.031 A 
ATOM     36  C   UNL A   1      41.169  29.771  29.637  1.00  0.00     0.074 A 
ATOM     37  C   UNL A   1      40.622  27.631  28.533  1.00  0.00     0.049 A 
ATOM     38  N   UNL A   1      42.447  29.609  29.870  1.00  0.00    -0.248 NA
ATOM     39  C   UNL A   1      40.642  31.083  30.046  1.00  0.00     0.031 C 
ATOM     40  C   UNL A   1      39.783  26.647  27.843  1.00  0.00     0.029 A 
ATOM     41  N   UNL A   1      41.861  27.042  28.570  1.00  0.00    -0.354 N 
ATOM     42  C   UNL A   1      42.876  30.796  30.445  1.00  0.00     0.074 A 
ATOM     43  C   UNL A   1      41.738  31.688  30.483  1.00  0.00     0.031 C 
ATOM     44  C   UNL A   1      40.522  25.563  27.557  1.00  0.00     0.029 A 
ATOM     45  C   UNL A   1      41.887  25.782  28.025  1.00  0.00     0.049 A 
ATOM     46  H   UNL A   1      42.654  27.483  28.951  1.00  0.00     0.167 HD
ATOM     47  C   UNL A   1      44.103  31.103  30.925  1.00  0.00     0.037 A 
ATOM     48  C   UNL A   1      42.897  24.897  27.929  1.00  0.00     0.037 A 
ATOM     49  C   UNL A   1      45.225  30.205  30.916  1.00  0.00     0.049 A 
ATOM     50  C   UNL A   1      44.246  25.257  28.482  1.00  0.00     0.074 A 
ATOM     51  C   UNL A   1      46.491  30.402  31.440  1.00  0.00     0.029 A 
ATOM     52  N   UNL A   1      45.213  28.936  30.359  1.00  0.00    -0.354 N 
ATOM     53  N   UNL A   1      44.621  26.358  29.086  1.00  0.00    -0.248 NA
ATOM     54  C   UNL A   1      45.311  24.253  28.341  1.00  0.00     0.031 C 
ATOM     55  C   UNL A   1      47.252  29.258  31.179  1.00  0.00     0.029 A 
ATOM     56  C   UNL A   1      46.452  28.342  30.514  1.00  0.00     0.049 A 
ATOM     57  H   UNL A   1      44.437  28.520  29.918  1.00  0.00     0.167 HD
ATOM     58  C   UNL A   1      45.956  26.174  29.415  1.00  0.00     0.074 A 
ATOM     59  C   UNL A   1      46.326  24.853  28.950  1.00  0.00     0.031 C 
ATOM     60  C   UNL A   1      46.798  27.024  30.049  1.00  0.00     0.037 A 
BRANCH  47  61
ATOM     61  C   UNL A   1      44.283  32.464  31.521  1.00  0.00     0.057 A 
ATOM     62  C   UNL A   1      44.047  32.701  32.882  1.00  0.00     0.134 A 
ATOM     63  C   UNL A   1      44.725  33.539  30.741  1.00  0.00     0.134 A 
ATOM     64  F   UNL A   1      43.610  31.713  33.677  1.00  0.00    -0.206 F 
ATOM     65  C   UNL A   1      44.225  33.966  33.442  1.00  0.00     0.040 A 
ATOM     66  C   UNL A   1      44.925  34.805  31.294  1.00  0.00     0.040 A 
ATOM     67  F   UNL A   1      44.971  33.376  29.433  1.00  0.00    -0.206 F 
ATOM     68  C   UNL A   1      44.671  35.021  32.648  1.00  0.00     0.006 A 
ENDBRANCH  47  61
BRANCH  48  69
ATOM     69  C   UNL A   1      42.651  23.561  27.338  1.00  0.00     0.057 A 
ATOM     70  C   UNL A   1      42.796  23.354  25.961  1.00  0.00     0.134 A 
ATOM     71  C   UNL A   1      42.289  22.463  28.125  1.00  0.00     0.134 A 
ATOM     72  F   UNL A   1      43.129  24.374  25.157  1.00  0.00    -0.206 F 
ATOM     73  C   UNL A   1      42.582  22.101  25.386  1.00  0.00     0.040 A 
ATOM     74  C   UNL A   1      42.087  21.201  27.565  1.00  0.00     0.040 A 
ATOM     75  F   UNL A   1      42.143  22.601  29.451  1.00  0.00    -0.206 F 
ATOM     76  C   UNL A   1      42.230  21.019  26.190  1.00  0.00     0.006 A 
ENDBRANCH  48  69
BRANCH  60  77
ATOM     77  C   UNL A   1      48.198  26.555  30.292  1.00  0.00     0.057 A 
ATOM     78  C   UNL A   1      48.532  25.814  31.431  1.00  0.00     0.134 A 
ATOM     79  C   UNL A   1      49.200  26.776  29.339  1.00  0.00     0.134 A 
ATOM     80  F   UNL A   1      47.615  25.581  32.382  1.00  0.00    -0.206 F 
ATOM     81  C   UNL A   1      49.818  25.306  31.615  1.00  0.00     0.040 A 
ATOM     82  C   UNL A   1      50.486  26.261  29.505  1.00  0.00     0.040 A 
ATOM     83  F   UNL A   1      48.938  27.475  28.224  1.00  0.00    -0.206 F 
ATOM     84  C   UNL A   1      50.797  25.522  30.646  1.00  0.00     0.006 A 
ENDBRANCH  60  77
ENDBRANCH  34  35
ENDBRANCH  26  29
ENDBRANCH  24  25
ENDBRANCH   1  24
TORSDOF 12
ENDMDL
