MODEL 1
REMARK VINA RESULT:     -12.4      0.000      0.000
REMARK SMILES C[C@@H](Oc1ccc2c(c1)OCO2)C(=O)N1CCn2nc(C(=O)NCCCCNC(=O)c3ccc(-c4c5nc(c(-c6c(F)cccc6F)c6ccc([nH]6)c(-c6c(F)cccc6F)c6nc(c(-c7c(F)cccc7F)c7ccc4[nH]7)C=C6)C=C5)cc3)cc2C1
REMARK SMILES IDX 24 1 23 2 21 3 22 4 20 6 15 7 16 8 87 9 17 10 86 11 18 12
REMARK SMILES IDX 85 13 19 14 13 15 14 16 2 17 1 18 3 19 4 20 5 21 9 22 6 23
REMARK SMILES IDX 8 24 7 25 10 26 12 27 11 28 25 29 26 30 27 31 28 32 29 33
REMARK SMILES IDX 30 35 31 36 32 37 84 38 33 39 83 40 34 41 35 42 36 43 77 44
REMARK SMILES IDX 37 45 82 46 76 47 78 48 38 49 81 50 75 51 74 52 39 54 65 55
REMARK SMILES IDX 48 56 64 57 49 58 52 59 63 60 79 61 50 62 51 63 62 65 80 66
REMARK SMILES IDX 53 67 40 68 41 69 46 70 42 71 43 72 45 73 47 74 44 75 66 76
REMARK SMILES IDX 67 77 72 78 68 79 69 80 71 81 73 82 70 83 54 84 55 85 60 86
REMARK SMILES IDX 56 87 57 88 59 89 61 90 58 91
REMARK H PARENT 23 5 28 34 78 53 52 64
REMARK Flexibility Score: inf
ROOT
ATOM      1  C   UNL A   1      31.865  30.172  26.267  1.00  0.00     0.116 C 
ENDROOT
BRANCH   1   2
ATOM      2  N   UNL A   1      31.009  30.433  25.131  1.00  0.00    -0.351 N 
ATOM      3  C   UNL A   1      30.646  29.665  24.045  1.00  0.00     0.271 C 
ATOM      4  O   UNL A   1      29.838  30.191  23.273  1.00  0.00    -0.267 OA
ATOM      5  H   UNL A   1      30.607  31.332  25.134  1.00  0.00     0.163 HD
BRANCH   3   6
ATOM      6  C   UNL A   1      31.161  28.292  23.842  1.00  0.00     0.150 A 
ATOM      7  N   UNL A   1      32.503  23.923  23.216  1.00  0.00    -0.332 N 
ATOM      8  C   UNL A   1      33.509  24.660  22.438  1.00  0.00     0.143 C 
ATOM      9  C   UNL A   1      31.392  24.610  23.856  1.00  0.00     0.175 C 
ATOM     10  C   UNL A   1      33.194  26.092  22.012  1.00  0.00     0.166 C 
ATOM     11  C   UNL A   1      31.488  26.077  23.796  1.00  0.00     0.059 A 
ATOM     12  N   UNL A   1      32.265  26.727  22.903  1.00  0.00    -0.265 N 
ATOM     13  C   UNL A   1      30.872  27.072  24.518  1.00  0.00     0.061 A 
ATOM     14  N   UNL A   1      32.060  28.048  22.861  1.00  0.00    -0.167 NA
BRANCH   7  15
ATOM     15  C   UNL A   1      32.573  22.556  23.507  1.00  0.00     0.263 C 
ATOM     16  O   UNL A   1      31.907  21.739  22.859  1.00  0.00    -0.271 OA
BRANCH  15  17
ATOM     17  C   UNL A   1      33.422  22.064  24.693  1.00  0.00     0.259 C 
ATOM     18  C   UNL A   1      32.683  21.053  25.561  1.00  0.00     0.064 C 
BRANCH  17  19
ATOM     19  O   UNL A   1      34.631  21.557  24.105  1.00  0.00    -0.481 OA
BRANCH  19  20
ATOM     20  C   UNL A   1      35.778  22.062  24.649  1.00  0.00     0.124 A 
ATOM     21  C   UNL A   1      35.751  23.345  25.222  1.00  0.00     0.050 A 
ATOM     22  C   UNL A   1      36.894  21.234  24.790  1.00  0.00     0.097 A 
ATOM     23  C   UNL A   1      36.861  23.841  25.901  1.00  0.00     0.054 A 
ATOM     24  C   UNL A   1      37.972  21.745  25.485  1.00  0.00     0.169 A 
ATOM     25  C   UNL A   1      37.956  23.014  26.020  1.00  0.00     0.166 A 
ATOM     26  O   UNL A   1      39.135  21.093  25.756  1.00  0.00    -0.453 OA
ATOM     27  O   UNL A   1      39.101  23.319  26.685  1.00  0.00    -0.454 OA
ATOM     28  C   UNL A   1      39.836  22.088  26.533  1.00  0.00     0.468 C 
ENDBRANCH  19  20
ENDBRANCH  17  19
ENDBRANCH  15  17
ENDBRANCH   7  15
ENDBRANCH   3   6
ENDBRANCH   1   2
BRANCH   1  29
ATOM     29  C   UNL A   1      33.271  29.740  25.835  1.00  0.00     0.023 C 
BRANCH  29  30
ATOM     30  C   UNL A   1      34.000  28.823  26.831  1.00  0.00     0.023 C 
BRANCH  30  31
ATOM     31  C   UNL A   1      35.393  29.291  27.240  1.00  0.00     0.116 C 
BRANCH  31  32
ATOM     32  N   UNL A   1      35.444  29.846  28.595  1.00  0.00    -0.352 N 
ATOM     33  C   UNL A   1      36.367  29.572  29.594  1.00  0.00     0.251 C 
ATOM     34  H   UNL A   1      34.737  30.492  28.824  1.00  0.00     0.163 HD
ATOM     35  O   UNL A   1      36.108  29.753  30.770  1.00  0.00    -0.269 OA
BRANCH  33  36
ATOM     36  C   UNL A   1      37.697  29.087  29.189  1.00  0.00     0.039 A 
ATOM     37  C   UNL A   1      38.401  29.634  28.112  1.00  0.00     0.014 A 
ATOM     38  C   UNL A   1      38.251  28.079  29.969  1.00  0.00     0.014 A 
ATOM     39  C   UNL A   1      39.706  29.202  27.882  1.00  0.00     0.010 A 
ATOM     40  C   UNL A   1      39.583  27.798  29.862  1.00  0.00     0.010 A 
ATOM     41  C   UNL A   1      40.293  28.293  28.775  1.00  0.00    -0.014 A 
BRANCH  41  42
ATOM     42  C   UNL A   1      41.699  27.919  28.683  1.00  0.00     0.031 A 
ATOM     43  C   UNL A   1      41.945  26.674  27.908  1.00  0.00     0.074 A 
ATOM     44  C   UNL A   1      42.689  28.772  29.034  1.00  0.00     0.049 A 
ATOM     45  N   UNL A   1      42.377  25.541  28.349  1.00  0.00    -0.248 NA
ATOM     46  C   UNL A   1      41.503  26.632  26.502  1.00  0.00     0.031 C 
ATOM     47  C   UNL A   1      42.572  30.157  29.511  1.00  0.00     0.029 A 
ATOM     48  N   UNL A   1      44.036  28.611  28.939  1.00  0.00    -0.354 N 
ATOM     49  C   UNL A   1      42.496  24.718  27.230  1.00  0.00     0.074 A 
ATOM     50  C   UNL A   1      41.740  25.357  26.188  1.00  0.00     0.031 C 
ATOM     51  C   UNL A   1      43.773  30.771  29.438  1.00  0.00     0.029 A 
ATOM     52  C   UNL A   1      44.774  29.783  29.086  1.00  0.00     0.049 A 
ATOM     53  H   UNL A   1      44.457  27.734  28.778  1.00  0.00     0.167 HD
ATOM     54  C   UNL A   1      43.451  23.746  27.185  1.00  0.00     0.037 A 
ATOM     55  C   UNL A   1      46.112  29.928  28.918  1.00  0.00     0.037 A 
ATOM     56  C   UNL A   1      43.945  23.462  28.514  1.00  0.00     0.049 A 
ATOM     57  C   UNL A   1      46.710  28.574  29.014  1.00  0.00     0.074 A 
ATOM     58  C   UNL A   1      43.379  23.034  29.700  1.00  0.00     0.029 A 
ATOM     59  N   UNL A   1      45.164  23.992  28.859  1.00  0.00    -0.354 N 
ATOM     60  N   UNL A   1      46.723  27.869  30.111  1.00  0.00    -0.248 NA
ATOM     61  C   UNL A   1      46.846  27.817  27.780  1.00  0.00     0.031 C 
ATOM     62  C   UNL A   1      44.058  23.770  30.719  1.00  0.00     0.029 A 
ATOM     63  C   UNL A   1      45.048  24.540  30.108  1.00  0.00     0.049 A 
ATOM     64  H   UNL A   1      45.978  23.981  28.306  1.00  0.00     0.167 HD
ATOM     65  C   UNL A   1      46.424  26.578  29.703  1.00  0.00     0.074 A 
ATOM     66  C   UNL A   1      46.589  26.592  28.249  1.00  0.00     0.031 C 
ATOM     67  C   UNL A   1      45.783  25.707  30.540  1.00  0.00     0.037 A 
BRANCH  54  68
ATOM     68  C   UNL A   1      44.259  23.395  25.946  1.00  0.00     0.057 A 
ATOM     69  C   UNL A   1      44.387  22.036  25.595  1.00  0.00     0.134 A 
ATOM     70  C   UNL A   1      45.161  24.257  25.290  1.00  0.00     0.134 A 
ATOM     71  F   UNL A   1      43.572  21.108  26.121  1.00  0.00    -0.206 F 
ATOM     72  C   UNL A   1      45.418  21.561  24.777  1.00  0.00     0.040 A 
ATOM     73  C   UNL A   1      46.166  23.797  24.434  1.00  0.00     0.040 A 
ATOM     74  F   UNL A   1      45.193  25.577  25.495  1.00  0.00    -0.206 F 
ATOM     75  C   UNL A   1      46.328  22.442  24.209  1.00  0.00     0.006 A 
ENDBRANCH  54  68
BRANCH  55  76
ATOM     76  C   UNL A   1      46.861  31.090  28.387  1.00  0.00     0.057 A 
ATOM     77  C   UNL A   1      46.740  31.492  27.050  1.00  0.00     0.134 A 
ATOM     78  C   UNL A   1      47.493  32.004  29.250  1.00  0.00     0.134 A 
ATOM     79  F   UNL A   1      46.112  30.710  26.160  1.00  0.00    -0.206 F 
ATOM     80  C   UNL A   1      47.202  32.737  26.599  1.00  0.00     0.040 A 
ATOM     81  C   UNL A   1      47.961  33.249  28.814  1.00  0.00     0.040 A 
ATOM     82  F   UNL A   1      47.595  31.756  30.564  1.00  0.00    -0.206 F 
ATOM     83  C   UNL A   1      47.805  33.625  27.486  1.00  0.00     0.006 A 
ENDBRANCH  55  76
BRANCH  67  84
ATOM     84  C   UNL A   1      45.632  26.105  31.985  1.00  0.00     0.057 A 
ATOM     85  C   UNL A   1      44.480  26.696  32.527  1.00  0.00     0.134 A 
ATOM     86  C   UNL A   1      46.631  25.733  32.889  1.00  0.00     0.134 A 
ATOM     87  F   UNL A   1      43.430  27.003  31.757  1.00  0.00    -0.206 F 
ATOM     88  C   UNL A   1      44.345  26.939  33.898  1.00  0.00     0.040 A 
ATOM     89  C   UNL A   1      46.497  25.941  34.264  1.00  0.00     0.040 A 
ATOM     90  F   UNL A   1      47.738  25.112  32.453  1.00  0.00    -0.206 F 
ATOM     91  C   UNL A   1      45.354  26.554  34.773  1.00  0.00     0.006 A 
ENDBRANCH  67  84
ENDBRANCH  41  42
ENDBRANCH  33  36
ENDBRANCH  31  32
ENDBRANCH  30  31
ENDBRANCH  29  30
ENDBRANCH   1  29
TORSDOF 15
ENDMDL
MODEL 2
REMARK VINA RESULT:     -11.9      4.372      9.539
REMARK SMILES C[C@@H](Oc1ccc2c(c1)OCO2)C(=O)N1CCn2nc(C(=O)NCCCCNC(=O)c3ccc(-c4c5nc(c(-c6c(F)cccc6F)c6ccc([nH]6)c(-c6c(F)cccc6F)c6nc(c(-c7c(F)cccc7F)c7ccc4[nH]7)C=C6)C=C5)cc3)cc2C1
REMARK SMILES IDX 24 1 23 2 21 3 22 4 20 6 15 7 16 8 87 9 17 10 86 11 18 12
REMARK SMILES IDX 85 13 19 14 13 15 14 16 2 17 1 18 3 19 4 20 5 21 9 22 6 23
REMARK SMILES IDX 8 24 7 25 10 26 12 27 11 28 25 29 26 30 27 31 28 32 29 33
REMARK SMILES IDX 30 35 31 36 32 37 84 38 33 39 83 40 34 41 35 42 36 43 77 44
REMARK SMILES IDX 37 45 82 46 76 47 78 48 38 49 81 50 75 51 74 52 39 54 65 55
REMARK SMILES IDX 48 56 64 57 49 58 52 59 63 60 79 61 50 62 51 63 62 65 80 66
REMARK SMILES IDX 53 67 40 68 41 69 46 70 42 71 43 72 45 73 47 74 44 75 66 76
REMARK SMILES IDX 67 77 72 78 68 79 69 80 71 81 73 82 70 83 54 84 55 85 60 86
REMARK SMILES IDX 56 87 57 88 59 89 61 90 58 91
REMARK H PARENT 23 5 28 34 78 53 52 64
REMARK Flexibility Score: inf
ROOT
ATOM      1  C   UNL A   1      33.308  36.217  29.115  1.00  0.00     0.116 C 
ENDROOT
BRANCH   1   2
ATOM      2  N   UNL A   1      32.527  36.500  30.299  1.00  0.00    -0.351 N 
ATOM      3  C   UNL A   1      32.688  36.155  31.623  1.00  0.00     0.271 C 
ATOM      4  O   UNL A   1      31.844  36.618  32.396  1.00  0.00    -0.267 OA
ATOM      5  H   UNL A   1      31.725  37.045  30.126  1.00  0.00     0.163 HD
BRANCH   3   6
ATOM      6  C   UNL A   1      33.818  35.318  32.089  1.00  0.00     0.150 A 
ATOM      7  N   UNL A   1      37.331  32.851  33.779  1.00  0.00    -0.332 N 
ATOM      8  C   UNL A   1      36.649  31.861  32.933  1.00  0.00     0.143 C 
ATOM      9  C   UNL A   1      36.788  34.188  33.962  1.00  0.00     0.175 C 
ATOM     10  C   UNL A   1      35.199  32.121  32.533  1.00  0.00     0.166 C 
ATOM     11  C   UNL A   1      35.634  34.484  33.098  1.00  0.00     0.059 A 
ATOM     12  N   UNL A   1      34.887  33.522  32.515  1.00  0.00    -0.265 N 
ATOM     13  C   UNL A   1      35.048  35.668  32.716  1.00  0.00     0.061 A 
ATOM     14  N   UNL A   1      33.765  33.973  31.946  1.00  0.00    -0.167 NA
BRANCH   7  15
ATOM     15  C   UNL A   1      38.581  32.656  34.375  1.00  0.00     0.263 C 
ATOM     16  O   UNL A   1      38.671  32.134  35.493  1.00  0.00    -0.271 OA
BRANCH  15  17
ATOM     17  C   UNL A   1      39.855  33.164  33.676  1.00  0.00     0.259 C 
ATOM     18  C   UNL A   1      41.086  33.077  34.570  1.00  0.00     0.064 C 
BRANCH  17  19
ATOM     19  O   UNL A   1      39.954  32.393  32.467  1.00  0.00    -0.481 OA
BRANCH  19  20
ATOM     20  C   UNL A   1      40.135  33.138  31.336  1.00  0.00     0.124 A 
ATOM     21  C   UNL A   1      39.013  33.706  30.710  1.00  0.00     0.050 A 
ATOM     22  C   UNL A   1      41.430  33.471  30.933  1.00  0.00     0.097 A 
ATOM     23  C   UNL A   1      39.167  34.577  29.634  1.00  0.00     0.054 A 
ATOM     24  C   UNL A   1      41.552  34.352  29.877  1.00  0.00     0.169 A 
ATOM     25  C   UNL A   1      40.451  34.885  29.244  1.00  0.00     0.166 A 
ATOM     26  O   UNL A   1      42.718  34.823  29.355  1.00  0.00    -0.453 OA
ATOM     27  O   UNL A   1      40.783  35.746  28.248  1.00  0.00    -0.454 OA
ATOM     28  C   UNL A   1      42.222  35.720  28.337  1.00  0.00     0.468 C 
ENDBRANCH  19  20
ENDBRANCH  17  19
ENDBRANCH  15  17
ENDBRANCH   7  15
ENDBRANCH   3   6
ENDBRANCH   1   2
BRANCH   1  29
ATOM     29  C   UNL A   1      33.158  34.760  28.666  1.00  0.00     0.023 C 
BRANCH  29  30
ATOM     30  C   UNL A   1      34.438  34.125  28.095  1.00  0.00     0.023 C 
BRANCH  30  31
ATOM     31  C   UNL A   1      34.902  32.857  28.805  1.00  0.00     0.116 C 
BRANCH  31  32
ATOM     32  N   UNL A   1      34.212  31.650  28.345  1.00  0.00    -0.352 N 
ATOM     33  C   UNL A   1      34.773  30.438  27.967  1.00  0.00     0.251 C 
ATOM     34  H   UNL A   1      33.230  31.704  28.300  1.00  0.00     0.163 HD
ATOM     35  O   UNL A   1      34.184  29.661  27.238  1.00  0.00    -0.269 OA
BRANCH  33  36
ATOM     36  C   UNL A   1      36.100  30.096  28.506  1.00  0.00     0.039 A 
ATOM     37  C   UNL A   1      36.283  29.625  29.809  1.00  0.00     0.014 A 
ATOM     38  C   UNL A   1      37.172  30.218  27.631  1.00  0.00     0.014 A 
ATOM     39  C   UNL A   1      37.555  29.202  30.192  1.00  0.00     0.010 A 
ATOM     40  C   UNL A   1      38.366  29.630  27.941  1.00  0.00     0.010 A 
ATOM     41  C   UNL A   1      38.588  29.195  29.242  1.00  0.00    -0.014 A 
BRANCH  41  42
ATOM     42  C   UNL A   1      39.897  28.624  29.530  1.00  0.00     0.031 A 
ATOM     43  C   UNL A   1      40.267  28.651  30.970  1.00  0.00     0.074 A 
ATOM     44  C   UNL A   1      40.577  27.898  28.612  1.00  0.00     0.049 A 
ATOM     45  N   UNL A   1      41.200  29.341  31.533  1.00  0.00    -0.248 NA
ATOM     46  C   UNL A   1      39.388  27.952  31.925  1.00  0.00     0.031 C 
ATOM     47  C   UNL A   1      40.161  27.529  27.251  1.00  0.00     0.029 A 
ATOM     48  N   UNL A   1      41.760  27.240  28.742  1.00  0.00    -0.354 N 
ATOM     49  C   UNL A   1      41.185  28.974  32.878  1.00  0.00     0.074 A 
ATOM     50  C   UNL A   1      39.928  28.310  33.092  1.00  0.00     0.031 C 
ATOM     51  C   UNL A   1      40.952  26.541  26.781  1.00  0.00     0.029 A 
ATOM     52  C   UNL A   1      42.035  26.332  27.722  1.00  0.00     0.049 A 
ATOM     53  H   UNL A   1      42.374  27.393  29.497  1.00  0.00     0.167 HD
ATOM     54  C   UNL A   1      42.335  28.986  33.610  1.00  0.00     0.037 A 
ATOM     55  C   UNL A   1      43.076  25.464  27.665  1.00  0.00     0.037 A 
ATOM     56  C   UNL A   1      43.345  29.783  32.951  1.00  0.00     0.049 A 
ATOM     57  C   UNL A   1      44.105  25.958  28.613  1.00  0.00     0.074 A 
ATOM     58  C   UNL A   1      43.441  31.098  32.536  1.00  0.00     0.029 A 
ATOM     59  N   UNL A   1      44.334  29.112  32.274  1.00  0.00    -0.354 N 
ATOM     60  N   UNL A   1      44.764  27.070  28.444  1.00  0.00    -0.248 NA
ATOM     61  C   UNL A   1      44.040  25.468  29.981  1.00  0.00     0.031 C 
ATOM     62  C   UNL A   1      44.137  31.042  31.291  1.00  0.00     0.029 A 
ATOM     63  C   UNL A   1      44.496  29.715  31.056  1.00  0.00     0.049 A 
ATOM     64  H   UNL A   1      44.838  28.334  32.607  1.00  0.00     0.167 HD
ATOM     65  C   UNL A   1      44.814  27.645  29.705  1.00  0.00     0.074 A 
ATOM     66  C   UNL A   1      44.422  26.576  30.624  1.00  0.00     0.031 C 
ATOM     67  C   UNL A   1      44.874  29.002  29.857  1.00  0.00     0.037 A 
BRANCH  54  68
ATOM     68  C   UNL A   1      42.704  27.934  34.644  1.00  0.00     0.057 A 
ATOM     69  C   UNL A   1      42.865  26.602  34.213  1.00  0.00     0.134 A 
ATOM     70  C   UNL A   1      42.589  28.088  36.041  1.00  0.00     0.134 A 
ATOM     71  F   UNL A   1      43.018  26.311  32.912  1.00  0.00    -0.206 F 
ATOM     72  C   UNL A   1      42.772  25.509  35.084  1.00  0.00     0.040 A 
ATOM     73  C   UNL A   1      42.541  27.005  36.924  1.00  0.00     0.040 A 
ATOM     74  F   UNL A   1      42.426  29.274  36.636  1.00  0.00    -0.206 F 
ATOM     75  C   UNL A   1      42.587  25.708  36.444  1.00  0.00     0.006 A 
ENDBRANCH  54  68
BRANCH  55  76
ATOM     76  C   UNL A   1      43.118  24.100  27.089  1.00  0.00     0.057 A 
ATOM     77  C   UNL A   1      42.498  23.017  27.726  1.00  0.00     0.134 A 
ATOM     78  C   UNL A   1      43.524  23.884  25.759  1.00  0.00     0.134 A 
ATOM     79  F   UNL A   1      42.035  23.138  28.978  1.00  0.00    -0.206 F 
ATOM     80  C   UNL A   1      42.276  21.794  27.074  1.00  0.00     0.040 A 
ATOM     81  C   UNL A   1      43.310  22.669  25.097  1.00  0.00     0.040 A 
ATOM     82  F   UNL A   1      44.058  24.875  25.031  1.00  0.00    -0.206 F 
ATOM     83  C   UNL A   1      42.672  21.623  25.751  1.00  0.00     0.006 A 
ENDBRANCH  55  76
BRANCH  67  84
ATOM     84  C   UNL A   1      45.130  29.835  28.628  1.00  0.00     0.057 A 
ATOM     85  C   UNL A   1      44.123  30.424  27.847  1.00  0.00     0.134 A 
ATOM     86  C   UNL A   1      46.448  30.179  28.316  1.00  0.00     0.134 A 
ATOM     87  F   UNL A   1      42.829  30.232  28.124  1.00  0.00    -0.206 F 
ATOM     88  C   UNL A   1      44.416  31.286  26.785  1.00  0.00     0.040 A 
ATOM     89  C   UNL A   1      46.755  31.062  27.277  1.00  0.00     0.040 A 
ATOM     90  F   UNL A   1      47.463  29.700  29.052  1.00  0.00    -0.206 F 
ATOM     91  C   UNL A   1      45.737  31.613  26.501  1.00  0.00     0.006 A 
ENDBRANCH  67  84
ENDBRANCH  41  42
ENDBRANCH  33  36
ENDBRANCH  31  32
ENDBRANCH  30  31
ENDBRANCH  29  30
ENDBRANCH   1  29
TORSDOF 15
ENDMDL
MODEL 3
REMARK VINA RESULT:     -11.8      2.166      6.424
REMARK SMILES C[C@@H](Oc1ccc2c(c1)OCO2)C(=O)N1CCn2nc(C(=O)NCCCCNC(=O)c3ccc(-c4c5nc(c(-c6c(F)cccc6F)c6ccc([nH]6)c(-c6c(F)cccc6F)c6nc(c(-c7c(F)cccc7F)c7ccc4[nH]7)C=C6)C=C5)cc3)cc2C1
REMARK SMILES IDX 24 1 23 2 21 3 22 4 20 6 15 7 16 8 87 9 17 10 86 11 18 12
REMARK SMILES IDX 85 13 19 14 13 15 14 16 2 17 1 18 3 19 4 20 5 21 9 22 6 23
REMARK SMILES IDX 8 24 7 25 10 26 12 27 11 28 25 29 26 30 27 31 28 32 29 33
REMARK SMILES IDX 30 35 31 36 32 37 84 38 33 39 83 40 34 41 35 42 36 43 77 44
REMARK SMILES IDX 37 45 82 46 76 47 78 48 38 49 81 50 75 51 74 52 39 54 65 55
REMARK SMILES IDX 48 56 64 57 49 58 52 59 63 60 79 61 50 62 51 63 62 65 80 66
REMARK SMILES IDX 53 67 40 68 41 69 46 70 42 71 43 72 45 73 47 74 44 75 66 76
REMARK SMILES IDX 67 77 72 78 68 79 69 80 71 81 73 82 70 83 54 84 55 85 60 86
REMARK SMILES IDX 56 87 57 88 59 89 61 90 58 91
REMARK H PARENT 23 5 28 34 78 53 52 64
REMARK Flexibility Score: inf
ROOT
ATOM      1  C   UNL A   1      31.950  29.423  26.796  1.00  0.00     0.116 C 
ENDROOT
BRANCH   1   2
ATOM      2  N   UNL A   1      31.431  29.541  25.452  1.00  0.00    -0.351 N 
ATOM      3  C   UNL A   1      31.633  28.798  24.309  1.00  0.00     0.271 C 
ATOM      4  O   UNL A   1      30.977  29.154  23.325  1.00  0.00    -0.267 OA
ATOM      5  H   UNL A   1      30.813  30.298  25.329  1.00  0.00     0.163 HD
BRANCH   3   6
ATOM      6  C   UNL A   1      32.545  27.632  24.277  1.00  0.00     0.150 A 
ATOM      7  N   UNL A   1      35.355  23.977  24.453  1.00  0.00    -0.332 N 
ATOM      8  C   UNL A   1      34.718  23.803  23.139  1.00  0.00     0.143 C 
ATOM      9  C   UNL A   1      34.961  25.057  25.345  1.00  0.00     0.175 C 
ATOM     10  C   UNL A   1      33.409  24.537  22.862  1.00  0.00     0.166 C 
ATOM     11  C   UNL A   1      34.029  26.019  24.737  1.00  0.00     0.059 A 
ATOM     12  N   UNL A   1      33.285  25.733  23.646  1.00  0.00    -0.265 N 
ATOM     13  C   UNL A   1      33.675  27.303  25.079  1.00  0.00     0.061 A 
ATOM     14  N   UNL A   1      32.350  26.647  23.369  1.00  0.00    -0.167 NA
BRANCH   7  15
ATOM     15  C   UNL A   1      36.442  23.225  24.912  1.00  0.00     0.263 C 
ATOM     16  O   UNL A   1      37.517  23.773  25.186  1.00  0.00    -0.271 OA
BRANCH  15  17
ATOM     17  C   UNL A   1      36.332  21.692  25.004  1.00  0.00     0.259 C 
ATOM     18  C   UNL A   1      37.694  21.008  25.004  1.00  0.00     0.064 C 
BRANCH  17  19
ATOM     19  O   UNL A   1      35.552  21.442  26.185  1.00  0.00    -0.481 OA
BRANCH  19  20
ATOM     20  C   UNL A   1      34.213  21.667  26.034  1.00  0.00     0.124 A 
ATOM     21  C   UNL A   1      33.496  20.903  25.098  1.00  0.00     0.050 A 
ATOM     22  C   UNL A   1      33.553  22.510  26.931  1.00  0.00     0.097 A 
ATOM     23  C   UNL A   1      32.111  21.010  25.008  1.00  0.00     0.054 A 
ATOM     24  C   UNL A   1      32.177  22.580  26.832  1.00  0.00     0.169 A 
ATOM     25  C   UNL A   1      31.479  21.854  25.893  1.00  0.00     0.166 A 
ATOM     26  O   UNL A   1      31.351  23.316  27.625  1.00  0.00    -0.453 OA
ATOM     27  O   UNL A   1      30.136  22.045  25.974  1.00  0.00    -0.454 OA
ATOM     28  C   UNL A   1      30.060  22.955  27.089  1.00  0.00     0.468 C 
ENDBRANCH  19  20
ENDBRANCH  17  19
ENDBRANCH  15  17
ENDBRANCH   7  15
ENDBRANCH   3   6
ENDBRANCH   1   2
BRANCH   1  29
ATOM     29  C   UNL A   1      32.804  30.634  27.187  1.00  0.00     0.023 C 
BRANCH  29  30
ATOM     30  C   UNL A   1      34.296  30.330  27.404  1.00  0.00     0.023 C 
BRANCH  30  31
ATOM     31  C   UNL A   1      35.173  31.550  27.663  1.00  0.00     0.116 C 
BRANCH  31  32
ATOM     32  N   UNL A   1      34.826  32.264  28.894  1.00  0.00    -0.352 N 
ATOM     33  C   UNL A   1      35.187  31.946  30.196  1.00  0.00     0.251 C 
ATOM     34  H   UNL A   1      34.268  33.067  28.785  1.00  0.00     0.163 HD
ATOM     35  O   UNL A   1      34.543  32.336  31.151  1.00  0.00    -0.269 OA
BRANCH  33  36
ATOM     36  C   UNL A   1      36.407  31.144  30.395  1.00  0.00     0.039 A 
ATOM     37  C   UNL A   1      36.380  29.753  30.520  1.00  0.00     0.014 A 
ATOM     38  C   UNL A   1      37.609  31.842  30.405  1.00  0.00     0.014 A 
ATOM     39  C   UNL A   1      37.592  29.066  30.576  1.00  0.00     0.010 A 
ATOM     40  C   UNL A   1      38.785  31.160  30.266  1.00  0.00     0.010 A 
ATOM     41  C   UNL A   1      38.791  29.781  30.432  1.00  0.00    -0.014 A 
BRANCH  41  42
ATOM     42  C   UNL A   1      40.081  29.112  30.326  1.00  0.00     0.031 A 
ATOM     43  C   UNL A   1      40.791  28.957  31.623  1.00  0.00     0.074 A 
ATOM     44  C   UNL A   1      40.456  28.459  29.202  1.00  0.00     0.049 A 
ATOM     45  N   UNL A   1      41.886  29.528  31.997  1.00  0.00    -0.248 NA
ATOM     46  C   UNL A   1      40.119  28.203  32.697  1.00  0.00     0.031 C 
ATOM     47  C   UNL A   1      39.692  28.269  27.960  1.00  0.00     0.029 A 
ATOM     48  N   UNL A   1      41.578  27.728  28.967  1.00  0.00    -0.354 N 
ATOM     49  C   UNL A   1      42.170  29.012  33.261  1.00  0.00     0.074 A 
ATOM     50  C   UNL A   1      40.954  28.397  33.719  1.00  0.00     0.031 C 
ATOM     51  C   UNL A   1      40.263  27.299  27.214  1.00  0.00     0.029 A 
ATOM     52  C   UNL A   1      41.523  26.927  27.828  1.00  0.00     0.049 A 
ATOM     53  H   UNL A   1      42.368  27.761  29.555  1.00  0.00     0.167 HD
ATOM     54  C   UNL A   1      43.460  28.879  33.680  1.00  0.00     0.037 A 
ATOM     55  C   UNL A   1      42.445  26.016  27.429  1.00  0.00     0.037 A 
ATOM     56  C   UNL A   1      44.340  29.690  32.867  1.00  0.00     0.049 A 
ATOM     57  C   UNL A   1      43.710  26.343  28.131  1.00  0.00     0.074 A 
ATOM     58  C   UNL A   1      44.437  31.037  32.570  1.00  0.00     0.029 A 
ATOM     59  N   UNL A   1      45.077  29.048  31.903  1.00  0.00    -0.354 N 
ATOM     60  N   UNL A   1      44.395  27.430  27.910  1.00  0.00    -0.248 NA
ATOM     61  C   UNL A   1      43.942  25.707  29.418  1.00  0.00     0.031 C 
ATOM     62  C   UNL A   1      44.802  31.084  31.190  1.00  0.00     0.029 A 
ATOM     63  C   UNL A   1      44.985  29.774  30.746  1.00  0.00     0.049 A 
ATOM     64  H   UNL A   1      45.583  28.211  32.022  1.00  0.00     0.167 HD
ATOM     65  C   UNL A   1      44.797  27.856  29.167  1.00  0.00     0.074 A 
ATOM     66  C   UNL A   1      44.556  26.713  30.048  1.00  0.00     0.031 C 
ATOM     67  C   UNL A   1      45.001  29.182  29.428  1.00  0.00     0.037 A 
BRANCH  54  68
ATOM     68  C   UNL A   1      43.985  27.699  34.482  1.00  0.00     0.057 A 
ATOM     69  C   UNL A   1      44.750  27.963  35.635  1.00  0.00     0.134 A 
ATOM     70  C   UNL A   1      44.059  26.369  34.021  1.00  0.00     0.134 A 
ATOM     71  F   UNL A   1      44.748  29.180  36.201  1.00  0.00    -0.206 F 
ATOM     72  C   UNL A   1      45.626  27.024  36.192  1.00  0.00     0.040 A 
ATOM     73  C   UNL A   1      44.897  25.410  34.598  1.00  0.00     0.040 A 
ATOM     74  F   UNL A   1      43.406  25.931  32.940  1.00  0.00    -0.206 F 
ATOM     75  C   UNL A   1      45.718  25.746  35.660  1.00  0.00     0.006 A 
ENDBRANCH  54  68
BRANCH  55  76
ATOM     76  C   UNL A   1      42.236  24.726  26.733  1.00  0.00     0.057 A 
ATOM     77  C   UNL A   1      42.992  24.370  25.607  1.00  0.00     0.134 A 
ATOM     78  C   UNL A   1      41.488  23.692  27.325  1.00  0.00     0.134 A 
ATOM     79  F   UNL A   1      43.774  25.274  25.000  1.00  0.00    -0.206 F 
ATOM     80  C   UNL A   1      43.020  23.059  25.110  1.00  0.00     0.040 A 
ATOM     81  C   UNL A   1      41.504  22.380  26.838  1.00  0.00     0.040 A 
ATOM     82  F   UNL A   1      40.789  23.902  28.449  1.00  0.00    -0.206 F 
ATOM     83  C   UNL A   1      42.282  22.056  25.734  1.00  0.00     0.006 A 
ENDBRANCH  55  76
BRANCH  67  84
ATOM     84  C   UNL A   1      45.016  30.133  28.260  1.00  0.00     0.057 A 
ATOM     85  C   UNL A   1      43.892  30.836  27.797  1.00  0.00     0.134 A 
ATOM     86  C   UNL A   1      46.244  30.466  27.684  1.00  0.00     0.134 A 
ATOM     87  F   UNL A   1      42.686  30.658  28.349  1.00  0.00    -0.206 F 
ATOM     88  C   UNL A   1      43.982  31.797  26.785  1.00  0.00     0.040 A 
ATOM     89  C   UNL A   1      46.355  31.445  26.693  1.00  0.00     0.040 A 
ATOM     90  F   UNL A   1      47.372  29.877  28.112  1.00  0.00    -0.206 F 
ATOM     91  C   UNL A   1      45.219  32.109  26.233  1.00  0.00     0.006 A 
ENDBRANCH  67  84
ENDBRANCH  41  42
ENDBRANCH  33  36
ENDBRANCH  31  32
ENDBRANCH  30  31
ENDBRANCH  29  30
ENDBRANCH   1  29
TORSDOF 15
ENDMDL
