MODEL 1
REMARK VINA RESULT:     -11.2      0.000      0.000
REMARK SMILES C[N@@H+]1CCC[C@@H](C(=O)N[C@H](C(=O)NCCCCNC(=O)c2ccc(-c3c4nc(c(-c5c(F)cccc5F)c5ccc([nH]5)c(-c5c(F)cccc5F)c5nc(c(-c6c(F)cccc6F)c6ccc3[nH]6)C=C5)C=C4)cc2)c2ccccc2)C1
REMARK SMILES IDX 15 1 14 2 13 3 11 4 12 5 10 7 9 8 7 9 8 10 6 12 1 13 2 14
REMARK SMILES IDX 3 15 81 16 4 18 5 19 75 20 76 21 80 22 77 23 79 24 78 25
REMARK SMILES IDX 16 26 17 27 18 28 19 29 20 31 21 32 22 33 74 34 23 35 73 36
REMARK SMILES IDX 24 37 25 38 26 39 67 40 27 41 72 42 66 43 68 44 28 45 71 46
REMARK SMILES IDX 65 47 64 48 29 50 55 51 38 52 54 53 39 54 42 55 53 56 69 57
REMARK SMILES IDX 40 58 41 59 52 61 70 62 43 63 30 64 31 65 36 66 32 67 33 68
REMARK SMILES IDX 35 69 37 70 34 71 56 72 57 73 62 74 58 75 59 76 61 77 63 78
REMARK SMILES IDX 60 79 44 80 45 81 50 82 46 83 47 84 49 85 51 86 48 87
REMARK H PARENT 13 6 9 11 2 17 18 30 68 49 42 60
REMARK Flexibility Score: inf
ROOT
ATOM      1  C   UNL A   1      38.846  22.477  26.284  1.00  0.00     0.023 C 
ENDROOT
BRANCH   1   2
ATOM      2  C   UNL A   1      37.642  23.261  25.756  1.00  0.00     0.116 C 
BRANCH   2   3
ATOM      3  N   UNL A   1      37.480  23.126  24.314  1.00  0.00    -0.354 N 
ATOM      4  C   UNL A   1      36.330  23.204  23.558  1.00  0.00     0.247 C 
ATOM      5  O   UNL A   1      36.417  22.961  22.352  1.00  0.00    -0.272 OA
ATOM      6  H   UNL A   1      38.307  22.956  23.809  1.00  0.00     0.163 HD
BRANCH   4   7
ATOM      7  C   UNL A   1      34.992  23.591  24.241  1.00  0.00     0.202 C 
BRANCH   7   8
ATOM      8  N   UNL A   1      34.398  24.779  23.646  1.00  0.00    -0.340 N 
ATOM      9  C   UNL A   1      33.788  25.866  24.177  1.00  0.00     0.229 C 
ATOM     10  O   UNL A   1      33.381  26.702  23.356  1.00  0.00    -0.275 OA
ATOM     11  H   UNL A   1      34.447  24.796  22.663  1.00  0.00     0.164 HD
BRANCH   9  12
ATOM     12  C   UNL A   1      33.602  26.175  25.677  1.00  0.00     0.133 C 
ATOM     13  C   UNL A   1      33.081  29.860  26.480  1.00  0.00     0.332 C 
ATOM     14  N   UNL A   1      32.752  28.493  26.092  1.00  0.00    -0.337 N 
ATOM     15  C   UNL A   1      31.579  27.983  26.807  1.00  0.00     0.262 C 
ATOM     16  C   UNL A   1      33.900  27.588  26.189  1.00  0.00     0.275 C 
ATOM     17  H   UNL A   1      32.502  28.525  25.105  1.00  0.00     0.347 HD
ATOM     18  C   UNL A   1      31.163  26.597  26.306  1.00  0.00     0.062 C 
ATOM     19  C   UNL A   1      32.318  25.604  26.280  1.00  0.00     0.025 C 
ENDBRANCH   9  12
ENDBRANCH   7   8
BRANCH   7  20
ATOM     20  C   UNL A   1      33.983  22.455  24.402  1.00  0.00    -0.016 A 
ATOM     21  C   UNL A   1      32.969  22.198  23.474  1.00  0.00     0.006 A 
ATOM     22  C   UNL A   1      34.188  21.505  25.414  1.00  0.00     0.006 A 
ATOM     23  C   UNL A   1      32.340  20.949  23.433  1.00  0.00     0.000 A 
ATOM     24  C   UNL A   1      33.547  20.268  25.393  1.00  0.00     0.000 A 
ATOM     25  C   UNL A   1      32.657  19.971  24.370  1.00  0.00     0.000 A 
ENDBRANCH   7  20
ENDBRANCH   4   7
ENDBRANCH   2   3
ENDBRANCH   1   2
BRANCH   1  26
ATOM     26  C   UNL A   1      39.163  21.197  25.520  1.00  0.00     0.023 C 
BRANCH  26  27
ATOM     27  C   UNL A   1      39.438  20.002  26.416  1.00  0.00     0.116 C 
BRANCH  27  28
ATOM     28  N   UNL A   1      40.615  19.255  25.996  1.00  0.00    -0.352 N 
ATOM     29  C   UNL A   1      41.924  19.665  25.895  1.00  0.00     0.251 C 
ATOM     30  H   UNL A   1      40.450  18.317  25.747  1.00  0.00     0.163 HD
ATOM     31  O   UNL A   1      42.750  18.958  25.334  1.00  0.00    -0.269 OA
BRANCH  29  32
ATOM     32  C   UNL A   1      42.321  20.977  26.449  1.00  0.00     0.039 A 
ATOM     33  C   UNL A   1      42.717  21.994  25.577  1.00  0.00     0.014 A 
ATOM     34  C   UNL A   1      42.280  21.209  27.826  1.00  0.00     0.014 A 
ATOM     35  C   UNL A   1      42.996  23.264  26.083  1.00  0.00     0.010 A 
ATOM     36  C   UNL A   1      42.452  22.496  28.313  1.00  0.00     0.010 A 
ATOM     37  C   UNL A   1      42.823  23.537  27.450  1.00  0.00    -0.014 A 
BRANCH  37  38
ATOM     38  C   UNL A   1      43.035  24.898  28.004  1.00  0.00     0.031 A 
ATOM     39  C   UNL A   1      44.407  25.316  28.459  1.00  0.00     0.074 A 
ATOM     40  C   UNL A   1      41.985  25.728  28.162  1.00  0.00     0.049 A 
ATOM     41  N   UNL A   1      44.783  26.425  29.043  1.00  0.00    -0.248 NA
ATOM     42  C   UNL A   1      45.497  24.347  28.260  1.00  0.00     0.031 C 
ATOM     43  C   UNL A   1      40.597  25.419  27.810  1.00  0.00     0.029 A 
ATOM     44  N   UNL A   1      41.921  27.001  28.671  1.00  0.00    -0.354 N 
ATOM     45  C   UNL A   1      46.141  26.279  29.293  1.00  0.00     0.074 A 
ATOM     46  C   UNL A   1      46.512  24.952  28.858  1.00  0.00     0.031 C 
ATOM     47  C   UNL A   1      39.826  26.482  28.086  1.00  0.00     0.029 A 
ATOM     48  C   UNL A   1      40.652  27.530  28.676  1.00  0.00     0.049 A 
ATOM     49  H   UNL A   1      42.709  27.488  29.002  1.00  0.00     0.167 HD
ATOM     50  C   UNL A   1      47.009  27.181  29.809  1.00  0.00     0.037 A 
ATOM     51  C   UNL A   1      40.206  28.721  29.115  1.00  0.00     0.037 A 
ATOM     52  C   UNL A   1      46.640  28.511  30.217  1.00  0.00     0.049 A 
ATOM     53  C   UNL A   1      41.189  29.700  29.699  1.00  0.00     0.074 A 
ATOM     54  C   UNL A   1      47.454  29.519  30.700  1.00  0.00     0.029 A 
ATOM     55  N   UNL A   1      45.348  29.014  30.188  1.00  0.00    -0.354 N 
ATOM     56  N   UNL A   1      42.485  29.575  29.862  1.00  0.00    -0.248 NA
ATOM     57  C   UNL A   1      40.650  30.988  30.155  1.00  0.00     0.031 C 
ATOM     58  C   UNL A   1      46.646  30.617  31.013  1.00  0.00     0.029 A 
ATOM     59  C   UNL A   1      45.340  30.314  30.669  1.00  0.00     0.049 A 
ATOM     60  H   UNL A   1      44.557  28.523  29.874  1.00  0.00     0.167 HD
ATOM     61  C   UNL A   1      42.918  30.777  30.406  1.00  0.00     0.074 A 
ATOM     62  C   UNL A   1      41.751  31.624  30.530  1.00  0.00     0.031 C 
ATOM     63  C   UNL A   1      44.170  31.147  30.771  1.00  0.00     0.037 A 
BRANCH  50  64
ATOM     64  C   UNL A   1      48.444  26.762  29.953  1.00  0.00     0.057 A 
ATOM     65  C   UNL A   1      48.905  26.085  31.091  1.00  0.00     0.134 A 
ATOM     66  C   UNL A   1      49.367  27.000  28.928  1.00  0.00     0.134 A 
ATOM     67  F   UNL A   1      48.076  25.837  32.117  1.00  0.00    -0.206 F 
ATOM     68  C   UNL A   1      50.236  25.682  31.213  1.00  0.00     0.040 A 
ATOM     69  C   UNL A   1      50.693  26.576  29.025  1.00  0.00     0.040 A 
ATOM     70  F   UNL A   1      48.993  27.639  27.809  1.00  0.00    -0.206 F 
ATOM     71  C   UNL A   1      51.132  25.920  30.174  1.00  0.00     0.006 A 
ENDBRANCH  50  64
BRANCH  51  72
ATOM     72  C   UNL A   1      38.765  29.071  29.008  1.00  0.00     0.057 A 
ATOM     73  C   UNL A   1      38.218  29.525  27.803  1.00  0.00     0.134 A 
ATOM     74  C   UNL A   1      37.907  28.986  30.113  1.00  0.00     0.134 A 
ATOM     75  F   UNL A   1      38.991  29.645  26.714  1.00  0.00    -0.206 F 
ATOM     76  C   UNL A   1      36.880  29.912  27.705  1.00  0.00     0.040 A 
ATOM     77  C   UNL A   1      36.560  29.341  30.021  1.00  0.00     0.040 A 
ATOM     78  F   UNL A   1      38.365  28.549  31.295  1.00  0.00    -0.206 F 
ATOM     79  C   UNL A   1      36.045  29.816  28.817  1.00  0.00     0.006 A 
ENDBRANCH  51  72
BRANCH  63  80
ATOM     80  C   UNL A   1      44.349  32.543  31.294  1.00  0.00     0.057 A 
ATOM     81  C   UNL A   1      44.600  33.629  30.446  1.00  0.00     0.134 A 
ATOM     82  C   UNL A   1      44.229  32.808  32.665  1.00  0.00     0.134 A 
ATOM     83  F   UNL A   1      44.739  33.443  29.125  1.00  0.00    -0.206 F 
ATOM     84  C   UNL A   1      44.751  34.924  30.945  1.00  0.00     0.040 A 
ATOM     85  C   UNL A   1      44.346  34.101  33.173  1.00  0.00     0.040 A 
ATOM     86  F   UNL A   1      43.978  31.814  33.532  1.00  0.00    -0.206 F 
ATOM     87  C   UNL A   1      44.615  35.164  32.312  1.00  0.00     0.006 A 
ENDBRANCH  63  80
ENDBRANCH  37  38
ENDBRANCH  29  32
ENDBRANCH  27  28
ENDBRANCH  26  27
ENDBRANCH   1  26
TORSDOF 14
ENDMDL
MODEL 2
REMARK VINA RESULT:     -11.2      1.215      1.721
REMARK SMILES C[N@@H+]1CCC[C@@H](C(=O)N[C@H](C(=O)NCCCCNC(=O)c2ccc(-c3c4nc(c(-c5c(F)cccc5F)c5ccc([nH]5)c(-c5c(F)cccc5F)c5nc(c(-c6c(F)cccc6F)c6ccc3[nH]6)C=C5)C=C4)cc2)c2ccccc2)C1
REMARK SMILES IDX 15 1 14 2 13 3 11 4 12 5 10 7 9 8 7 9 8 10 6 12 1 13 2 14
REMARK SMILES IDX 3 15 81 16 4 18 5 19 75 20 76 21 80 22 77 23 79 24 78 25
REMARK SMILES IDX 16 26 17 27 18 28 19 29 20 31 21 32 22 33 74 34 23 35 73 36
REMARK SMILES IDX 24 37 25 38 26 39 67 40 27 41 72 42 66 43 68 44 28 45 71 46
REMARK SMILES IDX 65 47 64 48 29 50 55 51 38 52 54 53 39 54 42 55 53 56 69 57
REMARK SMILES IDX 40 58 41 59 52 61 70 62 43 63 30 64 31 65 36 66 32 67 33 68
REMARK SMILES IDX 35 69 37 70 34 71 56 72 57 73 62 74 58 75 59 76 61 77 63 78
REMARK SMILES IDX 60 79 44 80 45 81 50 82 46 83 47 84 49 85 51 86 48 87
REMARK H PARENT 13 6 9 11 2 17 18 30 68 49 42 60
REMARK Flexibility Score: inf
ROOT
ATOM      1  C   UNL A   1      36.451  20.097  25.001  1.00  0.00     0.023 C 
ENDROOT
BRANCH   1   2
ATOM      2  C   UNL A   1      36.007  21.513  25.377  1.00  0.00     0.116 C 
BRANCH   2   3
ATOM      3  N   UNL A   1      35.260  21.547  26.629  1.00  0.00    -0.354 N 
ATOM      4  C   UNL A   1      33.907  21.724  26.828  1.00  0.00     0.247 C 
ATOM      5  O   UNL A   1      33.505  21.814  27.991  1.00  0.00    -0.272 OA
ATOM      6  H   UNL A   1      35.796  21.427  27.445  1.00  0.00     0.163 HD
BRANCH   4   7
ATOM      7  C   UNL A   1      32.959  21.799  25.604  1.00  0.00     0.202 C 
BRANCH   7   8
ATOM      8  N   UNL A   1      33.382  22.810  24.645  1.00  0.00    -0.340 N 
ATOM      9  C   UNL A   1      33.345  24.164  24.660  1.00  0.00     0.229 C 
ATOM     10  O   UNL A   1      33.791  24.721  23.646  1.00  0.00    -0.275 OA
ATOM     11  H   UNL A   1      33.772  22.436  23.823  1.00  0.00     0.164 HD
BRANCH   9  12
ATOM     12  C   UNL A   1      32.853  25.057  25.818  1.00  0.00     0.133 C 
ATOM     13  C   UNL A   1      33.634  28.760  25.401  1.00  0.00     0.332 C 
ATOM     14  N   UNL A   1      32.920  27.496  25.258  1.00  0.00    -0.337 N 
ATOM     15  C   UNL A   1      31.485  27.641  25.516  1.00  0.00     0.262 C 
ATOM     16  C   UNL A   1      33.522  26.417  26.046  1.00  0.00     0.275 C 
ATOM     17  H   UNL A   1      33.016  27.219  24.282  1.00  0.00     0.347 HD
ATOM     18  C   UNL A   1      30.722  26.342  25.242  1.00  0.00     0.062 C 
ATOM     19  C   UNL A   1      31.331  25.136  25.947  1.00  0.00     0.025 C 
ENDBRANCH   9  12
ENDBRANCH   7   8
BRANCH   7  20
ATOM     20  C   UNL A   1      32.639  20.464  24.935  1.00  0.00    -0.016 A 
ATOM     21  C   UNL A   1      32.343  20.343  23.574  1.00  0.00     0.006 A 
ATOM     22  C   UNL A   1      32.838  19.279  25.660  1.00  0.00     0.006 A 
ATOM     23  C   UNL A   1      32.456  19.108  22.926  1.00  0.00     0.000 A 
ATOM     24  C   UNL A   1      32.929  18.041  25.025  1.00  0.00     0.000 A 
ATOM     25  C   UNL A   1      32.787  17.964  23.646  1.00  0.00     0.000 A 
ENDBRANCH   7  20
ENDBRANCH   4   7
ENDBRANCH   2   3
ENDBRANCH   1   2
BRANCH   1  26
ATOM     26  C   UNL A   1      37.916  19.969  24.600  1.00  0.00     0.023 C 
BRANCH  26  27
ATOM     27  C   UNL A   1      38.888  20.257  25.730  1.00  0.00     0.116 C 
BRANCH  27  28
ATOM     28  N   UNL A   1      39.969  19.284  25.792  1.00  0.00    -0.352 N 
ATOM     29  C   UNL A   1      41.303  19.469  26.070  1.00  0.00     0.251 C 
ATOM     30  H   UNL A   1      39.705  18.353  25.606  1.00  0.00     0.163 HD
ATOM     31  O   UNL A   1      42.104  18.564  25.881  1.00  0.00    -0.269 OA
BRANCH  29  32
ATOM     32  C   UNL A   1      41.766  20.779  26.575  1.00  0.00     0.039 A 
ATOM     33  C   UNL A   1      42.211  21.741  25.667  1.00  0.00     0.014 A 
ATOM     34  C   UNL A   1      41.738  21.062  27.942  1.00  0.00     0.014 A 
ATOM     35  C   UNL A   1      42.554  23.014  26.126  1.00  0.00     0.010 A 
ATOM     36  C   UNL A   1      41.975  22.356  28.383  1.00  0.00     0.010 A 
ATOM     37  C   UNL A   1      42.397  23.345  27.483  1.00  0.00    -0.014 A 
BRANCH  37  38
ATOM     38  C   UNL A   1      42.678  24.712  27.987  1.00  0.00     0.031 A 
ATOM     39  C   UNL A   1      44.077  25.088  28.394  1.00  0.00     0.074 A 
ATOM     40  C   UNL A   1      41.667  25.590  28.144  1.00  0.00     0.049 A 
ATOM     41  N   UNL A   1      44.512  26.199  28.933  1.00  0.00    -0.248 NA
ATOM     42  C   UNL A   1      45.122  24.069  28.199  1.00  0.00     0.031 C 
ATOM     43  C   UNL A   1      40.259  25.326  27.836  1.00  0.00     0.029 A 
ATOM     44  N   UNL A   1      41.667  26.879  28.613  1.00  0.00    -0.354 N 
ATOM     45  C   UNL A   1      45.869  26.005  29.153  1.00  0.00     0.074 A 
ATOM     46  C   UNL A   1      46.176  24.650  28.752  1.00  0.00     0.031 C 
ATOM     47  C   UNL A   1      39.538  26.429  28.097  1.00  0.00     0.029 A 
ATOM     48  C   UNL A   1      40.422  27.460  28.632  1.00  0.00     0.049 A 
ATOM     49  H   UNL A   1      42.483  27.344  28.909  1.00  0.00     0.167 HD
ATOM     50  C   UNL A   1      46.786  26.886  29.618  1.00  0.00     0.037 A 
ATOM     51  C   UNL A   1      40.035  28.682  29.043  1.00  0.00     0.037 A 
ATOM     52  C   UNL A   1      46.482  28.242  29.991  1.00  0.00     0.049 A 
ATOM     53  C   UNL A   1      41.072  29.637  29.571  1.00  0.00     0.074 A 
ATOM     54  C   UNL A   1      47.348  29.231  30.422  1.00  0.00     0.029 A 
ATOM     55  N   UNL A   1      45.212  28.797  29.978  1.00  0.00    -0.354 N 
ATOM     56  N   UNL A   1      42.365  29.464  29.705  1.00  0.00    -0.248 NA
ATOM     57  C   UNL A   1      40.597  30.960  29.998  1.00  0.00     0.031 C 
ATOM     58  C   UNL A   1      46.594  30.370  30.719  1.00  0.00     0.029 A 
ATOM     59  C   UNL A   1      45.268  30.110  30.417  1.00  0.00     0.049 A 
ATOM     60  H   UNL A   1      44.393  28.329  29.700  1.00  0.00     0.167 HD
ATOM     61  C   UNL A   1      42.860  30.664  30.199  1.00  0.00     0.074 A 
ATOM     62  C   UNL A   1      41.732  31.562  30.325  1.00  0.00     0.031 C 
ATOM     63  C   UNL A   1      44.135  30.994  30.521  1.00  0.00     0.037 A 
BRANCH  50  64
ATOM     64  C   UNL A   1      48.207  26.413  29.740  1.00  0.00     0.057 A 
ATOM     65  C   UNL A   1      49.138  26.595  28.708  1.00  0.00     0.134 A 
ATOM     66  C   UNL A   1      48.661  25.806  30.918  1.00  0.00     0.134 A 
ATOM     67  F   UNL A   1      48.765  27.156  27.547  1.00  0.00    -0.206 F 
ATOM     68  C   UNL A   1      50.461  26.168  28.833  1.00  0.00     0.040 A 
ATOM     69  C   UNL A   1      49.989  25.403  31.067  1.00  0.00     0.040 A 
ATOM     70  F   UNL A   1      47.825  25.605  31.948  1.00  0.00    -0.206 F 
ATOM     71  C   UNL A   1      50.892  25.578  30.020  1.00  0.00     0.006 A 
ENDBRANCH  50  64
BRANCH  51  72
ATOM     72  C   UNL A   1      38.607  29.086  28.961  1.00  0.00     0.057 A 
ATOM     73  C   UNL A   1      38.064  29.588  27.773  1.00  0.00     0.134 A 
ATOM     74  C   UNL A   1      37.759  29.009  30.073  1.00  0.00     0.134 A 
ATOM     75  F   UNL A   1      38.829  29.703  26.677  1.00  0.00    -0.206 F 
ATOM     76  C   UNL A   1      36.741  30.026  27.698  1.00  0.00     0.040 A 
ATOM     77  C   UNL A   1      36.425  29.415  30.005  1.00  0.00     0.040 A 
ATOM     78  F   UNL A   1      38.213  28.529  31.240  1.00  0.00    -0.206 F 
ATOM     79  C   UNL A   1      35.915  29.936  28.818  1.00  0.00     0.006 A 
ENDBRANCH  51  72
BRANCH  63  80
ATOM     80  C   UNL A   1      44.385  32.396  30.994  1.00  0.00     0.057 A 
ATOM     81  C   UNL A   1      44.663  33.443  30.106  1.00  0.00     0.134 A 
ATOM     82  C   UNL A   1      44.304  32.710  32.357  1.00  0.00     0.134 A 
ATOM     83  F   UNL A   1      44.765  33.209  28.789  1.00  0.00    -0.206 F 
ATOM     84  C   UNL A   1      44.878  34.745  30.559  1.00  0.00     0.040 A 
ATOM     85  C   UNL A   1      44.486  34.013  32.820  1.00  0.00     0.040 A 
ATOM     86  F   UNL A   1      44.030  31.757  33.262  1.00  0.00    -0.206 F 
ATOM     87  C   UNL A   1      44.782  35.035  31.919  1.00  0.00     0.006 A 
ENDBRANCH  63  80
ENDBRANCH  37  38
ENDBRANCH  29  32
ENDBRANCH  27  28
ENDBRANCH  26  27
ENDBRANCH   1  26
TORSDOF 14
ENDMDL
MODEL 3
REMARK VINA RESULT:     -11.1      3.123      8.812
REMARK SMILES C[N@@H+]1CCC[C@@H](C(=O)N[C@H](C(=O)NCCCCNC(=O)c2ccc(-c3c4nc(c(-c5c(F)cccc5F)c5ccc([nH]5)c(-c5c(F)cccc5F)c5nc(c(-c6c(F)cccc6F)c6ccc3[nH]6)C=C5)C=C4)cc2)c2ccccc2)C1
REMARK SMILES IDX 15 1 14 2 13 3 11 4 12 5 10 7 9 8 7 9 8 10 6 12 1 13 2 14
REMARK SMILES IDX 3 15 81 16 4 18 5 19 75 20 76 21 80 22 77 23 79 24 78 25
REMARK SMILES IDX 16 26 17 27 18 28 19 29 20 31 21 32 22 33 74 34 23 35 73 36
REMARK SMILES IDX 24 37 25 38 26 39 67 40 27 41 72 42 66 43 68 44 28 45 71 46
REMARK SMILES IDX 65 47 64 48 29 50 55 51 38 52 54 53 39 54 42 55 53 56 69 57
REMARK SMILES IDX 40 58 41 59 52 61 70 62 43 63 30 64 31 65 36 66 32 67 33 68
REMARK SMILES IDX 35 69 37 70 34 71 56 72 57 73 62 74 58 75 59 76 61 77 63 78
REMARK SMILES IDX 60 79 44 80 45 81 50 82 46 83 47 84 49 85 51 86 48 87
REMARK H PARENT 13 6 9 11 2 17 18 30 68 49 42 60
REMARK Flexibility Score: inf
ROOT
ATOM      1  C   UNL A   1      34.407  30.861  27.468  1.00  0.00     0.023 C 
ENDROOT
BRANCH   1   2
ATOM      2  C   UNL A   1      34.075  29.406  27.127  1.00  0.00     0.116 C 
BRANCH   2   3
ATOM      3  N   UNL A   1      32.861  28.943  27.790  1.00  0.00    -0.354 N 
ATOM      4  C   UNL A   1      31.966  27.976  27.386  1.00  0.00     0.247 C 
ATOM      5  O   UNL A   1      30.949  27.815  28.065  1.00  0.00    -0.272 OA
ATOM      6  H   UNL A   1      32.653  29.382  28.645  1.00  0.00     0.163 HD
BRANCH   4   7
ATOM      7  C   UNL A   1      32.268  27.139  26.115  1.00  0.00     0.202 C 
BRANCH   7   8
ATOM      8  N   UNL A   1      32.335  25.713  26.403  1.00  0.00    -0.340 N 
ATOM      9  C   UNL A   1      33.189  24.736  26.015  1.00  0.00     0.229 C 
ATOM     10  O   UNL A   1      32.936  23.603  26.450  1.00  0.00    -0.275 OA
ATOM     11  H   UNL A   1      31.616  25.396  26.995  1.00  0.00     0.164 HD
BRANCH   9  12
ATOM     12  C   UNL A   1      34.449  24.910  25.141  1.00  0.00     0.133 C 
ATOM     13  C   UNL A   1      37.040  22.149  25.533  1.00  0.00     0.332 C 
ATOM     14  N   UNL A   1      35.854  22.841  25.041  1.00  0.00    -0.337 N 
ATOM     15  C   UNL A   1      35.748  22.785  23.581  1.00  0.00     0.262 C 
ATOM     16  C   UNL A   1      35.746  24.208  25.556  1.00  0.00     0.275 C 
ATOM     17  H   UNL A   1      35.050  22.336  25.413  1.00  0.00     0.347 HD
ATOM     18  C   UNL A   1      34.439  23.403  23.080  1.00  0.00     0.062 C 
ATOM     19  C   UNL A   1      34.189  24.798  23.638  1.00  0.00     0.025 C 
ENDBRANCH   9  12
ENDBRANCH   7   8
BRANCH   7  20
ATOM     20  C   UNL A   1      31.393  27.446  24.901  1.00  0.00    -0.016 A 
ATOM     21  C   UNL A   1      30.428  26.560  24.412  1.00  0.00     0.006 A 
ATOM     22  C   UNL A   1      31.409  28.743  24.365  1.00  0.00     0.006 A 
ATOM     23  C   UNL A   1      29.394  27.015  23.587  1.00  0.00     0.000 A 
ATOM     24  C   UNL A   1      30.395  29.197  23.524  1.00  0.00     0.000 A 
ATOM     25  C   UNL A   1      29.357  28.343  23.174  1.00  0.00     0.000 A 
ENDBRANCH   7  20
ENDBRANCH   4   7
ENDBRANCH   2   3
ENDBRANCH   1   2
BRANCH   1  26
ATOM     26  C   UNL A   1      33.209  31.717  27.861  1.00  0.00     0.023 C 
BRANCH  26  27
ATOM     27  C   UNL A   1      33.095  33.010  27.073  1.00  0.00     0.116 C 
BRANCH  27  28
ATOM     28  N   UNL A   1      32.697  34.134  27.910  1.00  0.00    -0.352 N 
ATOM     29  C   UNL A   1      33.258  34.603  29.074  1.00  0.00     0.251 C 
ATOM     30  H   UNL A   1      31.909  34.632  27.594  1.00  0.00     0.163 HD
ATOM     31  O   UNL A   1      32.671  35.438  29.749  1.00  0.00    -0.269 OA
BRANCH  29  32
ATOM     32  C   UNL A   1      34.565  34.074  29.518  1.00  0.00     0.039 A 
ATOM     33  C   UNL A   1      34.623  33.270  30.659  1.00  0.00     0.014 A 
ATOM     34  C   UNL A   1      35.727  34.353  28.795  1.00  0.00     0.014 A 
ATOM     35  C   UNL A   1      35.836  32.685  31.027  1.00  0.00     0.010 A 
ATOM     36  C   UNL A   1      36.905  33.685  29.098  1.00  0.00     0.010 A 
ATOM     37  C   UNL A   1      36.977  32.852  30.224  1.00  0.00    -0.014 A 
BRANCH  37  38
ATOM     38  C   UNL A   1      38.259  32.177  30.546  1.00  0.00     0.031 A 
ATOM     39  C   UNL A   1      39.241  32.839  31.475  1.00  0.00     0.074 A 
ATOM     40  C   UNL A   1      38.570  31.009  29.950  1.00  0.00     0.049 A 
ATOM     41  N   UNL A   1      40.445  32.455  31.817  1.00  0.00    -0.248 NA
ATOM     42  C   UNL A   1      38.829  34.118  32.076  1.00  0.00     0.031 C 
ATOM     43  C   UNL A   1      37.725  30.295  28.989  1.00  0.00     0.029 A 
ATOM     44  N   UNL A   1      39.688  30.221  30.058  1.00  0.00    -0.354 N 
ATOM     45  C   UNL A   1      40.934  33.448  32.655  1.00  0.00     0.074 A 
ATOM     46  C   UNL A   1      39.927  34.483  32.719  1.00  0.00     0.031 C 
ATOM     47  C   UNL A   1      38.342  29.161  28.619  1.00  0.00     0.029 A 
ATOM     48  C   UNL A   1      39.642  29.089  29.278  1.00  0.00     0.049 A 
ATOM     49  H   UNL A   1      40.450  30.444  30.638  1.00  0.00     0.167 HD
ATOM     50  C   UNL A   1      42.103  33.481  33.335  1.00  0.00     0.037 A 
ATOM     51  C   UNL A   1      40.550  28.111  29.108  1.00  0.00     0.037 A 
ATOM     52  C   UNL A   1      43.092  32.436  33.289  1.00  0.00     0.049 A 
ATOM     53  C   UNL A   1      41.850  28.179  29.864  1.00  0.00     0.074 A 
ATOM     54  C   UNL A   1      44.285  32.349  33.984  1.00  0.00     0.029 A 
ATOM     55  N   UNL A   1      43.000  31.299  32.501  1.00  0.00    -0.354 N 
ATOM     56  N   UNL A   1      42.268  29.090  30.710  1.00  0.00    -0.248 NA
ATOM     57  C   UNL A   1      42.801  27.081  29.647  1.00  0.00     0.031 C 
ATOM     58  C   UNL A   1      44.940  31.182  33.577  1.00  0.00     0.029 A 
ATOM     59  C   UNL A   1      44.128  30.513  32.676  1.00  0.00     0.049 A 
ATOM     60  H   UNL A   1      42.246  31.081  31.908  1.00  0.00     0.167 HD
ATOM     61  C   UNL A   1      43.513  28.658  31.150  1.00  0.00     0.074 A 
ATOM     62  C   UNL A   1      43.774  27.396  30.491  1.00  0.00     0.031 C 
ATOM     63  C   UNL A   1      44.364  29.252  32.022  1.00  0.00     0.037 A 
BRANCH  50  64
ATOM     64  C   UNL A   1      42.374  34.682  34.196  1.00  0.00     0.057 A 
ATOM     65  C   UNL A   1      42.929  35.858  33.670  1.00  0.00     0.134 A 
ATOM     66  C   UNL A   1      42.040  34.680  35.556  1.00  0.00     0.134 A 
ATOM     67  F   UNL A   1      43.286  35.923  32.378  1.00  0.00    -0.206 F 
ATOM     68  C   UNL A   1      43.163  36.977  34.471  1.00  0.00     0.040 A 
ATOM     69  C   UNL A   1      42.241  35.803  36.359  1.00  0.00     0.040 A 
ATOM     70  F   UNL A   1      41.501  33.590  36.123  1.00  0.00    -0.206 F 
ATOM     71  C   UNL A   1      42.810  36.955  35.818  1.00  0.00     0.006 A 
ENDBRANCH  50  64
BRANCH  51  72
ATOM     72  C   UNL A   1      40.265  26.970  28.197  1.00  0.00     0.057 A 
ATOM     73  C   UNL A   1      39.466  25.898  28.610  1.00  0.00     0.134 A 
ATOM     74  C   UNL A   1      40.806  26.910  26.907  1.00  0.00     0.134 A 
ATOM     75  F   UNL A   1      38.933  25.887  29.840  1.00  0.00    -0.206 F 
ATOM     76  C   UNL A   1      39.239  24.793  27.786  1.00  0.00     0.040 A 
ATOM     77  C   UNL A   1      40.562  25.827  26.061  1.00  0.00     0.040 A 
ATOM     78  F   UNL A   1      41.573  27.910  26.445  1.00  0.00    -0.206 F 
ATOM     79  C   UNL A   1      39.786  24.758  26.505  1.00  0.00     0.006 A 
ENDBRANCH  51  72
BRANCH  63  80
ATOM     80  C   UNL A   1      45.634  28.523  32.348  1.00  0.00     0.057 A 
ATOM     81  C   UNL A   1      46.817  28.728  31.626  1.00  0.00     0.134 A 
ATOM     82  C   UNL A   1      45.684  27.632  33.428  1.00  0.00     0.134 A 
ATOM     83  F   UNL A   1      46.835  29.559  30.573  1.00  0.00    -0.206 F 
ATOM     84  C   UNL A   1      47.995  28.054  31.949  1.00  0.00     0.040 A 
ATOM     85  C   UNL A   1      46.862  26.975  33.782  1.00  0.00     0.040 A 
ATOM     86  F   UNL A   1      44.590  27.397  34.170  1.00  0.00    -0.206 F 
ATOM     87  C   UNL A   1      48.022  27.180  33.036  1.00  0.00     0.006 A 
ENDBRANCH  63  80
ENDBRANCH  37  38
ENDBRANCH  29  32
ENDBRANCH  27  28
ENDBRANCH  26  27
ENDBRANCH   1  26
TORSDOF 14
ENDMDL
