MODEL 1
REMARK VINA RESULT:     -13.9      0.000      0.000
REMARK SMILES Cc1coc2c(C)c3oc(=O)c(CC(=O)NCC(=O)N[C@H](C(=O)NCCCCNC(=O)c4ccc(-c5c6nc(c(-c7c(F)cccc7F)c7ccc([nH]7)c(-c7c(F)cccc7F)c7nc(c(-c8c(F)cccc8F)c8ccc5[nH]8)C=C7)C=C6)cc4)C(C)C)c(C)c3cc12
REMARK SMILES IDX 25 1 24 2 22 3 23 4 21 6 20 7 18 8 19 9 17 11 16 12 14 13
REMARK SMILES IDX 15 14 13 16 12 17 1 18 2 19 3 20 93 21 4 22 5 23 92 24 6 25
REMARK SMILES IDX 91 26 7 27 8 28 89 29 9 30 90 31 10 32 11 33 86 34 87 35
REMARK SMILES IDX 88 36 26 37 27 38 28 39 29 40 30 41 31 43 32 44 33 45 85 46
REMARK SMILES IDX 34 47 84 48 35 49 36 50 37 51 78 52 38 53 83 54 77 55 79 56
REMARK SMILES IDX 39 57 82 58 76 59 75 60 40 62 66 63 49 64 65 65 50 66 53 67
REMARK SMILES IDX 64 68 80 69 51 70 52 71 63 73 81 74 54 75 41 76 42 77 47 78
REMARK SMILES IDX 43 79 44 80 46 81 48 82 45 83 67 84 68 85 73 86 69 87 70 88
REMARK SMILES IDX 72 89 74 90 71 91 55 92 56 93 61 94 57 95 58 96 60 97 62 98
REMARK SMILES IDX 59 99
REMARK H PARENT 24 5 20 10 16 15 29 42 79 61 53 72
REMARK Flexibility Score: inf
ROOT
ATOM      1  C   UNL A   1      31.849  30.665  26.517  1.00  0.00     0.116 C 
ENDROOT
BRANCH   1   2
ATOM      2  N   UNL A   1      31.567  30.284  24.950  1.00  0.00    -0.354 N 
ATOM      3  C   UNL A   1      31.390  28.996  23.511  1.00  0.00     0.242 C 
ATOM      4  O   UNL A   1      30.853  29.220  22.374  1.00  0.00    -0.273 OA
ATOM      5  H   UNL A   1      31.405  31.153  24.518  1.00  0.00     0.163 HD
BRANCH   3   6
ATOM      6  C   UNL A   1      31.713  27.274  23.423  1.00  0.00     0.173 C 
BRANCH   6   7
ATOM      7  N   UNL A   1      30.318  26.767  23.608  1.00  0.00    -0.343 N 
ATOM      8  C   UNL A   1      29.613  26.145  24.579  1.00  0.00     0.240 C 
ATOM      9  O   UNL A   1      28.401  26.010  24.381  1.00  0.00    -0.273 OA
ATOM     10  H   UNL A   1      29.767  26.930  22.809  1.00  0.00     0.164 HD
BRANCH   8  11
ATOM     11  C   UNL A   1      30.200  25.766  25.937  1.00  0.00     0.216 C 
BRANCH  11  12
ATOM     12  N   UNL A   1      29.918  24.436  26.435  1.00  0.00    -0.347 N 
ATOM     13  C   UNL A   1      30.341  23.238  25.950  1.00  0.00     0.225 C 
ATOM     14  O   UNL A   1      29.956  22.205  26.501  1.00  0.00    -0.275 OA
ATOM     15  H   UNL A   1      29.343  24.393  27.233  1.00  0.00     0.164 HD
BRANCH  13  16
ATOM     16  C   UNL A   1      31.196  23.190  24.698  1.00  0.00     0.143 C 
BRANCH  16  17
ATOM     17  C   UNL A   1      32.641  22.827  24.973  1.00  0.00     0.051 A 
ATOM     18  C   UNL A   1      39.256  24.793  27.858  1.00  0.00     0.048 C 
ATOM     19  C   UNL A   1      39.083  23.595  27.002  1.00  0.00    -0.005 A 
ATOM     20  C   UNL A   1      39.964  22.541  26.907  1.00  0.00     0.199 A 
ATOM     21  C   UNL A   1      37.935  23.247  26.199  1.00  0.00     0.024 A 
ATOM     22  O   UNL A   1      39.454  21.551  26.151  1.00  0.00    -0.464 OA
ATOM     23  C   UNL A   1      38.195  21.917  25.756  1.00  0.00     0.140 A 
ATOM     24  C   UNL A   1      36.708  23.978  25.952  1.00  0.00     0.024 A 
ATOM     25  C   UNL A   1      37.368  21.002  25.078  1.00  0.00     0.036 A 
ATOM     26  C   UNL A   1      35.673  23.261  25.408  1.00  0.00     0.022 A 
ATOM     27  C   UNL A   1      37.672  19.593  24.748  1.00  0.00     0.052 C 
ATOM     28  C   UNL A   1      36.158  21.634  24.970  1.00  0.00     0.145 A 
ATOM     29  C   UNL A   1      33.851  23.834  25.361  1.00  0.00    -0.029 A 
ATOM     30  O   UNL A   1      34.739  20.502  24.546  1.00  0.00    -0.422 OA
ATOM     31  C   UNL A   1      33.616  25.300  25.590  1.00  0.00     0.046 C 
ATOM     32  C   UNL A   1      32.977  20.938  24.530  1.00  0.00     0.340 A 
ATOM     33  O   UNL A   1      32.135  20.153  24.126  1.00  0.00    -0.246 OA
ENDBRANCH  16  17
ENDBRANCH  13  16
ENDBRANCH  11  12
ENDBRANCH   8  11
ENDBRANCH   6   7
BRANCH   6  34
ATOM     34  C   UNL A   1      32.159  26.738  22.009  1.00  0.00     0.015 C 
ATOM     35  C   UNL A   1      33.641  26.905  21.680  1.00  0.00     0.010 C 
ATOM     36  C   UNL A   1      31.885  25.222  21.898  1.00  0.00     0.010 C 
ENDBRANCH   6  34
ENDBRANCH   3   6
ENDBRANCH   1   2
BRANCH   1  37
ATOM     37  C   UNL A   1      32.569  29.685  27.450  1.00  0.00     0.023 C 
BRANCH  37  38
ATOM     38  C   UNL A   1      33.648  28.793  26.820  1.00  0.00     0.023 C 
BRANCH  38  39
ATOM     39  C   UNL A   1      35.100  29.036  27.232  1.00  0.00     0.116 C 
BRANCH  39  40
ATOM     40  N   UNL A   1      35.263  29.943  28.362  1.00  0.00    -0.352 N 
ATOM     41  C   UNL A   1      36.330  30.001  29.241  1.00  0.00     0.251 C 
ATOM     42  H   UNL A   1      34.534  30.585  28.516  1.00  0.00     0.163 HD
ATOM     43  O   UNL A   1      36.235  30.560  30.325  1.00  0.00    -0.269 OA
BRANCH  41  44
ATOM     44  C   UNL A   1      37.594  29.358  28.841  1.00  0.00     0.039 A 
ATOM     45  C   UNL A   1      38.281  29.790  27.710  1.00  0.00     0.014 A 
ATOM     46  C   UNL A   1      38.142  28.393  29.681  1.00  0.00     0.014 A 
ATOM     47  C   UNL A   1      39.579  29.326  27.498  1.00  0.00     0.010 A 
ATOM     48  C   UNL A   1      39.467  28.017  29.529  1.00  0.00     0.010 A 
ATOM     49  C   UNL A   1      40.201  28.476  28.434  1.00  0.00    -0.014 A 
BRANCH  49  50
ATOM     50  C   UNL A   1      41.628  28.166  28.268  1.00  0.00     0.031 A 
ATOM     51  C   UNL A   1      41.966  26.916  27.511  1.00  0.00     0.074 A 
ATOM     52  C   UNL A   1      42.668  28.959  28.605  1.00  0.00     0.049 A 
ATOM     53  N   UNL A   1      42.521  25.837  27.962  1.00  0.00    -0.248 NA
ATOM     54  C   UNL A   1      41.608  26.849  26.088  1.00  0.00     0.031 C 
ATOM     55  C   UNL A   1      42.676  30.352  29.056  1.00  0.00     0.029 A 
ATOM     56  N   UNL A   1      43.998  28.650  28.543  1.00  0.00    -0.354 N 
ATOM     57  C   UNL A   1      42.724  25.002  26.862  1.00  0.00     0.074 A 
ATOM     58  C   UNL A   1      42.062  25.639  25.751  1.00  0.00     0.031 C 
ATOM     59  C   UNL A   1      43.942  30.826  29.034  1.00  0.00     0.029 A 
ATOM     60  C   UNL A   1      44.842  29.725  28.749  1.00  0.00     0.049 A 
ATOM     61  H   UNL A   1      44.327  27.739  28.365  1.00  0.00     0.167 HD
ATOM     62  C   UNL A   1      43.549  23.915  26.916  1.00  0.00     0.037 A 
ATOM     63  C   UNL A   1      46.192  29.722  28.700  1.00  0.00     0.037 A 
ATOM     64  C   UNL A   1      43.855  23.547  28.273  1.00  0.00     0.049 A 
ATOM     65  C   UNL A   1      46.654  28.335  28.931  1.00  0.00     0.074 A 
ATOM     66  C   UNL A   1      43.125  23.141  29.373  1.00  0.00     0.029 A 
ATOM     67  N   UNL A   1      45.103  23.846  28.756  1.00  0.00    -0.354 N 
ATOM     68  N   UNL A   1      46.546  27.700  30.064  1.00  0.00    -0.248 NA
ATOM     69  C   UNL A   1      46.963  27.503  27.779  1.00  0.00     0.031 C 
ATOM     70  C   UNL A   1      43.814  23.688  30.497  1.00  0.00     0.029 A 
ATOM     71  C   UNL A   1      44.924  24.378  30.004  1.00  0.00     0.049 A 
ATOM     72  H   UNL A   1      45.961  23.706  28.294  1.00  0.00     0.167 HD
ATOM     73  C   UNL A   1      46.367  26.373  29.713  1.00  0.00     0.074 A 
ATOM     74  C   UNL A   1      46.773  26.296  28.315  1.00  0.00     0.031 C 
ATOM     75  C   UNL A   1      45.652  25.521  30.504  1.00  0.00     0.037 A 
BRANCH  62  76
ATOM     76  C   UNL A   1      44.328  23.339  25.756  1.00  0.00     0.057 A 
ATOM     77  C   UNL A   1      44.219  21.964  25.459  1.00  0.00     0.134 A 
ATOM     78  C   UNL A   1      45.387  24.003  25.110  1.00  0.00     0.134 A 
ATOM     79  F   UNL A   1      43.259  21.210  26.018  1.00  0.00    -0.206 F 
ATOM     80  C   UNL A   1      45.137  21.291  24.642  1.00  0.00     0.040 A 
ATOM     81  C   UNL A   1      46.280  23.350  24.252  1.00  0.00     0.040 A 
ATOM     82  F   UNL A   1      45.670  25.290  25.349  1.00  0.00    -0.206 F 
ATOM     83  C   UNL A   1      46.177  21.984  24.041  1.00  0.00     0.006 A 
ENDBRANCH  62  76
BRANCH  63  84
ATOM     84  C   UNL A   1      47.096  30.808  28.275  1.00  0.00     0.057 A 
ATOM     85  C   UNL A   1      46.953  31.433  27.030  1.00  0.00     0.134 A 
ATOM     86  C   UNL A   1      47.956  31.437  29.193  1.00  0.00     0.134 A 
ATOM     87  F   UNL A   1      46.124  30.927  26.106  1.00  0.00    -0.206 F 
ATOM     88  C   UNL A   1      47.609  32.630  26.722  1.00  0.00     0.040 A 
ATOM     89  C   UNL A   1      48.624  32.628  28.895  1.00  0.00     0.040 A 
ATOM     90  F   UNL A   1      48.105  30.965  30.439  1.00  0.00    -0.206 F 
ATOM     91  C   UNL A   1      48.440  33.238  27.659  1.00  0.00     0.006 A 
ENDBRANCH  63  84
BRANCH  75  92
ATOM     92  C   UNL A   1      45.343  25.953  31.909  1.00  0.00     0.057 A 
ATOM     93  C   UNL A   1      44.172  26.634  32.273  1.00  0.00     0.134 A 
ATOM     94  C   UNL A   1      46.179  25.528  32.948  1.00  0.00     0.134 A 
ATOM     95  F   UNL A   1      43.263  26.988  31.356  1.00  0.00    -0.206 F 
ATOM     96  C   UNL A   1      43.872  26.921  33.609  1.00  0.00     0.040 A 
ATOM     97  C   UNL A   1      45.874  25.779  34.288  1.00  0.00     0.040 A 
ATOM     98  F   UNL A   1      47.284  24.816  32.679  1.00  0.00    -0.206 F 
ATOM     99  C   UNL A   1      44.721  26.487  34.621  1.00  0.00     0.006 A 
ENDBRANCH  75  92
ENDBRANCH  49  50
ENDBRANCH  41  44
ENDBRANCH  39  40
ENDBRANCH  38  39
ENDBRANCH  37  38
ENDBRANCH   1  37
TORSDOF 17
ENDMDL
MODEL 2
REMARK VINA RESULT:     -12.7      3.950      9.190
REMARK SMILES Cc1coc2c(C)c3oc(=O)c(CC(=O)NCC(=O)N[C@H](C(=O)NCCCCNC(=O)c4ccc(-c5c6nc(c(-c7c(F)cccc7F)c7ccc([nH]7)c(-c7c(F)cccc7F)c7nc(c(-c8c(F)cccc8F)c8ccc5[nH]8)C=C7)C=C6)cc4)C(C)C)c(C)c3cc12
REMARK SMILES IDX 25 1 24 2 22 3 23 4 21 6 20 7 18 8 19 9 17 11 16 12 14 13
REMARK SMILES IDX 15 14 13 16 12 17 1 18 2 19 3 20 93 21 4 22 5 23 92 24 6 25
REMARK SMILES IDX 91 26 7 27 8 28 89 29 9 30 90 31 10 32 11 33 86 34 87 35
REMARK SMILES IDX 88 36 26 37 27 38 28 39 29 40 30 41 31 43 32 44 33 45 85 46
REMARK SMILES IDX 34 47 84 48 35 49 36 50 37 51 78 52 38 53 83 54 77 55 79 56
REMARK SMILES IDX 39 57 82 58 76 59 75 60 40 62 66 63 49 64 65 65 50 66 53 67
REMARK SMILES IDX 64 68 80 69 51 70 52 71 63 73 81 74 54 75 41 76 42 77 47 78
REMARK SMILES IDX 43 79 44 80 46 81 48 82 45 83 67 84 68 85 73 86 69 87 70 88
REMARK SMILES IDX 72 89 74 90 71 91 55 92 56 93 61 94 57 95 58 96 60 97 62 98
REMARK SMILES IDX 59 99
REMARK H PARENT 24 5 20 10 16 15 29 42 79 61 53 72
REMARK Flexibility Score: inf
ROOT
ATOM      1  C   UNL A   1      37.715  22.372  25.595  1.00  0.00     0.116 C 
ENDROOT
BRANCH   1   2
ATOM      2  N   UNL A   1      36.270  22.166  26.336  1.00  0.00    -0.354 N 
ATOM      3  C   UNL A   1      34.397  21.660  26.317  1.00  0.00     0.242 C 
ATOM      4  O   UNL A   1      33.681  21.418  27.346  1.00  0.00    -0.273 OA
ATOM      5  H   UNL A   1      36.436  22.438  27.268  1.00  0.00     0.163 HD
BRANCH   3   6
ATOM      6  C   UNL A   1      33.301  21.246  25.011  1.00  0.00     0.173 C 
BRANCH   6   7
ATOM      7  N   UNL A   1      33.922  22.059  23.920  1.00  0.00    -0.343 N 
ATOM      8  C   UNL A   1      33.500  22.723  22.821  1.00  0.00     0.240 C 
ATOM      9  O   UNL A   1      34.344  23.406  22.231  1.00  0.00    -0.273 OA
ATOM     10  H   UNL A   1      34.896  22.131  24.034  1.00  0.00     0.164 HD
BRANCH   8  11
ATOM     11  C   UNL A   1      32.038  22.795  22.388  1.00  0.00     0.216 C 
BRANCH  11  12
ATOM     12  N   UNL A   1      31.091  23.347  23.335  1.00  0.00    -0.347 N 
ATOM     13  C   UNL A   1      30.768  24.650  23.554  1.00  0.00     0.225 C 
ATOM     14  O   UNL A   1      29.956  24.919  24.440  1.00  0.00    -0.275 OA
ATOM     15  H   UNL A   1      30.617  22.691  23.895  1.00  0.00     0.164 HD
BRANCH  13  16
ATOM     16  C   UNL A   1      31.472  25.744  22.774  1.00  0.00     0.143 C 
BRANCH  16  17
ATOM     17  C   UNL A   1      31.884  26.922  23.633  1.00  0.00     0.051 A 
ATOM     18  C   UNL A   1      37.073  30.144  27.949  1.00  0.00     0.048 C 
ATOM     19  C   UNL A   1      35.684  30.655  27.856  1.00  0.00    -0.005 A 
ATOM     20  C   UNL A   1      35.261  31.910  28.234  1.00  0.00     0.199 A 
ATOM     21  C   UNL A   1      34.544  29.996  27.263  1.00  0.00     0.024 A 
ATOM     22  O   UNL A   1      33.973  32.108  27.895  1.00  0.00    -0.464 OA
ATOM     23  C   UNL A   1      33.523  30.990  27.246  1.00  0.00     0.140 A 
ATOM     24  C   UNL A   1      34.423  28.673  26.684  1.00  0.00     0.024 A 
ATOM     25  C   UNL A   1      32.250  30.982  26.644  1.00  0.00     0.036 A 
ATOM     26  C   UNL A   1      33.309  28.445  25.918  1.00  0.00     0.022 A 
ATOM     27  C   UNL A   1      31.284  32.099  26.575  1.00  0.00     0.052 C 
ATOM     28  C   UNL A   1      32.186  29.791  25.972  1.00  0.00     0.145 A 
ATOM     29  C   UNL A   1      33.089  26.976  24.716  1.00  0.00    -0.029 A 
ATOM     30  O   UNL A   1      30.825  29.702  24.702  1.00  0.00    -0.422 OA
ATOM     31  C   UNL A   1      34.028  25.819  24.911  1.00  0.00     0.046 C 
ATOM     32  C   UNL A   1      30.568  28.380  23.484  1.00  0.00     0.340 A 
ATOM     33  O   UNL A   1      29.578  28.360  22.772  1.00  0.00    -0.246 OA
ENDBRANCH  16  17
ENDBRANCH  13  16
ENDBRANCH  11  12
ENDBRANCH   8  11
ENDBRANCH   6   7
BRANCH   6  34
ATOM     34  C   UNL A   1      33.381  19.754  24.505  1.00  0.00     0.015 C 
ATOM     35  C   UNL A   1      33.000  18.691  25.532  1.00  0.00     0.010 C 
ATOM     36  C   UNL A   1      32.419  19.537  23.317  1.00  0.00     0.010 C 
ENDBRANCH   6  34
ENDBRANCH   3   6
ENDBRANCH   1   2
BRANCH   1  37
ATOM     37  C   UNL A   1      38.929  21.521  25.983  1.00  0.00     0.023 C 
BRANCH  37  38
ATOM     38  C   UNL A   1      39.977  22.181  26.891  1.00  0.00     0.023 C 
BRANCH  38  39
ATOM     39  C   UNL A   1      39.995  23.708  26.963  1.00  0.00     0.116 C 
BRANCH  39  40
ATOM     40  N   UNL A   1      40.920  24.344  26.034  1.00  0.00    -0.352 N 
ATOM     41  C   UNL A   1      41.257  25.685  25.976  1.00  0.00     0.251 C 
ATOM     42  H   UNL A   1      41.355  23.756  25.376  1.00  0.00     0.163 HD
ATOM     43  O   UNL A   1      41.778  26.171  24.982  1.00  0.00    -0.269 OA
BRANCH  41  44
ATOM     44  C   UNL A   1      40.957  26.527  27.148  1.00  0.00     0.039 A 
ATOM     45  C   UNL A   1      41.389  26.153  28.416  1.00  0.00     0.014 A 
ATOM     46  C   UNL A   1      40.339  27.757  26.941  1.00  0.00     0.014 A 
ATOM     47  C   UNL A   1      41.299  27.079  29.455  1.00  0.00     0.010 A 
ATOM     48  C   UNL A   1      40.348  28.712  27.944  1.00  0.00     0.010 A 
ATOM     49  C   UNL A   1      40.825  28.385  29.215  1.00  0.00    -0.014 A 
BRANCH  49  50
ATOM     50  C   UNL A   1      40.925  29.382  30.290  1.00  0.00     0.031 A 
ATOM     51  C   UNL A   1      39.663  30.098  30.668  1.00  0.00     0.074 A 
ATOM     52  C   UNL A   1      42.003  29.621  31.067  1.00  0.00     0.049 A 
ATOM     53  N   UNL A   1      39.380  31.351  30.511  1.00  0.00    -0.248 NA
ATOM     54  C   UNL A   1      38.571  29.314  31.261  1.00  0.00     0.031 C 
ATOM     55  C   UNL A   1      43.265  28.886  31.172  1.00  0.00     0.029 A 
ATOM     56  N   UNL A   1      42.143  30.604  32.006  1.00  0.00    -0.354 N 
ATOM     57  C   UNL A   1      38.138  31.560  31.112  1.00  0.00     0.074 A 
ATOM     58  C   UNL A   1      37.648  30.254  31.478  1.00  0.00     0.031 C 
ATOM     59  C   UNL A   1      43.952  29.321  32.250  1.00  0.00     0.029 A 
ATOM     60  C   UNL A   1      43.272  30.480  32.795  1.00  0.00     0.049 A 
ATOM     61  H   UNL A   1      41.495  31.338  32.114  1.00  0.00     0.167 HD
ATOM     62  C   UNL A   1      37.668  32.810  31.396  1.00  0.00     0.037 A 
ATOM     63  C   UNL A   1      43.638  31.275  33.825  1.00  0.00     0.037 A 
ATOM     64  C   UNL A   1      38.400  33.826  30.689  1.00  0.00     0.049 A 
ATOM     65  C   UNL A   1      42.970  32.584  33.650  1.00  0.00     0.074 A 
ATOM     66  C   UNL A   1      38.630  34.133  29.362  1.00  0.00     0.029 A 
ATOM     67  N   UNL A   1      39.295  34.586  31.397  1.00  0.00    -0.354 N 
ATOM     68  N   UNL A   1      43.247  33.434  32.702  1.00  0.00    -0.248 NA
ATOM     69  C   UNL A   1      41.727  32.832  34.363  1.00  0.00     0.031 C 
ATOM     70  C   UNL A   1      39.953  34.666  29.328  1.00  0.00     0.029 A 
ATOM     71  C   UNL A   1      40.433  34.660  30.639  1.00  0.00     0.049 A 
ATOM     72  H   UNL A   1      39.148  35.000  32.278  1.00  0.00     0.167 HD
ATOM     73  C   UNL A   1      42.046  34.066  32.426  1.00  0.00     0.074 A 
ATOM     74  C   UNL A   1      41.191  33.758  33.566  1.00  0.00     0.031 C 
ATOM     75  C   UNL A   1      41.768  34.548  31.180  1.00  0.00     0.037 A 
BRANCH  62  76
ATOM     76  C   UNL A   1      36.736  33.166  32.532  1.00  0.00     0.057 A 
ATOM     77  C   UNL A   1      35.551  33.882  32.260  1.00  0.00     0.134 A 
ATOM     78  C   UNL A   1      37.086  33.095  33.892  1.00  0.00     0.134 A 
ATOM     79  F   UNL A   1      35.110  34.037  31.002  1.00  0.00    -0.206 F 
ATOM     80  C   UNL A   1      34.816  34.537  33.258  1.00  0.00     0.040 A 
ATOM     81  C   UNL A   1      36.332  33.702  34.903  1.00  0.00     0.040 A 
ATOM     82  F   UNL A   1      38.223  32.518  34.303  1.00  0.00    -0.206 F 
ATOM     83  C   UNL A   1      35.211  34.454  34.585  1.00  0.00     0.006 A 
ENDBRANCH  62  76
BRANCH  63  84
ATOM     84  C   UNL A   1      44.375  30.908  35.048  1.00  0.00     0.057 A 
ATOM     85  C   UNL A   1      43.769  30.172  36.074  1.00  0.00     0.134 A 
ATOM     86  C   UNL A   1      45.772  31.044  35.122  1.00  0.00     0.134 A 
ATOM     87  F   UNL A   1      42.445  29.956  36.066  1.00  0.00    -0.206 F 
ATOM     88  C   UNL A   1      44.512  29.583  37.103  1.00  0.00     0.040 A 
ATOM     89  C   UNL A   1      46.526  30.469  36.149  1.00  0.00     0.040 A 
ATOM     90  F   UNL A   1      46.460  31.664  34.152  1.00  0.00    -0.206 F 
ATOM     91  C   UNL A   1      45.897  29.721  37.137  1.00  0.00     0.006 A 
ENDBRANCH  63  84
BRANCH  75  92
ATOM     92  C   UNL A   1      42.903  34.676  30.203  1.00  0.00     0.057 A 
ATOM     93  C   UNL A   1      43.282  33.660  29.315  1.00  0.00     0.134 A 
ATOM     94  C   UNL A   1      43.524  35.921  30.047  1.00  0.00     0.134 A 
ATOM     95  F   UNL A   1      42.670  32.470  29.321  1.00  0.00    -0.206 F 
ATOM     96  C   UNL A   1      44.271  33.861  28.346  1.00  0.00     0.040 A 
ATOM     97  C   UNL A   1      44.489  36.143  29.063  1.00  0.00     0.040 A 
ATOM     98  F   UNL A   1      43.165  36.958  30.820  1.00  0.00    -0.206 F 
ATOM     99  C   UNL A   1      44.873  35.108  28.214  1.00  0.00     0.006 A 
ENDBRANCH  75  92
ENDBRANCH  49  50
ENDBRANCH  41  44
ENDBRANCH  39  40
ENDBRANCH  38  39
ENDBRANCH  37  38
ENDBRANCH   1  37
TORSDOF 17
ENDMDL
MODEL 3
REMARK VINA RESULT:     -12.6      2.796      7.992
REMARK SMILES Cc1coc2c(C)c3oc(=O)c(CC(=O)NCC(=O)N[C@H](C(=O)NCCCCNC(=O)c4ccc(-c5c6nc(c(-c7c(F)cccc7F)c7ccc([nH]7)c(-c7c(F)cccc7F)c7nc(c(-c8c(F)cccc8F)c8ccc5[nH]8)C=C7)C=C6)cc4)C(C)C)c(C)c3cc12
REMARK SMILES IDX 25 1 24 2 22 3 23 4 21 6 20 7 18 8 19 9 17 11 16 12 14 13
REMARK SMILES IDX 15 14 13 16 12 17 1 18 2 19 3 20 93 21 4 22 5 23 92 24 6 25
REMARK SMILES IDX 91 26 7 27 8 28 89 29 9 30 90 31 10 32 11 33 86 34 87 35
REMARK SMILES IDX 88 36 26 37 27 38 28 39 29 40 30 41 31 43 32 44 33 45 85 46
REMARK SMILES IDX 34 47 84 48 35 49 36 50 37 51 78 52 38 53 83 54 77 55 79 56
REMARK SMILES IDX 39 57 82 58 76 59 75 60 40 62 66 63 49 64 65 65 50 66 53 67
REMARK SMILES IDX 64 68 80 69 51 70 52 71 63 73 81 74 54 75 41 76 42 77 47 78
REMARK SMILES IDX 43 79 44 80 46 81 48 82 45 83 67 84 68 85 73 86 69 87 70 88
REMARK SMILES IDX 72 89 74 90 71 91 55 92 56 93 61 94 57 95 58 96 60 97 62 98
REMARK SMILES IDX 59 99
REMARK H PARENT 24 5 20 10 16 15 29 42 79 61 53 72
REMARK Flexibility Score: inf
ROOT
ATOM      1  C   UNL A   1      38.426  20.584  25.347  1.00  0.00     0.116 C 
ENDROOT
BRANCH   1   2
ATOM      2  N   UNL A   1      37.422  21.465  24.399  1.00  0.00    -0.354 N 
ATOM      3  C   UNL A   1      35.728  22.348  24.064  1.00  0.00     0.242 C 
ATOM      4  O   UNL A   1      35.509  23.214  23.151  1.00  0.00    -0.273 OA
ATOM      5  H   UNL A   1      37.947  21.631  23.583  1.00  0.00     0.163 HD
BRANCH   3   6
ATOM      6  C   UNL A   1      34.209  22.357  24.941  1.00  0.00     0.173 C 
BRANCH   6   7
ATOM      7  N   UNL A   1      33.399  21.512  24.010  1.00  0.00    -0.343 N 
ATOM      8  C   UNL A   1      32.435  21.709  23.082  1.00  0.00     0.240 C 
ATOM      9  O   UNL A   1      32.106  20.725  22.412  1.00  0.00    -0.273 OA
ATOM     10  H   UNL A   1      33.629  20.560  24.096  1.00  0.00     0.164 HD
BRANCH   8  11
ATOM     11  C   UNL A   1      31.876  23.084  22.726  1.00  0.00     0.216 C 
BRANCH  11  12
ATOM     12  N   UNL A   1      32.700  23.943  21.900  1.00  0.00    -0.347 N 
ATOM     13  C   UNL A   1      32.545  25.267  21.629  1.00  0.00     0.225 C 
ATOM     14  O   UNL A   1      33.342  25.813  20.865  1.00  0.00    -0.275 OA
ATOM     15  H   UNL A   1      33.478  23.510  21.479  1.00  0.00     0.164 HD
BRANCH  13  16
ATOM     16  C   UNL A   1      31.354  26.018  22.192  1.00  0.00     0.143 C 
BRANCH  16  17
ATOM     17  C   UNL A   1      31.742  27.110  23.169  1.00  0.00     0.051 A 
ATOM     18  C   UNL A   1      36.641  29.707  28.189  1.00  0.00     0.048 C 
ATOM     19  C   UNL A   1      35.300  30.310  27.996  1.00  0.00    -0.005 A 
ATOM     20  C   UNL A   1      34.914  31.563  28.419  1.00  0.00     0.199 A 
ATOM     21  C   UNL A   1      34.191  29.766  27.250  1.00  0.00     0.024 A 
ATOM     22  O   UNL A   1      33.681  31.865  27.971  1.00  0.00    -0.464 OA
ATOM     23  C   UNL A   1      33.236  30.822  27.203  1.00  0.00     0.140 A 
ATOM     24  C   UNL A   1      34.054  28.493  26.570  1.00  0.00     0.024 A 
ATOM     25  C   UNL A   1      32.032  30.935  26.481  1.00  0.00     0.036 A 
ATOM     26  C   UNL A   1      33.012  28.387  25.685  1.00  0.00     0.022 A 
ATOM     27  C   UNL A   1      31.144  32.114  26.396  1.00  0.00     0.052 C 
ATOM     28  C   UNL A   1      31.969  29.796  25.723  1.00  0.00     0.145 A 
ATOM     29  C   UNL A   1      32.832  27.016  24.366  1.00  0.00    -0.029 A 
ATOM     30  O   UNL A   1      30.742  29.877  24.323  1.00  0.00    -0.422 OA
ATOM     31  C   UNL A   1      33.678  25.791  24.570  1.00  0.00     0.046 C 
ATOM     32  C   UNL A   1      30.535  28.655  22.995  1.00  0.00     0.340 A 
ATOM     33  O   UNL A   1      29.623  28.745  22.190  1.00  0.00    -0.246 OA
ENDBRANCH  16  17
ENDBRANCH  13  16
ENDBRANCH  11  12
ENDBRANCH   8  11
ENDBRANCH   6   7
BRANCH   6  34
ATOM     34  C   UNL A   1      34.211  21.573  26.309  1.00  0.00     0.015 C 
ATOM     35  C   UNL A   1      33.728  22.365  27.521  1.00  0.00     0.010 C 
ATOM     36  C   UNL A   1      33.277  20.345  26.226  1.00  0.00     0.010 C 
ENDBRANCH   6  34
ENDBRANCH   3   6
ENDBRANCH   1   2
BRANCH   1  37
ATOM     37  C   UNL A   1      39.589  21.247  26.094  1.00  0.00     0.023 C 
BRANCH  37  38
ATOM     38  C   UNL A   1      40.703  20.321  26.602  1.00  0.00     0.023 C 
BRANCH  38  39
ATOM     39  C   UNL A   1      42.061  20.949  26.916  1.00  0.00     0.116 C 
BRANCH  39  40
ATOM     40  N   UNL A   1      42.771  21.464  25.751  1.00  0.00    -0.352 N 
ATOM     41  C   UNL A   1      42.869  22.784  25.348  1.00  0.00     0.251 C 
ATOM     42  H   UNL A   1      43.232  20.801  25.190  1.00  0.00     0.163 HD
ATOM     43  O   UNL A   1      43.201  23.082  24.209  1.00  0.00    -0.269 OA
BRANCH  41  44
ATOM     44  C   UNL A   1      42.548  23.835  26.330  1.00  0.00     0.039 A 
ATOM     45  C   UNL A   1      43.403  24.091  27.397  1.00  0.00     0.014 A 
ATOM     46  C   UNL A   1      41.436  24.640  26.101  1.00  0.00     0.014 A 
ATOM     47  C   UNL A   1      43.194  25.238  28.162  1.00  0.00     0.010 A 
ATOM     48  C   UNL A   1      41.293  25.833  26.791  1.00  0.00     0.010 A 
ATOM     49  C   UNL A   1      42.168  26.145  27.833  1.00  0.00    -0.014 A 
BRANCH  49  50
ATOM     50  C   UNL A   1      42.103  27.429  28.546  1.00  0.00     0.031 A 
ATOM     51  C   UNL A   1      43.153  28.445  28.205  1.00  0.00     0.074 A 
ATOM     52  C   UNL A   1      41.119  27.841  29.373  1.00  0.00     0.049 A 
ATOM     53  N   UNL A   1      44.104  28.892  28.962  1.00  0.00    -0.248 NA
ATOM     54  C   UNL A   1      43.163  29.003  26.846  1.00  0.00     0.031 C 
ATOM     55  C   UNL A   1      39.817  27.233  29.657  1.00  0.00     0.029 A 
ATOM     56  N   UNL A   1      41.089  28.990  30.114  1.00  0.00    -0.354 N 
ATOM     57  C   UNL A   1      44.751  29.896  28.239  1.00  0.00     0.074 A 
ATOM     58  C   UNL A   1      44.187  29.858  26.912  1.00  0.00     0.031 C 
ATOM     59  C   UNL A   1      39.051  28.109  30.344  1.00  0.00     0.029 A 
ATOM     60  C   UNL A   1      39.866  29.253  30.705  1.00  0.00     0.049 A 
ATOM     61  H   UNL A   1      41.870  29.580  30.218  1.00  0.00     0.167 HD
ATOM     62  C   UNL A   1      45.605  30.782  28.829  1.00  0.00     0.037 A 
ATOM     63  C   UNL A   1      39.536  30.332  31.449  1.00  0.00     0.037 A 
ATOM     64  C   UNL A   1      46.020  30.333  30.131  1.00  0.00     0.049 A 
ATOM     65  C   UNL A   1      40.786  30.911  31.991  1.00  0.00     0.074 A 
ATOM     66  C   UNL A   1      46.698  29.237  30.626  1.00  0.00     0.029 A 
ATOM     67  N   UNL A   1      45.477  30.950  31.229  1.00  0.00    -0.354 N 
ATOM     68  N   UNL A   1      41.537  30.337  32.888  1.00  0.00    -0.248 NA
ATOM     69  C   UNL A   1      41.399  32.026  31.286  1.00  0.00     0.031 C 
ATOM     70  C   UNL A   1      46.115  28.986  31.905  1.00  0.00     0.029 A 
ATOM     71  C   UNL A   1      45.131  29.957  32.105  1.00  0.00     0.049 A 
ATOM     72  H   UNL A   1      45.358  31.918  31.361  1.00  0.00     0.167 HD
ATOM     73  C   UNL A   1      42.826  30.738  32.582  1.00  0.00     0.074 A 
ATOM     74  C   UNL A   1      42.663  31.877  31.686  1.00  0.00     0.031 C 
ATOM     75  C   UNL A   1      43.901  29.944  32.863  1.00  0.00     0.037 A 
BRANCH  62  76
ATOM     76  C   UNL A   1      45.856  32.202  28.375  1.00  0.00     0.057 A 
ATOM     77  C   UNL A   1      44.772  33.096  28.253  1.00  0.00     0.134 A 
ATOM     78  C   UNL A   1      47.055  32.640  27.782  1.00  0.00     0.134 A 
ATOM     79  F   UNL A   1      43.567  32.795  28.763  1.00  0.00    -0.206 F 
ATOM     80  C   UNL A   1      44.856  34.295  27.533  1.00  0.00     0.040 A 
ATOM     81  C   UNL A   1      47.164  33.860  27.104  1.00  0.00     0.040 A 
ATOM     82  F   UNL A   1      48.151  31.871  27.745  1.00  0.00    -0.206 F 
ATOM     83  C   UNL A   1      46.055  34.678  26.949  1.00  0.00     0.006 A 
ENDBRANCH  62  76
BRANCH  63  84
ATOM     84  C   UNL A   1      38.227  31.002  31.560  1.00  0.00     0.057 A 
ATOM     85  C   UNL A   1      37.395  30.802  32.669  1.00  0.00     0.134 A 
ATOM     86  C   UNL A   1      37.878  32.060  30.703  1.00  0.00     0.134 A 
ATOM     87  F   UNL A   1      37.671  29.841  33.563  1.00  0.00    -0.206 F 
ATOM     88  C   UNL A   1      36.293  31.624  32.927  1.00  0.00     0.040 A 
ATOM     89  C   UNL A   1      36.774  32.883  30.943  1.00  0.00     0.040 A 
ATOM     90  F   UNL A   1      38.649  32.385  29.655  1.00  0.00    -0.206 F 
ATOM     91  C   UNL A   1      35.985  32.676  32.068  1.00  0.00     0.006 A 
ENDBRANCH  63  84
BRANCH  75  92
ATOM     92  C   UNL A   1      43.698  28.785  33.797  1.00  0.00     0.057 A 
ATOM     93  C   UNL A   1      43.256  27.521  33.382  1.00  0.00     0.134 A 
ATOM     94  C   UNL A   1      44.113  28.908  35.128  1.00  0.00     0.134 A 
ATOM     95  F   UNL A   1      42.938  27.283  32.104  1.00  0.00    -0.206 F 
ATOM     96  C   UNL A   1      43.187  26.439  34.266  1.00  0.00     0.040 A 
ATOM     97  C   UNL A   1      44.079  27.827  36.012  1.00  0.00     0.040 A 
ATOM     98  F   UNL A   1      44.607  30.072  35.578  1.00  0.00    -0.206 F 
ATOM     99  C   UNL A   1      43.605  26.589  35.584  1.00  0.00     0.006 A 
ENDBRANCH  75  92
ENDBRANCH  49  50
ENDBRANCH  41  44
ENDBRANCH  39  40
ENDBRANCH  38  39
ENDBRANCH  37  38
ENDBRANCH   1  37
TORSDOF 17
ENDMDL
