MODEL 1
REMARK VINA RESULT:     -12.1      0.000      0.000
REMARK SMILES O=C(NCCCCNC(=O)[C@@H]1[C@@H](C(=O)Nc2cccc(C(F)(F)F)c2)[C@@H]2C=C[C@H]1O2)c1ccc(-c2c3nc(c(-c4c(F)cccc4F)c4ccc([nH]4)c(-c4c(F)cccc4F)c4nc(c(-c5c(F)cccc5F)c5ccc2[nH]5)C=C4)C=C3)cc1
REMARK SMILES IDX 6 1 5 2 4 3 3 4 1 5 2 6 31 8 32 9 84 10 33 11 83 12 34 13
REMARK SMILES IDX 35 14 36 15 77 16 37 17 82 18 76 19 78 20 38 21 81 22 75 23
REMARK SMILES IDX 74 24 39 26 65 27 48 28 64 29 49 30 52 31 63 32 79 33 50 34
REMARK SMILES IDX 51 35 62 37 80 38 53 39 40 40 41 41 46 42 42 43 43 44 45 45
REMARK SMILES IDX 47 46 44 47 66 48 67 49 72 50 68 51 69 52 71 53 73 54 70 55
REMARK SMILES IDX 54 56 55 57 60 58 56 59 57 60 59 61 61 62 58 63 7 64 8 65
REMARK SMILES IDX 9 66 10 68 11 69 12 70 29 71 26 72 28 73 30 74 27 75 13 76
REMARK SMILES IDX 14 77 15 78 16 80 17 81 25 82 18 83 20 84 19 85 21 86 22 87
REMARK SMILES IDX 23 88 24 89
REMARK H PARENT 3 7 78 25 52 36 8 67 15 79
REMARK Flexibility Score: inf
ROOT
ATOM      1  C   UNL A   1      36.491  21.115  24.776  1.00  0.00     0.023 C 
ENDROOT
BRANCH   1   2
ATOM      2  C   UNL A   1      37.684  20.162  24.740  1.00  0.00     0.023 C 
BRANCH   2   3
ATOM      3  C   UNL A   1      38.777  20.432  25.764  1.00  0.00     0.116 C 
BRANCH   3   4
ATOM      4  N   UNL A   1      39.856  19.458  25.723  1.00  0.00    -0.352 N 
ATOM      5  O   UNL A   1      41.977  18.696  25.820  1.00  0.00    -0.269 OA
ATOM      6  C   UNL A   1      41.190  19.605  26.038  1.00  0.00     0.251 C 
ATOM      7  H   UNL A   1      39.594  18.557  25.426  1.00  0.00     0.163 HD
BRANCH   6   8
ATOM      8  C   UNL A   1      41.673  20.882  26.609  1.00  0.00     0.039 A 
ATOM      9  C   UNL A   1      41.674  21.086  27.988  1.00  0.00     0.014 A 
ATOM     10  C   UNL A   1      42.114  21.893  25.750  1.00  0.00     0.014 A 
ATOM     11  C   UNL A   1      41.934  22.353  28.493  1.00  0.00     0.010 A 
ATOM     12  C   UNL A   1      42.481  23.139  26.271  1.00  0.00     0.010 A 
ATOM     13  C   UNL A   1      42.352  23.393  27.645  1.00  0.00    -0.014 A 
BRANCH  13  14
ATOM     14  C   UNL A   1      42.694  24.707  28.248  1.00  0.00     0.031 A 
ATOM     15  C   UNL A   1      44.114  25.085  28.564  1.00  0.00     0.074 A 
ATOM     16  C   UNL A   1      41.700  25.598  28.438  1.00  0.00     0.049 A 
ATOM     17  N   UNL A   1      44.580  26.223  29.018  1.00  0.00    -0.248 NA
ATOM     18  C   UNL A   1      45.148  24.058  28.356  1.00  0.00     0.031 C 
ATOM     19  C   UNL A   1      40.279  25.335  28.190  1.00  0.00     0.029 A 
ATOM     20  N   UNL A   1      41.730  26.907  28.843  1.00  0.00    -0.354 N 
ATOM     21  C   UNL A   1      45.951  26.048  29.158  1.00  0.00     0.074 A 
ATOM     22  C   UNL A   1      46.242  24.684  28.771  1.00  0.00     0.031 C 
ATOM     23  C   UNL A   1      39.583  26.464  28.380  1.00  0.00     0.029 A 
ATOM     24  C   UNL A   1      40.496  27.511  28.825  1.00  0.00     0.049 A 
ATOM     25  H   UNL A   1      42.553  27.369  29.119  1.00  0.00     0.167 HD
ATOM     26  C   UNL A   1      46.882  26.946  29.565  1.00  0.00     0.037 A 
ATOM     27  C   UNL A   1      40.133  28.768  29.138  1.00  0.00     0.037 A 
ATOM     28  C   UNL A   1      46.590  28.307  29.939  1.00  0.00     0.049 A 
ATOM     29  C   UNL A   1      41.186  29.742  29.573  1.00  0.00     0.074 A 
ATOM     30  C   UNL A   1      47.465  29.293  30.362  1.00  0.00     0.029 A 
ATOM     31  N   UNL A   1      45.325  28.876  29.929  1.00  0.00    -0.354 N 
ATOM     32  N   UNL A   1      42.479  29.560  29.691  1.00  0.00    -0.248 NA
ATOM     33  C   UNL A   1      40.731  31.093  29.921  1.00  0.00     0.031 C 
ATOM     34  C   UNL A   1      46.725  30.450  30.637  1.00  0.00     0.029 A 
ATOM     35  C   UNL A   1      45.395  30.195  30.347  1.00  0.00     0.049 A 
ATOM     36  H   UNL A   1      44.498  28.411  29.664  1.00  0.00     0.167 HD
ATOM     37  C   UNL A   1      42.993  30.772  30.127  1.00  0.00     0.074 A 
ATOM     38  C   UNL A   1      41.876  31.692  30.217  1.00  0.00     0.031 C 
ATOM     39  C   UNL A   1      44.271  31.092  30.439  1.00  0.00     0.037 A 
BRANCH  26  40
ATOM     40  C   UNL A   1      48.310  26.487  29.632  1.00  0.00     0.057 A 
ATOM     41  C   UNL A   1      49.204  26.704  28.577  1.00  0.00     0.134 A 
ATOM     42  C   UNL A   1      48.813  25.877  30.789  1.00  0.00     0.134 A 
ATOM     43  F   UNL A   1      48.785  27.273  27.436  1.00  0.00    -0.206 F 
ATOM     44  C   UNL A   1      50.544  26.318  28.663  1.00  0.00     0.040 A 
ATOM     45  C   UNL A   1      50.156  25.508  30.896  1.00  0.00     0.040 A 
ATOM     46  F   UNL A   1      48.012  25.647  31.841  1.00  0.00    -0.206 F 
ATOM     47  C   UNL A   1      51.025  25.726  29.829  1.00  0.00     0.006 A 
ENDBRANCH  26  40
BRANCH  27  48
ATOM     48  C   UNL A   1      38.706  29.163  29.057  1.00  0.00     0.057 A 
ATOM     49  C   UNL A   1      38.137  29.596  27.855  1.00  0.00     0.134 A 
ATOM     50  C   UNL A   1      37.873  29.100  30.182  1.00  0.00     0.134 A 
ATOM     51  F   UNL A   1      38.887  29.692  26.748  1.00  0.00    -0.206 F 
ATOM     52  C   UNL A   1      36.793  29.966  27.776  1.00  0.00     0.040 A 
ATOM     53  C   UNL A   1      36.522  29.440  30.111  1.00  0.00     0.040 A 
ATOM     54  F   UNL A   1      38.358  28.684  31.361  1.00  0.00    -0.206 F 
ATOM     55  C   UNL A   1      35.980  29.881  28.906  1.00  0.00     0.006 A 
ENDBRANCH  27  48
BRANCH  39  56
ATOM     56  C   UNL A   1      44.519  32.497  30.899  1.00  0.00     0.057 A 
ATOM     57  C   UNL A   1      44.806  33.525  29.992  1.00  0.00     0.134 A 
ATOM     58  C   UNL A   1      44.469  32.825  32.258  1.00  0.00     0.134 A 
ATOM     59  F   UNL A   1      44.884  33.270  28.676  1.00  0.00    -0.206 F 
ATOM     60  C   UNL A   1      45.067  34.826  30.425  1.00  0.00     0.040 A 
ATOM     61  C   UNL A   1      44.705  34.127  32.702  1.00  0.00     0.040 A 
ATOM     62  F   UNL A   1      44.193  31.887  33.177  1.00  0.00    -0.206 F 
ATOM     63  C   UNL A   1      45.014  35.129  31.784  1.00  0.00     0.006 A 
ENDBRANCH  39  56
ENDBRANCH  13  14
ENDBRANCH   6   8
ENDBRANCH   3   4
ENDBRANCH   2   3
ENDBRANCH   1   2
BRANCH   1  64
ATOM     64  C   UNL A   1      36.644  22.411  23.986  1.00  0.00     0.116 C 
BRANCH  64  65
ATOM     65  N   UNL A   1      36.132  23.572  24.683  1.00  0.00    -0.356 N 
ATOM     66  C   UNL A   1      34.957  24.235  24.511  1.00  0.00     0.227 C 
ATOM     67  H   UNL A   1      36.720  23.936  25.384  1.00  0.00     0.163 HD
ATOM     68  O   UNL A   1      34.701  25.128  25.319  1.00  0.00    -0.275 OA
BRANCH  66  69
ATOM     69  C   UNL A   1      34.064  23.924  23.327  1.00  0.00     0.127 C 
ATOM     70  C   UNL A   1      32.872  24.926  23.220  1.00  0.00     0.127 C 
ATOM     71  C   UNL A   1      33.314  22.586  23.435  1.00  0.00     0.155 C 
ATOM     72  C   UNL A   1      31.665  23.969  23.190  1.00  0.00     0.155 C 
ATOM     73  C   UNL A   1      32.512  22.496  24.701  1.00  0.00     0.004 C 
ATOM     74  O   UNL A   1      32.230  22.824  22.503  1.00  0.00    -0.365 OA
ATOM     75  C   UNL A   1      31.492  23.352  24.551  1.00  0.00     0.004 C 
BRANCH  70  76
ATOM     76  C   UNL A   1      32.884  25.735  21.931  1.00  0.00     0.231 C 
ATOM     77  O   UNL A   1      33.361  25.295  20.884  1.00  0.00    -0.274 OA
ATOM     78  N   UNL A   1      32.203  26.926  21.886  1.00  0.00    -0.326 N 
ATOM     79  H   UNL A   1      31.872  27.184  20.995  1.00  0.00     0.169 HD
BRANCH  78  80
ATOM     80  C   UNL A   1      31.909  27.831  22.916  1.00  0.00     0.041 A 
ATOM     81  C   UNL A   1      30.746  28.595  22.818  1.00  0.00     0.026 A 
ATOM     82  C   UNL A   1      32.775  28.042  23.992  1.00  0.00     0.039 A 
ATOM     83  C   UNL A   1      30.402  29.484  23.838  1.00  0.00     0.003 A 
ATOM     84  C   UNL A   1      32.453  28.943  25.018  1.00  0.00     0.058 A 
ATOM     85  C   UNL A   1      31.243  29.645  24.941  1.00  0.00     0.013 A 
BRANCH  84  86
ATOM     86  C   UNL A   1      33.381  29.129  26.195  1.00  0.00     0.416 C 
ATOM     87  F   UNL A   1      32.824  28.710  27.367  1.00  0.00    -0.166 F 
ATOM     88  F   UNL A   1      34.537  28.423  26.063  1.00  0.00    -0.166 F 
ATOM     89  F   UNL A   1      33.742  30.424  26.408  1.00  0.00    -0.166 F 
ENDBRANCH  84  86
ENDBRANCH  78  80
ENDBRANCH  70  76
ENDBRANCH  66  69
ENDBRANCH  64  65
ENDBRANCH   1  64
TORSDOF 14
ENDMDL
MODEL 2
REMARK VINA RESULT:     -12.1      2.838      4.415
REMARK SMILES O=C(NCCCCNC(=O)[C@@H]1[C@@H](C(=O)Nc2cccc(C(F)(F)F)c2)[C@@H]2C=C[C@H]1O2)c1ccc(-c2c3nc(c(-c4c(F)cccc4F)c4ccc([nH]4)c(-c4c(F)cccc4F)c4nc(c(-c5c(F)cccc5F)c5ccc2[nH]5)C=C4)C=C3)cc1
REMARK SMILES IDX 6 1 5 2 4 3 3 4 1 5 2 6 31 8 32 9 84 10 33 11 83 12 34 13
REMARK SMILES IDX 35 14 36 15 77 16 37 17 82 18 76 19 78 20 38 21 81 22 75 23
REMARK SMILES IDX 74 24 39 26 65 27 48 28 64 29 49 30 52 31 63 32 79 33 50 34
REMARK SMILES IDX 51 35 62 37 80 38 53 39 40 40 41 41 46 42 42 43 43 44 45 45
REMARK SMILES IDX 47 46 44 47 66 48 67 49 72 50 68 51 69 52 71 53 73 54 70 55
REMARK SMILES IDX 54 56 55 57 60 58 56 59 57 60 59 61 61 62 58 63 7 64 8 65
REMARK SMILES IDX 9 66 10 68 11 69 12 70 29 71 26 72 28 73 30 74 27 75 13 76
REMARK SMILES IDX 14 77 15 78 16 80 17 81 25 82 18 83 20 84 19 85 21 86 22 87
REMARK SMILES IDX 23 88 24 89
REMARK H PARENT 3 7 78 25 52 36 8 67 15 79
REMARK Flexibility Score: inf
ROOT
ATOM      1  C   UNL A   1      39.073  22.674  26.459  1.00  0.00     0.023 C 
ENDROOT
BRANCH   1   2
ATOM      2  C   UNL A   1      39.077  21.381  25.646  1.00  0.00     0.023 C 
BRANCH   2   3
ATOM      3  C   UNL A   1      39.429  20.117  26.416  1.00  0.00     0.116 C 
BRANCH   3   4
ATOM      4  N   UNL A   1      40.588  19.422  25.881  1.00  0.00    -0.352 N 
ATOM      5  O   UNL A   1      42.722  19.150  25.204  1.00  0.00    -0.269 OA
ATOM      6  C   UNL A   1      41.904  19.826  25.807  1.00  0.00     0.251 C 
ATOM      7  H   UNL A   1      40.406  18.526  25.515  1.00  0.00     0.163 HD
BRANCH   6   8
ATOM      8  C   UNL A   1      42.314  21.104  26.432  1.00  0.00     0.039 A 
ATOM      9  C   UNL A   1      42.329  21.241  27.820  1.00  0.00     0.014 A 
ATOM     10  C   UNL A   1      42.673  22.182  25.617  1.00  0.00     0.014 A 
ATOM     11  C   UNL A   1      42.516  22.497  28.382  1.00  0.00     0.010 A 
ATOM     12  C   UNL A   1      42.968  23.422  26.193  1.00  0.00     0.010 A 
ATOM     13  C   UNL A   1      42.850  23.601  27.580  1.00  0.00    -0.014 A 
BRANCH  13  14
ATOM     14  C   UNL A   1      43.118  24.905  28.240  1.00  0.00     0.031 A 
ATOM     15  C   UNL A   1      44.513  25.336  28.597  1.00  0.00     0.074 A 
ATOM     16  C   UNL A   1      42.079  25.738  28.449  1.00  0.00     0.049 A 
ATOM     17  N   UNL A   1      44.916  26.476  29.104  1.00  0.00    -0.248 NA
ATOM     18  C   UNL A   1      45.598  24.370  28.366  1.00  0.00     0.031 C 
ATOM     19  C   UNL A   1      40.677  25.418  28.164  1.00  0.00     0.029 A 
ATOM     20  N   UNL A   1      42.039  27.029  28.906  1.00  0.00    -0.354 N 
ATOM     21  C   UNL A   1      46.292  26.361  29.262  1.00  0.00     0.074 A 
ATOM     22  C   UNL A   1      46.654  25.030  28.826  1.00  0.00     0.031 C 
ATOM     23  C   UNL A   1      39.924  26.504  28.388  1.00  0.00     0.029 A 
ATOM     24  C   UNL A   1      40.778  27.574  28.890  1.00  0.00     0.049 A 
ATOM     25  H   UNL A   1      42.835  27.518  29.215  1.00  0.00     0.167 HD
ATOM     26  C   UNL A   1      47.171  27.285  29.720  1.00  0.00     0.037 A 
ATOM     27  C   UNL A   1      40.349  28.798  29.247  1.00  0.00     0.037 A 
ATOM     28  C   UNL A   1      46.807  28.615  30.144  1.00  0.00     0.049 A 
ATOM     29  C   UNL A   1      41.346  29.803  29.739  1.00  0.00     0.074 A 
ATOM     30  C   UNL A   1      47.626  29.624  30.622  1.00  0.00     0.029 A 
ATOM     31  N   UNL A   1      45.516  29.123  30.134  1.00  0.00    -0.354 N 
ATOM     32  N   UNL A   1      42.645  29.678  29.873  1.00  0.00    -0.248 NA
ATOM     33  C   UNL A   1      40.821  31.116  30.133  1.00  0.00     0.031 C 
ATOM     34  C   UNL A   1      46.827  30.731  30.930  1.00  0.00     0.029 A 
ATOM     35  C   UNL A   1      45.516  30.425  30.606  1.00  0.00     0.049 A 
ATOM     36  H   UNL A   1      44.717  28.629  29.836  1.00  0.00     0.167 HD
ATOM     37  C   UNL A   1      43.092  30.894  30.367  1.00  0.00     0.074 A 
ATOM     38  C   UNL A   1      41.931  31.756  30.474  1.00  0.00     0.031 C 
ATOM     39  C   UNL A   1      44.349  31.262  30.714  1.00  0.00     0.037 A 
BRANCH  26  40
ATOM     40  C   UNL A   1      48.618  26.893  29.795  1.00  0.00     0.057 A 
ATOM     41  C   UNL A   1      49.519  27.199  28.767  1.00  0.00     0.134 A 
ATOM     42  C   UNL A   1      49.131  26.257  30.934  1.00  0.00     0.134 A 
ATOM     43  F   UNL A   1      49.091  27.798  27.645  1.00  0.00    -0.206 F 
ATOM     44  C   UNL A   1      50.874  26.875  28.862  1.00  0.00     0.040 A 
ATOM     45  C   UNL A   1      50.488  25.948  31.049  1.00  0.00     0.040 A 
ATOM     46  F   UNL A   1      48.325  25.942  31.959  1.00  0.00    -0.206 F 
ATOM     47  C   UNL A   1      51.363  26.255  30.010  1.00  0.00     0.006 A 
ENDBRANCH  26  40
BRANCH  27  48
ATOM     48  C   UNL A   1      38.906  29.127  29.156  1.00  0.00     0.057 A 
ATOM     49  C   UNL A   1      38.321  29.514  27.946  1.00  0.00     0.134 A 
ATOM     50  C   UNL A   1      38.074  29.046  30.281  1.00  0.00     0.134 A 
ATOM     51  F   UNL A   1      39.070  29.625  26.839  1.00  0.00    -0.206 F 
ATOM     52  C   UNL A   1      36.962  29.822  27.858  1.00  0.00     0.040 A 
ATOM     53  C   UNL A   1      36.709  29.324  30.201  1.00  0.00     0.040 A 
ATOM     54  F   UNL A   1      38.573  28.671  31.467  1.00  0.00    -0.206 F 
ATOM     55  C   UNL A   1      36.151  29.720  28.988  1.00  0.00     0.006 A 
ENDBRANCH  27  48
BRANCH  39  56
ATOM     56  C   UNL A   1      44.520  32.658  31.234  1.00  0.00     0.057 A 
ATOM     57  C   UNL A   1      44.425  32.948  32.601  1.00  0.00     0.134 A 
ATOM     58  C   UNL A   1      44.783  33.719  30.361  1.00  0.00     0.134 A 
ATOM     59  F   UNL A   1      44.159  31.974  33.486  1.00  0.00    -0.206 F 
ATOM     60  C   UNL A   1      44.554  34.252  33.079  1.00  0.00     0.040 A 
ATOM     61  C   UNL A   1      44.937  35.025  30.830  1.00  0.00     0.040 A 
ATOM     62  F   UNL A   1      44.891  33.507  29.041  1.00  0.00    -0.206 F 
ATOM     63  C   UNL A   1      44.814  35.295  32.192  1.00  0.00     0.006 A 
ENDBRANCH  39  56
ENDBRANCH  13  14
ENDBRANCH   6   8
ENDBRANCH   3   4
ENDBRANCH   2   3
ENDBRANCH   1   2
BRANCH   1  64
ATOM     64  C   UNL A   1      38.151  23.781  25.956  1.00  0.00     0.116 C 
BRANCH  64  65
ATOM     65  N   UNL A   1      37.485  23.453  24.714  1.00  0.00    -0.356 N 
ATOM     66  C   UNL A   1      36.165  23.529  24.395  1.00  0.00     0.227 C 
ATOM     67  H   UNL A   1      38.072  23.127  23.995  1.00  0.00     0.163 HD
ATOM     68  O   UNL A   1      35.864  23.305  23.222  1.00  0.00    -0.275 OA
BRANCH  66  69
ATOM     69  C   UNL A   1      35.128  23.799  25.467  1.00  0.00     0.127 C 
ATOM     70  C   UNL A   1      33.877  22.878  25.310  1.00  0.00     0.127 C 
ATOM     71  C   UNL A   1      34.480  25.191  25.383  1.00  0.00     0.155 C 
ATOM     72  C   UNL A   1      32.736  23.911  25.262  1.00  0.00     0.155 C 
ATOM     73  C   UNL A   1      33.878  25.446  24.032  1.00  0.00     0.004 C 
ATOM     74  O   UNL A   1      33.260  24.950  26.128  1.00  0.00    -0.365 OA
ATOM     75  C   UNL A   1      32.800  24.655  23.956  1.00  0.00     0.004 C 
BRANCH  70  76
ATOM     76  C   UNL A   1      33.655  21.961  26.504  1.00  0.00     0.231 C 
ATOM     77  O   UNL A   1      33.917  22.309  27.657  1.00  0.00    -0.274 OA
ATOM     78  N   UNL A   1      32.995  20.772  26.318  1.00  0.00    -0.326 N 
ATOM     79  H   UNL A   1      32.503  20.439  27.103  1.00  0.00     0.169 HD
BRANCH  78  80
ATOM     80  C   UNL A   1      32.916  19.960  25.177  1.00  0.00     0.041 A 
ATOM     81  C   UNL A   1      32.212  20.436  24.070  1.00  0.00     0.026 A 
ATOM     82  C   UNL A   1      33.452  18.670  25.142  1.00  0.00     0.039 A 
ATOM     83  C   UNL A   1      32.137  19.670  22.905  1.00  0.00     0.003 A 
ATOM     84  C   UNL A   1      33.371  17.881  23.985  1.00  0.00     0.058 A 
ATOM     85  C   UNL A   1      32.728  18.406  22.857  1.00  0.00     0.013 A 
BRANCH  84  86
ATOM     86  C   UNL A   1      33.993  16.505  23.950  1.00  0.00     0.416 C 
ATOM     87  F   UNL A   1      35.115  16.422  24.721  1.00  0.00    -0.166 F 
ATOM     88  F   UNL A   1      33.153  15.542  24.417  1.00  0.00    -0.166 F 
ATOM     89  F   UNL A   1      34.378  16.110  22.706  1.00  0.00    -0.166 F 
ENDBRANCH  84  86
ENDBRANCH  78  80
ENDBRANCH  70  76
ENDBRANCH  66  69
ENDBRANCH  64  65
ENDBRANCH   1  64
TORSDOF 14
ENDMDL
MODEL 3
REMARK VINA RESULT:     -12.1      3.016      4.651
REMARK SMILES O=C(NCCCCNC(=O)[C@@H]1[C@@H](C(=O)Nc2cccc(C(F)(F)F)c2)[C@@H]2C=C[C@H]1O2)c1ccc(-c2c3nc(c(-c4c(F)cccc4F)c4ccc([nH]4)c(-c4c(F)cccc4F)c4nc(c(-c5c(F)cccc5F)c5ccc2[nH]5)C=C4)C=C3)cc1
REMARK SMILES IDX 6 1 5 2 4 3 3 4 1 5 2 6 31 8 32 9 84 10 33 11 83 12 34 13
REMARK SMILES IDX 35 14 36 15 77 16 37 17 82 18 76 19 78 20 38 21 81 22 75 23
REMARK SMILES IDX 74 24 39 26 65 27 48 28 64 29 49 30 52 31 63 32 79 33 50 34
REMARK SMILES IDX 51 35 62 37 80 38 53 39 40 40 41 41 46 42 42 43 43 44 45 45
REMARK SMILES IDX 47 46 44 47 66 48 67 49 72 50 68 51 69 52 71 53 73 54 70 55
REMARK SMILES IDX 54 56 55 57 60 58 56 59 57 60 59 61 61 62 58 63 7 64 8 65
REMARK SMILES IDX 9 66 10 68 11 69 12 70 29 71 26 72 28 73 30 74 27 75 13 76
REMARK SMILES IDX 14 77 15 78 16 80 17 81 25 82 18 83 20 84 19 85 21 86 22 87
REMARK SMILES IDX 23 88 24 89
REMARK H PARENT 3 7 78 25 52 36 8 67 15 79
REMARK Flexibility Score: inf
ROOT
ATOM      1  C   UNL A   1      36.736  20.699  24.944  1.00  0.00     0.023 C 
ENDROOT
BRANCH   1   2
ATOM      2  C   UNL A   1      37.861  19.668  24.994  1.00  0.00     0.023 C 
BRANCH   2   3
ATOM      3  C   UNL A   1      39.116  20.095  25.741  1.00  0.00     0.116 C 
BRANCH   3   4
ATOM      4  N   UNL A   1      40.154  19.076  25.751  1.00  0.00    -0.352 N 
ATOM      5  O   UNL A   1      42.246  18.238  25.814  1.00  0.00    -0.269 OA
ATOM      6  C   UNL A   1      41.509  19.198  25.971  1.00  0.00     0.251 C 
ATOM      7  H   UNL A   1      39.841  18.160  25.574  1.00  0.00     0.163 HD
BRANCH   6   8
ATOM      8  C   UNL A   1      42.073  20.509  26.364  1.00  0.00     0.039 A 
ATOM      9  C   UNL A   1      42.278  20.818  27.709  1.00  0.00     0.014 A 
ATOM     10  C   UNL A   1      42.384  21.447  25.375  1.00  0.00     0.014 A 
ATOM     11  C   UNL A   1      42.612  22.116  28.071  1.00  0.00     0.010 A 
ATOM     12  C   UNL A   1      42.825  22.724  25.739  1.00  0.00     0.010 A 
ATOM     13  C   UNL A   1      42.902  23.082  27.093  1.00  0.00    -0.014 A 
BRANCH  13  14
ATOM     14  C   UNL A   1      43.331  24.434  27.536  1.00  0.00     0.031 A 
ATOM     15  C   UNL A   1      44.763  24.879  27.436  1.00  0.00     0.074 A 
ATOM     16  C   UNL A   1      42.385  25.294  27.965  1.00  0.00     0.049 A 
ATOM     17  N   UNL A   1      45.279  26.054  27.707  1.00  0.00    -0.248 NA
ATOM     18  C   UNL A   1      45.749  23.885  26.984  1.00  0.00     0.031 C 
ATOM     19  C   UNL A   1      40.965  24.966  28.126  1.00  0.00     0.029 A 
ATOM     20  N   UNL A   1      42.460  26.620  28.304  1.00  0.00    -0.354 N 
ATOM     21  C   UNL A   1      46.644  25.938  27.470  1.00  0.00     0.074 A 
ATOM     22  C   UNL A   1      46.883  24.570  27.061  1.00  0.00     0.031 C 
ATOM     23  C   UNL A   1      40.294  26.075  28.465  1.00  0.00     0.029 A 
ATOM     24  C   UNL A   1      41.241  27.175  28.607  1.00  0.00     0.049 A 
ATOM     25  H   UNL A   1      43.304  27.125  28.327  1.00  0.00     0.167 HD
ATOM     26  C   UNL A   1      47.604  26.887  27.575  1.00  0.00     0.037 A 
ATOM     27  C   UNL A   1      40.917  28.429  28.968  1.00  0.00     0.037 A 
ATOM     28  C   UNL A   1      47.360  28.252  27.971  1.00  0.00     0.049 A 
ATOM     29  C   UNL A   1      41.999  29.461  29.064  1.00  0.00     0.074 A 
ATOM     30  C   UNL A   1      48.268  29.289  28.105  1.00  0.00     0.029 A 
ATOM     31  N   UNL A   1      46.115  28.771  28.293  1.00  0.00    -0.354 N 
ATOM     32  N   UNL A   1      43.282  29.334  28.827  1.00  0.00    -0.248 NA
ATOM     33  C   UNL A   1      41.592  30.809  29.481  1.00  0.00     0.031 C 
ATOM     34  C   UNL A   1      47.577  30.427  28.537  1.00  0.00     0.029 A 
ATOM     35  C   UNL A   1      46.232  30.109  28.633  1.00  0.00     0.049 A 
ATOM     36  H   UNL A   1      45.271  28.263  28.281  1.00  0.00     0.167 HD
ATOM     37  C   UNL A   1      43.836  30.583  29.066  1.00  0.00     0.074 A 
ATOM     38  C   UNL A   1      42.744  31.463  29.431  1.00  0.00     0.031 C 
ATOM     39  C   UNL A   1      45.134  30.965  29.003  1.00  0.00     0.037 A 
BRANCH  26  40
ATOM     40  C   UNL A   1      49.017  26.487  27.261  1.00  0.00     0.057 A 
ATOM     41  C   UNL A   1      49.879  25.992  28.247  1.00  0.00     0.134 A 
ATOM     42  C   UNL A   1      49.502  26.539  25.947  1.00  0.00     0.134 A 
ATOM     43  F   UNL A   1      49.481  25.925  29.527  1.00  0.00    -0.206 F 
ATOM     44  C   UNL A   1      51.177  25.576  27.942  1.00  0.00     0.040 A 
ATOM     45  C   UNL A   1      50.791  26.106  25.626  1.00  0.00     0.040 A 
ATOM     46  F   UNL A   1      48.726  26.996  24.953  1.00  0.00    -0.206 F 
ATOM     47  C   UNL A   1      51.633  25.625  26.626  1.00  0.00     0.006 A 
ENDBRANCH  26  40
BRANCH  27  48
ATOM     48  C   UNL A   1      39.504  28.766  29.271  1.00  0.00     0.057 A 
ATOM     49  C   UNL A   1      38.979  28.617  30.558  1.00  0.00     0.134 A 
ATOM     50  C   UNL A   1      38.650  29.260  28.277  1.00  0.00     0.134 A 
ATOM     51  F   UNL A   1      39.744  28.134  31.549  1.00  0.00    -0.206 F 
ATOM     52  C   UNL A   1      37.651  28.935  30.846  1.00  0.00     0.040 A 
ATOM     53  C   UNL A   1      37.328  29.608  28.556  1.00  0.00     0.040 A 
ATOM     54  F   UNL A   1      39.097  29.433  27.025  1.00  0.00    -0.206 F 
ATOM     55  C   UNL A   1      36.823  29.439  29.843  1.00  0.00     0.006 A 
ENDBRANCH  27  48
BRANCH  39  56
ATOM     56  C   UNL A   1      45.429  32.398  29.331  1.00  0.00     0.057 A 
ATOM     57  C   UNL A   1      45.395  33.397  28.350  1.00  0.00     0.134 A 
ATOM     58  C   UNL A   1      45.750  32.781  30.638  1.00  0.00     0.134 A 
ATOM     59  F   UNL A   1      45.110  33.089  27.075  1.00  0.00    -0.206 F 
ATOM     60  C   UNL A   1      45.700  34.724  28.652  1.00  0.00     0.040 A 
ATOM     61  C   UNL A   1      46.035  34.109  30.957  1.00  0.00     0.040 A 
ATOM     62  F   UNL A   1      45.795  31.873  31.624  1.00  0.00    -0.206 F 
ATOM     63  C   UNL A   1      46.019  35.083  29.960  1.00  0.00     0.006 A 
ENDBRANCH  39  56
ENDBRANCH  13  14
ENDBRANCH   6   8
ENDBRANCH   3   4
ENDBRANCH   2   3
ENDBRANCH   1   2
BRANCH   1  64
ATOM     64  C   UNL A   1      37.146  22.122  24.572  1.00  0.00     0.116 C 
BRANCH  64  65
ATOM     65  N   UNL A   1      36.277  22.732  23.589  1.00  0.00    -0.356 N 
ATOM     66  C   UNL A   1      35.236  23.587  23.768  1.00  0.00     0.227 C 
ATOM     67  H   UNL A   1      36.467  22.491  22.653  1.00  0.00     0.163 HD
ATOM     68  O   UNL A   1      34.727  24.062  22.752  1.00  0.00    -0.275 OA
BRANCH  66  69
ATOM     69  C   UNL A   1      34.695  23.863  25.157  1.00  0.00     0.127 C 
ATOM     70  C   UNL A   1      33.403  23.038  25.452  1.00  0.00     0.127 C 
ATOM     71  C   UNL A   1      34.182  25.297  25.362  1.00  0.00     0.155 C 
ATOM     72  C   UNL A   1      32.416  24.146  25.864  1.00  0.00     0.155 C 
ATOM     73  C   UNL A   1      33.145  25.671  24.342  1.00  0.00     0.004 C 
ATOM     74  O   UNL A   1      33.308  25.096  26.501  1.00  0.00    -0.365 OA
ATOM     75  C   UNL A   1      32.053  24.959  24.652  1.00  0.00     0.004 C 
BRANCH  70  76
ATOM     76  C   UNL A   1      33.563  22.070  26.616  1.00  0.00     0.231 C 
ATOM     77  O   UNL A   1      33.947  22.438  27.727  1.00  0.00    -0.274 OA
ATOM     78  N   UNL A   1      33.116  20.780  26.476  1.00  0.00    -0.326 N 
ATOM     79  H   UNL A   1      32.837  20.341  27.312  1.00  0.00     0.169 HD
BRANCH  78  80
ATOM     80  C   UNL A   1      32.999  19.992  25.322  1.00  0.00     0.041 A 
ATOM     81  C   UNL A   1      32.267  20.495  24.246  1.00  0.00     0.026 A 
ATOM     82  C   UNL A   1      33.525  18.700  25.245  1.00  0.00     0.039 A 
ATOM     83  C   UNL A   1      32.153  19.754  23.068  1.00  0.00     0.003 A 
ATOM     84  C   UNL A   1      33.406  17.936  24.074  1.00  0.00     0.058 A 
ATOM     85  C   UNL A   1      32.733  18.488  22.976  1.00  0.00     0.013 A 
BRANCH  84  86
ATOM     86  C   UNL A   1      34.018  16.557  23.993  1.00  0.00     0.416 C 
ATOM     87  F   UNL A   1      35.138  16.440  24.761  1.00  0.00    -0.166 F 
ATOM     88  F   UNL A   1      33.170  15.585  24.425  1.00  0.00    -0.166 F 
ATOM     89  F   UNL A   1      34.401  16.203  22.736  1.00  0.00    -0.166 F 
ENDBRANCH  84  86
ENDBRANCH  78  80
ENDBRANCH  70  76
ENDBRANCH  66  69
ENDBRANCH  64  65
ENDBRANCH   1  64
TORSDOF 14
ENDMDL
