MODEL 1
REMARK VINA RESULT:     -12.3      0.000      0.000
REMARK SMILES O=C(NCCCCNC(=O)C1(Cc2nc(-c3ncc[nH]3)no2)CCCCC1)c1ccc(-c2c3nc(c(-c4c(F)cccc4F)c4ccc([nH]4)c(-c4c(F)cccc4F)c4nc(c(-c5c(F)cccc5F)c5ccc2[nH]5)C=C4)C=C3)cc1
REMARK SMILES IDX 6 1 5 2 4 3 3 4 1 5 2 6 28 8 29 9 81 10 30 11 80 12 31 13
REMARK SMILES IDX 32 14 33 15 74 16 34 17 79 18 73 19 75 20 35 21 78 22 72 23
REMARK SMILES IDX 71 24 36 26 62 27 45 28 61 29 46 30 49 31 60 32 76 33 47 34
REMARK SMILES IDX 48 35 59 37 77 38 50 39 37 40 38 41 43 42 39 43 40 44 42 45
REMARK SMILES IDX 44 46 41 47 63 48 64 49 69 50 65 51 66 52 68 53 70 54 67 55
REMARK SMILES IDX 51 56 52 57 57 58 53 59 54 60 56 61 58 62 55 63 7 64 8 65
REMARK SMILES IDX 9 66 10 68 11 69 23 70 27 71 24 72 26 73 25 74 12 75 13 76
REMARK SMILES IDX 14 77 22 78 15 79 21 80 16 81 17 82 20 83 18 84 19 85
REMARK H PARENT 3 7 75 25 49 36 8 67 20 86
REMARK Flexibility Score: inf
ROOT
ATOM      1  C   UNL A   1      31.622  30.271  26.332  1.00  0.00     0.023 C 
ENDROOT
BRANCH   1   2
ATOM      2  C   UNL A   1      31.452  31.765  26.551  1.00  0.00     0.023 C 
BRANCH   2   3
ATOM      3  C   UNL A   1      32.715  32.438  27.036  1.00  0.00     0.116 C 
BRANCH   3   4
ATOM      4  N   UNL A   1      32.483  33.798  27.501  1.00  0.00    -0.352 N 
ATOM      5  O   UNL A   1      32.749  35.585  28.862  1.00  0.00    -0.269 OA
ATOM      6  C   UNL A   1      33.138  34.491  28.493  1.00  0.00     0.251 C 
ATOM      7  H   UNL A   1      31.761  34.288  27.043  1.00  0.00     0.163 HD
BRANCH   6   8
ATOM      8  C   UNL A   1      34.323  33.867  29.113  1.00  0.00     0.039 A 
ATOM      9  C   UNL A   1      34.157  32.823  30.024  1.00  0.00     0.014 A 
ATOM     10  C   UNL A   1      35.597  34.353  28.812  1.00  0.00     0.014 A 
ATOM     11  C   UNL A   1      35.241  32.375  30.754  1.00  0.00     0.010 A 
ATOM     12  C   UNL A   1      36.709  33.804  29.452  1.00  0.00     0.010 A 
ATOM     13  C   UNL A   1      36.533  32.816  30.433  1.00  0.00    -0.014 A 
BRANCH  13  14
ATOM     14  C   UNL A   1      37.679  32.095  31.030  1.00  0.00     0.031 A 
ATOM     15  C   UNL A   1      38.434  31.043  30.276  1.00  0.00     0.074 A 
ATOM     16  C   UNL A   1      38.038  32.445  32.281  1.00  0.00     0.049 A 
ATOM     17  N   UNL A   1      39.449  30.324  30.679  1.00  0.00    -0.248 NA
ATOM     18  C   UNL A   1      37.995  30.747  28.903  1.00  0.00     0.031 C 
ATOM     19  C   UNL A   1      37.346  33.447  33.104  1.00  0.00     0.029 A 
ATOM     20  N   UNL A   1      39.073  32.031  33.074  1.00  0.00    -0.354 N 
ATOM     21  C   UNL A   1      39.751  29.467  29.629  1.00  0.00     0.074 A 
ATOM     22  C   UNL A   1      38.812  29.755  28.567  1.00  0.00     0.031 C 
ATOM     23  C   UNL A   1      38.011  33.615  34.251  1.00  0.00     0.029 A 
ATOM     24  C   UNL A   1      39.114  32.666  34.291  1.00  0.00     0.049 A 
ATOM     25  H   UNL A   1      39.724  31.345  32.800  1.00  0.00     0.167 HD
ATOM     26  C   UNL A   1      40.723  28.527  29.575  1.00  0.00     0.037 A 
ATOM     27  C   UNL A   1      39.924  32.479  35.347  1.00  0.00     0.037 A 
ATOM     28  C   UNL A   1      41.668  28.282  30.636  1.00  0.00     0.049 A 
ATOM     29  C   UNL A   1      40.980  31.424  35.252  1.00  0.00     0.074 A 
ATOM     30  C   UNL A   1      42.735  27.401  30.651  1.00  0.00     0.029 A 
ATOM     31  N   UNL A   1      41.654  28.915  31.870  1.00  0.00    -0.354 N 
ATOM     32  N   UNL A   1      41.276  30.648  34.238  1.00  0.00    -0.248 NA
ATOM     33  C   UNL A   1      41.798  31.200  36.449  1.00  0.00     0.031 C 
ATOM     34  C   UNL A   1      43.338  27.467  31.912  1.00  0.00     0.029 A 
ATOM     35  C   UNL A   1      42.671  28.419  32.668  1.00  0.00     0.049 A 
ATOM     36  H   UNL A   1      41.014  29.614  32.139  1.00  0.00     0.167 HD
ATOM     37  C   UNL A   1      42.308  29.834  34.677  1.00  0.00     0.074 A 
ATOM     38  C   UNL A   1      42.612  30.240  36.035  1.00  0.00     0.031 C 
ATOM     39  C   UNL A   1      42.938  28.831  34.021  1.00  0.00     0.037 A 
BRANCH  26  40
ATOM     40  C   UNL A   1      40.815  27.671  28.347  1.00  0.00     0.057 A 
ATOM     41  C   UNL A   1      40.101  26.474  28.220  1.00  0.00     0.134 A 
ATOM     42  C   UNL A   1      41.557  28.104  27.239  1.00  0.00     0.134 A 
ATOM     43  F   UNL A   1      39.379  26.001  29.246  1.00  0.00    -0.206 F 
ATOM     44  C   UNL A   1      40.122  25.736  27.033  1.00  0.00     0.040 A 
ATOM     45  C   UNL A   1      41.572  27.385  26.043  1.00  0.00     0.040 A 
ATOM     46  F   UNL A   1      42.259  29.246  27.295  1.00  0.00    -0.206 F 
ATOM     47  C   UNL A   1      40.851  26.197  25.937  1.00  0.00     0.006 A 
ENDBRANCH  26  40
BRANCH  27  48
ATOM     48  C   UNL A   1      39.716  33.265  36.588  1.00  0.00     0.057 A 
ATOM     49  C   UNL A   1      38.835  32.834  37.583  1.00  0.00     0.134 A 
ATOM     50  C   UNL A   1      40.414  34.459  36.814  1.00  0.00     0.134 A 
ATOM     51  F   UNL A   1      38.129  31.706  37.418  1.00  0.00    -0.206 F 
ATOM     52  C   UNL A   1      38.643  33.569  38.755  1.00  0.00     0.040 A 
ATOM     53  C   UNL A   1      40.257  35.187  37.992  1.00  0.00     0.040 A 
ATOM     54  F   UNL A   1      41.283  34.920  35.902  1.00  0.00    -0.206 F 
ATOM     55  C   UNL A   1      39.362  34.746  38.965  1.00  0.00     0.006 A 
ENDBRANCH  27  48
BRANCH  39  56
ATOM     56  C   UNL A   1      44.007  28.109  34.780  1.00  0.00     0.057 A 
ATOM     57  C   UNL A   1      45.331  28.565  34.784  1.00  0.00     0.134 A 
ATOM     58  C   UNL A   1      43.711  26.957  35.517  1.00  0.00     0.134 A 
ATOM     59  F   UNL A   1      45.679  29.652  34.079  1.00  0.00    -0.206 F 
ATOM     60  C   UNL A   1      46.330  27.887  35.481  1.00  0.00     0.040 A 
ATOM     61  C   UNL A   1      44.697  26.284  36.237  1.00  0.00     0.040 A 
ATOM     62  F   UNL A   1      42.460  26.473  35.553  1.00  0.00    -0.206 F 
ATOM     63  C   UNL A   1      46.012  26.745  36.215  1.00  0.00     0.006 A 
ENDBRANCH  39  56
ENDBRANCH  13  14
ENDBRANCH   6   8
ENDBRANCH   3   4
ENDBRANCH   2   3
ENDBRANCH   1   2
BRANCH   1  64
ATOM     64  C   UNL A   1      33.049  29.817  26.047  1.00  0.00     0.116 C 
BRANCH  64  65
ATOM     65  N   UNL A   1      33.245  29.712  24.615  1.00  0.00    -0.356 N 
ATOM     66  C   UNL A   1      33.501  28.650  23.806  1.00  0.00     0.226 C 
ATOM     67  H   UNL A   1      33.181  30.571  24.139  1.00  0.00     0.163 HD
ATOM     68  O   UNL A   1      33.972  28.949  22.702  1.00  0.00    -0.274 OA
BRANCH  66  69
ATOM     69  C   UNL A   1      33.089  27.188  24.134  1.00  0.00     0.058 C 
ATOM     70  C   UNL A   1      33.653  26.319  22.968  1.00  0.00     0.017 C 
ATOM     71  C   UNL A   1      33.844  26.766  25.431  1.00  0.00     0.017 C 
ATOM     72  C   UNL A   1      33.595  24.816  23.235  1.00  0.00     0.001 C 
ATOM     73  C   UNL A   1      33.790  25.267  25.726  1.00  0.00     0.001 C 
ATOM     74  C   UNL A   1      34.278  24.437  24.544  1.00  0.00     0.000 C 
BRANCH  69  75
ATOM     75  C   UNL A   1      31.581  26.897  24.297  1.00  0.00     0.117 C 
BRANCH  75  76
ATOM     76  C   UNL A   1      30.601  27.733  23.558  1.00  0.00     0.228 A 
ATOM     77  N   UNL A   1      29.782  28.695  23.929  1.00  0.00    -0.188 NA
ATOM     78  O   UNL A   1      30.717  27.627  22.199  1.00  0.00    -0.339 OA
ATOM     79  C   UNL A   1      29.544  29.338  22.722  1.00  0.00     0.238 A 
ATOM     80  N   UNL A   1      30.041  28.704  21.652  1.00  0.00    -0.054 NA
BRANCH  79  81
ATOM     81  C   UNL A   1      29.053  30.748  22.653  1.00  0.00     0.179 A 
ATOM     82  N   UNL A   1      28.382  31.266  21.640  1.00  0.00    -0.234 NA
ATOM     83  N   UNL A   1      29.351  31.715  23.577  1.00  0.00    -0.342 N 
ATOM     84  C   UNL A   1      28.307  32.610  21.890  1.00  0.00     0.131 A 
ATOM     85  C   UNL A   1      28.859  32.906  23.112  1.00  0.00     0.104 A 
ATOM     86  H   UNL A   1      29.833  31.578  24.425  1.00  0.00     0.168 HD
ENDBRANCH  79  81
ENDBRANCH  75  76
ENDBRANCH  69  75
ENDBRANCH  66  69
ENDBRANCH  64  65
ENDBRANCH   1  64
TORSDOF 14
ENDMDL
MODEL 2
REMARK VINA RESULT:     -12.2      6.088     10.841
REMARK SMILES O=C(NCCCCNC(=O)C1(Cc2nc(-c3ncc[nH]3)no2)CCCCC1)c1ccc(-c2c3nc(c(-c4c(F)cccc4F)c4ccc([nH]4)c(-c4c(F)cccc4F)c4nc(c(-c5c(F)cccc5F)c5ccc2[nH]5)C=C4)C=C3)cc1
REMARK SMILES IDX 6 1 5 2 4 3 3 4 1 5 2 6 28 8 29 9 81 10 30 11 80 12 31 13
REMARK SMILES IDX 32 14 33 15 74 16 34 17 79 18 73 19 75 20 35 21 78 22 72 23
REMARK SMILES IDX 71 24 36 26 62 27 45 28 61 29 46 30 49 31 60 32 76 33 47 34
REMARK SMILES IDX 48 35 59 37 77 38 50 39 37 40 38 41 43 42 39 43 40 44 42 45
REMARK SMILES IDX 44 46 41 47 63 48 64 49 69 50 65 51 66 52 68 53 70 54 67 55
REMARK SMILES IDX 51 56 52 57 57 58 53 59 54 60 56 61 58 62 55 63 7 64 8 65
REMARK SMILES IDX 9 66 10 68 11 69 23 70 27 71 24 72 26 73 25 74 12 75 13 76
REMARK SMILES IDX 14 77 22 78 15 79 21 80 16 81 17 82 20 83 18 84 19 85
REMARK H PARENT 3 7 75 25 49 36 8 67 20 86
REMARK Flexibility Score: inf
ROOT
ATOM      1  C   UNL A   1      36.965  20.849  24.591  1.00  0.00     0.023 C 
ENDROOT
BRANCH   1   2
ATOM      2  C   UNL A   1      37.861  19.696  25.014  1.00  0.00     0.023 C 
BRANCH   2   3
ATOM      3  C   UNL A   1      39.057  20.144  25.823  1.00  0.00     0.116 C 
BRANCH   3   4
ATOM      4  N   UNL A   1      40.120  19.150  25.849  1.00  0.00    -0.352 N 
ATOM      5  O   UNL A   1      42.260  18.423  25.944  1.00  0.00    -0.269 OA
ATOM      6  C   UNL A   1      41.464  19.335  26.080  1.00  0.00     0.251 C 
ATOM      7  H   UNL A   1      39.840  18.222  25.679  1.00  0.00     0.163 HD
BRANCH   6   8
ATOM      8  C   UNL A   1      41.923  20.678  26.487  1.00  0.00     0.039 A 
ATOM      9  C   UNL A   1      42.221  21.630  25.512  1.00  0.00     0.014 A 
ATOM     10  C   UNL A   1      42.091  20.969  27.843  1.00  0.00     0.014 A 
ATOM     11  C   UNL A   1      42.839  22.811  25.877  1.00  0.00     0.010 A 
ATOM     12  C   UNL A   1      42.589  22.218  28.218  1.00  0.00     0.010 A 
ATOM     13  C   UNL A   1      42.973  23.142  27.234  1.00  0.00    -0.014 A 
BRANCH  13  14
ATOM     14  C   UNL A   1      43.361  24.529  27.573  1.00  0.00     0.031 A 
ATOM     15  C   UNL A   1      42.355  25.548  28.015  1.00  0.00     0.074 A 
ATOM     16  C   UNL A   1      44.672  24.834  27.496  1.00  0.00     0.049 A 
ATOM     17  N   UNL A   1      42.553  26.801  28.331  1.00  0.00    -0.248 NA
ATOM     18  C   UNL A   1      40.950  25.120  28.103  1.00  0.00     0.031 C 
ATOM     19  C   UNL A   1      45.724  23.909  27.054  1.00  0.00     0.029 A 
ATOM     20  N   UNL A   1      45.353  25.980  27.803  1.00  0.00    -0.354 N 
ATOM     21  C   UNL A   1      41.301  27.323  28.624  1.00  0.00     0.074 A 
ATOM     22  C   UNL A   1      40.345  26.251  28.448  1.00  0.00     0.031 C 
ATOM     23  C   UNL A   1      46.916  24.500  27.180  1.00  0.00     0.029 A 
ATOM     24  C   UNL A   1      46.709  25.873  27.614  1.00  0.00     0.049 A 
ATOM     25  H   UNL A   1      44.915  26.799  28.127  1.00  0.00     0.167 HD
ATOM     26  C   UNL A   1      40.991  28.587  28.997  1.00  0.00     0.037 A 
ATOM     27  C   UNL A   1      47.682  26.793  27.736  1.00  0.00     0.037 A 
ATOM     28  C   UNL A   1      41.966  29.630  29.197  1.00  0.00     0.049 A 
ATOM     29  C   UNL A   1      47.300  28.181  28.141  1.00  0.00     0.074 A 
ATOM     30  C   UNL A   1      41.763  30.924  29.644  1.00  0.00     0.029 A 
ATOM     31  N   UNL A   1      43.327  29.498  28.958  1.00  0.00    -0.354 N 
ATOM     32  N   UNL A   1      46.114  28.649  28.450  1.00  0.00    -0.248 NA
ATOM     33  C   UNL A   1      48.379  29.173  28.195  1.00  0.00     0.031 C 
ATOM     34  C   UNL A   1      42.994  31.589  29.630  1.00  0.00     0.029 A 
ATOM     35  C   UNL A   1      43.970  30.698  29.212  1.00  0.00     0.049 A 
ATOM     36  H   UNL A   1      43.769  28.673  28.651  1.00  0.00     0.167 HD
ATOM     37  C   UNL A   1      46.302  29.993  28.724  1.00  0.00     0.074 A 
ATOM     38  C   UNL A   1      47.721  30.256  28.583  1.00  0.00     0.031 C 
ATOM     39  C   UNL A   1      45.381  30.933  29.047  1.00  0.00     0.037 A 
BRANCH  26  40
ATOM     40  C   UNL A   1      39.547  28.935  29.197  1.00  0.00     0.057 A 
ATOM     41  C   UNL A   1      38.727  29.344  28.139  1.00  0.00     0.134 A 
ATOM     42  C   UNL A   1      38.947  28.765  30.452  1.00  0.00     0.134 A 
ATOM     43  F   UNL A   1      39.241  29.533  26.915  1.00  0.00    -0.206 F 
ATOM     44  C   UNL A   1      37.361  29.573  28.322  1.00  0.00     0.040 A 
ATOM     45  C   UNL A   1      37.580  28.973  30.644  1.00  0.00     0.040 A 
ATOM     46  F   UNL A   1      39.676  28.369  31.507  1.00  0.00    -0.206 F 
ATOM     47  C   UNL A   1      36.782  29.378  29.576  1.00  0.00     0.006 A 
ENDBRANCH  26  40
BRANCH  27  48
ATOM     48  C   UNL A   1      49.083  26.434  27.408  1.00  0.00     0.057 A 
ATOM     49  C   UNL A   1      49.960  25.958  28.386  1.00  0.00     0.134 A 
ATOM     50  C   UNL A   1      49.571  26.540  26.098  1.00  0.00     0.134 A 
ATOM     51  F   UNL A   1      49.556  25.847  29.659  1.00  0.00    -0.206 F 
ATOM     52  C   UNL A   1      51.278  25.613  28.078  1.00  0.00     0.040 A 
ATOM     53  C   UNL A   1      50.874  26.170  25.769  1.00  0.00     0.040 A 
ATOM     54  F   UNL A   1      48.774  26.980  25.111  1.00  0.00    -0.206 F 
ATOM     55  C   UNL A   1      51.735  25.711  26.763  1.00  0.00     0.006 A 
ENDBRANCH  27  48
BRANCH  39  56
ATOM     56  C   UNL A   1      45.894  32.322  29.258  1.00  0.00     0.057 A 
ATOM     57  C   UNL A   1      46.349  32.748  30.513  1.00  0.00     0.134 A 
ATOM     58  C   UNL A   1      45.942  33.238  28.201  1.00  0.00     0.134 A 
ATOM     59  F   UNL A   1      46.307  31.920  31.568  1.00  0.00    -0.206 F 
ATOM     60  C   UNL A   1      46.815  34.046  30.713  1.00  0.00     0.040 A 
ATOM     61  C   UNL A   1      46.429  34.532  28.384  1.00  0.00     0.040 A 
ATOM     62  F   UNL A   1      45.522  32.888  26.976  1.00  0.00    -0.206 F 
ATOM     63  C   UNL A   1      46.862  34.940  29.645  1.00  0.00     0.006 A 
ENDBRANCH  39  56
ENDBRANCH  13  14
ENDBRANCH   6   8
ENDBRANCH   3   4
ENDBRANCH   2   3
ENDBRANCH   1   2
BRANCH   1  64
ATOM     64  C   UNL A   1      36.762  21.930  25.646  1.00  0.00     0.116 C 
BRANCH  64  65
ATOM     65  N   UNL A   1      35.689  21.540  26.537  1.00  0.00    -0.356 N 
ATOM     66  C   UNL A   1      34.520  22.145  26.877  1.00  0.00     0.226 C 
ATOM     67  H   UNL A   1      35.833  20.673  26.980  1.00  0.00     0.163 HD
ATOM     68  O   UNL A   1      34.013  21.729  27.926  1.00  0.00    -0.274 OA
BRANCH  66  69
ATOM     69  C   UNL A   1      33.765  23.152  25.964  1.00  0.00     0.058 C 
ATOM     70  C   UNL A   1      32.539  23.637  26.797  1.00  0.00     0.017 C 
ATOM     71  C   UNL A   1      34.696  24.384  25.751  1.00  0.00     0.017 C 
ATOM     72  C   UNL A   1      31.817  24.839  26.188  1.00  0.00     0.001 C 
ATOM     73  C   UNL A   1      33.998  25.594  25.132  1.00  0.00     0.001 C 
ATOM     74  C   UNL A   1      32.762  26.005  25.924  1.00  0.00     0.000 C 
BRANCH  69  75
ATOM     75  C   UNL A   1      33.273  22.634  24.595  1.00  0.00     0.117 C 
BRANCH  75  76
ATOM     76  C   UNL A   1      32.999  21.183  24.428  1.00  0.00     0.228 A 
ATOM     77  N   UNL A   1      33.739  20.172  24.025  1.00  0.00    -0.188 NA
ATOM     78  O   UNL A   1      31.818  20.788  24.995  1.00  0.00    -0.339 OA
ATOM     79  C   UNL A   1      33.050  19.093  24.563  1.00  0.00     0.238 A 
ATOM     80  N   UNL A   1      31.868  19.409  25.107  1.00  0.00    -0.054 NA
BRANCH  79  81
ATOM     81  C   UNL A   1      33.699  17.765  24.786  1.00  0.00     0.179 A 
ATOM     82  N   UNL A   1      33.075  16.682  25.213  1.00  0.00    -0.234 NA
ATOM     83  N   UNL A   1      35.048  17.541  24.701  1.00  0.00    -0.342 N 
ATOM     84  C   UNL A   1      34.057  15.762  25.471  1.00  0.00     0.131 A 
ATOM     85  C   UNL A   1      35.287  16.257  25.114  1.00  0.00     0.104 A 
ATOM     86  H   UNL A   1      35.726  18.188  24.397  1.00  0.00     0.168 HD
ENDBRANCH  79  81
ENDBRANCH  75  76
ENDBRANCH  69  75
ENDBRANCH  66  69
ENDBRANCH  64  65
ENDBRANCH   1  64
TORSDOF 14
ENDMDL
MODEL 3
REMARK VINA RESULT:     -12.1      0.800      6.274
REMARK SMILES O=C(NCCCCNC(=O)C1(Cc2nc(-c3ncc[nH]3)no2)CCCCC1)c1ccc(-c2c3nc(c(-c4c(F)cccc4F)c4ccc([nH]4)c(-c4c(F)cccc4F)c4nc(c(-c5c(F)cccc5F)c5ccc2[nH]5)C=C4)C=C3)cc1
REMARK SMILES IDX 6 1 5 2 4 3 3 4 1 5 2 6 28 8 29 9 81 10 30 11 80 12 31 13
REMARK SMILES IDX 32 14 33 15 74 16 34 17 79 18 73 19 75 20 35 21 78 22 72 23
REMARK SMILES IDX 71 24 36 26 62 27 45 28 61 29 46 30 49 31 60 32 76 33 47 34
REMARK SMILES IDX 48 35 59 37 77 38 50 39 37 40 38 41 43 42 39 43 40 44 42 45
REMARK SMILES IDX 44 46 41 47 63 48 64 49 69 50 65 51 66 52 68 53 70 54 67 55
REMARK SMILES IDX 51 56 52 57 57 58 53 59 54 60 56 61 58 62 55 63 7 64 8 65
REMARK SMILES IDX 9 66 10 68 11 69 23 70 27 71 24 72 26 73 25 74 12 75 13 76
REMARK SMILES IDX 14 77 22 78 15 79 21 80 16 81 17 82 20 83 18 84 19 85
REMARK H PARENT 3 7 75 25 49 36 8 67 20 86
REMARK Flexibility Score: inf
ROOT
ATOM      1  C   UNL A   1      31.791  30.152  26.609  1.00  0.00     0.023 C 
ENDROOT
BRANCH   1   2
ATOM      2  C   UNL A   1      31.573  31.656  26.585  1.00  0.00     0.023 C 
BRANCH   2   3
ATOM      3  C   UNL A   1      32.801  32.437  26.992  1.00  0.00     0.116 C 
BRANCH   3   4
ATOM      4  N   UNL A   1      32.481  33.767  27.490  1.00  0.00    -0.352 N 
ATOM      5  O   UNL A   1      32.643  35.540  28.885  1.00  0.00    -0.269 OA
ATOM      6  C   UNL A   1      33.103  34.485  28.486  1.00  0.00     0.251 C 
ATOM      7  H   UNL A   1      31.718  34.212  27.055  1.00  0.00     0.163 HD
BRANCH   6   8
ATOM      8  C   UNL A   1      34.341  33.936  29.072  1.00  0.00     0.039 A 
ATOM      9  C   UNL A   1      34.260  32.991  30.096  1.00  0.00     0.014 A 
ATOM     10  C   UNL A   1      35.581  34.395  28.622  1.00  0.00     0.014 A 
ATOM     11  C   UNL A   1      35.404  32.627  30.781  1.00  0.00     0.010 A 
ATOM     12  C   UNL A   1      36.747  33.921  29.226  1.00  0.00     0.010 A 
ATOM     13  C   UNL A   1      36.662  33.040  30.315  1.00  0.00    -0.014 A 
BRANCH  13  14
ATOM     14  C   UNL A   1      37.860  32.391  30.891  1.00  0.00     0.031 A 
ATOM     15  C   UNL A   1      38.486  32.870  32.165  1.00  0.00     0.074 A 
ATOM     16  C   UNL A   1      38.353  31.323  30.232  1.00  0.00     0.049 A 
ATOM     17  N   UNL A   1      39.543  32.404  32.776  1.00  0.00    -0.248 NA
ATOM     18  C   UNL A   1      37.862  34.022  32.835  1.00  0.00     0.031 C 
ATOM     19  C   UNL A   1      37.821  30.796  28.969  1.00  0.00     0.029 A 
ATOM     20  N   UNL A   1      39.384  30.475  30.531  1.00  0.00    -0.354 N 
ATOM     21  C   UNL A   1      39.735  33.220  33.883  1.00  0.00     0.074 A 
ATOM     22  C   UNL A   1      38.683  34.214  33.861  1.00  0.00     0.031 C 
ATOM     23  C   UNL A   1      38.484  29.683  28.637  1.00  0.00     0.029 A 
ATOM     24  C   UNL A   1      39.549  29.473  29.605  1.00  0.00     0.049 A 
ATOM     25  H   UNL A   1      39.952  30.572  31.329  1.00  0.00     0.167 HD
ATOM     26  C   UNL A   1      40.709  33.139  34.820  1.00  0.00     0.037 A 
ATOM     27  C   UNL A   1      40.484  28.510  29.518  1.00  0.00     0.037 A 
ATOM     28  C   UNL A   1      41.727  32.118  34.837  1.00  0.00     0.049 A 
ATOM     29  C   UNL A   1      41.549  28.459  30.566  1.00  0.00     0.074 A 
ATOM     30  C   UNL A   1      42.717  31.906  35.782  1.00  0.00     0.029 A 
ATOM     31  N   UNL A   1      41.889  31.144  33.862  1.00  0.00    -0.354 N 
ATOM     32  N   UNL A   1      41.694  29.216  31.627  1.00  0.00    -0.248 NA
ATOM     33  C   UNL A   1      42.590  27.440  30.398  1.00  0.00     0.031 C 
ATOM     34  C   UNL A   1      43.505  30.833  35.353  1.00  0.00     0.029 A 
ATOM     35  C   UNL A   1      42.983  30.351  34.163  1.00  0.00     0.049 A 
ATOM     36  H   UNL A   1      41.311  31.035  33.072  1.00  0.00     0.167 HD
ATOM     37  C   UNL A   1      42.850  28.774  32.248  1.00  0.00     0.074 A 
ATOM     38  C   UNL A   1      43.344  27.656  31.467  1.00  0.00     0.031 C 
ATOM     39  C   UNL A   1      43.459  29.257  33.357  1.00  0.00     0.037 A 
BRANCH  26  40
ATOM     40  C   UNL A   1      40.749  34.183  35.895  1.00  0.00     0.057 A 
ATOM     41  C   UNL A   1      41.437  35.390  35.734  1.00  0.00     0.134 A 
ATOM     42  C   UNL A   1      40.006  34.013  37.072  1.00  0.00     0.134 A 
ATOM     43  F   UNL A   1      42.174  35.612  34.635  1.00  0.00    -0.206 F 
ATOM     44  C   UNL A   1      41.387  36.393  36.707  1.00  0.00     0.040 A 
ATOM     45  C   UNL A   1      39.933  35.013  38.042  1.00  0.00     0.040 A 
ATOM     46  F   UNL A   1      39.319  32.880  37.284  1.00  0.00    -0.206 F 
ATOM     47  C   UNL A   1      40.625  36.209  37.860  1.00  0.00     0.006 A 
ENDBRANCH  26  40
BRANCH  27  48
ATOM     48  C   UNL A   1      40.476  27.575  28.367  1.00  0.00     0.057 A 
ATOM     49  C   UNL A   1      41.181  27.859  27.194  1.00  0.00     0.134 A 
ATOM     50  C   UNL A   1      39.777  26.361  28.424  1.00  0.00     0.134 A 
ATOM     51  F   UNL A   1      41.858  29.010  27.075  1.00  0.00    -0.206 F 
ATOM     52  C   UNL A   1      41.181  26.976  26.112  1.00  0.00     0.040 A 
ATOM     53  C   UNL A   1      39.794  25.456  27.365  1.00  0.00     0.040 A 
ATOM     54  F   UNL A   1      39.091  26.025  29.527  1.00  0.00    -0.206 F 
ATOM     55  C   UNL A   1      40.492  25.767  26.200  1.00  0.00     0.006 A 
ENDBRANCH  27  48
BRANCH  39  56
ATOM     56  C   UNL A   1      44.726  28.576  33.771  1.00  0.00     0.057 A 
ATOM     57  C   UNL A   1      45.976  29.037  33.339  1.00  0.00     0.134 A 
ATOM     58  C   UNL A   1      44.698  27.458  34.613  1.00  0.00     0.134 A 
ATOM     59  F   UNL A   1      46.063  30.092  32.515  1.00  0.00    -0.206 F 
ATOM     60  C   UNL A   1      47.155  28.396  33.714  1.00  0.00     0.040 A 
ATOM     61  C   UNL A   1      45.872  26.823  35.014  1.00  0.00     0.040 A 
ATOM     62  F   UNL A   1      43.531  26.971  35.061  1.00  0.00    -0.206 F 
ATOM     63  C   UNL A   1      47.106  27.289  34.559  1.00  0.00     0.006 A 
ENDBRANCH  39  56
ENDBRANCH  13  14
ENDBRANCH   6   8
ENDBRANCH   3   4
ENDBRANCH   2   3
ENDBRANCH   1   2
BRANCH   1  64
ATOM     64  C   UNL A   1      33.200  29.697  26.243  1.00  0.00     0.116 C 
BRANCH  64  65
ATOM     65  N   UNL A   1      33.339  29.668  24.802  1.00  0.00    -0.356 N 
ATOM     66  C   UNL A   1      33.605  28.658  23.932  1.00  0.00     0.226 C 
ATOM     67  H   UNL A   1      33.218  30.545  24.371  1.00  0.00     0.163 HD
ATOM     68  O   UNL A   1      34.016  29.030  22.826  1.00  0.00    -0.274 OA
BRANCH  66  69
ATOM     69  C   UNL A   1      33.269  27.165  24.204  1.00  0.00     0.058 C 
ATOM     70  C   UNL A   1      33.833  26.377  22.981  1.00  0.00     0.017 C 
ATOM     71  C   UNL A   1      34.085  26.720  25.456  1.00  0.00     0.017 C 
ATOM     72  C   UNL A   1      33.851  24.862  23.180  1.00  0.00     0.001 C 
ATOM     73  C   UNL A   1      34.107  25.209  25.682  1.00  0.00     0.001 C 
ATOM     74  C   UNL A   1      34.594  24.457  24.448  1.00  0.00     0.000 C 
BRANCH  69  75
ATOM     75  C   UNL A   1      31.782  26.798  24.400  1.00  0.00     0.117 C 
BRANCH  75  76
ATOM     76  C   UNL A   1      30.740  27.644  23.762  1.00  0.00     0.228 A 
ATOM     77  N   UNL A   1      30.092  28.719  24.157  1.00  0.00    -0.188 NA
ATOM     78  O   UNL A   1      30.569  27.377  22.431  1.00  0.00    -0.339 OA
ATOM     79  C   UNL A   1      29.664  29.246  22.946  1.00  0.00     0.238 A 
ATOM     80  N   UNL A   1      29.882  28.450  21.891  1.00  0.00    -0.054 NA
BRANCH  79  81
ATOM     81  C   UNL A   1      29.281  30.682  22.793  1.00  0.00     0.179 A 
ATOM     82  N   UNL A   1      28.712  31.417  23.733  1.00  0.00    -0.234 NA
ATOM     83  N   UNL A   1      29.353  31.380  21.616  1.00  0.00    -0.342 N 
ATOM     84  C   UNL A   1      28.352  32.589  23.124  1.00  0.00     0.131 A 
ATOM     85  C   UNL A   1      28.783  32.609  21.820  1.00  0.00     0.104 A 
ATOM     86  H   UNL A   1      29.745  31.056  20.773  1.00  0.00     0.168 HD
ENDBRANCH  79  81
ENDBRANCH  75  76
ENDBRANCH  69  75
ENDBRANCH  66  69
ENDBRANCH  64  65
ENDBRANCH   1  64
TORSDOF 14
ENDMDL
