MODEL 1
REMARK VINA RESULT:     -12.0      0.000      0.000
REMARK SMILES C[C@@H]1CC[C@H]([N@@H+]2[C@@H](C(=O)NCCCCNC(=O)c3ccc(-c4c5nc(c(-c6c(F)cccc6F)c6ccc([nH]6)c(-c6c(F)cccc6F)c6nc(c(-c7c(F)cccc7F)c7ccc4[nH]7)C=C6)C=C5)cc3)C[C@H]3CCCC[C@H]32)C1
REMARK SMILES IDX 13 1 12 2 11 3 10 4 8 5 9 6 7 8 6 9 78 10 72 12 73 13 77 14
REMARK SMILES IDX 74 15 76 16 75 17 5 18 1 19 2 20 3 21 79 22 4 23 14 24 15 25
REMARK SMILES IDX 16 26 17 28 18 29 19 30 71 31 20 32 70 33 21 34 22 35 23 36
REMARK SMILES IDX 64 37 24 38 69 39 63 40 65 41 25 42 68 43 62 44 61 45 26 47
REMARK SMILES IDX 52 48 35 49 51 50 36 51 39 52 50 53 66 54 37 55 38 56 49 58
REMARK SMILES IDX 67 59 40 60 27 61 28 62 33 63 29 64 30 65 32 66 34 67 31 68
REMARK SMILES IDX 53 69 54 70 59 71 55 72 56 73 58 74 60 75 57 76 41 77 42 78
REMARK SMILES IDX 47 79 43 80 44 81 46 82 48 83 45 84
REMARK H PARENT 10 7 6 11 15 27 65 46 39 57
REMARK Flexibility Score: inf
ROOT
ATOM      1  C   UNL A   1      32.185  27.926  27.310  1.00  0.00     0.023 C 
ENDROOT
BRANCH   1   2
ATOM      2  C   UNL A   1      31.903  26.960  26.164  1.00  0.00     0.023 C 
BRANCH   2   3
ATOM      3  C   UNL A   1      32.507  25.571  26.309  1.00  0.00     0.116 C 
BRANCH   3   4
ATOM      4  N   UNL A   1      31.538  24.503  26.189  1.00  0.00    -0.351 N 
ATOM      5  C   UNL A   1      31.743  23.153  26.068  1.00  0.00     0.278 C 
ATOM      6  O   UNL A   1      30.732  22.448  26.024  1.00  0.00    -0.268 OA
ATOM      7  H   UNL A   1      30.595  24.787  26.196  1.00  0.00     0.163 HD
BRANCH   5   8
ATOM      8  C   UNL A   1      33.188  22.601  25.906  1.00  0.00     0.275 C 
ATOM      9  N   UNL A   1      33.652  22.765  24.496  1.00  0.00    -0.320 N 
ATOM     10  C   UNL A   1      33.669  21.433  23.882  1.00  0.00     0.188 C 
ATOM     11  H   UNL A   1      33.002  23.322  23.940  1.00  0.00     0.349 HD
ATOM     12  C   UNL A   1      33.325  21.097  26.198  1.00  0.00     0.085 C 
ATOM     13  C   UNL A   1      34.088  20.517  25.019  1.00  0.00     0.054 C 
ATOM     14  C   UNL A   1      32.282  21.069  23.313  1.00  0.00     0.065 C 
ATOM     15  C   UNL A   1      33.853  19.030  24.777  1.00  0.00     0.010 C 
ATOM     16  C   UNL A   1      32.201  19.586  22.961  1.00  0.00     0.006 C 
ATOM     17  C   UNL A   1      32.487  18.717  24.181  1.00  0.00     0.001 C 
BRANCH   9  18
ATOM     18  C   UNL A   1      34.845  23.619  24.363  1.00  0.00     0.185 C 
ATOM     19  C   UNL A   1      37.308  21.314  24.589  1.00  0.00     0.008 C 
ATOM     20  C   UNL A   1      37.174  22.786  24.213  1.00  0.00    -0.008 C 
ATOM     21  C   UNL A   1      37.083  23.689  25.438  1.00  0.00     0.009 C 
ATOM     22  C   UNL A   1      35.931  23.129  23.387  1.00  0.00     0.068 C 
ATOM     23  C   UNL A   1      35.608  24.020  25.642  1.00  0.00     0.065 C 
ENDBRANCH   9  18
ENDBRANCH   5   8
ENDBRANCH   3   4
ENDBRANCH   2   3
ENDBRANCH   1   2
BRANCH   1  24
ATOM     24  C   UNL A   1      33.558  28.585  27.294  1.00  0.00     0.116 C 
BRANCH  24  25
ATOM     25  N   UNL A   1      33.536  29.979  27.714  1.00  0.00    -0.352 N 
ATOM     26  C   UNL A   1      34.531  30.735  28.287  1.00  0.00     0.251 C 
ATOM     27  H   UNL A   1      32.684  30.449  27.564  1.00  0.00     0.163 HD
ATOM     28  O   UNL A   1      34.297  31.872  28.676  1.00  0.00    -0.269 OA
BRANCH  26  29
ATOM     29  C   UNL A   1      35.880  30.155  28.464  1.00  0.00     0.039 A 
ATOM     30  C   UNL A   1      36.780  30.199  27.396  1.00  0.00     0.014 A 
ATOM     31  C   UNL A   1      36.262  29.595  29.685  1.00  0.00     0.014 A 
ATOM     32  C   UNL A   1      38.088  29.747  27.577  1.00  0.00     0.010 A 
ATOM     33  C   UNL A   1      37.588  29.229  29.889  1.00  0.00     0.010 A 
ATOM     34  C   UNL A   1      38.513  29.293  28.836  1.00  0.00    -0.014 A 
BRANCH  34  35
ATOM     35  C   UNL A   1      39.913  28.855  29.069  1.00  0.00     0.031 A 
ATOM     36  C   UNL A   1      40.895  29.801  29.704  1.00  0.00     0.074 A 
ATOM     37  C   UNL A   1      40.319  27.641  28.650  1.00  0.00     0.049 A 
ATOM     38  N   UNL A   1      42.176  29.644  29.918  1.00  0.00    -0.248 NA
ATOM     39  C   UNL A   1      40.373  31.111  30.125  1.00  0.00     0.031 C 
ATOM     40  C   UNL A   1      39.477  26.651  27.973  1.00  0.00     0.029 A 
ATOM     41  N   UNL A   1      41.549  27.037  28.722  1.00  0.00    -0.354 N 
ATOM     42  C   UNL A   1      42.615  30.839  30.476  1.00  0.00     0.074 A 
ATOM     43  C   UNL A   1      41.477  31.731  30.513  1.00  0.00     0.031 C 
ATOM     44  C   UNL A   1      40.210  25.555  27.717  1.00  0.00     0.029 A 
ATOM     45  C   UNL A   1      41.577  25.776  28.176  1.00  0.00     0.049 A 
ATOM     46  H   UNL A   1      42.337  27.466  29.127  1.00  0.00     0.167 HD
ATOM     47  C   UNL A   1      43.846  31.157  30.941  1.00  0.00     0.037 A 
ATOM     48  C   UNL A   1      42.593  24.901  28.057  1.00  0.00     0.037 A 
ATOM     49  C   UNL A   1      44.967  30.256  30.935  1.00  0.00     0.049 A 
ATOM     50  C   UNL A   1      43.949  25.271  28.593  1.00  0.00     0.074 A 
ATOM     51  C   UNL A   1      46.241  30.462  31.433  1.00  0.00     0.029 A 
ATOM     52  N   UNL A   1      44.945  28.975  30.405  1.00  0.00    -0.354 N 
ATOM     53  N   UNL A   1      44.333  26.381  29.176  1.00  0.00    -0.248 NA
ATOM     54  C   UNL A   1      45.010  24.262  28.465  1.00  0.00     0.031 C 
ATOM     55  C   UNL A   1      47.003  29.317  31.172  1.00  0.00     0.029 A 
ATOM     56  C   UNL A   1      46.188  28.381  30.555  1.00  0.00     0.049 A 
ATOM     57  H   UNL A   1      44.163  28.550  29.985  1.00  0.00     0.167 HD
ATOM     58  C   UNL A   1      45.666  26.191  29.517  1.00  0.00     0.074 A 
ATOM     59  C   UNL A   1      46.022  24.856  29.082  1.00  0.00     0.031 C 
ATOM     60  C   UNL A   1      46.518  27.044  30.134  1.00  0.00     0.037 A 
BRANCH  47  61
ATOM     61  C   UNL A   1      44.035  32.535  31.504  1.00  0.00     0.057 A 
ATOM     62  C   UNL A   1      44.433  33.614  30.702  1.00  0.00     0.134 A 
ATOM     63  C   UNL A   1      43.795  32.794  32.859  1.00  0.00     0.134 A 
ATOM     64  F   UNL A   1      44.693  33.430  29.398  1.00  0.00    -0.206 F 
ATOM     65  C   UNL A   1      44.618  34.891  31.232  1.00  0.00     0.040 A 
ATOM     66  C   UNL A   1      43.947  34.074  33.396  1.00  0.00     0.040 A 
ATOM     67  F   UNL A   1      43.405  31.810  33.684  1.00  0.00    -0.206 F 
ATOM     68  C   UNL A   1      44.368  35.125  32.583  1.00  0.00     0.006 A 
ENDBRANCH  47  61
BRANCH  48  69
ATOM     69  C   UNL A   1      42.364  23.571  27.437  1.00  0.00     0.057 A 
ATOM     70  C   UNL A   1      42.041  22.457  28.221  1.00  0.00     0.134 A 
ATOM     71  C   UNL A   1      42.472  23.377  26.055  1.00  0.00     0.134 A 
ATOM     72  F   UNL A   1      41.941  22.576  29.554  1.00  0.00    -0.206 F 
ATOM     73  C   UNL A   1      41.858  21.193  27.658  1.00  0.00     0.040 A 
ATOM     74  C   UNL A   1      42.267  22.124  25.475  1.00  0.00     0.040 A 
ATOM     75  F   UNL A   1      42.770  24.406  25.248  1.00  0.00    -0.206 F 
ATOM     76  C   UNL A   1      41.967  21.025  26.280  1.00  0.00     0.006 A 
ENDBRANCH  48  69
BRANCH  60  77
ATOM     77  C   UNL A   1      47.902  26.541  30.429  1.00  0.00     0.057 A 
ATOM     78  C   UNL A   1      48.218  25.898  31.631  1.00  0.00     0.134 A 
ATOM     79  C   UNL A   1      48.919  26.668  29.474  1.00  0.00     0.134 A 
ATOM     80  F   UNL A   1      47.291  25.756  32.591  1.00  0.00    -0.206 F 
ATOM     81  C   UNL A   1      49.506  25.422  31.885  1.00  0.00     0.040 A 
ATOM     82  C   UNL A   1      50.203  26.172  29.705  1.00  0.00     0.040 A 
ATOM     83  F   UNL A   1      48.680  27.265  28.297  1.00  0.00    -0.206 F 
ATOM     84  C   UNL A   1      50.499  25.552  30.917  1.00  0.00     0.006 A 
ENDBRANCH  60  77
ENDBRANCH  34  35
ENDBRANCH  26  29
ENDBRANCH  24  25
ENDBRANCH   1  24
TORSDOF 12
ENDMDL
MODEL 2
REMARK VINA RESULT:     -11.9      2.361      7.508
REMARK SMILES C[C@@H]1CC[C@H]([N@@H+]2[C@@H](C(=O)NCCCCNC(=O)c3ccc(-c4c5nc(c(-c6c(F)cccc6F)c6ccc([nH]6)c(-c6c(F)cccc6F)c6nc(c(-c7c(F)cccc7F)c7ccc4[nH]7)C=C6)C=C5)cc3)C[C@H]3CCCC[C@H]32)C1
REMARK SMILES IDX 13 1 12 2 11 3 10 4 8 5 9 6 7 8 6 9 78 10 72 12 73 13 77 14
REMARK SMILES IDX 74 15 76 16 75 17 5 18 1 19 2 20 3 21 79 22 4 23 14 24 15 25
REMARK SMILES IDX 16 26 17 28 18 29 19 30 71 31 20 32 70 33 21 34 22 35 23 36
REMARK SMILES IDX 64 37 24 38 69 39 63 40 65 41 25 42 68 43 62 44 61 45 26 47
REMARK SMILES IDX 52 48 35 49 51 50 36 51 39 52 50 53 66 54 37 55 38 56 49 58
REMARK SMILES IDX 67 59 40 60 27 61 28 62 33 63 29 64 30 65 32 66 34 67 31 68
REMARK SMILES IDX 53 69 54 70 59 71 55 72 56 73 58 74 60 75 57 76 41 77 42 78
REMARK SMILES IDX 47 79 43 80 44 81 46 82 48 83 45 84
REMARK H PARENT 10 7 6 11 15 27 65 46 39 57
REMARK Flexibility Score: inf
ROOT
ATOM      1  C   UNL A   1      38.955  21.115  25.478  1.00  0.00     0.023 C 
ENDROOT
BRANCH   1   2
ATOM      2  C   UNL A   1      38.898  22.483  26.150  1.00  0.00     0.023 C 
BRANCH   2   3
ATOM      3  C   UNL A   1      37.716  23.359  25.762  1.00  0.00     0.116 C 
BRANCH   3   4
ATOM      4  N   UNL A   1      37.319  23.217  24.378  1.00  0.00    -0.351 N 
ATOM      5  C   UNL A   1      36.074  23.336  23.815  1.00  0.00     0.278 C 
ATOM      6  O   UNL A   1      36.015  23.206  22.589  1.00  0.00    -0.268 OA
ATOM      7  H   UNL A   1      38.047  23.005  23.750  1.00  0.00     0.163 HD
BRANCH   5   8
ATOM      8  C   UNL A   1      34.828  23.531  24.725  1.00  0.00     0.275 C 
ATOM      9  N   UNL A   1      33.575  23.438  23.916  1.00  0.00    -0.320 N 
ATOM     10  C   UNL A   1      33.020  24.792  23.810  1.00  0.00     0.188 C 
ATOM     11  H   UNL A   1      33.757  23.133  22.960  1.00  0.00     0.349 HD
ATOM     12  C   UNL A   1      34.758  24.907  25.411  1.00  0.00     0.085 C 
ATOM     13  C   UNL A   1      33.354  25.425  25.150  1.00  0.00     0.054 C 
ATOM     14  C   UNL A   1      33.648  25.554  22.625  1.00  0.00     0.065 C 
ATOM     15  C   UNL A   1      33.214  26.942  25.205  1.00  0.00     0.010 C 
ATOM     16  C   UNL A   1      33.323  27.045  22.692  1.00  0.00     0.006 C 
ATOM     17  C   UNL A   1      33.815  27.655  24.000  1.00  0.00     0.001 C 
BRANCH   9  18
ATOM     18  C   UNL A   1      32.685  22.341  24.333  1.00  0.00     0.185 C 
ATOM     19  C   UNL A   1      34.931  19.874  24.886  1.00  0.00     0.008 C 
ATOM     20  C   UNL A   1      33.450  20.129  25.148  1.00  0.00    -0.008 C 
ATOM     21  C   UNL A   1      32.596  19.895  23.907  1.00  0.00     0.009 C 
ATOM     22  C   UNL A   1      33.111  21.556  25.587  1.00  0.00     0.068 C 
ATOM     23  C   UNL A   1      32.312  21.263  23.295  1.00  0.00     0.065 C 
ENDBRANCH   9  18
ENDBRANCH   5   8
ENDBRANCH   3   4
ENDBRANCH   2   3
ENDBRANCH   1   2
BRANCH   1  24
ATOM     24  C   UNL A   1      39.329  19.950  26.384  1.00  0.00     0.116 C 
BRANCH  24  25
ATOM     25  N   UNL A   1      40.503  19.218  25.932  1.00  0.00    -0.352 N 
ATOM     26  C   UNL A   1      41.820  19.614  25.897  1.00  0.00     0.251 C 
ATOM     27  H   UNL A   1      40.328  18.307  25.604  1.00  0.00     0.163 HD
ATOM     28  O   UNL A   1      42.666  18.897  25.378  1.00  0.00    -0.269 OA
BRANCH  26  29
ATOM     29  C   UNL A   1      42.204  20.927  26.459  1.00  0.00     0.039 A 
ATOM     30  C   UNL A   1      42.607  21.942  25.588  1.00  0.00     0.014 A 
ATOM     31  C   UNL A   1      42.142  21.161  27.834  1.00  0.00     0.014 A 
ATOM     32  C   UNL A   1      42.877  23.216  26.091  1.00  0.00     0.010 A 
ATOM     33  C   UNL A   1      42.324  22.450  28.321  1.00  0.00     0.010 A 
ATOM     34  C   UNL A   1      42.702  23.490  27.457  1.00  0.00    -0.014 A 
BRANCH  34  35
ATOM     35  C   UNL A   1      42.933  24.848  28.010  1.00  0.00     0.031 A 
ATOM     36  C   UNL A   1      44.314  25.252  28.449  1.00  0.00     0.074 A 
ATOM     37  C   UNL A   1      41.896  25.691  28.183  1.00  0.00     0.049 A 
ATOM     38  N   UNL A   1      44.709  26.354  29.032  1.00  0.00    -0.248 NA
ATOM     39  C   UNL A   1      45.389  24.270  28.234  1.00  0.00     0.031 C 
ATOM     40  C   UNL A   1      40.500  25.400  27.847  1.00  0.00     0.029 A 
ATOM     41  N   UNL A   1      41.855  26.963  28.697  1.00  0.00    -0.354 N 
ATOM     42  C   UNL A   1      46.067  26.190  29.270  1.00  0.00     0.074 A 
ATOM     43  C   UNL A   1      46.417  24.859  28.824  1.00  0.00     0.031 C 
ATOM     44  C   UNL A   1      39.746  26.473  28.140  1.00  0.00     0.029 A 
ATOM     45  C   UNL A   1      40.595  27.510  28.716  1.00  0.00     0.049 A 
ATOM     46  H   UNL A   1      42.654  27.439  29.022  1.00  0.00     0.167 HD
ATOM     47  C   UNL A   1      46.952  27.074  29.788  1.00  0.00     0.037 A 
ATOM     48  C   UNL A   1      40.174  28.713  29.151  1.00  0.00     0.037 A 
ATOM     49  C   UNL A   1      46.609  28.410  30.200  1.00  0.00     0.049 A 
ATOM     50  C   UNL A   1      41.177  29.684  29.711  1.00  0.00     0.074 A 
ATOM     51  C   UNL A   1      47.441  29.402  30.685  1.00  0.00     0.029 A 
ATOM     52  N   UNL A   1      45.327  28.938  30.169  1.00  0.00    -0.354 N 
ATOM     53  N   UNL A   1      42.470  29.537  29.871  1.00  0.00    -0.248 NA
ATOM     54  C   UNL A   1      40.664  30.993  30.139  1.00  0.00     0.031 C 
ATOM     55  C   UNL A   1      46.656  30.522  30.983  1.00  0.00     0.029 A 
ATOM     56  C   UNL A   1      45.345  30.242  30.637  1.00  0.00     0.049 A 
ATOM     57  H   UNL A   1      44.525  28.459  29.860  1.00  0.00     0.167 HD
ATOM     58  C   UNL A   1      42.929  30.745  30.384  1.00  0.00     0.074 A 
ATOM     59  C   UNL A   1      41.778  31.614  30.499  1.00  0.00     0.031 C 
ATOM     60  C   UNL A   1      44.191  31.100  30.726  1.00  0.00     0.037 A 
BRANCH  47  61
ATOM     61  C   UNL A   1      48.376  26.623  29.928  1.00  0.00     0.057 A 
ATOM     62  C   UNL A   1      49.330  26.865  28.929  1.00  0.00     0.134 A 
ATOM     63  C   UNL A   1      48.807  25.959  31.083  1.00  0.00     0.134 A 
ATOM     64  F   UNL A   1      48.979  27.484  27.792  1.00  0.00    -0.206 F 
ATOM     65  C   UNL A   1      50.651  26.434  29.059  1.00  0.00     0.040 A 
ATOM     66  C   UNL A   1      50.133  25.549  31.238  1.00  0.00     0.040 A 
ATOM     67  F   UNL A   1      47.949  25.700  32.081  1.00  0.00    -0.206 F 
ATOM     68  C   UNL A   1      51.057  25.779  30.220  1.00  0.00     0.006 A 
ENDBRANCH  47  61
BRANCH  48  69
ATOM     69  C   UNL A   1      38.740  29.085  29.044  1.00  0.00     0.057 A 
ATOM     70  C   UNL A   1      38.210  29.565  27.840  1.00  0.00     0.134 A 
ATOM     71  C   UNL A   1      37.872  28.984  30.136  1.00  0.00     0.134 A 
ATOM     72  F   UNL A   1      38.997  29.702  26.762  1.00  0.00    -0.206 F 
ATOM     73  C   UNL A   1      36.874  29.953  27.732  1.00  0.00     0.040 A 
ATOM     74  C   UNL A   1      36.527  29.345  30.036  1.00  0.00     0.040 A 
ATOM     75  F   UNL A   1      38.316  28.523  31.315  1.00  0.00    -0.206 F 
ATOM     76  C   UNL A   1      36.027  29.840  28.832  1.00  0.00     0.006 A 
ENDBRANCH  48  69
BRANCH  60  77
ATOM     77  C   UNL A   1      44.403  32.507  31.204  1.00  0.00     0.057 A 
ATOM     78  C   UNL A   1      44.359  32.845  32.562  1.00  0.00     0.134 A 
ATOM     79  C   UNL A   1      44.695  33.528  30.291  1.00  0.00     0.134 A 
ATOM     80  F   UNL A   1      44.072  31.915  33.486  1.00  0.00    -0.206 F 
ATOM     81  C   UNL A   1      44.573  34.155  32.994  1.00  0.00     0.040 A 
ATOM     82  C   UNL A   1      44.938  34.837  30.712  1.00  0.00     0.040 A 
ATOM     83  F   UNL A   1      44.763  33.270  28.976  1.00  0.00    -0.206 F 
ATOM     84  C   UNL A   1      44.871  35.153  32.067  1.00  0.00     0.006 A 
ENDBRANCH  60  77
ENDBRANCH  34  35
ENDBRANCH  26  29
ENDBRANCH  24  25
ENDBRANCH   1  24
TORSDOF 12
ENDMDL
MODEL 3
REMARK VINA RESULT:     -11.7      3.056      8.240
REMARK SMILES C[C@@H]1CC[C@H]([N@@H+]2[C@@H](C(=O)NCCCCNC(=O)c3ccc(-c4c5nc(c(-c6c(F)cccc6F)c6ccc([nH]6)c(-c6c(F)cccc6F)c6nc(c(-c7c(F)cccc7F)c7ccc4[nH]7)C=C6)C=C5)cc3)C[C@H]3CCCC[C@H]32)C1
REMARK SMILES IDX 13 1 12 2 11 3 10 4 8 5 9 6 7 8 6 9 78 10 72 12 73 13 77 14
REMARK SMILES IDX 74 15 76 16 75 17 5 18 1 19 2 20 3 21 79 22 4 23 14 24 15 25
REMARK SMILES IDX 16 26 17 28 18 29 19 30 71 31 20 32 70 33 21 34 22 35 23 36
REMARK SMILES IDX 64 37 24 38 69 39 63 40 65 41 25 42 68 43 62 44 61 45 26 47
REMARK SMILES IDX 52 48 35 49 51 50 36 51 39 52 50 53 66 54 37 55 38 56 49 58
REMARK SMILES IDX 67 59 40 60 27 61 28 62 33 63 29 64 30 65 32 66 34 67 31 68
REMARK SMILES IDX 53 69 54 70 59 71 55 72 56 73 58 74 60 75 57 76 41 77 42 78
REMARK SMILES IDX 47 79 43 80 44 81 46 82 48 83 45 84
REMARK H PARENT 10 7 6 11 15 27 65 46 39 57
REMARK Flexibility Score: inf
ROOT
ATOM      1  C   UNL A   1      36.526  23.401  23.941  1.00  0.00     0.023 C 
ENDROOT
BRANCH   1   2
ATOM      2  C   UNL A   1      35.001  23.430  23.918  1.00  0.00     0.023 C 
BRANCH   2   3
ATOM      3  C   UNL A   1      34.369  24.813  23.866  1.00  0.00     0.116 C 
BRANCH   3   4
ATOM      4  N   UNL A   1      33.377  24.958  22.822  1.00  0.00    -0.351 N 
ATOM      5  C   UNL A   1      32.555  26.020  22.545  1.00  0.00     0.278 C 
ATOM      6  O   UNL A   1      31.821  25.900  21.561  1.00  0.00    -0.268 OA
ATOM      7  H   UNL A   1      33.278  24.182  22.224  1.00  0.00     0.163 HD
BRANCH   5   8
ATOM      8  C   UNL A   1      32.524  27.244  23.504  1.00  0.00     0.275 C 
ATOM      9  N   UNL A   1      31.665  26.953  24.691  1.00  0.00    -0.320 N 
ATOM     10  C   UNL A   1      30.434  27.737  24.545  1.00  0.00     0.188 C 
ATOM     11  H   UNL A   1      31.374  25.976  24.723  1.00  0.00     0.349 HD
ATOM     12  C   UNL A   1      31.923  28.517  22.881  1.00  0.00     0.085 C 
ATOM     13  C   UNL A   1      30.901  29.023  23.885  1.00  0.00     0.054 C 
ATOM     14  C   UNL A   1      29.395  26.979  23.692  1.00  0.00     0.065 C 
ATOM     15  C   UNL A   1      29.795  29.886  23.288  1.00  0.00     0.010 C 
ATOM     16  C   UNL A   1      28.251  27.898  23.271  1.00  0.00     0.006 C 
ATOM     17  C   UNL A   1      28.770  29.096  22.483  1.00  0.00     0.001 C 
BRANCH   9  18
ATOM     18  C   UNL A   1      32.391  27.010  25.972  1.00  0.00     0.185 C 
ATOM     19  C   UNL A   1      31.963  30.259  26.803  1.00  0.00     0.008 C 
ATOM     20  C   UNL A   1      32.471  28.984  27.468  1.00  0.00    -0.008 C 
ATOM     21  C   UNL A   1      33.902  28.652  27.061  1.00  0.00     0.009 C 
ATOM     22  C   UNL A   1      31.672  27.721  27.133  1.00  0.00     0.068 C 
ATOM     23  C   UNL A   1      33.824  27.580  25.979  1.00  0.00     0.065 C 
ENDBRANCH   9  18
ENDBRANCH   5   8
ENDBRANCH   3   4
ENDBRANCH   2   3
ENDBRANCH   1   2
BRANCH   1  24
ATOM     24  C   UNL A   1      37.167  23.529  25.317  1.00  0.00     0.116 C 
BRANCH  24  25
ATOM     25  N   UNL A   1      38.355  22.705  25.481  1.00  0.00    -0.352 N 
ATOM     26  C   UNL A   1      39.545  23.000  26.105  1.00  0.00     0.251 C 
ATOM     27  H   UNL A   1      38.298  21.804  25.088  1.00  0.00     0.163 HD
ATOM     28  O   UNL A   1      40.482  22.214  26.051  1.00  0.00    -0.269 OA
BRANCH  26  29
ATOM     29  C   UNL A   1      39.698  24.289  26.814  1.00  0.00     0.039 A 
ATOM     30  C   UNL A   1      39.137  24.432  28.084  1.00  0.00     0.014 A 
ATOM     31  C   UNL A   1      40.414  25.340  26.237  1.00  0.00     0.014 A 
ATOM     32  C   UNL A   1      39.358  25.605  28.808  1.00  0.00     0.010 A 
ATOM     33  C   UNL A   1      40.707  26.469  26.993  1.00  0.00     0.010 A 
ATOM     34  C   UNL A   1      40.175  26.619  28.283  1.00  0.00    -0.014 A 
BRANCH  34  35
ATOM     35  C   UNL A   1      40.468  27.854  29.052  1.00  0.00     0.031 A 
ATOM     36  C   UNL A   1      41.774  27.984  29.789  1.00  0.00     0.074 A 
ATOM     37  C   UNL A   1      39.540  28.825  29.148  1.00  0.00     0.049 A 
ATOM     38  N   UNL A   1      42.187  28.939  30.581  1.00  0.00    -0.248 NA
ATOM     39  C   UNL A   1      42.730  26.874  29.639  1.00  0.00     0.031 C 
ATOM     40  C   UNL A   1      38.215  28.798  28.525  1.00  0.00     0.029 A 
ATOM     41  N   UNL A   1      39.567  30.023  29.818  1.00  0.00    -0.354 N 
ATOM     42  C   UNL A   1      43.435  28.536  31.040  1.00  0.00     0.074 A 
ATOM     43  C   UNL A   1      43.686  27.225  30.484  1.00  0.00     0.031 C 
ATOM     44  C   UNL A   1      37.567  29.937  28.821  1.00  0.00     0.029 A 
ATOM     45  C   UNL A   1      38.413  30.757  29.681  1.00  0.00     0.049 A 
ATOM     46  H   UNL A   1      40.340  30.328  30.346  1.00  0.00     0.167 HD
ATOM     47  C   UNL A   1      44.307  29.207  31.829  1.00  0.00     0.037 A 
ATOM     48  C   UNL A   1      38.077  31.956  30.195  1.00  0.00     0.037 A 
ATOM     49  C   UNL A   1      44.069  30.526  32.352  1.00  0.00     0.049 A 
ATOM     50  C   UNL A   1      39.067  32.688  31.059  1.00  0.00     0.074 A 
ATOM     51  C   UNL A   1      44.910  31.315  33.116  1.00  0.00     0.029 A 
ATOM     52  N   UNL A   1      42.902  31.251  32.161  1.00  0.00    -0.354 N 
ATOM     53  N   UNL A   1      40.269  32.322  31.432  1.00  0.00    -0.248 NA
ATOM     54  C   UNL A   1      38.656  34.006  31.564  1.00  0.00     0.031 C 
ATOM     55  C   UNL A   1      44.238  32.505  33.418  1.00  0.00     0.029 A 
ATOM     56  C   UNL A   1      42.998  32.476  32.802  1.00  0.00     0.049 A 
ATOM     57  H   UNL A   1      42.122  30.941  31.647  1.00  0.00     0.167 HD
ATOM     58  C   UNL A   1      40.773  33.378  32.183  1.00  0.00     0.074 A 
ATOM     59  C   UNL A   1      39.748  34.400  32.205  1.00  0.00     0.031 C 
ATOM     60  C   UNL A   1      41.975  33.489  32.797  1.00  0.00     0.037 A 
BRANCH  47  61
ATOM     61  C   UNL A   1      45.601  28.524  32.163  1.00  0.00     0.057 A 
ATOM     62  C   UNL A   1      46.740  28.666  31.359  1.00  0.00     0.134 A 
ATOM     63  C   UNL A   1      45.717  27.733  33.313  1.00  0.00     0.134 A 
ATOM     64  F   UNL A   1      46.692  29.399  30.237  1.00  0.00    -0.206 F 
ATOM     65  C   UNL A   1      47.938  28.020  31.668  1.00  0.00     0.040 A 
ATOM     66  C   UNL A   1      46.918  27.106  33.649  1.00  0.00     0.040 A 
ATOM     67  F   UNL A   1      44.667  27.559  34.130  1.00  0.00    -0.206 F 
ATOM     68  C   UNL A   1      48.031  27.242  32.821  1.00  0.00     0.006 A 
ENDBRANCH  47  61
BRANCH  48  69
ATOM     69  C   UNL A   1      36.757  32.559  29.880  1.00  0.00     0.057 A 
ATOM     70  C   UNL A   1      35.635  32.288  30.672  1.00  0.00     0.134 A 
ATOM     71  C   UNL A   1      36.581  33.406  28.780  1.00  0.00     0.134 A 
ATOM     72  F   UNL A   1      35.736  31.469  31.730  1.00  0.00    -0.206 F 
ATOM     73  C   UNL A   1      34.379  32.818  30.369  1.00  0.00     0.040 A 
ATOM     74  C   UNL A   1      35.337  33.963  28.479  1.00  0.00     0.040 A 
ATOM     75  F   UNL A   1      37.619  33.711  27.987  1.00  0.00    -0.206 F 
ATOM     76  C   UNL A   1      34.229  33.662  29.270  1.00  0.00     0.006 A 
ENDBRANCH  48  69
BRANCH  60  77
ATOM     77  C   UNL A   1      42.272  34.784  33.497  1.00  0.00     0.057 A 
ATOM     78  C   UNL A   1      42.962  35.827  32.869  1.00  0.00     0.134 A 
ATOM     79  C   UNL A   1      41.822  35.000  34.806  1.00  0.00     0.134 A 
ATOM     80  F   UNL A   1      43.431  35.678  31.620  1.00  0.00    -0.206 F 
ATOM     81  C   UNL A   1      43.218  37.031  33.527  1.00  0.00     0.040 A 
ATOM     82  C   UNL A   1      42.047  36.209  35.465  1.00  0.00     0.040 A 
ATOM     83  F   UNL A   1      41.145  34.044  35.461  1.00  0.00    -0.206 F 
ATOM     84  C   UNL A   1      42.752  37.227  34.826  1.00  0.00     0.006 A 
ENDBRANCH  60  77
ENDBRANCH  34  35
ENDBRANCH  26  29
ENDBRANCH  24  25
ENDBRANCH   1  24
TORSDOF 12
ENDMDL
