MODEL 1
REMARK VINA RESULT:     -10.4      0.000      0.000
REMARK SMILES COc1ncccc1CS(=O)(=O)[C@H](C)C(=O)NCCCCNC(=O)c1ccc(-c2c3nc(c(-c4c(F)cccc4F)c4ccc([nH]4)c(-c4c(F)cccc4F)c4nc(c(-c5c(F)cccc5F)c5ccc2[nH]5)C=C4)C=C3)cc1
REMARK SMILES IDX 18 1 17 2 15 3 16 4 13 6 14 7 10 8 11 9 12 10 9 11 8 12 3 13
REMARK SMILES IDX 4 14 5 15 7 16 6 17 2 18 1 19 19 20 20 21 21 22 22 23 23 24
REMARK SMILES IDX 24 26 25 27 26 28 78 29 27 30 77 31 28 32 29 33 30 34 71 35
REMARK SMILES IDX 31 36 76 37 70 38 72 39 32 40 75 41 69 42 68 43 33 45 59 46
REMARK SMILES IDX 42 47 58 48 43 49 46 50 57 51 73 52 44 53 45 54 56 56 74 57
REMARK SMILES IDX 47 58 34 59 35 60 40 61 36 62 37 63 39 64 41 65 38 66 60 67
REMARK SMILES IDX 61 68 66 69 62 70 63 71 65 72 67 73 64 74 48 75 49 76 54 77
REMARK SMILES IDX 50 78 51 79 53 80 55 81 52 82
REMARK H PARENT 17 5 22 25 72 44 46 55
REMARK Flexibility Score: inf
ROOT
ATOM      1  C   UNL A   1      35.087  21.734  24.603  1.00  0.00     0.116 C 
ENDROOT
BRANCH   1   2
ATOM      2  N   UNL A   1      33.870  21.081  24.981  1.00  0.00    -0.355 N 
ATOM      3  C   UNL A   1      32.608  21.595  24.989  1.00  0.00     0.238 C 
ATOM      4  O   UNL A   1      31.703  20.810  25.289  1.00  0.00    -0.274 OA
ATOM      5  H   UNL A   1      33.957  20.144  25.271  1.00  0.00     0.163 HD
BRANCH   3   6
ATOM      6  C   UNL A   1      32.314  23.064  24.753  1.00  0.00     0.194 C 
ATOM      7  C   UNL A   1      31.068  23.375  23.943  1.00  0.00     0.035 C 
BRANCH   6   8
ATOM      8  S   UNL A   1      32.728  24.124  26.134  1.00  0.00     0.166 S 
ATOM      9  O   UNL A   1      33.142  23.227  27.202  1.00  0.00    -0.228 OA
ATOM     10  O   UNL A   1      31.562  24.962  26.375  1.00  0.00    -0.228 OA
BRANCH   8  11
ATOM     11  C   UNL A   1      34.071  25.305  25.872  1.00  0.00     0.178 C 
BRANCH  11  12
ATOM     12  C   UNL A   1      33.694  26.691  25.441  1.00  0.00     0.029 A 
ATOM     13  C   UNL A   1      33.295  26.999  24.148  1.00  0.00     0.217 A 
ATOM     14  N   UNL A   1      32.874  28.222  23.755  1.00  0.00    -0.222 NA
ATOM     15  C   UNL A   1      32.935  29.214  24.675  1.00  0.00     0.115 A 
ATOM     16  C   UNL A   1      33.872  27.776  26.310  1.00  0.00     0.012 A 
ATOM     17  C   UNL A   1      33.460  29.051  25.943  1.00  0.00     0.021 A 
BRANCH  13  18
ATOM     18  O   UNL A   1      33.646  26.090  23.180  1.00  0.00    -0.481 OA
ATOM     19  C   UNL A   1      33.243  26.477  21.877  1.00  0.00     0.280 C 
ENDBRANCH  13  18
ENDBRANCH  11  12
ENDBRANCH   8  11
ENDBRANCH   6   8
ENDBRANCH   3   6
ENDBRANCH   1   2
BRANCH   1  20
ATOM     20  C   UNL A   1      36.243  21.513  25.566  1.00  0.00     0.023 C 
BRANCH  20  21
ATOM     21  C   UNL A   1      37.457  20.832  24.946  1.00  0.00     0.023 C 
BRANCH  21  22
ATOM     22  C   UNL A   1      38.759  20.959  25.730  1.00  0.00     0.116 C 
BRANCH  22  23
ATOM     23  N   UNL A   1      39.657  19.819  25.606  1.00  0.00    -0.352 N 
ATOM     24  C   UNL A   1      40.976  19.731  25.996  1.00  0.00     0.251 C 
ATOM     25  H   UNL A   1      39.276  19.012  25.192  1.00  0.00     0.163 HD
ATOM     26  O   UNL A   1      41.616  18.702  25.802  1.00  0.00    -0.269 OA
BRANCH  24  27
ATOM     27  C   UNL A   1      41.623  20.925  26.575  1.00  0.00     0.039 A 
ATOM     28  C   UNL A   1      42.200  21.860  25.713  1.00  0.00     0.014 A 
ATOM     29  C   UNL A   1      41.528  21.185  27.944  1.00  0.00     0.014 A 
ATOM     30  C   UNL A   1      42.584  23.105  26.209  1.00  0.00     0.010 A 
ATOM     31  C   UNL A   1      41.826  22.456  28.418  1.00  0.00     0.010 A 
ATOM     32  C   UNL A   1      42.345  23.434  27.553  1.00  0.00    -0.014 A 
BRANCH  32  33
ATOM     33  C   UNL A   1      42.618  24.796  28.079  1.00  0.00     0.031 A 
ATOM     34  C   UNL A   1      44.006  25.163  28.523  1.00  0.00     0.074 A 
ATOM     35  C   UNL A   1      41.603  25.670  28.241  1.00  0.00     0.049 A 
ATOM     36  N   UNL A   1      44.427  26.256  29.103  1.00  0.00    -0.248 NA
ATOM     37  C   UNL A   1      45.051  24.146  28.325  1.00  0.00     0.031 C 
ATOM     38  C   UNL A   1      40.198  25.413  27.914  1.00  0.00     0.029 A 
ATOM     39  N   UNL A   1      41.599  26.950  28.734  1.00  0.00    -0.354 N 
ATOM     40  C   UNL A   1      45.774  26.047  29.365  1.00  0.00     0.074 A 
ATOM     41  C   UNL A   1      46.086  24.702  28.931  1.00  0.00     0.031 C 
ATOM     42  C   UNL A   1      39.475  26.512  28.187  1.00  0.00     0.029 A 
ATOM     43  C   UNL A   1      40.356  27.537  28.737  1.00  0.00     0.049 A 
ATOM     44  H   UNL A   1      42.409  27.406  29.055  1.00  0.00     0.167 HD
ATOM     45  C   UNL A   1      46.678  26.904  29.894  1.00  0.00     0.037 A 
ATOM     46  C   UNL A   1      39.972  28.765  29.135  1.00  0.00     0.037 A 
ATOM     47  C   UNL A   1      46.378  28.257  30.281  1.00  0.00     0.049 A 
ATOM     48  C   UNL A   1      41.006  29.720  29.666  1.00  0.00     0.074 A 
ATOM     49  C   UNL A   1      47.236  29.225  30.771  1.00  0.00     0.029 A 
ATOM     50  N   UNL A   1      45.120  28.835  30.204  1.00  0.00    -0.354 N 
ATOM     51  N   UNL A   1      42.288  29.528  29.852  1.00  0.00    -0.248 NA
ATOM     52  C   UNL A   1      40.539  31.066  30.031  1.00  0.00     0.031 C 
ATOM     53  C   UNL A   1      46.491  30.385  31.011  1.00  0.00     0.029 A 
ATOM     54  C   UNL A   1      45.178  30.148  30.638  1.00  0.00     0.049 A 
ATOM     55  H   UNL A   1      44.307  28.379  29.889  1.00  0.00     0.167 HD
ATOM     56  C   UNL A   1      42.789  30.735  30.322  1.00  0.00     0.074 A 
ATOM     57  C   UNL A   1      41.672  31.656  30.385  1.00  0.00     0.031 C 
ATOM     58  C   UNL A   1      44.060  31.055  30.669  1.00  0.00     0.037 A 
BRANCH  45  59
ATOM     59  C   UNL A   1      48.079  26.400  30.069  1.00  0.00     0.057 A 
ATOM     60  C   UNL A   1      49.047  26.553  29.067  1.00  0.00     0.134 A 
ATOM     61  C   UNL A   1      48.469  25.759  31.252  1.00  0.00     0.134 A 
ATOM     62  F   UNL A   1      48.733  27.141  27.903  1.00  0.00    -0.206 F 
ATOM     63  C   UNL A   1      50.344  26.058  29.222  1.00  0.00     0.040 A 
ATOM     64  C   UNL A   1      49.770  25.284  31.429  1.00  0.00     0.040 A 
ATOM     65  F   UNL A   1      47.593  25.582  32.252  1.00  0.00    -0.206 F 
ATOM     66  C   UNL A   1      50.708  25.426  30.409  1.00  0.00     0.006 A 
ENDBRANCH  45  59
BRANCH  46  67
ATOM     67  C   UNL A   1      38.556  29.186  28.999  1.00  0.00     0.057 A 
ATOM     68  C   UNL A   1      37.683  29.130  30.092  1.00  0.00     0.134 A 
ATOM     69  C   UNL A   1      38.036  29.639  27.781  1.00  0.00     0.134 A 
ATOM     70  F   UNL A   1      38.119  28.688  31.281  1.00  0.00    -0.206 F 
ATOM     71  C   UNL A   1      36.339  29.490  29.976  1.00  0.00     0.040 A 
ATOM     72  C   UNL A   1      36.700  30.022  27.655  1.00  0.00     0.040 A 
ATOM     73  F   UNL A   1      38.824  29.724  26.699  1.00  0.00    -0.206 F 
ATOM     74  C   UNL A   1      35.845  29.940  28.753  1.00  0.00     0.006 A 
ENDBRANCH  46  67
BRANCH  58  75
ATOM     75  C   UNL A   1      44.319  32.467  31.094  1.00  0.00     0.057 A 
ATOM     76  C   UNL A   1      44.641  33.471  30.173  1.00  0.00     0.134 A 
ATOM     77  C   UNL A   1      44.207  32.833  32.442  1.00  0.00     0.134 A 
ATOM     78  F   UNL A   1      44.775  33.180  28.870  1.00  0.00    -0.206 F 
ATOM     79  C   UNL A   1      44.862  34.787  30.580  1.00  0.00     0.040 A 
ATOM     80  C   UNL A   1      44.405  34.150  32.857  1.00  0.00     0.040 A 
ATOM     81  F   UNL A   1      43.895  31.918  33.373  1.00  0.00    -0.206 F 
ATOM     82  C   UNL A   1      44.737  35.131  31.926  1.00  0.00     0.006 A 
ENDBRANCH  58  75
ENDBRANCH  32  33
ENDBRANCH  24  27
ENDBRANCH  22  23
ENDBRANCH  21  22
ENDBRANCH  20  21
ENDBRANCH   1  20
TORSDOF 15
ENDMDL
MODEL 2
REMARK VINA RESULT:     -10.3      1.902      7.509
REMARK SMILES COc1ncccc1CS(=O)(=O)[C@H](C)C(=O)NCCCCNC(=O)c1ccc(-c2c3nc(c(-c4c(F)cccc4F)c4ccc([nH]4)c(-c4c(F)cccc4F)c4nc(c(-c5c(F)cccc5F)c5ccc2[nH]5)C=C4)C=C3)cc1
REMARK SMILES IDX 18 1 17 2 15 3 16 4 13 6 14 7 10 8 11 9 12 10 9 11 8 12 3 13
REMARK SMILES IDX 4 14 5 15 7 16 6 17 2 18 1 19 19 20 20 21 21 22 22 23 23 24
REMARK SMILES IDX 24 26 25 27 26 28 78 29 27 30 77 31 28 32 29 33 30 34 71 35
REMARK SMILES IDX 31 36 76 37 70 38 72 39 32 40 75 41 69 42 68 43 33 45 59 46
REMARK SMILES IDX 42 47 58 48 43 49 46 50 57 51 73 52 44 53 45 54 56 56 74 57
REMARK SMILES IDX 47 58 34 59 35 60 40 61 36 62 37 63 39 64 41 65 38 66 60 67
REMARK SMILES IDX 61 68 66 69 62 70 63 71 65 72 67 73 64 74 48 75 49 76 54 77
REMARK SMILES IDX 50 78 51 79 53 80 55 81 52 82
REMARK H PARENT 17 5 22 25 72 44 46 55
REMARK Flexibility Score: inf
ROOT
ATOM      1  C   UNL A   1      31.484  28.311  24.714  1.00  0.00     0.116 C 
ENDROOT
BRANCH   1   2
ATOM      2  N   UNL A   1      31.344  28.061  23.311  1.00  0.00    -0.355 N 
ATOM      3  C   UNL A   1      31.351  26.861  22.667  1.00  0.00     0.238 C 
ATOM      4  O   UNL A   1      31.140  26.895  21.450  1.00  0.00    -0.274 OA
ATOM      5  H   UNL A   1      31.229  28.856  22.741  1.00  0.00     0.163 HD
BRANCH   3   6
ATOM      6  C   UNL A   1      31.701  25.556  23.357  1.00  0.00     0.194 C 
ATOM      7  C   UNL A   1      30.617  24.493  23.366  1.00  0.00     0.035 C 
BRANCH   6   8
ATOM      8  S   UNL A   1      33.403  25.047  23.140  1.00  0.00     0.166 S 
ATOM      9  O   UNL A   1      34.067  25.365  24.394  1.00  0.00    -0.228 OA
ATOM     10  O   UNL A   1      33.882  25.715  21.938  1.00  0.00    -0.228 OA
BRANCH   8  11
ATOM     11  C   UNL A   1      33.685  23.293  22.809  1.00  0.00     0.178 C 
BRANCH  11  12
ATOM     12  C   UNL A   1      34.753  22.605  23.605  1.00  0.00     0.029 A 
ATOM     13  C   UNL A   1      34.476  21.758  24.669  1.00  0.00     0.217 A 
ATOM     14  N   UNL A   1      35.416  21.065  25.351  1.00  0.00    -0.222 NA
ATOM     15  C   UNL A   1      36.707  21.291  25.014  1.00  0.00     0.115 A 
ATOM     16  C   UNL A   1      36.105  22.910  23.391  1.00  0.00     0.012 A 
ATOM     17  C   UNL A   1      37.101  22.227  24.076  1.00  0.00     0.021 A 
BRANCH  13  18
ATOM     18  O   UNL A   1      33.230  21.889  25.230  1.00  0.00    -0.481 OA
ATOM     19  C   UNL A   1      33.232  22.643  26.431  1.00  0.00     0.280 C 
ENDBRANCH  13  18
ENDBRANCH  11  12
ENDBRANCH   8  11
ENDBRANCH   6   8
ENDBRANCH   3   6
ENDBRANCH   1   2
BRANCH   1  20
ATOM     20  C   UNL A   1      32.518  29.371  25.063  1.00  0.00     0.023 C 
BRANCH  20  21
ATOM     21  C   UNL A   1      33.726  28.845  25.827  1.00  0.00     0.023 C 
BRANCH  21  22
ATOM     22  C   UNL A   1      33.628  28.913  27.347  1.00  0.00     0.116 C 
BRANCH  22  23
ATOM     23  N   UNL A   1      33.742  30.254  27.904  1.00  0.00    -0.352 N 
ATOM     24  C   UNL A   1      34.861  30.864  28.427  1.00  0.00     0.251 C 
ATOM     25  H   UNL A   1      32.917  30.790  27.910  1.00  0.00     0.163 HD
ATOM     26  O   UNL A   1      34.795  32.000  28.886  1.00  0.00    -0.269 OA
BRANCH  24  27
ATOM     27  C   UNL A   1      36.119  30.093  28.496  1.00  0.00     0.039 A 
ATOM     28  C   UNL A   1      36.988  30.129  27.404  1.00  0.00     0.014 A 
ATOM     29  C   UNL A   1      36.497  29.465  29.685  1.00  0.00     0.014 A 
ATOM     30  C   UNL A   1      38.282  29.628  27.541  1.00  0.00     0.010 A 
ATOM     31  C   UNL A   1      37.813  29.051  29.847  1.00  0.00     0.010 A 
ATOM     32  C   UNL A   1      38.723  29.139  28.781  1.00  0.00    -0.014 A 
BRANCH  32  33
ATOM     33  C   UNL A   1      40.133  28.725  28.995  1.00  0.00     0.031 A 
ATOM     34  C   UNL A   1      41.110  29.687  29.610  1.00  0.00     0.074 A 
ATOM     35  C   UNL A   1      40.554  27.520  28.558  1.00  0.00     0.049 A 
ATOM     36  N   UNL A   1      42.399  29.557  29.787  1.00  0.00    -0.248 NA
ATOM     37  C   UNL A   1      40.570  30.984  30.047  1.00  0.00     0.031 C 
ATOM     38  C   UNL A   1      39.722  26.521  27.882  1.00  0.00     0.029 A 
ATOM     39  N   UNL A   1      41.796  26.938  28.607  1.00  0.00    -0.354 N 
ATOM     40  C   UNL A   1      42.827  30.763  30.325  1.00  0.00     0.074 A 
ATOM     41  C   UNL A   1      41.671  31.631  30.394  1.00  0.00     0.031 C 
ATOM     42  C   UNL A   1      40.469  25.439  27.608  1.00  0.00     0.029 A 
ATOM     43  C   UNL A   1      41.837  25.679  28.057  1.00  0.00     0.049 A 
ATOM     44  H   UNL A   1      42.582  27.380  28.998  1.00  0.00     0.167 HD
ATOM     45  C   UNL A   1      44.065  31.111  30.749  1.00  0.00     0.037 A 
ATOM     46  C   UNL A   1      42.862  24.814  27.935  1.00  0.00     0.037 A 
ATOM     47  C   UNL A   1      45.203  30.232  30.724  1.00  0.00     0.049 A 
ATOM     48  C   UNL A   1      44.216  25.201  28.465  1.00  0.00     0.074 A 
ATOM     49  C   UNL A   1      46.486  30.467  31.185  1.00  0.00     0.029 A 
ATOM     50  N   UNL A   1      45.186  28.939  30.222  1.00  0.00    -0.354 N 
ATOM     51  N   UNL A   1      44.592  26.324  29.027  1.00  0.00    -0.248 NA
ATOM     52  C   UNL A   1      45.283  24.196  28.356  1.00  0.00     0.031 C 
ATOM     53  C   UNL A   1      47.253  29.322  30.942  1.00  0.00     0.029 A 
ATOM     54  C   UNL A   1      46.437  28.364  30.362  1.00  0.00     0.049 A 
ATOM     55  H   UNL A   1      44.402  28.497  29.825  1.00  0.00     0.167 HD
ATOM     56  C   UNL A   1      45.926  26.149  29.368  1.00  0.00     0.074 A 
ATOM     57  C   UNL A   1      46.292  24.809  28.958  1.00  0.00     0.031 C 
ATOM     58  C   UNL A   1      46.774  27.020  29.969  1.00  0.00     0.037 A 
BRANCH  45  59
ATOM     59  C   UNL A   1      44.239  32.499  31.288  1.00  0.00     0.057 A 
ATOM     60  C   UNL A   1      44.602  33.571  30.460  1.00  0.00     0.134 A 
ATOM     61  C   UNL A   1      44.038  32.771  32.647  1.00  0.00     0.134 A 
ATOM     62  F   UNL A   1      44.827  33.373  29.153  1.00  0.00    -0.206 F 
ATOM     63  C   UNL A   1      44.790  34.857  30.970  1.00  0.00     0.040 A 
ATOM     64  C   UNL A   1      44.197  34.058  33.164  1.00  0.00     0.040 A 
ATOM     65  F   UNL A   1      43.687  31.792  33.493  1.00  0.00    -0.206 F 
ATOM     66  C   UNL A   1      44.583  35.103  32.326  1.00  0.00     0.006 A 
ENDBRANCH  45  59
BRANCH  46  67
ATOM     67  C   UNL A   1      42.643  23.477  27.331  1.00  0.00     0.057 A 
ATOM     68  C   UNL A   1      42.294  22.379  28.126  1.00  0.00     0.134 A 
ATOM     69  C   UNL A   1      42.787  23.258  25.956  1.00  0.00     0.134 A 
ATOM     70  F   UNL A   1      42.160  22.523  29.453  1.00  0.00    -0.206 F 
ATOM     71  C   UNL A   1      42.117  21.106  27.581  1.00  0.00     0.040 A 
ATOM     72  C   UNL A   1      42.592  21.996  25.394  1.00  0.00     0.040 A 
ATOM     73  F   UNL A   1      43.110  24.272  25.140  1.00  0.00    -0.206 F 
ATOM     74  C   UNL A   1      42.264  20.913  26.208  1.00  0.00     0.006 A 
ENDBRANCH  46  67
BRANCH  58  75
ATOM     75  C   UNL A   1      48.158  26.532  30.268  1.00  0.00     0.057 A 
ATOM     76  C   UNL A   1      49.226  26.747  29.388  1.00  0.00     0.134 A 
ATOM     77  C   UNL A   1      48.432  25.872  31.473  1.00  0.00     0.134 A 
ATOM     78  F   UNL A   1      49.024  27.362  28.213  1.00  0.00    -0.206 F 
ATOM     79  C   UNL A   1      50.514  26.304  29.687  1.00  0.00     0.040 A 
ATOM     80  C   UNL A   1      49.720  25.443  31.791  1.00  0.00     0.040 A 
ATOM     81  F   UNL A   1      47.453  25.641  32.361  1.00  0.00    -0.206 F 
ATOM     82  C   UNL A   1      50.765  25.655  30.896  1.00  0.00     0.006 A 
ENDBRANCH  58  75
ENDBRANCH  32  33
ENDBRANCH  24  27
ENDBRANCH  22  23
ENDBRANCH  21  22
ENDBRANCH  20  21
ENDBRANCH   1  20
TORSDOF 15
ENDMDL
MODEL 3
REMARK VINA RESULT:     -10.3      4.084      9.126
REMARK SMILES COc1ncccc1CS(=O)(=O)[C@H](C)C(=O)NCCCCNC(=O)c1ccc(-c2c3nc(c(-c4c(F)cccc4F)c4ccc([nH]4)c(-c4c(F)cccc4F)c4nc(c(-c5c(F)cccc5F)c5ccc2[nH]5)C=C4)C=C3)cc1
REMARK SMILES IDX 18 1 17 2 15 3 16 4 13 6 14 7 10 8 11 9 12 10 9 11 8 12 3 13
REMARK SMILES IDX 4 14 5 15 7 16 6 17 2 18 1 19 19 20 20 21 21 22 22 23 23 24
REMARK SMILES IDX 24 26 25 27 26 28 78 29 27 30 77 31 28 32 29 33 30 34 71 35
REMARK SMILES IDX 31 36 76 37 70 38 72 39 32 40 75 41 69 42 68 43 33 45 59 46
REMARK SMILES IDX 42 47 58 48 43 49 46 50 57 51 73 52 44 53 45 54 56 56 74 57
REMARK SMILES IDX 47 58 34 59 35 60 40 61 36 62 37 63 39 64 41 65 38 66 60 67
REMARK SMILES IDX 61 68 66 69 62 70 63 71 65 72 67 73 64 74 48 75 49 76 54 77
REMARK SMILES IDX 50 78 51 79 53 80 55 81 52 82
REMARK H PARENT 17 5 22 25 72 44 46 55
REMARK Flexibility Score: inf
ROOT
ATOM      1  C   UNL A   1      32.705  30.025  25.938  1.00  0.00     0.116 C 
ENDROOT
BRANCH   1   2
ATOM      2  N   UNL A   1      33.257  29.752  24.645  1.00  0.00    -0.355 N 
ATOM      3  C   UNL A   1      33.251  28.575  23.960  1.00  0.00     0.238 C 
ATOM      4  O   UNL A   1      33.731  28.604  22.822  1.00  0.00    -0.274 OA
ATOM      5  H   UNL A   1      33.696  30.511  24.195  1.00  0.00     0.163 HD
BRANCH   3   6
ATOM      6  C   UNL A   1      32.788  27.266  24.572  1.00  0.00     0.194 C 
ATOM      7  C   UNL A   1      33.554  26.791  25.794  1.00  0.00     0.035 C 
BRANCH   6   8
ATOM      8  S   UNL A   1      31.016  27.022  24.520  1.00  0.00     0.166 S 
ATOM      9  O   UNL A   1      30.472  28.240  23.940  1.00  0.00    -0.228 OA
ATOM     10  O   UNL A   1      30.606  26.682  25.876  1.00  0.00    -0.228 OA
BRANCH   8  11
ATOM     11  C   UNL A   1      30.420  25.637  23.522  1.00  0.00     0.178 C 
BRANCH  11  12
ATOM     12  C   UNL A   1      31.423  24.598  23.120  1.00  0.00     0.029 A 
ATOM     13  C   UNL A   1      32.396  24.818  22.156  1.00  0.00     0.217 A 
ATOM     14  N   UNL A   1      33.359  23.926  21.832  1.00  0.00    -0.222 NA
ATOM     15  C   UNL A   1      33.302  22.718  22.439  1.00  0.00     0.115 A 
ATOM     16  C   UNL A   1      31.323  23.289  23.612  1.00  0.00     0.012 A 
ATOM     17  C   UNL A   1      32.287  22.340  23.299  1.00  0.00     0.021 A 
BRANCH  13  18
ATOM     18  O   UNL A   1      32.159  25.860  21.293  1.00  0.00    -0.481 OA
ATOM     19  C   UNL A   1      32.501  25.564  19.949  1.00  0.00     0.280 C 
ENDBRANCH  13  18
ENDBRANCH  11  12
ENDBRANCH   8  11
ENDBRANCH   6   8
ENDBRANCH   3   6
ENDBRANCH   1   2
BRANCH   1  20
ATOM     20  C   UNL A   1      31.376  30.764  25.909  1.00  0.00     0.023 C 
BRANCH  20  21
ATOM     21  C   UNL A   1      31.305  31.967  26.841  1.00  0.00     0.023 C 
BRANCH  21  22
ATOM     22  C   UNL A   1      32.442  32.974  26.708  1.00  0.00     0.116 C 
BRANCH  22  23
ATOM     23  N   UNL A   1      32.360  34.107  27.621  1.00  0.00    -0.352 N 
ATOM     24  C   UNL A   1      33.253  34.471  28.605  1.00  0.00     0.251 C 
ATOM     25  H   UNL A   1      31.569  34.684  27.523  1.00  0.00     0.163 HD
ATOM     26  O   UNL A   1      33.033  35.447  29.316  1.00  0.00    -0.269 OA
BRANCH  24  27
ATOM     27  C   UNL A   1      34.435  33.617  28.838  1.00  0.00     0.039 A 
ATOM     28  C   UNL A   1      35.702  34.202  28.804  1.00  0.00     0.014 A 
ATOM     29  C   UNL A   1      34.277  32.286  29.230  1.00  0.00     0.014 A 
ATOM     30  C   UNL A   1      36.802  33.482  29.269  1.00  0.00     0.010 A 
ATOM     31  C   UNL A   1      35.356  31.605  29.777  1.00  0.00     0.010 A 
ATOM     32  C   UNL A   1      36.628  32.200  29.814  1.00  0.00    -0.014 A 
BRANCH  32  33
ATOM     33  C   UNL A   1      37.755  31.463  30.440  1.00  0.00     0.031 A 
ATOM     34  C   UNL A   1      38.132  31.745  31.867  1.00  0.00     0.074 A 
ATOM     35  C   UNL A   1      38.493  30.609  29.702  1.00  0.00     0.049 A 
ATOM     36  N   UNL A   1      39.141  31.288  32.562  1.00  0.00    -0.248 NA
ATOM     37  C   UNL A   1      37.283  32.701  32.596  1.00  0.00     0.031 C 
ATOM     38  C   UNL A   1      38.275  30.299  28.287  1.00  0.00     0.029 A 
ATOM     39  N   UNL A   1      39.587  29.853  30.041  1.00  0.00    -0.354 N 
ATOM     40  C   UNL A   1      39.065  31.922  33.795  1.00  0.00     0.074 A 
ATOM     41  C   UNL A   1      37.946  32.836  33.734  1.00  0.00     0.031 C 
ATOM     42  C   UNL A   1      39.186  29.395  27.889  1.00  0.00     0.029 A 
ATOM     43  C   UNL A   1      40.071  29.087  29.007  1.00  0.00     0.049 A 
ATOM     44  H   UNL A   1      39.987  29.858  30.940  1.00  0.00     0.167 HD
ATOM     45  C   UNL A   1      39.841  31.743  34.890  1.00  0.00     0.037 A 
ATOM     46  C   UNL A   1      41.109  28.229  28.969  1.00  0.00     0.037 A 
ATOM     47  C   UNL A   1      40.924  30.799  34.966  1.00  0.00     0.049 A 
ATOM     48  C   UNL A   1      41.920  28.003  30.215  1.00  0.00     0.074 A 
ATOM     49  C   UNL A   1      41.732  30.498  36.048  1.00  0.00     0.029 A 
ATOM     50  N   UNL A   1      41.339  29.993  33.917  1.00  0.00    -0.354 N 
ATOM     51  N   UNL A   1      41.799  28.566  31.392  1.00  0.00    -0.248 NA
ATOM     52  C   UNL A   1      43.004  27.014  30.130  1.00  0.00     0.031 C 
ATOM     53  C   UNL A   1      42.651  29.522  35.646  1.00  0.00     0.029 A 
ATOM     54  C   UNL A   1      42.391  29.193  34.326  1.00  0.00     0.049 A 
ATOM     55  H   UNL A   1      40.943  29.990  33.016  1.00  0.00     0.167 HD
ATOM     56  C   UNL A   1      42.765  27.977  32.196  1.00  0.00     0.074 A 
ATOM     57  C   UNL A   1      43.460  27.007  31.374  1.00  0.00     0.031 C 
ATOM     58  C   UNL A   1      43.052  28.216  33.499  1.00  0.00     0.037 A 
BRANCH  45  59
ATOM     59  C   UNL A   1      39.528  32.578  36.095  1.00  0.00     0.057 A 
ATOM     60  C   UNL A   1      38.592  32.166  37.054  1.00  0.00     0.134 A 
ATOM     61  C   UNL A   1      40.171  33.805  36.305  1.00  0.00     0.134 A 
ATOM     62  F   UNL A   1      37.929  31.009  36.902  1.00  0.00    -0.206 F 
ATOM     63  C   UNL A   1      38.283  32.958  38.161  1.00  0.00     0.040 A 
ATOM     64  C   UNL A   1      39.890  34.593  37.422  1.00  0.00     0.040 A 
ATOM     65  F   UNL A   1      41.079  34.256  35.427  1.00  0.00    -0.206 F 
ATOM     66  C   UNL A   1      38.938  34.174  38.349  1.00  0.00     0.006 A 
ENDBRANCH  45  59
BRANCH  46  67
ATOM     67  C   UNL A   1      41.412  27.479  27.725  1.00  0.00     0.057 A 
ATOM     68  C   UNL A   1      42.218  28.039  26.728  1.00  0.00     0.134 A 
ATOM     69  C   UNL A   1      40.899  26.197  27.496  1.00  0.00     0.134 A 
ATOM     70  F   UNL A   1      42.724  29.272  26.883  1.00  0.00    -0.206 F 
ATOM     71  C   UNL A   1      42.487  27.363  25.537  1.00  0.00     0.040 A 
ATOM     72  C   UNL A   1      41.177  25.500  26.319  1.00  0.00     0.040 A 
ATOM     73  F   UNL A   1      40.127  25.602  28.417  1.00  0.00    -0.206 F 
ATOM     74  C   UNL A   1      41.967  26.086  25.332  1.00  0.00     0.006 A 
ENDBRANCH  46  67
BRANCH  58  75
ATOM     75  C   UNL A   1      44.123  27.380  34.129  1.00  0.00     0.057 A 
ATOM     76  C   UNL A   1      43.846  26.139  34.715  1.00  0.00     0.134 A 
ATOM     77  C   UNL A   1      45.457  27.808  34.113  1.00  0.00     0.134 A 
ATOM     78  F   UNL A   1      42.587  25.681  34.772  1.00  0.00    -0.206 F 
ATOM     79  C   UNL A   1      44.856  25.361  35.282  1.00  0.00     0.040 A 
ATOM     80  C   UNL A   1      46.478  27.029  34.658  1.00  0.00     0.040 A 
ATOM     81  F   UNL A   1      45.788  28.985  33.561  1.00  0.00    -0.206 F 
ATOM     82  C   UNL A   1      46.179  25.804  35.248  1.00  0.00     0.006 A 
ENDBRANCH  58  75
ENDBRANCH  32  33
ENDBRANCH  24  27
ENDBRANCH  22  23
ENDBRANCH  21  22
ENDBRANCH  20  21
ENDBRANCH   1  20
TORSDOF 15
ENDMDL
