MODEL 1
REMARK VINA RESULT:     -12.8      0.000      0.000
REMARK SMILES CC(=O)Nc1cccc(C(=O)N2CCCC[C@@H]2C(=O)NCCCCNC(=O)c2ccc(-c3c4nc(c(-c5c(F)cccc5F)c5ccc([nH]5)c(-c5c(F)cccc5F)c5nc(c(-c6c(F)cccc6F)c6ccc3[nH]6)C=C5)C=C4)cc2)c1
REMARK SMILES IDX 22 1 21 2 20 3 18 4 19 5 17 7 12 8 13 9 14 10 16 11 15 12
REMARK SMILES IDX 10 13 11 14 9 15 5 16 6 17 82 18 7 19 8 20 4 21 1 22 2 23
REMARK SMILES IDX 3 24 23 26 24 27 25 28 26 29 27 31 28 32 29 33 81 34 30 35
REMARK SMILES IDX 80 36 31 37 32 38 33 39 74 40 34 41 79 42 73 43 75 44 35 45
REMARK SMILES IDX 78 46 72 47 71 48 36 50 62 51 45 52 61 53 46 54 49 55 60 56
REMARK SMILES IDX 76 57 47 58 48 59 59 61 77 62 50 63 37 64 38 65 43 66 39 67
REMARK SMILES IDX 40 68 42 69 44 70 41 71 63 72 64 73 69 74 65 75 66 76 68 77
REMARK SMILES IDX 70 78 67 79 51 80 52 81 57 82 53 83 54 84 56 85 58 86 55 87
REMARK H PARENT 20 6 4 25 25 30 75 49 49 60
REMARK Flexibility Score: inf
ROOT
ATOM      1  C   UNL A   1      31.179  30.485  25.376  1.00  0.00     0.023 C 
ENDROOT
BRANCH   1   2
ATOM      2  C   UNL A   1      32.526  29.797  25.590  1.00  0.00     0.116 C 
BRANCH   2   3
ATOM      3  N   UNL A   1      33.261  29.694  24.343  1.00  0.00    -0.354 N 
ATOM      4  C   UNL A   1      33.606  28.586  23.629  1.00  0.00     0.242 C 
ATOM      5  O   UNL A   1      34.415  28.728  22.708  1.00  0.00    -0.273 OA
ATOM      6  H   UNL A   1      33.554  30.550  23.956  1.00  0.00     0.163 HD
BRANCH   4   7
ATOM      7  C   UNL A   1      33.121  27.175  24.035  1.00  0.00     0.174 C 
ATOM      8  N   UNL A   1      31.692  26.870  23.746  1.00  0.00    -0.327 N 
ATOM      9  C   UNL A   1      31.123  25.717  24.443  1.00  0.00     0.120 C 
ATOM     10  C   UNL A   1      31.382  25.733  25.936  1.00  0.00     0.022 C 
ATOM     11  C   UNL A   1      33.467  27.041  25.541  1.00  0.00     0.035 C 
ATOM     12  C   UNL A   1      32.875  25.809  26.207  1.00  0.00     0.004 C 
BRANCH   8  13
ATOM     13  C   UNL A   1      30.958  27.286  22.622  1.00  0.00     0.254 C 
ATOM     14  O   UNL A   1      31.327  27.033  21.474  1.00  0.00    -0.269 OA
BRANCH  13  15
ATOM     15  C   UNL A   1      29.706  28.070  22.746  1.00  0.00     0.042 A 
ATOM     16  C   UNL A   1      28.323  29.944  22.067  1.00  0.00     0.041 A 
ATOM     17  C   UNL A   1      27.294  29.450  22.880  1.00  0.00     0.026 A 
ATOM     18  C   UNL A   1      29.524  29.241  22.003  1.00  0.00     0.040 A 
ATOM     19  C   UNL A   1      27.446  28.249  23.576  1.00  0.00     0.003 A 
ATOM     20  C   UNL A   1      28.651  27.554  23.504  1.00  0.00     0.014 A 
BRANCH  16  21
ATOM     21  N   UNL A   1      28.090  31.156  21.397  1.00  0.00    -0.326 N 
ATOM     22  C   UNL A   1      28.808  32.839  23.099  1.00  0.00     0.114 C 
ATOM     23  C   UNL A   1      28.145  32.458  21.803  1.00  0.00     0.221 C 
ATOM     24  O   UNL A   1      27.689  33.331  21.060  1.00  0.00    -0.275 OA
ATOM     25  H   UNL A   1      27.839  31.045  20.451  1.00  0.00     0.169 HD
ENDBRANCH  16  21
ENDBRANCH  13  15
ENDBRANCH   8  13
ENDBRANCH   4   7
ENDBRANCH   2   3
ENDBRANCH   1   2
BRANCH   1  26
ATOM     26  C   UNL A   1      31.026  31.818  26.108  1.00  0.00     0.023 C 
BRANCH  26  27
ATOM     27  C   UNL A   1      32.280  32.296  26.829  1.00  0.00     0.116 C 
BRANCH  27  28
ATOM     28  N   UNL A   1      32.158  33.655  27.337  1.00  0.00    -0.352 N 
ATOM     29  C   UNL A   1      32.972  34.300  28.237  1.00  0.00     0.251 C 
ATOM     30  H   UNL A   1      31.398  34.177  26.993  1.00  0.00     0.163 HD
ATOM     31  O   UNL A   1      32.680  35.404  28.680  1.00  0.00    -0.269 OA
BRANCH  29  32
ATOM     32  C   UNL A   1      34.198  33.615  28.687  1.00  0.00     0.039 A 
ATOM     33  C   UNL A   1      35.441  34.139  28.329  1.00  0.00     0.014 A 
ATOM     34  C   UNL A   1      34.103  32.508  29.536  1.00  0.00     0.014 A 
ATOM     35  C   UNL A   1      36.600  33.596  28.887  1.00  0.00     0.010 A 
ATOM     36  C   UNL A   1      35.251  32.013  30.140  1.00  0.00     0.010 A 
ATOM     37  C   UNL A   1      36.508  32.558  29.827  1.00  0.00    -0.014 A 
BRANCH  37  38
ATOM     38  C   UNL A   1      37.707  32.009  30.506  1.00  0.00     0.031 A 
ATOM     39  C   UNL A   1      38.493  30.915  29.841  1.00  0.00     0.074 A 
ATOM     40  C   UNL A   1      38.026  32.419  31.748  1.00  0.00     0.049 A 
ATOM     41  N   UNL A   1      39.454  30.174  30.328  1.00  0.00    -0.248 NA
ATOM     42  C   UNL A   1      38.125  30.593  28.453  1.00  0.00     0.031 C 
ATOM     43  C   UNL A   1      37.326  33.457  32.507  1.00  0.00     0.029 A 
ATOM     44  N   UNL A   1      39.012  31.992  32.602  1.00  0.00    -0.354 N 
ATOM     45  C   UNL A   1      39.793  29.288  29.313  1.00  0.00     0.074 A 
ATOM     46  C   UNL A   1      38.903  29.551  28.203  1.00  0.00     0.031 C 
ATOM     47  C   UNL A   1      37.912  33.593  33.709  1.00  0.00     0.029 A 
ATOM     48  C   UNL A   1      38.995  32.622  33.823  1.00  0.00     0.049 A 
ATOM     49  H   UNL A   1      39.670  31.300  32.361  1.00  0.00     0.167 HD
ATOM     50  C   UNL A   1      40.773  28.354  29.302  1.00  0.00     0.037 A 
ATOM     51  C   UNL A   1      39.754  32.420  34.918  1.00  0.00     0.037 A 
ATOM     52  C   UNL A   1      41.672  28.113  30.398  1.00  0.00     0.049 A 
ATOM     53  C   UNL A   1      40.815  31.354  34.889  1.00  0.00     0.074 A 
ATOM     54  C   UNL A   1      42.714  27.207  30.474  1.00  0.00     0.029 A 
ATOM     55  N   UNL A   1      41.638  28.792  31.607  1.00  0.00    -0.354 N 
ATOM     56  N   UNL A   1      41.145  30.542  33.914  1.00  0.00    -0.248 NA
ATOM     57  C   UNL A   1      41.611  31.176  36.113  1.00  0.00     0.031 C 
ATOM     58  C   UNL A   1      43.296  27.318  31.742  1.00  0.00     0.029 A 
ATOM     59  C   UNL A   1      42.638  28.320  32.438  1.00  0.00     0.049 A 
ATOM     60  H   UNL A   1      40.998  29.504  31.838  1.00  0.00     0.167 HD
ATOM     61  C   UNL A   1      42.206  29.784  34.392  1.00  0.00     0.074 A 
ATOM     62  C   UNL A   1      42.466  30.233  35.743  1.00  0.00     0.031 C 
ATOM     63  C   UNL A   1      42.902  28.805  33.768  1.00  0.00     0.037 A 
BRANCH  50  64
ATOM     64  C   UNL A   1      40.926  27.533  28.057  1.00  0.00     0.057 A 
ATOM     65  C   UNL A   1      41.774  27.932  27.015  1.00  0.00     0.134 A 
ATOM     66  C   UNL A   1      40.246  26.318  27.909  1.00  0.00     0.134 A 
ATOM     67  F   UNL A   1      42.442  29.093  27.090  1.00  0.00    -0.206 F 
ATOM     68  C   UNL A   1      41.923  27.161  25.862  1.00  0.00     0.040 A 
ATOM     69  C   UNL A   1      40.407  25.527  26.772  1.00  0.00     0.040 A 
ATOM     70  F   UNL A   1      39.421  25.877  28.872  1.00  0.00    -0.206 F 
ATOM     71  C   UNL A   1      41.243  25.952  25.740  1.00  0.00     0.006 A 
ENDBRANCH  50  64
BRANCH  51  72
ATOM     72  C   UNL A   1      39.549  33.245  36.135  1.00  0.00     0.057 A 
ATOM     73  C   UNL A   1      38.689  32.818  37.155  1.00  0.00     0.134 A 
ATOM     74  C   UNL A   1      40.178  34.484  36.299  1.00  0.00     0.134 A 
ATOM     75  F   UNL A   1      38.042  31.648  37.046  1.00  0.00    -0.206 F 
ATOM     76  C   UNL A   1      38.444  33.604  38.282  1.00  0.00     0.040 A 
ATOM     77  C   UNL A   1      39.962  35.270  37.432  1.00  0.00     0.040 A 
ATOM     78  F   UNL A   1      41.018  34.946  35.361  1.00  0.00    -0.206 F 
ATOM     79  C   UNL A   1      39.085  34.832  38.424  1.00  0.00     0.006 A 
ENDBRANCH  51  72
BRANCH  63  80
ATOM     80  C   UNL A   1      44.052  28.193  34.510  1.00  0.00     0.057 A 
ATOM     81  C   UNL A   1      43.907  27.021  35.260  1.00  0.00     0.134 A 
ATOM     82  C   UNL A   1      45.333  28.750  34.413  1.00  0.00     0.134 A 
ATOM     83  F   UNL A   1      42.702  26.446  35.400  1.00  0.00    -0.206 F 
ATOM     84  C   UNL A   1      44.997  26.427  35.896  1.00  0.00     0.040 A 
ATOM     85  C   UNL A   1      46.434  28.154  35.027  1.00  0.00     0.040 A 
ATOM     86  F   UNL A   1      45.537  29.870  33.702  1.00  0.00    -0.206 F 
ATOM     87  C   UNL A   1      46.267  26.989  35.773  1.00  0.00     0.006 A 
ENDBRANCH  63  80
ENDBRANCH  37  38
ENDBRANCH  29  32
ENDBRANCH  27  28
ENDBRANCH  26  27
ENDBRANCH   1  26
TORSDOF 14
ENDMDL
MODEL 2
REMARK VINA RESULT:     -12.7      0.734      6.081
REMARK SMILES CC(=O)Nc1cccc(C(=O)N2CCCC[C@@H]2C(=O)NCCCCNC(=O)c2ccc(-c3c4nc(c(-c5c(F)cccc5F)c5ccc([nH]5)c(-c5c(F)cccc5F)c5nc(c(-c6c(F)cccc6F)c6ccc3[nH]6)C=C5)C=C4)cc2)c1
REMARK SMILES IDX 22 1 21 2 20 3 18 4 19 5 17 7 12 8 13 9 14 10 16 11 15 12
REMARK SMILES IDX 10 13 11 14 9 15 5 16 6 17 82 18 7 19 8 20 4 21 1 22 2 23
REMARK SMILES IDX 3 24 23 26 24 27 25 28 26 29 27 31 28 32 29 33 81 34 30 35
REMARK SMILES IDX 80 36 31 37 32 38 33 39 74 40 34 41 79 42 73 43 75 44 35 45
REMARK SMILES IDX 78 46 72 47 71 48 36 50 62 51 45 52 61 53 46 54 49 55 60 56
REMARK SMILES IDX 76 57 47 58 48 59 59 61 77 62 50 63 37 64 38 65 43 66 39 67
REMARK SMILES IDX 40 68 42 69 44 70 41 71 63 72 64 73 69 74 65 75 66 76 68 77
REMARK SMILES IDX 70 78 67 79 51 80 52 81 57 82 53 83 54 84 56 85 58 86 55 87
REMARK H PARENT 20 6 4 25 25 30 75 49 49 60
REMARK Flexibility Score: inf
ROOT
ATOM      1  C   UNL A   1      31.024  30.605  25.315  1.00  0.00     0.023 C 
ENDROOT
BRANCH   1   2
ATOM      2  C   UNL A   1      32.277  29.760  25.537  1.00  0.00     0.116 C 
BRANCH   2   3
ATOM      3  N   UNL A   1      33.083  29.699  24.332  1.00  0.00    -0.354 N 
ATOM      4  C   UNL A   1      33.535  28.613  23.645  1.00  0.00     0.242 C 
ATOM      5  O   UNL A   1      34.382  28.802  22.768  1.00  0.00    -0.273 OA
ATOM      6  H   UNL A   1      33.343  30.570  23.956  1.00  0.00     0.163 HD
BRANCH   4   7
ATOM      7  C   UNL A   1      33.117  27.175  24.034  1.00  0.00     0.174 C 
ATOM      8  N   UNL A   1      31.705  26.806  23.742  1.00  0.00    -0.327 N 
ATOM      9  C   UNL A   1      31.191  25.620  24.425  1.00  0.00     0.120 C 
ATOM     10  C   UNL A   1      31.451  25.629  25.918  1.00  0.00     0.022 C 
ATOM     11  C   UNL A   1      33.472  27.039  25.538  1.00  0.00     0.035 C 
ATOM     12  C   UNL A   1      32.939  25.773  26.190  1.00  0.00     0.004 C 
BRANCH   8  13
ATOM     13  C   UNL A   1      30.950  27.201  22.624  1.00  0.00     0.254 C 
ATOM     14  O   UNL A   1      31.293  26.917  21.475  1.00  0.00    -0.269 OA
BRANCH  13  15
ATOM     15  C   UNL A   1      29.708  27.998  22.754  1.00  0.00     0.042 A 
ATOM     16  C   UNL A   1      28.352  29.899  22.097  1.00  0.00     0.041 A 
ATOM     17  C   UNL A   1      27.313  29.407  22.898  1.00  0.00     0.026 A 
ATOM     18  C   UNL A   1      29.544  29.182  22.028  1.00  0.00     0.040 A 
ATOM     19  C   UNL A   1      27.447  28.194  23.577  1.00  0.00     0.003 A 
ATOM     20  C   UNL A   1      28.644  27.485  23.500  1.00  0.00     0.014 A 
BRANCH  16  21
ATOM     21  N   UNL A   1      28.137  31.124  21.444  1.00  0.00    -0.326 N 
ATOM     22  C   UNL A   1      28.835  32.774  23.187  1.00  0.00     0.114 C 
ATOM     23  C   UNL A   1      28.191  32.419  21.874  1.00  0.00     0.221 C 
ATOM     24  O   UNL A   1      27.753  33.307  21.138  1.00  0.00    -0.275 OA
ATOM     25  H   UNL A   1      27.901  31.031  20.493  1.00  0.00     0.169 HD
ENDBRANCH  16  21
ENDBRANCH  13  15
ENDBRANCH   8  13
ENDBRANCH   4   7
ENDBRANCH   2   3
ENDBRANCH   1   2
BRANCH   1  26
ATOM     26  C   UNL A   1      31.000  31.919  26.095  1.00  0.00     0.023 C 
BRANCH  26  27
ATOM     27  C   UNL A   1      32.263  32.208  26.895  1.00  0.00     0.116 C 
BRANCH  27  28
ATOM     28  N   UNL A   1      32.369  33.600  27.304  1.00  0.00    -0.352 N 
ATOM     29  C   UNL A   1      33.336  34.184  28.087  1.00  0.00     0.251 C 
ATOM     30  H   UNL A   1      31.658  34.200  26.980  1.00  0.00     0.163 HD
ATOM     31  O   UNL A   1      33.234  35.344  28.464  1.00  0.00    -0.269 OA
BRANCH  29  32
ATOM     32  C   UNL A   1      34.494  33.365  28.494  1.00  0.00     0.039 A 
ATOM     33  C   UNL A   1      35.752  33.963  28.583  1.00  0.00     0.014 A 
ATOM     34  C   UNL A   1      34.303  32.033  28.869  1.00  0.00     0.014 A 
ATOM     35  C   UNL A   1      36.816  33.241  29.125  1.00  0.00     0.010 A 
ATOM     36  C   UNL A   1      35.346  31.339  29.469  1.00  0.00     0.010 A 
ATOM     37  C   UNL A   1      36.609  31.940  29.609  1.00  0.00    -0.014 A 
BRANCH  37  38
ATOM     38  C   UNL A   1      37.691  31.168  30.268  1.00  0.00     0.031 A 
ATOM     39  C   UNL A   1      38.009  31.434  31.712  1.00  0.00     0.074 A 
ATOM     40  C   UNL A   1      38.442  30.311  29.551  1.00  0.00     0.049 A 
ATOM     41  N   UNL A   1      39.019  31.011  32.428  1.00  0.00    -0.248 NA
ATOM     42  C   UNL A   1      37.083  32.319  32.436  1.00  0.00     0.031 C 
ATOM     43  C   UNL A   1      38.246  29.985  28.137  1.00  0.00     0.029 A 
ATOM     44  N   UNL A   1      39.541  29.573  29.912  1.00  0.00    -0.354 N 
ATOM     45  C   UNL A   1      38.859  31.593  33.679  1.00  0.00     0.074 A 
ATOM     46  C   UNL A   1      37.684  32.434  33.611  1.00  0.00     0.031 C 
ATOM     47  C   UNL A   1      39.186  29.105  27.754  1.00  0.00     0.029 A 
ATOM     48  C   UNL A   1      40.078  28.842  28.879  1.00  0.00     0.049 A 
ATOM     49  H   UNL A   1      39.910  29.567  30.825  1.00  0.00     0.167 HD
ATOM     50  C   UNL A   1      39.613  31.422  34.791  1.00  0.00     0.037 A 
ATOM     51  C   UNL A   1      41.179  28.066  28.841  1.00  0.00     0.037 A 
ATOM     52  C   UNL A   1      40.764  30.564  34.861  1.00  0.00     0.049 A 
ATOM     53  C   UNL A   1      42.015  27.918  30.082  1.00  0.00     0.074 A 
ATOM     54  C   UNL A   1      41.579  30.304  35.948  1.00  0.00     0.029 A 
ATOM     55  N   UNL A   1      41.258  29.821  33.800  1.00  0.00    -0.354 N 
ATOM     56  N   UNL A   1      41.839  28.450  31.267  1.00  0.00    -0.248 NA
ATOM     57  C   UNL A   1      43.207  27.062  29.981  1.00  0.00     0.031 C 
ATOM     58  C   UNL A   1      42.584  29.421  35.537  1.00  0.00     0.029 A 
ATOM     59  C   UNL A   1      42.371  29.105  34.205  1.00  0.00     0.049 A 
ATOM     60  H   UNL A   1      40.873  29.804  32.894  1.00  0.00     0.167 HD
ATOM     61  C   UNL A   1      42.871  27.967  32.060  1.00  0.00     0.074 A 
ATOM     62  C   UNL A   1      43.670  27.097  31.223  1.00  0.00     0.031 C 
ATOM     63  C   UNL A   1      43.132  28.219  33.364  1.00  0.00     0.037 A 
BRANCH  50  64
ATOM     64  C   UNL A   1      39.202  32.171  36.022  1.00  0.00     0.057 A 
ATOM     65  C   UNL A   1      39.709  33.446  36.308  1.00  0.00     0.134 A 
ATOM     66  C   UNL A   1      38.267  31.631  36.914  1.00  0.00     0.134 A 
ATOM     67  F   UNL A   1      40.618  34.012  35.501  1.00  0.00    -0.206 F 
ATOM     68  C   UNL A   1      39.317  34.146  37.450  1.00  0.00     0.040 A 
ATOM     69  C   UNL A   1      37.849  32.332  38.045  1.00  0.00     0.040 A 
ATOM     70  F   UNL A   1      37.740  30.416  36.695  1.00  0.00    -0.206 F 
ATOM     71  C   UNL A   1      38.380  33.592  38.319  1.00  0.00     0.006 A 
ENDBRANCH  50  64
BRANCH  51  72
ATOM     72  C   UNL A   1      41.556  27.361  27.590  1.00  0.00     0.057 A 
ATOM     73  C   UNL A   1      41.168  26.033  27.370  1.00  0.00     0.134 A 
ATOM     74  C   UNL A   1      42.329  27.979  26.601  1.00  0.00     0.134 A 
ATOM     75  F   UNL A   1      40.442  25.382  28.291  1.00  0.00    -0.206 F 
ATOM     76  C   UNL A   1      41.556  25.338  26.224  1.00  0.00     0.040 A 
ATOM     77  C   UNL A   1      42.705  27.304  25.439  1.00  0.00     0.040 A 
ATOM     78  F   UNL A   1      42.727  29.251  26.749  1.00  0.00    -0.206 F 
ATOM     79  C   UNL A   1      42.324  25.975  25.253  1.00  0.00     0.006 A 
ENDBRANCH  51  72
BRANCH  63  80
ATOM     80  C   UNL A   1      44.291  27.502  33.988  1.00  0.00     0.057 A 
ATOM     81  C   UNL A   1      44.156  26.228  34.550  1.00  0.00     0.134 A 
ATOM     82  C   UNL A   1      45.571  28.070  33.963  1.00  0.00     0.134 A 
ATOM     83  F   UNL A   1      42.953  25.636  34.614  1.00  0.00    -0.206 F 
ATOM     84  C   UNL A   1      45.254  25.545  35.074  1.00  0.00     0.040 A 
ATOM     85  C   UNL A   1      46.680  27.390  34.465  1.00  0.00     0.040 A 
ATOM     86  F   UNL A   1      45.766  29.287  33.432  1.00  0.00    -0.206 F 
ATOM     87  C   UNL A   1      46.522  26.123  35.024  1.00  0.00     0.006 A 
ENDBRANCH  63  80
ENDBRANCH  37  38
ENDBRANCH  29  32
ENDBRANCH  27  28
ENDBRANCH  26  27
ENDBRANCH   1  26
TORSDOF 14
ENDMDL
MODEL 3
REMARK VINA RESULT:     -12.6      0.912      6.246
REMARK SMILES CC(=O)Nc1cccc(C(=O)N2CCCC[C@@H]2C(=O)NCCCCNC(=O)c2ccc(-c3c4nc(c(-c5c(F)cccc5F)c5ccc([nH]5)c(-c5c(F)cccc5F)c5nc(c(-c6c(F)cccc6F)c6ccc3[nH]6)C=C5)C=C4)cc2)c1
REMARK SMILES IDX 22 1 21 2 20 3 18 4 19 5 17 7 12 8 13 9 14 10 16 11 15 12
REMARK SMILES IDX 10 13 11 14 9 15 5 16 6 17 82 18 7 19 8 20 4 21 1 22 2 23
REMARK SMILES IDX 3 24 23 26 24 27 25 28 26 29 27 31 28 32 29 33 81 34 30 35
REMARK SMILES IDX 80 36 31 37 32 38 33 39 74 40 34 41 79 42 73 43 75 44 35 45
REMARK SMILES IDX 78 46 72 47 71 48 36 50 62 51 45 52 61 53 46 54 49 55 60 56
REMARK SMILES IDX 76 57 47 58 48 59 59 61 77 62 50 63 37 64 38 65 43 66 39 67
REMARK SMILES IDX 40 68 42 69 44 70 41 71 63 72 64 73 69 74 65 75 66 76 68 77
REMARK SMILES IDX 70 78 67 79 51 80 52 81 57 82 53 83 54 84 56 85 58 86 55 87
REMARK H PARENT 20 6 4 25 25 30 75 49 49 60
REMARK Flexibility Score: inf
ROOT
ATOM      1  C   UNL A   1      31.575  30.306  26.457  1.00  0.00     0.023 C 
ENDROOT
BRANCH   1   2
ATOM      2  C   UNL A   1      32.966  29.723  26.214  1.00  0.00     0.116 C 
BRANCH   2   3
ATOM      3  N   UNL A   1      33.326  29.806  24.810  1.00  0.00    -0.354 N 
ATOM      4  C   UNL A   1      33.408  28.817  23.877  1.00  0.00     0.242 C 
ATOM      5  O   UNL A   1      33.942  29.092  22.798  1.00  0.00    -0.273 OA
ATOM      6  H   UNL A   1      33.545  30.708  24.486  1.00  0.00     0.163 HD
BRANCH   4   7
ATOM      7  C   UNL A   1      32.984  27.365  24.193  1.00  0.00     0.174 C 
ATOM      8  N   UNL A   1      31.551  27.037  23.950  1.00  0.00    -0.327 N 
ATOM      9  C   UNL A   1      31.050  25.817  24.579  1.00  0.00     0.120 C 
ATOM     10  C   UNL A   1      31.383  25.725  26.055  1.00  0.00     0.022 C 
ATOM     11  C   UNL A   1      33.409  27.125  25.665  1.00  0.00     0.035 C 
ATOM     12  C   UNL A   1      32.885  25.828  26.260  1.00  0.00     0.004 C 
BRANCH   8  13
ATOM     13  C   UNL A   1      30.750  27.517  22.898  1.00  0.00     0.254 C 
ATOM     14  O   UNL A   1      30.998  27.253  21.720  1.00  0.00    -0.269 OA
BRANCH  13  15
ATOM     15  C   UNL A   1      29.572  28.382  23.138  1.00  0.00     0.042 A 
ATOM     16  C   UNL A   1      28.605  30.591  23.405  1.00  0.00     0.041 A 
ATOM     17  C   UNL A   1      27.332  30.005  23.444  1.00  0.00     0.026 A 
ATOM     18  C   UNL A   1      29.718  29.769  23.245  1.00  0.00     0.040 A 
ATOM     19  C   UNL A   1      27.174  28.627  23.276  1.00  0.00     0.003 A 
ATOM     20  C   UNL A   1      28.294  27.815  23.116  1.00  0.00     0.014 A 
BRANCH  16  21
ATOM     21  N   UNL A   1      28.679  31.983  23.577  1.00  0.00    -0.326 N 
ATOM     22  C   UNL A   1      28.067  32.822  21.305  1.00  0.00     0.114 C 
ATOM     23  C   UNL A   1      28.592  33.025  22.700  1.00  0.00     0.221 C 
ATOM     24  O   UNL A   1      28.899  34.155  23.089  1.00  0.00    -0.275 OA
ATOM     25  H   UNL A   1      28.822  32.261  24.511  1.00  0.00     0.169 HD
ENDBRANCH  16  21
ENDBRANCH  13  15
ENDBRANCH   8  13
ENDBRANCH   4   7
ENDBRANCH   2   3
ENDBRANCH   1   2
BRANCH   1  26
ATOM     26  C   UNL A   1      31.520  31.834  26.454  1.00  0.00     0.023 C 
BRANCH  26  27
ATOM     27  C   UNL A   1      32.636  32.513  27.237  1.00  0.00     0.116 C 
BRANCH  27  28
ATOM     28  N   UNL A   1      32.370  33.920  27.496  1.00  0.00    -0.352 N 
ATOM     29  C   UNL A   1      32.995  34.749  28.397  1.00  0.00     0.251 C 
ATOM     30  H   UNL A   1      31.653  34.329  26.960  1.00  0.00     0.163 HD
ATOM     31  O   UNL A   1      32.585  35.883  28.607  1.00  0.00    -0.269 OA
BRANCH  29  32
ATOM     32  C   UNL A   1      34.161  34.228  29.135  1.00  0.00     0.039 A 
ATOM     33  C   UNL A   1      33.954  33.484  30.297  1.00  0.00     0.014 A 
ATOM     34  C   UNL A   1      35.447  34.408  28.616  1.00  0.00     0.014 A 
ATOM     35  C   UNL A   1      35.038  32.850  30.906  1.00  0.00     0.010 A 
ATOM     36  C   UNL A   1      36.512  33.722  29.185  1.00  0.00     0.010 A 
ATOM     37  C   UNL A   1      36.316  32.931  30.330  1.00  0.00    -0.014 A 
BRANCH  37  38
ATOM     38  C   UNL A   1      37.478  32.205  30.897  1.00  0.00     0.031 A 
ATOM     39  C   UNL A   1      38.147  32.737  32.131  1.00  0.00     0.074 A 
ATOM     40  C   UNL A   1      37.985  31.136  30.253  1.00  0.00     0.049 A 
ATOM     41  N   UNL A   1      39.274  32.369  32.686  1.00  0.00    -0.248 NA
ATOM     42  C   UNL A   1      37.474  33.853  32.814  1.00  0.00     0.031 C 
ATOM     43  C   UNL A   1      37.437  30.538  29.034  1.00  0.00     0.029 A 
ATOM     44  N   UNL A   1      39.094  30.375  30.526  1.00  0.00    -0.354 N 
ATOM     45  C   UNL A   1      39.451  33.219  33.770  1.00  0.00     0.074 A 
ATOM     46  C   UNL A   1      38.345  34.151  33.767  1.00  0.00     0.031 C 
ATOM     47  C   UNL A   1      38.207  29.498  28.670  1.00  0.00     0.029 A 
ATOM     48  C   UNL A   1      39.325  29.386  29.600  1.00  0.00     0.049 A 
ATOM     49  H   UNL A   1      39.670  30.525  31.310  1.00  0.00     0.167 HD
ATOM     50  C   UNL A   1      40.438  33.208  34.696  1.00  0.00     0.037 A 
ATOM     51  C   UNL A   1      40.338  28.503  29.504  1.00  0.00     0.037 A 
ATOM     52  C   UNL A   1      41.522  32.264  34.710  1.00  0.00     0.049 A 
ATOM     53  C   UNL A   1      41.438  28.533  30.530  1.00  0.00     0.074 A 
ATOM     54  C   UNL A   1      42.558  32.155  35.621  1.00  0.00     0.029 A 
ATOM     55  N   UNL A   1      41.704  31.261  33.771  1.00  0.00    -0.354 N 
ATOM     56  N   UNL A   1      41.581  29.323  31.565  1.00  0.00    -0.248 NA
ATOM     57  C   UNL A   1      42.520  27.549  30.372  1.00  0.00     0.031 C 
ATOM     58  C   UNL A   1      43.383  31.099  35.218  1.00  0.00     0.029 A 
ATOM     59  C   UNL A   1      42.839  30.530  34.077  1.00  0.00     0.049 A 
ATOM     60  H   UNL A   1      41.113  31.092  33.001  1.00  0.00     0.167 HD
ATOM     61  C   UNL A   1      42.744  28.910  32.203  1.00  0.00     0.074 A 
ATOM     62  C   UNL A   1      43.268  27.799  31.438  1.00  0.00     0.031 C 
ATOM     63  C   UNL A   1      43.324  29.406  33.320  1.00  0.00     0.037 A 
BRANCH  50  64
ATOM     64  C   UNL A   1      40.378  34.245  35.777  1.00  0.00     0.057 A 
ATOM     65  C   UNL A   1      41.012  35.487  35.638  1.00  0.00     0.134 A 
ATOM     66  C   UNL A   1      39.654  34.015  36.953  1.00  0.00     0.134 A 
ATOM     67  F   UNL A   1      41.733  35.763  34.542  1.00  0.00    -0.206 F 
ATOM     68  C   UNL A   1      40.946  36.455  36.642  1.00  0.00     0.040 A 
ATOM     69  C   UNL A   1      39.560  34.985  37.952  1.00  0.00     0.040 A 
ATOM     70  F   UNL A   1      39.021  32.848  37.147  1.00  0.00    -0.206 F 
ATOM     71  C   UNL A   1      40.214  36.207  37.800  1.00  0.00     0.006 A 
ENDBRANCH  50  64
BRANCH  51  72
ATOM     72  C   UNL A   1      40.364  27.509  28.402  1.00  0.00     0.057 A 
ATOM     73  C   UNL A   1      41.014  27.792  27.194  1.00  0.00     0.134 A 
ATOM     74  C   UNL A   1      39.722  26.271  28.513  1.00  0.00     0.134 A 
ATOM     75  F   UNL A   1      41.631  28.970  27.021  1.00  0.00    -0.206 F 
ATOM     76  C   UNL A   1      41.005  26.890  26.129  1.00  0.00     0.040 A 
ATOM     77  C   UNL A   1      39.724  25.349  27.465  1.00  0.00     0.040 A 
ATOM     78  F   UNL A   1      39.086  25.937  29.646  1.00  0.00    -0.206 F 
ATOM     79  C   UNL A   1      40.361  25.663  26.264  1.00  0.00     0.006 A 
ENDBRANCH  51  72
BRANCH  63  80
ATOM     80  C   UNL A   1      44.556  28.716  33.824  1.00  0.00     0.057 A 
ATOM     81  C   UNL A   1      45.840  29.143  33.466  1.00  0.00     0.134 A 
ATOM     82  C   UNL A   1      44.452  27.655  34.732  1.00  0.00     0.134 A 
ATOM     83  F   UNL A   1      46.004  30.147  32.591  1.00  0.00    -0.206 F 
ATOM     84  C   UNL A   1      46.980  28.532  33.990  1.00  0.00     0.040 A 
ATOM     85  C   UNL A   1      45.584  27.051  35.278  1.00  0.00     0.040 A 
ATOM     86  F   UNL A   1      43.248  27.206  35.120  1.00  0.00    -0.206 F 
ATOM     87  C   UNL A   1      46.853  27.488  34.905  1.00  0.00     0.006 A 
ENDBRANCH  63  80
ENDBRANCH  37  38
ENDBRANCH  29  32
ENDBRANCH  27  28
ENDBRANCH  26  27
ENDBRANCH   1  26
TORSDOF 14
ENDMDL
