MODEL 1
REMARK VINA RESULT:     -13.4      0.000      0.000
REMARK SMILES Cc1ccc(CCC(=O)N2CCC3(CC2)[C@H](C(=O)NCCCCNC(=O)c2ccc(-c4c5nc(c(-c6c(F)cccc6F)c6ccc([nH]6)c(-c6c(F)cccc6F)c6nc(c(-c7c(F)cccc7F)c7ccc4[nH]7)C=C6)C=C5)cc2)CC(=O)N3C)cc1
REMARK SMILES IDX 21 1 20 2 19 3 17 4 18 5 16 7 8 8 9 9 10 10 11 11 15 12
REMARK SMILES IDX 12 13 14 14 13 15 84 16 81 17 82 18 85 19 83 20 7 21 6 22
REMARK SMILES IDX 5 23 1 24 2 25 3 26 87 27 4 28 86 29 22 30 23 31 24 32 25 33
REMARK SMILES IDX 26 35 27 36 28 37 80 38 29 39 79 40 30 41 31 42 32 43 73 44
REMARK SMILES IDX 33 45 78 46 72 47 74 48 34 49 77 50 71 51 70 52 35 54 61 55
REMARK SMILES IDX 44 56 60 57 45 58 48 59 59 60 75 61 46 62 47 63 58 65 76 66
REMARK SMILES IDX 49 67 36 68 37 69 42 70 38 71 39 72 41 73 43 74 40 75 62 76
REMARK SMILES IDX 63 77 68 78 64 79 65 80 67 81 69 82 66 83 50 84 51 85 56 86
REMARK SMILES IDX 52 87 53 88 55 89 57 90 54 91
REMARK H PARENT 19 6 24 34 74 53 48 64
REMARK Flexibility Score: inf
ROOT
ATOM      1  C   UNL A   1      34.531  28.950  26.887  1.00  0.00     0.023 C 
ENDROOT
BRANCH   1   2
ATOM      2  C   UNL A   1      33.860  28.965  25.501  1.00  0.00     0.116 C 
BRANCH   2   3
ATOM      3  N   UNL A   1      32.651  29.771  25.364  1.00  0.00    -0.356 N 
ATOM      4  C   UNL A   1      31.517  29.709  24.625  1.00  0.00     0.226 C 
ATOM      5  O   UNL A   1      30.654  30.554  24.901  1.00  0.00    -0.275 OA
ATOM      6  H   UNL A   1      32.662  30.557  25.958  1.00  0.00     0.163 HD
BRANCH   4   7
ATOM      7  C   UNL A   1      31.228  28.722  23.489  1.00  0.00     0.113 C 
ATOM      8  C   UNL A   1      31.575  23.747  25.301  1.00  0.00     0.222 C 
ATOM      9  O   UNL A   1      31.539  23.338  26.466  1.00  0.00    -0.275 OA
ATOM     10  N   UNL A   1      30.694  24.720  24.867  1.00  0.00    -0.343 N 
ATOM     11  C   UNL A   1      30.180  25.707  25.790  1.00  0.00     0.122 C 
ATOM     12  C   UNL A   1      30.257  24.938  23.513  1.00  0.00     0.122 C 
ATOM     13  C   UNL A   1      30.667  27.073  25.319  1.00  0.00     0.051 C 
ATOM     14  C   UNL A   1      30.816  26.248  22.960  1.00  0.00     0.051 C 
ATOM     15  C   UNL A   1      30.393  27.459  23.833  1.00  0.00     0.058 C 
ATOM     16  N   UNL A   1      29.054  27.906  23.393  1.00  0.00    -0.339 N 
ATOM     17  C   UNL A   1      30.539  29.398  22.317  1.00  0.00     0.116 C 
ATOM     18  C   UNL A   1      29.126  28.917  22.426  1.00  0.00     0.223 C 
ATOM     19  C   UNL A   1      27.814  27.159  23.501  1.00  0.00     0.147 C 
ATOM     20  O   UNL A   1      28.201  29.336  21.747  1.00  0.00    -0.275 OA
BRANCH   8  21
ATOM     21  C   UNL A   1      32.763  23.360  24.411  1.00  0.00     0.105 C 
BRANCH  21  22
ATOM     22  C   UNL A   1      33.870  24.380  24.091  1.00  0.00     0.045 C 
BRANCH  22  23
ATOM     23  C   UNL A   1      35.278  23.879  24.370  1.00  0.00    -0.047 A 
ATOM     24  C   UNL A   1      38.519  21.426  25.748  1.00  0.00     0.044 C 
ATOM     25  C   UNL A   1      37.519  22.409  25.212  1.00  0.00    -0.051 A 
ATOM     26  C   UNL A   1      36.989  23.414  26.028  1.00  0.00     0.004 A 
ATOM     27  C   UNL A   1      37.028  22.263  23.910  1.00  0.00     0.004 A 
ATOM     28  C   UNL A   1      35.899  24.173  25.594  1.00  0.00     0.004 A 
ATOM     29  C   UNL A   1      35.920  23.001  23.488  1.00  0.00     0.004 A 
ENDBRANCH  22  23
ENDBRANCH  21  22
ENDBRANCH   8  21
ENDBRANCH   4   7
ENDBRANCH   2   3
ENDBRANCH   1   2
BRANCH   1  30
ATOM     30  C   UNL A   1      34.178  30.100  27.839  1.00  0.00     0.023 C 
BRANCH  30  31
ATOM     31  C   UNL A   1      35.055  31.311  27.629  1.00  0.00     0.116 C 
BRANCH  31  32
ATOM     32  N   UNL A   1      35.671  31.823  28.848  1.00  0.00    -0.352 N 
ATOM     33  C   UNL A   1      36.611  31.218  29.660  1.00  0.00     0.251 C 
ATOM     34  H   UNL A   1      35.376  32.719  29.130  1.00  0.00     0.163 HD
ATOM     35  O   UNL A   1      37.005  31.771  30.685  1.00  0.00    -0.269 OA
BRANCH  33  36
ATOM     36  C   UNL A   1      37.242  29.962  29.198  1.00  0.00     0.039 A 
ATOM     37  C   UNL A   1      37.461  28.961  30.148  1.00  0.00     0.014 A 
ATOM     38  C   UNL A   1      37.874  29.916  27.956  1.00  0.00     0.014 A 
ATOM     39  C   UNL A   1      38.520  28.080  29.966  1.00  0.00     0.010 A 
ATOM     40  C   UNL A   1      38.998  29.124  27.830  1.00  0.00     0.010 A 
ATOM     41  C   UNL A   1      39.357  28.253  28.863  1.00  0.00    -0.014 A 
BRANCH  41  42
ATOM     42  C   UNL A   1      40.659  27.609  28.755  1.00  0.00     0.031 A 
ATOM     43  C   UNL A   1      40.732  26.170  28.447  1.00  0.00     0.074 A 
ATOM     44  C   UNL A   1      41.796  28.319  28.932  1.00  0.00     0.049 A 
ATOM     45  N   UNL A   1      41.661  25.383  28.873  1.00  0.00    -0.248 NA
ATOM     46  C   UNL A   1      39.715  25.490  27.656  1.00  0.00     0.031 C 
ATOM     47  C   UNL A   1      43.165  27.870  28.693  1.00  0.00     0.029 A 
ATOM     48  N   UNL A   1      41.943  29.551  29.581  1.00  0.00    -0.354 N 
ATOM     49  C   UNL A   1      41.518  24.179  28.220  1.00  0.00     0.074 A 
ATOM     50  C   UNL A   1      40.259  24.278  27.521  1.00  0.00     0.031 C 
ATOM     51  C   UNL A   1      44.003  28.630  29.415  1.00  0.00     0.029 A 
ATOM     52  C   UNL A   1      43.193  29.512  30.238  1.00  0.00     0.049 A 
ATOM     53  H   UNL A   1      41.302  30.298  29.580  1.00  0.00     0.167 HD
ATOM     54  C   UNL A   1      42.545  23.281  28.233  1.00  0.00     0.037 A 
ATOM     55  C   UNL A   1      43.288  29.640  31.591  1.00  0.00     0.037 A 
ATOM     56  C   UNL A   1      43.674  23.785  29.013  1.00  0.00     0.049 A 
ATOM     57  C   UNL A   1      43.885  28.434  32.273  1.00  0.00     0.074 A 
ATOM     58  C   UNL A   1      44.828  24.457  28.642  1.00  0.00     0.029 A 
ATOM     59  N   UNL A   1      43.561  23.925  30.390  1.00  0.00    -0.354 N 
ATOM     60  N   UNL A   1      44.011  27.268  31.702  1.00  0.00    -0.248 NA
ATOM     61  C   UNL A   1      44.348  28.427  33.659  1.00  0.00     0.031 C 
ATOM     62  C   UNL A   1      45.378  25.057  29.798  1.00  0.00     0.029 A 
ATOM     63  C   UNL A   1      44.574  24.731  30.876  1.00  0.00     0.049 A 
ATOM     64  H   UNL A   1      42.859  23.510  30.942  1.00  0.00     0.167 HD
ATOM     65  C   UNL A   1      44.503  26.366  32.607  1.00  0.00     0.074 A 
ATOM     66  C   UNL A   1      44.726  27.146  33.810  1.00  0.00     0.031 C 
ATOM     67  C   UNL A   1      44.663  25.047  32.293  1.00  0.00     0.037 A 
BRANCH  54  68
ATOM     68  C   UNL A   1      42.641  22.116  27.274  1.00  0.00     0.057 A 
ATOM     69  C   UNL A   1      41.842  20.969  27.444  1.00  0.00     0.134 A 
ATOM     70  C   UNL A   1      43.540  22.036  26.197  1.00  0.00     0.134 A 
ATOM     71  F   UNL A   1      40.844  20.929  28.337  1.00  0.00    -0.206 F 
ATOM     72  C   UNL A   1      42.026  19.793  26.705  1.00  0.00     0.040 A 
ATOM     73  C   UNL A   1      43.776  20.850  25.486  1.00  0.00     0.040 A 
ATOM     74  F   UNL A   1      44.194  23.117  25.751  1.00  0.00    -0.206 F 
ATOM     75  C   UNL A   1      43.028  19.713  25.752  1.00  0.00     0.006 A 
ENDBRANCH  54  68
BRANCH  55  76
ATOM     76  C   UNL A   1      42.239  30.524  32.164  1.00  0.00     0.057 A 
ATOM     77  C   UNL A   1      42.425  31.915  32.081  1.00  0.00     0.134 A 
ATOM     78  C   UNL A   1      40.942  30.067  32.405  1.00  0.00     0.134 A 
ATOM     79  F   UNL A   1      43.648  32.417  31.854  1.00  0.00    -0.206 F 
ATOM     80  C   UNL A   1      41.350  32.808  32.107  1.00  0.00     0.040 A 
ATOM     81  C   UNL A   1      39.858  30.953  32.444  1.00  0.00     0.040 A 
ATOM     82  F   UNL A   1      40.683  28.754  32.478  1.00  0.00    -0.206 F 
ATOM     83  C   UNL A   1      40.055  32.321  32.252  1.00  0.00     0.006 A 
ENDBRANCH  55  76
BRANCH  67  84
ATOM     84  C   UNL A   1      44.992  23.943  33.264  1.00  0.00     0.057 A 
ATOM     85  C   UNL A   1      44.090  22.944  33.652  1.00  0.00     0.134 A 
ATOM     86  C   UNL A   1      46.317  23.772  33.724  1.00  0.00     0.134 A 
ATOM     87  F   UNL A   1      42.827  22.929  33.205  1.00  0.00    -0.206 F 
ATOM     88  C   UNL A   1      44.466  21.874  34.475  1.00  0.00     0.040 A 
ATOM     89  C   UNL A   1      46.714  22.683  34.503  1.00  0.00     0.040 A 
ATOM     90  F   UNL A   1      47.287  24.647  33.416  1.00  0.00    -0.206 F 
ATOM     91  C   UNL A   1      45.784  21.734  34.893  1.00  0.00     0.006 A 
ENDBRANCH  67  84
ENDBRANCH  41  42
ENDBRANCH  33  36
ENDBRANCH  31  32
ENDBRANCH  30  31
ENDBRANCH   1  30
TORSDOF 14
ENDMDL
MODEL 2
REMARK VINA RESULT:     -13.2      3.635      9.431
REMARK SMILES Cc1ccc(CCC(=O)N2CCC3(CC2)[C@H](C(=O)NCCCCNC(=O)c2ccc(-c4c5nc(c(-c6c(F)cccc6F)c6ccc([nH]6)c(-c6c(F)cccc6F)c6nc(c(-c7c(F)cccc7F)c7ccc4[nH]7)C=C6)C=C5)cc2)CC(=O)N3C)cc1
REMARK SMILES IDX 21 1 20 2 19 3 17 4 18 5 16 7 8 8 9 9 10 10 11 11 15 12
REMARK SMILES IDX 12 13 14 14 13 15 84 16 81 17 82 18 85 19 83 20 7 21 6 22
REMARK SMILES IDX 5 23 1 24 2 25 3 26 87 27 4 28 86 29 22 30 23 31 24 32 25 33
REMARK SMILES IDX 26 35 27 36 28 37 80 38 29 39 79 40 30 41 31 42 32 43 73 44
REMARK SMILES IDX 33 45 78 46 72 47 74 48 34 49 77 50 71 51 70 52 35 54 61 55
REMARK SMILES IDX 44 56 60 57 45 58 48 59 59 60 75 61 46 62 47 63 58 65 76 66
REMARK SMILES IDX 49 67 36 68 37 69 42 70 38 71 39 72 41 73 43 74 40 75 62 76
REMARK SMILES IDX 63 77 68 78 64 79 65 80 67 81 69 82 66 83 50 84 51 85 56 86
REMARK SMILES IDX 52 87 53 88 55 89 57 90 54 91
REMARK H PARENT 19 6 24 34 74 53 48 64
REMARK Flexibility Score: inf
ROOT
ATOM      1  C   UNL A   1      37.511  23.962  26.202  1.00  0.00     0.023 C 
ENDROOT
BRANCH   1   2
ATOM      2  C   UNL A   1      36.166  23.213  26.153  1.00  0.00     0.116 C 
BRANCH   2   3
ATOM      3  N   UNL A   1      36.205  21.820  25.718  1.00  0.00    -0.356 N 
ATOM      4  C   UNL A   1      35.295  20.895  25.326  1.00  0.00     0.226 C 
ATOM      5  O   UNL A   1      35.765  19.828  24.910  1.00  0.00    -0.275 OA
ATOM      6  H   UNL A   1      37.123  21.463  25.706  1.00  0.00     0.163 HD
BRANCH   4   7
ATOM      7  C   UNL A   1      33.771  21.046  25.376  1.00  0.00     0.113 C 
ATOM      8  C   UNL A   1      32.319  25.458  22.809  1.00  0.00     0.222 C 
ATOM      9  O   UNL A   1      32.955  26.127  21.989  1.00  0.00    -0.275 OA
ATOM     10  N   UNL A   1      32.320  24.077  22.746  1.00  0.00    -0.343 N 
ATOM     11  C   UNL A   1      33.462  23.368  22.214  1.00  0.00     0.122 C 
ATOM     12  C   UNL A   1      31.298  23.195  23.247  1.00  0.00     0.122 C 
ATOM     13  C   UNL A   1      34.041  22.518  23.339  1.00  0.00     0.051 C 
ATOM     14  C   UNL A   1      31.800  22.401  24.452  1.00  0.00     0.051 C 
ATOM     15  C   UNL A   1      33.062  21.569  24.097  1.00  0.00     0.058 C 
ATOM     16  N   UNL A   1      32.623  20.289  23.501  1.00  0.00    -0.339 N 
ATOM     17  C   UNL A   1      33.087  19.745  25.755  1.00  0.00     0.116 C 
ATOM     18  C   UNL A   1      32.502  19.275  24.460  1.00  0.00     0.223 C 
ATOM     19  C   UNL A   1      31.927  20.114  22.240  1.00  0.00     0.147 C 
ATOM     20  O   UNL A   1      31.978  18.183  24.297  1.00  0.00    -0.275 OA
BRANCH   8  21
ATOM     21  C   UNL A   1      31.739  26.152  24.048  1.00  0.00     0.105 C 
BRANCH  21  22
ATOM     22  C   UNL A   1      32.275  25.828  25.453  1.00  0.00     0.045 C 
BRANCH  22  23
ATOM     23  C   UNL A   1      32.672  27.050  26.266  1.00  0.00    -0.047 A 
ATOM     24  C   UNL A   1      33.334  31.137  27.397  1.00  0.00     0.044 C 
ATOM     25  C   UNL A   1      33.186  29.661  27.167  1.00  0.00    -0.051 A 
ATOM     26  C   UNL A   1      34.188  28.929  26.521  1.00  0.00     0.004 A 
ATOM     27  C   UNL A   1      31.989  29.020  27.506  1.00  0.00     0.004 A 
ATOM     28  C   UNL A   1      33.946  27.616  26.108  1.00  0.00     0.004 A 
ATOM     29  C   UNL A   1      31.738  27.718  27.067  1.00  0.00     0.004 A 
ENDBRANCH  22  23
ENDBRANCH  21  22
ENDBRANCH   8  21
ENDBRANCH   4   7
ENDBRANCH   2   3
ENDBRANCH   1   2
BRANCH   1  30
ATOM     30  C   UNL A   1      38.763  23.161  25.828  1.00  0.00     0.023 C 
BRANCH  30  31
ATOM     31  C   UNL A   1      39.654  22.896  27.017  1.00  0.00     0.116 C 
BRANCH  31  32
ATOM     32  N   UNL A   1      41.030  23.350  26.848  1.00  0.00    -0.352 N 
ATOM     33  C   UNL A   1      41.515  24.643  26.823  1.00  0.00     0.251 C 
ATOM     34  H   UNL A   1      41.703  22.639  26.736  1.00  0.00     0.163 HD
ATOM     35  O   UNL A   1      42.709  24.862  26.630  1.00  0.00    -0.269 OA
BRANCH  33  36
ATOM     36  C   UNL A   1      40.599  25.749  27.178  1.00  0.00     0.039 A 
ATOM     37  C   UNL A   1      40.749  26.957  26.492  1.00  0.00     0.014 A 
ATOM     38  C   UNL A   1      39.853  25.686  28.354  1.00  0.00     0.014 A 
ATOM     39  C   UNL A   1      40.395  28.141  27.128  1.00  0.00     0.010 A 
ATOM     40  C   UNL A   1      39.616  26.863  29.035  1.00  0.00     0.010 A 
ATOM     41  C   UNL A   1      39.947  28.088  28.448  1.00  0.00    -0.014 A 
BRANCH  41  42
ATOM     42  C   UNL A   1      39.867  29.266  29.300  1.00  0.00     0.031 A 
ATOM     43  C   UNL A   1      38.786  30.244  29.083  1.00  0.00     0.074 A 
ATOM     44  C   UNL A   1      40.771  29.468  30.285  1.00  0.00     0.049 A 
ATOM     45  N   UNL A   1      38.898  31.510  29.303  1.00  0.00    -0.248 NA
ATOM     46  C   UNL A   1      37.485  29.862  28.548  1.00  0.00     0.031 C 
ATOM     47  C   UNL A   1      40.732  30.495  31.323  1.00  0.00     0.029 A 
ATOM     48  N   UNL A   1      42.042  28.894  30.411  1.00  0.00    -0.354 N 
ATOM     49  C   UNL A   1      37.643  32.065  29.192  1.00  0.00     0.074 A 
ATOM     50  C   UNL A   1      36.811  31.009  28.663  1.00  0.00     0.031 C 
ATOM     51  C   UNL A   1      41.977  30.689  31.786  1.00  0.00     0.029 A 
ATOM     52  C   UNL A   1      42.875  29.884  30.975  1.00  0.00     0.049 A 
ATOM     53  H   UNL A   1      42.303  27.979  30.156  1.00  0.00     0.167 HD
ATOM     54  C   UNL A   1      37.413  33.315  29.687  1.00  0.00     0.037 A 
ATOM     55  C   UNL A   1      43.974  30.346  30.317  1.00  0.00     0.037 A 
ATOM     56  C   UNL A   1      38.632  33.885  30.258  1.00  0.00     0.049 A 
ATOM     57  C   UNL A   1      43.920  31.822  30.008  1.00  0.00     0.074 A 
ATOM     58  C   UNL A   1      39.115  33.922  31.556  1.00  0.00     0.029 A 
ATOM     59  N   UNL A   1      39.694  34.228  29.431  1.00  0.00    -0.354 N 
ATOM     60  N   UNL A   1      42.828  32.534  30.066  1.00  0.00    -0.248 NA
ATOM     61  C   UNL A   1      45.072  32.606  29.568  1.00  0.00     0.031 C 
ATOM     62  C   UNL A   1      40.495  34.228  31.503  1.00  0.00     0.029 A 
ATOM     63  C   UNL A   1      40.846  34.403  30.176  1.00  0.00     0.049 A 
ATOM     64  H   UNL A   1      39.636  34.331  28.454  1.00  0.00     0.167 HD
ATOM     65  C   UNL A   1      43.091  33.810  29.645  1.00  0.00     0.074 A 
ATOM     66  C   UNL A   1      44.516  33.814  29.372  1.00  0.00     0.031 C 
ATOM     67  C   UNL A   1      42.106  34.748  29.535  1.00  0.00     0.037 A 
BRANCH  54  68
ATOM     68  C   UNL A   1      36.028  33.865  29.943  1.00  0.00     0.057 A 
ATOM     69  C   UNL A   1      35.198  34.265  28.878  1.00  0.00     0.134 A 
ATOM     70  C   UNL A   1      35.475  34.082  31.217  1.00  0.00     0.134 A 
ATOM     71  F   UNL A   1      35.514  34.010  27.602  1.00  0.00    -0.206 F 
ATOM     72  C   UNL A   1      33.993  34.954  29.066  1.00  0.00     0.040 A 
ATOM     73  C   UNL A   1      34.300  34.820  31.423  1.00  0.00     0.040 A 
ATOM     74  F   UNL A   1      36.021  33.543  32.316  1.00  0.00    -0.206 F 
ATOM     75  C   UNL A   1      33.561  35.276  30.343  1.00  0.00     0.006 A 
ENDBRANCH  54  68
BRANCH  55  76
ATOM     76  C   UNL A   1      44.618  29.310  29.467  1.00  0.00     0.057 A 
ATOM     77  C   UNL A   1      45.460  28.371  30.089  1.00  0.00     0.134 A 
ATOM     78  C   UNL A   1      44.128  28.987  28.200  1.00  0.00     0.134 A 
ATOM     79  F   UNL A   1      45.965  28.623  31.305  1.00  0.00    -0.206 F 
ATOM     80  C   UNL A   1      45.699  27.111  29.533  1.00  0.00     0.040 A 
ATOM     81  C   UNL A   1      44.371  27.733  27.629  1.00  0.00     0.040 A 
ATOM     82  F   UNL A   1      43.305  29.824  27.553  1.00  0.00    -0.206 F 
ATOM     83  C   UNL A   1      45.121  26.776  28.313  1.00  0.00     0.006 A 
ENDBRANCH  55  76
BRANCH  67  84
ATOM     84  C   UNL A   1      42.245  36.101  28.889  1.00  0.00     0.057 A 
ATOM     85  C   UNL A   1      42.905  37.188  29.476  1.00  0.00     0.134 A 
ATOM     86  C   UNL A   1      41.835  36.296  27.551  1.00  0.00     0.134 A 
ATOM     87  F   UNL A   1      43.434  37.106  30.705  1.00  0.00    -0.206 F 
ATOM     88  C   UNL A   1      43.105  38.399  28.799  1.00  0.00     0.040 A 
ATOM     89  C   UNL A   1      42.074  37.479  26.849  1.00  0.00     0.040 A 
ATOM     90  F   UNL A   1      41.204  35.332  26.862  1.00  0.00    -0.206 F 
ATOM     91  C   UNL A   1      42.701  38.543  27.477  1.00  0.00     0.006 A 
ENDBRANCH  67  84
ENDBRANCH  41  42
ENDBRANCH  33  36
ENDBRANCH  31  32
ENDBRANCH  30  31
ENDBRANCH   1  30
TORSDOF 14
ENDMDL
MODEL 3
REMARK VINA RESULT:     -12.8      2.721      4.168
REMARK SMILES Cc1ccc(CCC(=O)N2CCC3(CC2)[C@H](C(=O)NCCCCNC(=O)c2ccc(-c4c5nc(c(-c6c(F)cccc6F)c6ccc([nH]6)c(-c6c(F)cccc6F)c6nc(c(-c7c(F)cccc7F)c7ccc4[nH]7)C=C6)C=C5)cc2)CC(=O)N3C)cc1
REMARK SMILES IDX 21 1 20 2 19 3 17 4 18 5 16 7 8 8 9 9 10 10 11 11 15 12
REMARK SMILES IDX 12 13 14 14 13 15 84 16 81 17 82 18 85 19 83 20 7 21 6 22
REMARK SMILES IDX 5 23 1 24 2 25 3 26 87 27 4 28 86 29 22 30 23 31 24 32 25 33
REMARK SMILES IDX 26 35 27 36 28 37 80 38 29 39 79 40 30 41 31 42 32 43 73 44
REMARK SMILES IDX 33 45 78 46 72 47 74 48 34 49 77 50 71 51 70 52 35 54 61 55
REMARK SMILES IDX 44 56 60 57 45 58 48 59 59 60 75 61 46 62 47 63 58 65 76 66
REMARK SMILES IDX 49 67 36 68 37 69 42 70 38 71 39 72 41 73 43 74 40 75 62 76
REMARK SMILES IDX 63 77 68 78 64 79 65 80 67 81 69 82 66 83 50 84 51 85 56 86
REMARK SMILES IDX 52 87 53 88 55 89 57 90 54 91
REMARK H PARENT 19 6 24 34 74 53 48 64
REMARK Flexibility Score: inf
ROOT
ATOM      1  C   UNL A   1      35.605  29.325  27.259  1.00  0.00     0.023 C 
ENDROOT
BRANCH   1   2
ATOM      2  C   UNL A   1      34.395  28.609  26.631  1.00  0.00     0.116 C 
BRANCH   2   3
ATOM      3  N   UNL A   1      33.255  29.444  26.263  1.00  0.00    -0.356 N 
ATOM      4  C   UNL A   1      32.268  29.391  25.335  1.00  0.00     0.226 C 
ATOM      5  O   UNL A   1      31.398  30.267  25.434  1.00  0.00    -0.275 OA
ATOM      6  H   UNL A   1      33.187  30.247  26.829  1.00  0.00     0.163 HD
BRANCH   4   7
ATOM      7  C   UNL A   1      32.152  28.379  24.191  1.00  0.00     0.113 C 
ATOM      8  C   UNL A   1      31.873  23.461  26.164  1.00  0.00     0.222 C 
ATOM      9  O   UNL A   1      31.590  23.096  27.310  1.00  0.00    -0.275 OA
ATOM     10  N   UNL A   1      31.147  24.459  25.542  1.00  0.00    -0.343 N 
ATOM     11  C   UNL A   1      30.517  25.502  26.320  1.00  0.00     0.122 C 
ATOM     12  C   UNL A   1      30.992  24.649  24.123  1.00  0.00     0.122 C 
ATOM     13  C   UNL A   1      31.159  26.825  25.919  1.00  0.00     0.051 C 
ATOM     14  C   UNL A   1      31.717  25.910  23.656  1.00  0.00     0.051 C 
ATOM     15  C   UNL A   1      31.199  27.170  24.398  1.00  0.00     0.058 C 
ATOM     16  N   UNL A   1      29.996  27.664  23.694  1.00  0.00    -0.339 N 
ATOM     17  C   UNL A   1      31.740  29.044  22.890  1.00  0.00     0.116 C 
ATOM     18  C   UNL A   1      30.309  28.636  22.734  1.00  0.00     0.223 C 
ATOM     19  C   UNL A   1      28.721  26.982  23.577  1.00  0.00     0.147 C 
ATOM     20  O   UNL A   1      29.557  29.073  21.876  1.00  0.00    -0.275 OA
BRANCH   8  21
ATOM     21  C   UNL A   1      33.189  22.987  25.534  1.00  0.00     0.105 C 
BRANCH  21  22
ATOM     22  C   UNL A   1      33.191  22.239  24.190  1.00  0.00     0.045 C 
BRANCH  22  23
ATOM     23  C   UNL A   1      33.268  20.726  24.320  1.00  0.00    -0.047 A 
ATOM     24  C   UNL A   1      34.094  16.609  23.431  1.00  0.00     0.044 C 
ATOM     25  C   UNL A   1      33.716  17.985  23.898  1.00  0.00    -0.051 A 
ATOM     26  C   UNL A   1      32.502  18.565  23.518  1.00  0.00     0.004 A 
ATOM     27  C   UNL A   1      34.629  18.743  24.639  1.00  0.00     0.004 A 
ATOM     28  C   UNL A   1      32.262  19.920  23.763  1.00  0.00     0.004 A 
ATOM     29  C   UNL A   1      34.401  20.104  24.857  1.00  0.00     0.004 A 
ENDBRANCH  22  23
ENDBRANCH  21  22
ENDBRANCH   8  21
ENDBRANCH   4   7
ENDBRANCH   2   3
ENDBRANCH   1   2
BRANCH   1  30
ATOM     30  C   UNL A   1      35.312  30.309  28.398  1.00  0.00     0.023 C 
BRANCH  30  31
ATOM     31  C   UNL A   1      35.369  31.748  27.946  1.00  0.00     0.116 C 
BRANCH  31  32
ATOM     32  N   UNL A   1      34.417  32.626  28.618  1.00  0.00    -0.352 N 
ATOM     33  C   UNL A   1      34.550  33.277  29.829  1.00  0.00     0.251 C 
ATOM     34  H   UNL A   1      33.566  32.773  28.145  1.00  0.00     0.163 HD
ATOM     35  O   UNL A   1      33.631  33.957  30.281  1.00  0.00    -0.269 OA
BRANCH  33  36
ATOM     36  C   UNL A   1      35.869  33.261  30.500  1.00  0.00     0.039 A 
ATOM     37  C   UNL A   1      36.888  34.035  29.939  1.00  0.00     0.014 A 
ATOM     38  C   UNL A   1      36.159  32.276  31.442  1.00  0.00     0.014 A 
ATOM     39  C   UNL A   1      38.208  33.634  30.107  1.00  0.00     0.010 A 
ATOM     40  C   UNL A   1      37.454  31.804  31.510  1.00  0.00     0.010 A 
ATOM     41  C   UNL A   1      38.468  32.445  30.791  1.00  0.00    -0.014 A 
BRANCH  41  42
ATOM     42  C   UNL A   1      39.760  31.774  30.739  1.00  0.00     0.031 A 
ATOM     43  C   UNL A   1      39.901  30.537  29.950  1.00  0.00     0.074 A 
ATOM     44  C   UNL A   1      40.825  32.275  31.404  1.00  0.00     0.049 A 
ATOM     45  N   UNL A   1      40.706  29.574  30.248  1.00  0.00    -0.248 NA
ATOM     46  C   UNL A   1      39.095  30.272  28.766  1.00  0.00     0.031 C 
ATOM     47  C   UNL A   1      42.212  31.825  31.319  1.00  0.00     0.029 A 
ATOM     48  N   UNL A   1      40.818  33.179  32.473  1.00  0.00    -0.354 N 
ATOM     49  C   UNL A   1      40.718  28.697  29.187  1.00  0.00     0.074 A 
ATOM     50  C   UNL A   1      39.655  29.146  28.318  1.00  0.00     0.031 C 
ATOM     51  C   UNL A   1      42.859  32.204  32.431  1.00  0.00     0.029 A 
ATOM     52  C   UNL A   1      41.881  32.802  33.323  1.00  0.00     0.049 A 
ATOM     53  H   UNL A   1      40.195  33.929  32.607  1.00  0.00     0.167 HD
ATOM     54  C   UNL A   1      41.714  27.770  29.092  1.00  0.00     0.037 A 
ATOM     55  C   UNL A   1      41.660  32.433  34.616  1.00  0.00     0.037 A 
ATOM     56  C   UNL A   1      42.631  27.866  30.226  1.00  0.00     0.049 A 
ATOM     57  C   UNL A   1      42.082  31.017  34.922  1.00  0.00     0.074 A 
ATOM     58  C   UNL A   1      43.839  28.524  30.385  1.00  0.00     0.029 A 
ATOM     59  N   UNL A   1      42.201  27.516  31.500  1.00  0.00    -0.354 N 
ATOM     60  N   UNL A   1      42.336  30.124  34.006  1.00  0.00    -0.248 NA
ATOM     61  C   UNL A   1      42.210  30.479  36.274  1.00  0.00     0.031 C 
ATOM     62  C   UNL A   1      44.107  28.625  31.770  1.00  0.00     0.029 A 
ATOM     63  C   UNL A   1      43.075  28.008  32.452  1.00  0.00     0.049 A 
ATOM     64  H   UNL A   1      41.391  26.994  31.696  1.00  0.00     0.167 HD
ATOM     65  C   UNL A   1      42.605  28.920  34.602  1.00  0.00     0.074 A 
ATOM     66  C   UNL A   1      42.543  29.200  36.025  1.00  0.00     0.031 C 
ATOM     67  C   UNL A   1      42.833  27.791  33.871  1.00  0.00     0.037 A 
BRANCH  54  68
ATOM     68  C   UNL A   1      42.029  27.018  27.818  1.00  0.00     0.057 A 
ATOM     69  C   UNL A   1      42.576  27.680  26.702  1.00  0.00     0.134 A 
ATOM     70  C   UNL A   1      41.763  25.654  27.605  1.00  0.00     0.134 A 
ATOM     71  F   UNL A   1      43.010  28.945  26.773  1.00  0.00    -0.206 F 
ATOM     72  C   UNL A   1      42.706  27.077  25.444  1.00  0.00     0.040 A 
ATOM     73  C   UNL A   1      41.833  25.051  26.341  1.00  0.00     0.040 A 
ATOM     74  F   UNL A   1      41.473  24.832  28.623  1.00  0.00    -0.206 F 
ATOM     75  C   UNL A   1      42.291  25.770  25.247  1.00  0.00     0.006 A 
ENDBRANCH  54  68
BRANCH  55  76
ATOM     76  C   UNL A   1      40.507  33.141  35.231  1.00  0.00     0.057 A 
ATOM     77  C   UNL A   1      39.267  32.478  35.276  1.00  0.00     0.134 A 
ATOM     78  C   UNL A   1      40.684  34.222  36.098  1.00  0.00     0.134 A 
ATOM     79  F   UNL A   1      39.035  31.433  34.468  1.00  0.00    -0.206 F 
ATOM     80  C   UNL A   1      38.295  32.793  36.229  1.00  0.00     0.040 A 
ATOM     81  C   UNL A   1      39.711  34.554  37.048  1.00  0.00     0.040 A 
ATOM     82  F   UNL A   1      41.845  34.891  36.126  1.00  0.00    -0.206 F 
ATOM     83  C   UNL A   1      38.533  33.813  37.145  1.00  0.00     0.006 A 
ENDBRANCH  55  76
BRANCH  67  84
ATOM     84  C   UNL A   1      42.926  26.390  34.418  1.00  0.00     0.057 A 
ATOM     85  C   UNL A   1      41.894  25.749  35.115  1.00  0.00     0.134 A 
ATOM     86  C   UNL A   1      44.041  25.579  34.107  1.00  0.00     0.134 A 
ATOM     87  F   UNL A   1      40.740  26.371  35.387  1.00  0.00    -0.206 F 
ATOM     88  C   UNL A   1      41.981  24.409  35.516  1.00  0.00     0.040 A 
ATOM     89  C   UNL A   1      44.116  24.229  34.456  1.00  0.00     0.040 A 
ATOM     90  F   UNL A   1      45.094  26.061  33.430  1.00  0.00    -0.206 F 
ATOM     91  C   UNL A   1      43.089  23.640  35.176  1.00  0.00     0.006 A 
ENDBRANCH  67  84
ENDBRANCH  41  42
ENDBRANCH  33  36
ENDBRANCH  31  32
ENDBRANCH  30  31
ENDBRANCH   1  30
TORSDOF 14
ENDMDL
