MODEL 1
REMARK VINA RESULT:     -12.7      0.000      0.000
REMARK SMILES CC(C)Oc1ccc([C@@H]2CC(=O)Nc3c(C(=O)NCCCCNC(=O)c4ccc(-c5c6nc(c(-c7c(F)cccc7F)c7ccc([nH]7)c(-c7c(F)cccc7F)c7nc(c(-c8c(F)cccc8F)c8ccc5[nH]8)C=C7)C=C6)cc4)nsc32)cc1
REMARK SMILES IDX 20 1 19 2 18 3 16 4 17 5 15 7 9 8 10 9 82 10 11 11 14 12
REMARK SMILES IDX 81 13 12 14 13 15 80 16 8 18 5 19 6 20 84 21 7 22 83 23 4 24
REMARK SMILES IDX 2 25 1 26 3 27 21 28 22 29 23 30 24 31 25 33 26 34 27 35
REMARK SMILES IDX 79 36 28 37 78 38 29 39 30 40 31 41 72 42 32 43 77 44 71 45
REMARK SMILES IDX 73 46 33 47 76 48 70 49 69 50 34 52 60 53 43 54 59 55 44 56
REMARK SMILES IDX 47 57 58 58 74 59 45 60 46 61 57 63 75 64 48 65 35 66 36 67
REMARK SMILES IDX 41 68 37 69 38 70 40 71 42 72 39 73 61 74 62 75 67 76 63 77
REMARK SMILES IDX 64 78 66 79 68 80 65 81 49 82 50 83 55 84 51 85 52 86 54 87
REMARK SMILES IDX 56 88 53 89
REMARK H PARENT 18 6 13 17 23 32 73 51 47 62
REMARK Flexibility Score: inf
ROOT
ATOM      1  C   UNL A   1      32.732  29.381  26.455  1.00  0.00     0.023 C 
ENDROOT
BRANCH   1   2
ATOM      2  C   UNL A   1      32.828  29.367  24.936  1.00  0.00     0.116 C 
BRANCH   2   3
ATOM      3  N   UNL A   1      31.611  29.231  24.159  1.00  0.00    -0.351 N 
ATOM      4  C   UNL A   1      30.932  28.071  23.787  1.00  0.00     0.273 C 
ATOM      5  O   UNL A   1      29.856  28.221  23.204  1.00  0.00    -0.267 OA
ATOM      6  H   UNL A   1      31.209  30.075  23.851  1.00  0.00     0.163 HD
BRANCH   4   7
ATOM      7  C   UNL A   1      31.523  26.730  24.026  1.00  0.00     0.165 A 
ATOM      8  C   UNL A   1      32.903  23.437  22.826  1.00  0.00     0.073 C 
ATOM      9  C   UNL A   1      33.094  23.769  21.331  1.00  0.00     0.114 C 
ATOM     10  C   UNL A   1      32.362  24.603  23.584  1.00  0.00     0.058 A 
ATOM     11  C   UNL A   1      32.903  25.214  20.906  1.00  0.00     0.225 C 
ATOM     12  C   UNL A   1      32.269  25.890  23.116  1.00  0.00     0.089 A 
ATOM     13  S   UNL A   1      31.781  24.563  25.176  1.00  0.00    -0.038 S 
ATOM     14  O   UNL A   1      32.871  25.538  19.719  1.00  0.00    -0.275 OA
ATOM     15  N   UNL A   1      32.744  26.180  21.857  1.00  0.00    -0.323 N 
ATOM     16  N   UNL A   1      31.297  26.148  25.216  1.00  0.00    -0.185 NA
ATOM     17  H   UNL A   1      32.976  27.111  21.637  1.00  0.00     0.170 HD
BRANCH   8  18
ATOM     18  C   UNL A   1      34.215  22.935  23.402  1.00  0.00    -0.039 A 
ATOM     19  C   UNL A   1      36.651  22.011  24.422  1.00  0.00     0.119 A 
ATOM     20  C   UNL A   1      35.452  21.479  24.896  1.00  0.00     0.047 A 
ATOM     21  C   UNL A   1      36.638  22.940  23.390  1.00  0.00     0.047 A 
ATOM     22  C   UNL A   1      34.234  21.941  24.392  1.00  0.00     0.008 A 
ATOM     23  C   UNL A   1      35.431  23.424  22.904  1.00  0.00     0.008 A 
BRANCH  19  24
ATOM     24  O   UNL A   1      37.812  21.528  24.950  1.00  0.00    -0.491 OA
BRANCH  24  25
ATOM     25  C   UNL A   1      38.314  22.195  26.126  1.00  0.00     0.167 C 
ATOM     26  C   UNL A   1      39.757  21.828  26.466  1.00  0.00     0.052 C 
ATOM     27  C   UNL A   1      38.083  23.707  26.127  1.00  0.00     0.052 C 
ENDBRANCH  24  25
ENDBRANCH  19  24
ENDBRANCH   8  18
ENDBRANCH   4   7
ENDBRANCH   2   3
ENDBRANCH   1   2
BRANCH   1  28
ATOM     28  C   UNL A   1      33.781  28.604  27.251  1.00  0.00     0.023 C 
BRANCH  28  29
ATOM     29  C   UNL A   1      35.153  29.256  27.378  1.00  0.00     0.116 C 
BRANCH  29  30
ATOM     30  N   UNL A   1      35.332  30.097  28.557  1.00  0.00    -0.352 N 
ATOM     31  C   UNL A   1      36.373  30.022  29.476  1.00  0.00     0.251 C 
ATOM     32  H   UNL A   1      34.649  30.786  28.718  1.00  0.00     0.163 HD
ATOM     33  O   UNL A   1      36.279  30.499  30.590  1.00  0.00    -0.269 OA
BRANCH  31  34
ATOM     34  C   UNL A   1      37.618  29.338  29.058  1.00  0.00     0.039 A 
ATOM     35  C   UNL A   1      38.302  29.714  27.901  1.00  0.00     0.014 A 
ATOM     36  C   UNL A   1      38.117  28.334  29.888  1.00  0.00     0.014 A 
ATOM     37  C   UNL A   1      39.546  29.139  27.641  1.00  0.00     0.010 A 
ATOM     38  C   UNL A   1      39.394  27.865  29.702  1.00  0.00     0.010 A 
ATOM     39  C   UNL A   1      40.104  28.238  28.566  1.00  0.00    -0.014 A 
BRANCH  39  40
ATOM     40  C   UNL A   1      41.507  27.834  28.453  1.00  0.00     0.031 A 
ATOM     41  C   UNL A   1      41.689  26.556  27.712  1.00  0.00     0.074 A 
ATOM     42  C   UNL A   1      42.551  28.632  28.775  1.00  0.00     0.049 A 
ATOM     43  N   UNL A   1      42.071  25.420  28.191  1.00  0.00    -0.248 NA
ATOM     44  C   UNL A   1      41.229  26.479  26.313  1.00  0.00     0.031 C 
ATOM     45  C   UNL A   1      42.503  30.030  29.222  1.00  0.00     0.029 A 
ATOM     46  N   UNL A   1      43.895  28.402  28.677  1.00  0.00    -0.354 N 
ATOM     47  C   UNL A   1      42.142  24.552  27.104  1.00  0.00     0.074 A 
ATOM     48  C   UNL A   1      41.417  25.185  26.038  1.00  0.00     0.031 C 
ATOM     49  C   UNL A   1      43.732  30.585  29.130  1.00  0.00     0.029 A 
ATOM     50  C   UNL A   1      44.685  29.546  28.788  1.00  0.00     0.049 A 
ATOM     51  H   UNL A   1      44.273  27.503  28.539  1.00  0.00     0.167 HD
ATOM     52  C   UNL A   1      43.061  23.547  27.091  1.00  0.00     0.037 A 
ATOM     53  C   UNL A   1      46.028  29.639  28.615  1.00  0.00     0.037 A 
ATOM     54  C   UNL A   1      43.596  23.343  28.416  1.00  0.00     0.049 A 
ATOM     55  C   UNL A   1      46.580  28.278  28.773  1.00  0.00     0.074 A 
ATOM     56  C   UNL A   1      43.116  22.917  29.636  1.00  0.00     0.029 A 
ATOM     57  N   UNL A   1      44.759  24.023  28.657  1.00  0.00    -0.354 N 
ATOM     58  N   UNL A   1      46.613  27.639  29.907  1.00  0.00    -0.248 NA
ATOM     59  C   UNL A   1      46.782  27.460  27.587  1.00  0.00     0.031 C 
ATOM     60  C   UNL A   1      43.877  23.624  30.616  1.00  0.00     0.029 A 
ATOM     61  C   UNL A   1      44.835  24.402  29.966  1.00  0.00     0.049 A 
ATOM     62  H   UNL A   1      45.448  24.213  27.978  1.00  0.00     0.167 HD
ATOM     63  C   UNL A   1      46.368  26.325  29.562  1.00  0.00     0.074 A 
ATOM     64  C   UNL A   1      46.668  26.247  28.136  1.00  0.00     0.031 C 
ATOM     65  C   UNL A   1      45.643  25.522  30.395  1.00  0.00     0.037 A 
BRANCH  52  66
ATOM     66  C   UNL A   1      43.862  23.129  25.866  1.00  0.00     0.057 A 
ATOM     67  C   UNL A   1      43.951  21.757  25.555  1.00  0.00     0.134 A 
ATOM     68  C   UNL A   1      44.799  23.945  25.200  1.00  0.00     0.134 A 
ATOM     69  F   UNL A   1      43.128  20.866  26.128  1.00  0.00    -0.206 F 
ATOM     70  C   UNL A   1      44.950  21.234  24.721  1.00  0.00     0.040 A 
ATOM     71  C   UNL A   1      45.769  23.439  24.329  1.00  0.00     0.040 A 
ATOM     72  F   UNL A   1      44.907  25.258  25.426  1.00  0.00    -0.206 F 
ATOM     73  C   UNL A   1      45.870  22.075  24.111  1.00  0.00     0.006 A 
ENDBRANCH  52  66
BRANCH  53  74
ATOM     74  C   UNL A   1      46.875  30.757  28.138  1.00  0.00     0.057 A 
ATOM     75  C   UNL A   1      46.672  31.335  26.873  1.00  0.00     0.134 A 
ATOM     76  C   UNL A   1      47.683  31.487  29.023  1.00  0.00     0.134 A 
ATOM     77  F   UNL A   1      45.893  30.730  25.963  1.00  0.00    -0.206 F 
ATOM     78  C   UNL A   1      47.198  32.587  26.529  1.00  0.00     0.040 A 
ATOM     79  C   UNL A   1      48.218  32.737  28.691  1.00  0.00     0.040 A 
ATOM     80  F   UNL A   1      47.899  31.053  30.275  1.00  0.00    -0.206 F 
ATOM     81  C   UNL A   1      47.960  33.301  27.447  1.00  0.00     0.006 A 
ENDBRANCH  53  74
BRANCH  65  82
ATOM     82  C   UNL A   1      45.547  25.938  31.836  1.00  0.00     0.057 A 
ATOM     83  C   UNL A   1      46.556  25.765  32.795  1.00  0.00     0.134 A 
ATOM     84  C   UNL A   1      44.393  26.615  32.245  1.00  0.00     0.134 A 
ATOM     85  F   UNL A   1      47.730  25.203  32.480  1.00  0.00    -0.206 F 
ATOM     86  C   UNL A   1      46.398  26.204  34.114  1.00  0.00     0.040 A 
ATOM     87  C   UNL A   1      44.240  27.092  33.547  1.00  0.00     0.040 A 
ATOM     88  F   UNL A   1      43.404  26.854  31.370  1.00  0.00    -0.206 F 
ATOM     89  C   UNL A   1      45.238  26.874  34.491  1.00  0.00     0.006 A 
ENDBRANCH  65  82
ENDBRANCH  39  40
ENDBRANCH  31  34
ENDBRANCH  29  30
ENDBRANCH  28  29
ENDBRANCH   1  28
TORSDOF 14
ENDMDL
MODEL 2
REMARK VINA RESULT:     -12.3      1.611      2.397
REMARK SMILES CC(C)Oc1ccc([C@@H]2CC(=O)Nc3c(C(=O)NCCCCNC(=O)c4ccc(-c5c6nc(c(-c7c(F)cccc7F)c7ccc([nH]7)c(-c7c(F)cccc7F)c7nc(c(-c8c(F)cccc8F)c8ccc5[nH]8)C=C7)C=C6)cc4)nsc32)cc1
REMARK SMILES IDX 20 1 19 2 18 3 16 4 17 5 15 7 9 8 10 9 82 10 11 11 14 12
REMARK SMILES IDX 81 13 12 14 13 15 80 16 8 18 5 19 6 20 84 21 7 22 83 23 4 24
REMARK SMILES IDX 2 25 1 26 3 27 21 28 22 29 23 30 24 31 25 33 26 34 27 35
REMARK SMILES IDX 79 36 28 37 78 38 29 39 30 40 31 41 72 42 32 43 77 44 71 45
REMARK SMILES IDX 73 46 33 47 76 48 70 49 69 50 34 52 60 53 43 54 59 55 44 56
REMARK SMILES IDX 47 57 58 58 74 59 45 60 46 61 57 63 75 64 48 65 35 66 36 67
REMARK SMILES IDX 41 68 37 69 38 70 40 71 42 72 39 73 61 74 62 75 67 76 63 77
REMARK SMILES IDX 64 78 66 79 68 80 65 81 49 82 50 83 55 84 51 85 52 86 54 87
REMARK SMILES IDX 56 88 53 89
REMARK H PARENT 18 6 13 17 23 32 73 51 47 62
REMARK Flexibility Score: inf
ROOT
ATOM      1  C   UNL A   1      32.901  29.473  25.917  1.00  0.00     0.023 C 
ENDROOT
BRANCH   1   2
ATOM      2  C   UNL A   1      32.983  28.997  24.473  1.00  0.00     0.116 C 
BRANCH   2   3
ATOM      3  N   UNL A   1      31.816  28.384  23.870  1.00  0.00    -0.351 N 
ATOM      4  C   UNL A   1      31.461  27.036  23.817  1.00  0.00     0.273 C 
ATOM      5  O   UNL A   1      30.360  26.771  23.330  1.00  0.00    -0.267 OA
ATOM      6  H   UNL A   1      31.187  29.005  23.437  1.00  0.00     0.163 HD
BRANCH   4   7
ATOM      7  C   UNL A   1      32.404  25.979  24.266  1.00  0.00     0.165 A 
ATOM      8  C   UNL A   1      33.409  23.172  26.567  1.00  0.00     0.073 C 
ATOM      9  C   UNL A   1      32.052  22.908  27.256  1.00  0.00     0.114 C 
ATOM     10  C   UNL A   1      33.308  24.265  25.556  1.00  0.00     0.058 A 
ATOM     11  C   UNL A   1      30.835  23.622  26.699  1.00  0.00     0.225 C 
ATOM     12  C   UNL A   1      32.144  24.818  25.086  1.00  0.00     0.089 A 
ATOM     13  S   UNL A   1      34.615  25.014  24.779  1.00  0.00    -0.038 S 
ATOM     14  O   UNL A   1      29.752  23.603  27.284  1.00  0.00    -0.275 OA
ATOM     15  N   UNL A   1      30.939  24.320  25.530  1.00  0.00    -0.323 N 
ATOM     16  N   UNL A   1      33.703  26.121  23.949  1.00  0.00    -0.185 NA
ATOM     17  H   UNL A   1      30.131  24.470  24.989  1.00  0.00     0.170 HD
BRANCH   8  18
ATOM     18  C   UNL A   1      33.927  21.878  25.967  1.00  0.00    -0.039 A 
ATOM     19  C   UNL A   1      34.853  19.470  24.883  1.00  0.00     0.119 A 
ATOM     20  C   UNL A   1      35.761  20.463  25.246  1.00  0.00     0.047 A 
ATOM     21  C   UNL A   1      33.497  19.644  25.131  1.00  0.00     0.047 A 
ATOM     22  C   UNL A   1      35.302  21.668  25.784  1.00  0.00     0.008 A 
ATOM     23  C   UNL A   1      33.032  20.850  25.639  1.00  0.00     0.008 A 
BRANCH  19  24
ATOM     24  O   UNL A   1      35.353  18.314  24.359  1.00  0.00    -0.491 OA
BRANCH  24  25
ATOM     25  C   UNL A   1      34.477  17.168  24.370  1.00  0.00     0.167 C 
ATOM     26  C   UNL A   1      34.036  16.725  22.976  1.00  0.00     0.052 C 
ATOM     27  C   UNL A   1      34.992  16.002  25.215  1.00  0.00     0.052 C 
ENDBRANCH  24  25
ENDBRANCH  19  24
ENDBRANCH   8  18
ENDBRANCH   4   7
ENDBRANCH   2   3
ENDBRANCH   1   2
BRANCH   1  28
ATOM     28  C   UNL A   1      33.627  28.659  26.987  1.00  0.00     0.023 C 
BRANCH  28  29
ATOM     29  C   UNL A   1      35.063  29.070  27.291  1.00  0.00     0.116 C 
BRANCH  29  30
ATOM     30  N   UNL A   1      35.222  29.970  28.428  1.00  0.00    -0.352 N 
ATOM     31  C   UNL A   1      36.268  29.967  29.346  1.00  0.00     0.251 C 
ATOM     32  H   UNL A   1      34.520  30.647  28.560  1.00  0.00     0.163 HD
ATOM     33  O   UNL A   1      36.163  30.494  30.436  1.00  0.00    -0.269 OA
BRANCH  31  34
ATOM     34  C   UNL A   1      37.529  29.300  28.955  1.00  0.00     0.039 A 
ATOM     35  C   UNL A   1      38.226  29.673  27.804  1.00  0.00     0.014 A 
ATOM     36  C   UNL A   1      38.032  28.314  29.804  1.00  0.00     0.014 A 
ATOM     37  C   UNL A   1      39.483  29.116  27.570  1.00  0.00     0.010 A 
ATOM     38  C   UNL A   1      39.320  27.863  29.644  1.00  0.00     0.010 A 
ATOM     39  C   UNL A   1      40.041  28.235  28.515  1.00  0.00    -0.014 A 
BRANCH  39  40
ATOM     40  C   UNL A   1      41.452  27.853  28.428  1.00  0.00     0.031 A 
ATOM     41  C   UNL A   1      41.669  26.590  27.670  1.00  0.00     0.074 A 
ATOM     42  C   UNL A   1      42.477  28.660  28.787  1.00  0.00     0.049 A 
ATOM     43  N   UNL A   1      42.057  25.451  28.140  1.00  0.00    -0.248 NA
ATOM     44  C   UNL A   1      41.244  26.530  26.259  1.00  0.00     0.031 C 
ATOM     45  C   UNL A   1      42.397  30.050  29.255  1.00  0.00     0.029 A 
ATOM     46  N   UNL A   1      43.826  28.451  28.717  1.00  0.00    -0.354 N 
ATOM     47  C   UNL A   1      42.166  24.603  27.040  1.00  0.00     0.074 A 
ATOM     48  C   UNL A   1      41.456  25.243  25.968  1.00  0.00     0.031 C 
ATOM     49  C   UNL A   1      43.619  30.623  29.201  1.00  0.00     0.029 A 
ATOM     50  C   UNL A   1      44.596  29.605  28.865  1.00  0.00     0.049 A 
ATOM     51  H   UNL A   1      44.220  27.560  28.573  1.00  0.00     0.167 HD
ATOM     52  C   UNL A   1      43.100  23.612  27.033  1.00  0.00     0.037 A 
ATOM     53  C   UNL A   1      45.941  29.719  28.725  1.00  0.00     0.037 A 
ATOM     54  C   UNL A   1      43.606  23.394  28.367  1.00  0.00     0.049 A 
ATOM     55  C   UNL A   1      46.509  28.364  28.874  1.00  0.00     0.074 A 
ATOM     56  C   UNL A   1      43.105  22.941  29.568  1.00  0.00     0.029 A 
ATOM     57  N   UNL A   1      44.754  24.085  28.645  1.00  0.00    -0.354 N 
ATOM     58  N   UNL A   1      46.525  27.707  29.998  1.00  0.00    -0.248 NA
ATOM     59  C   UNL A   1      46.751  27.569  27.679  1.00  0.00     0.031 C 
ATOM     60  C   UNL A   1      43.832  23.642  30.577  1.00  0.00     0.029 A 
ATOM     61  C   UNL A   1      44.794  24.443  29.962  1.00  0.00     0.049 A 
ATOM     62  H   UNL A   1      45.455  24.297  27.986  1.00  0.00     0.167 HD
ATOM     63  C   UNL A   1      46.307  26.395  29.626  1.00  0.00     0.074 A 
ATOM     64  C   UNL A   1      46.642  26.346  28.206  1.00  0.00     0.031 C 
ATOM     65  C   UNL A   1      45.575  25.568  30.428  1.00  0.00     0.037 A 
BRANCH  52  66
ATOM     66  C   UNL A   1      43.935  23.226  25.820  1.00  0.00     0.057 A 
ATOM     67  C   UNL A   1      44.060  21.860  25.494  1.00  0.00     0.134 A 
ATOM     68  C   UNL A   1      44.868  24.070  25.184  1.00  0.00     0.134 A 
ATOM     69  F   UNL A   1      43.244  20.945  26.040  1.00  0.00    -0.206 F 
ATOM     70  C   UNL A   1      45.086  21.368  24.676  1.00  0.00     0.040 A 
ATOM     71  C   UNL A   1      45.867  23.594  24.327  1.00  0.00     0.040 A 
ATOM     72  F   UNL A   1      44.943  25.382  25.428  1.00  0.00    -0.206 F 
ATOM     73  C   UNL A   1      46.002  22.236  24.096  1.00  0.00     0.006 A 
ENDBRANCH  52  66
BRANCH  53  74
ATOM     74  C   UNL A   1      46.782  30.857  28.286  1.00  0.00     0.057 A 
ATOM     75  C   UNL A   1      46.682  31.376  26.984  1.00  0.00     0.134 A 
ATOM     76  C   UNL A   1      47.466  31.657  29.215  1.00  0.00     0.134 A 
ATOM     77  F   UNL A   1      46.024  30.701  26.029  1.00  0.00    -0.206 F 
ATOM     78  C   UNL A   1      47.185  32.638  26.640  1.00  0.00     0.040 A 
ATOM     79  C   UNL A   1      47.976  32.918  28.884  1.00  0.00     0.040 A 
ATOM     80  F   UNL A   1      47.574  31.282  30.499  1.00  0.00    -0.206 F 
ATOM     81  C   UNL A   1      47.820  33.421  27.598  1.00  0.00     0.006 A 
ENDBRANCH  53  74
BRANCH  65  82
ATOM     82  C   UNL A   1      45.440  25.958  31.873  1.00  0.00     0.057 A 
ATOM     83  C   UNL A   1      46.419  25.762  32.858  1.00  0.00     0.134 A 
ATOM     84  C   UNL A   1      44.279  26.635  32.261  1.00  0.00     0.134 A 
ATOM     85  F   UNL A   1      47.599  25.199  32.566  1.00  0.00    -0.206 F 
ATOM     86  C   UNL A   1      46.226  26.178  34.179  1.00  0.00     0.040 A 
ATOM     87  C   UNL A   1      44.090  27.089  33.566  1.00  0.00     0.040 A 
ATOM     88  F   UNL A   1      43.317  26.897  31.362  1.00  0.00    -0.206 F 
ATOM     89  C   UNL A   1      45.059  26.849  34.535  1.00  0.00     0.006 A 
ENDBRANCH  65  82
ENDBRANCH  39  40
ENDBRANCH  31  34
ENDBRANCH  29  30
ENDBRANCH  28  29
ENDBRANCH   1  28
TORSDOF 14
ENDMDL
MODEL 3
REMARK VINA RESULT:     -12.1      2.800      7.759
REMARK SMILES CC(C)Oc1ccc([C@@H]2CC(=O)Nc3c(C(=O)NCCCCNC(=O)c4ccc(-c5c6nc(c(-c7c(F)cccc7F)c7ccc([nH]7)c(-c7c(F)cccc7F)c7nc(c(-c8c(F)cccc8F)c8ccc5[nH]8)C=C7)C=C6)cc4)nsc32)cc1
REMARK SMILES IDX 20 1 19 2 18 3 16 4 17 5 15 7 9 8 10 9 82 10 11 11 14 12
REMARK SMILES IDX 81 13 12 14 13 15 80 16 8 18 5 19 6 20 84 21 7 22 83 23 4 24
REMARK SMILES IDX 2 25 1 26 3 27 21 28 22 29 23 30 24 31 25 33 26 34 27 35
REMARK SMILES IDX 79 36 28 37 78 38 29 39 30 40 31 41 72 42 32 43 77 44 71 45
REMARK SMILES IDX 73 46 33 47 76 48 70 49 69 50 34 52 60 53 43 54 59 55 44 56
REMARK SMILES IDX 47 57 58 58 74 59 45 60 46 61 57 63 75 64 48 65 35 66 36 67
REMARK SMILES IDX 41 68 37 69 38 70 40 71 42 72 39 73 61 74 62 75 67 76 63 77
REMARK SMILES IDX 64 78 66 79 68 80 65 81 49 82 50 83 55 84 51 85 52 86 54 87
REMARK SMILES IDX 56 88 53 89
REMARK H PARENT 18 6 13 17 23 32 73 51 47 62
REMARK Flexibility Score: inf
ROOT
ATOM      1  C   UNL A   1      41.126  20.536  26.160  1.00  0.00     0.023 C 
ENDROOT
BRANCH   1   2
ATOM      2  C   UNL A   1      39.666  20.797  25.817  1.00  0.00     0.116 C 
BRANCH   2   3
ATOM      3  N   UNL A   1      38.777  19.667  25.628  1.00  0.00    -0.351 N 
ATOM      4  C   UNL A   1      37.493  19.642  25.084  1.00  0.00     0.273 C 
ATOM      5  O   UNL A   1      36.975  18.532  24.939  1.00  0.00    -0.267 OA
ATOM      6  H   UNL A   1      39.129  18.797  25.926  1.00  0.00     0.163 HD
BRANCH   4   7
ATOM      7  C   UNL A   1      36.773  20.901  24.766  1.00  0.00     0.165 A 
ATOM      8  C   UNL A   1      33.650  22.827  23.916  1.00  0.00     0.073 C 
ATOM      9  C   UNL A   1      32.589  21.759  24.258  1.00  0.00     0.114 C 
ATOM     10  C   UNL A   1      35.033  22.331  24.177  1.00  0.00     0.058 A 
ATOM     11  C   UNL A   1      33.067  20.500  24.958  1.00  0.00     0.225 C 
ATOM     12  C   UNL A   1      35.360  21.189  24.862  1.00  0.00     0.089 A 
ATOM     13  S   UNL A   1      36.465  23.102  23.695  1.00  0.00    -0.038 S 
ATOM     14  O   UNL A   1      32.325  19.530  25.118  1.00  0.00    -0.275 OA
ATOM     15  N   UNL A   1      34.353  20.426  25.409  1.00  0.00    -0.323 N 
ATOM     16  N   UNL A   1      37.484  21.916  24.245  1.00  0.00    -0.185 NA
ATOM     17  H   UNL A   1      34.566  19.810  26.147  1.00  0.00     0.170 HD
BRANCH   8  18
ATOM     18  C   UNL A   1      33.342  24.103  24.677  1.00  0.00    -0.039 A 
ATOM     19  C   UNL A   1      32.734  26.441  26.091  1.00  0.00     0.119 A 
ATOM     20  C   UNL A   1      33.471  26.514  24.910  1.00  0.00     0.047 A 
ATOM     21  C   UNL A   1      32.236  25.218  26.523  1.00  0.00     0.047 A 
ATOM     22  C   UNL A   1      33.780  25.349  24.204  1.00  0.00     0.008 A 
ATOM     23  C   UNL A   1      32.562  24.053  25.842  1.00  0.00     0.008 A 
BRANCH  19  24
ATOM     24  O   UNL A   1      32.463  27.607  26.743  1.00  0.00    -0.491 OA
BRANCH  24  25
ATOM     25  C   UNL A   1      33.210  28.769  26.328  1.00  0.00     0.167 C 
ATOM     26  C   UNL A   1      32.327  29.939  25.897  1.00  0.00     0.052 C 
ATOM     27  C   UNL A   1      34.296  29.194  27.317  1.00  0.00     0.052 C 
ENDBRANCH  24  25
ENDBRANCH  19  24
ENDBRANCH   8  18
ENDBRANCH   4   7
ENDBRANCH   2   3
ENDBRANCH   1   2
BRANCH   1  28
ATOM     28  C   UNL A   1      41.714  19.169  25.813  1.00  0.00     0.023 C 
BRANCH  28  29
ATOM     29  C   UNL A   1      43.194  18.973  26.117  1.00  0.00     0.116 C 
BRANCH  29  30
ATOM     30  N   UNL A   1      44.039  18.725  24.953  1.00  0.00    -0.352 N 
ATOM     31  C   UNL A   1      44.570  19.684  24.097  1.00  0.00     0.251 C 
ATOM     32  H   UNL A   1      44.255  17.786  24.754  1.00  0.00     0.163 HD
ATOM     33  O   UNL A   1      44.959  19.400  22.981  1.00  0.00    -0.269 OA
BRANCH  31  34
ATOM     34  C   UNL A   1      44.653  21.079  24.586  1.00  0.00     0.039 A 
ATOM     35  C   UNL A   1      43.783  22.067  24.121  1.00  0.00     0.014 A 
ATOM     36  C   UNL A   1      45.600  21.366  25.569  1.00  0.00     0.014 A 
ATOM     37  C   UNL A   1      43.808  23.322  24.730  1.00  0.00     0.010 A 
ATOM     38  C   UNL A   1      45.537  22.557  26.252  1.00  0.00     0.010 A 
ATOM     39  C   UNL A   1      44.667  23.551  25.821  1.00  0.00    -0.014 A 
BRANCH  39  40
ATOM     40  C   UNL A   1      44.519  24.756  26.639  1.00  0.00     0.031 A 
ATOM     41  C   UNL A   1      45.630  25.730  26.447  1.00  0.00     0.074 A 
ATOM     42  C   UNL A   1      43.396  25.074  27.322  1.00  0.00     0.049 A 
ATOM     43  N   UNL A   1      46.549  26.047  27.296  1.00  0.00    -0.248 NA
ATOM     44  C   UNL A   1      45.852  26.292  25.102  1.00  0.00     0.031 C 
ATOM     45  C   UNL A   1      42.122  24.344  27.334  1.00  0.00     0.029 A 
ATOM     46  N   UNL A   1      43.110  26.176  28.078  1.00  0.00    -0.354 N 
ATOM     47  C   UNL A   1      47.314  27.034  26.679  1.00  0.00     0.074 A 
ATOM     48  C   UNL A   1      46.981  26.985  25.283  1.00  0.00     0.031 C 
ATOM     49  C   UNL A   1      41.150  25.125  27.855  1.00  0.00     0.029 A 
ATOM     50  C   UNL A   1      41.756  26.336  28.373  1.00  0.00     0.049 A 
ATOM     51  H   UNL A   1      43.803  26.802  28.390  1.00  0.00     0.167 HD
ATOM     52  C   UNL A   1      47.906  28.006  27.426  1.00  0.00     0.037 A 
ATOM     53  C   UNL A   1      41.170  27.389  28.998  1.00  0.00     0.037 A 
ATOM     54  C   UNL A   1      47.915  27.628  28.819  1.00  0.00     0.049 A 
ATOM     55  C   UNL A   1      42.230  28.095  29.745  1.00  0.00     0.074 A 
ATOM     56  C   UNL A   1      48.505  26.649  29.588  1.00  0.00     0.029 A 
ATOM     57  N   UNL A   1      46.856  28.118  29.535  1.00  0.00    -0.354 N 
ATOM     58  N   UNL A   1      42.826  27.603  30.792  1.00  0.00    -0.248 NA
ATOM     59  C   UNL A   1      42.899  29.224  29.115  1.00  0.00     0.031 C 
ATOM     60  C   UNL A   1      47.579  26.378  30.642  1.00  0.00     0.029 A 
ATOM     61  C   UNL A   1      46.493  27.245  30.520  1.00  0.00     0.049 A 
ATOM     62  H   UNL A   1      46.415  28.982  29.362  1.00  0.00     0.167 HD
ATOM     63  C   UNL A   1      44.134  28.032  30.671  1.00  0.00     0.074 A 
ATOM     64  C   UNL A   1      44.075  29.161  29.747  1.00  0.00     0.031 C 
ATOM     65  C   UNL A   1      45.159  27.228  31.078  1.00  0.00     0.037 A 
BRANCH  52  66
ATOM     66  C   UNL A   1      47.980  29.473  27.027  1.00  0.00     0.057 A 
ATOM     67  C   UNL A   1      49.202  30.157  27.195  1.00  0.00     0.134 A 
ATOM     68  C   UNL A   1      46.864  30.308  26.816  1.00  0.00     0.134 A 
ATOM     69  F   UNL A   1      50.342  29.485  27.418  1.00  0.00    -0.206 F 
ATOM     70  C   UNL A   1      49.286  31.555  27.241  1.00  0.00     0.040 A 
ATOM     71  C   UNL A   1      46.945  31.704  26.812  1.00  0.00     0.040 A 
ATOM     72  F   UNL A   1      45.617  29.837  26.707  1.00  0.00    -0.206 F 
ATOM     73  C   UNL A   1      48.152  32.336  27.059  1.00  0.00     0.006 A 
ENDBRANCH  52  66
BRANCH  53  74
ATOM     74  C   UNL A   1      39.811  27.965  28.871  1.00  0.00     0.057 A 
ATOM     75  C   UNL A   1      38.912  27.956  29.951  1.00  0.00     0.134 A 
ATOM     76  C   UNL A   1      39.476  28.811  27.802  1.00  0.00     0.134 A 
ATOM     77  F   UNL A   1      39.154  27.201  31.034  1.00  0.00    -0.206 F 
ATOM     78  C   UNL A   1      37.778  28.778  29.989  1.00  0.00     0.040 A 
ATOM     79  C   UNL A   1      38.345  29.635  27.825  1.00  0.00     0.040 A 
ATOM     80  F   UNL A   1      40.291  28.938  26.743  1.00  0.00    -0.206 F 
ATOM     81  C   UNL A   1      37.501  29.636  28.931  1.00  0.00     0.006 A 
ENDBRANCH  53  74
BRANCH  65  82
ATOM     82  C   UNL A   1      44.828  26.138  32.057  1.00  0.00     0.057 A 
ATOM     83  C   UNL A   1      44.541  24.807  31.718  1.00  0.00     0.134 A 
ATOM     84  C   UNL A   1      44.878  26.447  33.421  1.00  0.00     0.134 A 
ATOM     85  F   UNL A   1      44.551  24.394  30.444  1.00  0.00    -0.206 F 
ATOM     86  C   UNL A   1      44.267  23.843  32.694  1.00  0.00     0.040 A 
ATOM     87  C   UNL A   1      44.646  25.486  34.405  1.00  0.00     0.040 A 
ATOM     88  F   UNL A   1      45.189  27.690  33.820  1.00  0.00    -0.206 F 
ATOM     89  C   UNL A   1      44.324  24.182  34.043  1.00  0.00     0.006 A 
ENDBRANCH  65  82
ENDBRANCH  39  40
ENDBRANCH  31  34
ENDBRANCH  29  30
ENDBRANCH  28  29
ENDBRANCH   1  28
TORSDOF 14
ENDMDL
