MODEL 1
REMARK VINA RESULT:     -10.1      0.000      0.000
REMARK SMILES N#CCC[NH2+]C1(C(=O)NCCCCNC(=O)c2ccc(-c3c4nc(c(-c5c(F)cccc5F)c5ccc([nH]5)c(-c5c(F)cccc5F)c5nc(c(-c6c(F)cccc6F)c6ccc3[nH]6)C=C5)C=C4)cc2)CC1
REMARK SMILES IDX 10 1 9 2 7 3 8 4 6 6 71 7 72 8 5 9 4 12 3 13 2 14 1 15 11 16
REMARK SMILES IDX 12 17 13 18 14 19 15 20 16 22 17 23 18 24 70 25 19 26 69 27
REMARK SMILES IDX 20 28 21 29 22 30 63 31 23 32 68 33 62 34 64 35 24 36 67 37
REMARK SMILES IDX 61 38 60 39 25 41 51 42 34 43 50 44 35 45 38 46 49 47 65 48
REMARK SMILES IDX 36 49 37 50 48 52 66 53 39 54 26 55 27 56 32 57 28 58 29 59
REMARK SMILES IDX 31 60 33 61 30 62 52 63 53 64 58 65 54 66 55 67 57 68 59 69
REMARK SMILES IDX 56 70 40 71 41 72 46 73 42 74 43 75 45 76 47 77 44 78
REMARK H PARENT 9 5 5 10 5 11 14 21 64 40 38 51
REMARK Flexibility Score: inf
ROOT
ATOM      1  C   UNL A   1      32.636  29.962  25.786  1.00  0.00     0.116 C 
ENDROOT
BRANCH   1   2
ATOM      2  N   UNL A   1      33.079  29.695  24.439  1.00  0.00    -0.351 N 
ATOM      3  C   UNL A   1      32.550  28.940  23.433  1.00  0.00     0.281 C 
ATOM      4  O   UNL A   1      33.324  28.622  22.525  1.00  0.00    -0.268 OA
ATOM      5  H   UNL A   1      33.923  30.143  24.201  1.00  0.00     0.163 HD
BRANCH   3   6
ATOM      6  C   UNL A   1      31.092  28.490  23.356  1.00  0.00     0.176 C 
ATOM      7  C   UNL A   1      30.516  27.430  24.266  1.00  0.00     0.086 C 
ATOM      8  C   UNL A   1      30.726  27.133  22.802  1.00  0.00     0.086 C 
BRANCH   6   9
ATOM      9  N   UNL A   1      30.248  29.682  23.101  1.00  0.00    -0.333 N 
ATOM     10  H   UNL A   1      29.374  29.542  23.609  1.00  0.00     0.347 HD
ATOM     11  H   UNL A   1      30.836  30.460  23.398  1.00  0.00     0.347 HD
BRANCH   9  12
ATOM     12  C   UNL A   1      29.892  30.026  21.738  1.00  0.00     0.276 C 
BRANCH  12  13
ATOM     13  C   UNL A   1      28.383  30.006  21.610  1.00  0.00     0.181 C 
BRANCH  13  14
ATOM     14  C   UNL A   1      27.748  30.634  22.840  1.00  0.00     0.068 C 
ATOM     15  N   UNL A   1      27.221  31.155  23.860  1.00  0.00    -0.198 NA
ENDBRANCH  13  14
ENDBRANCH  12  13
ENDBRANCH   9  12
ENDBRANCH   6   9
ENDBRANCH   3   6
ENDBRANCH   1   2
BRANCH   1  16
ATOM     16  C   UNL A   1      31.340  30.769  25.769  1.00  0.00     0.023 C 
BRANCH  16  17
ATOM     17  C   UNL A   1      31.293  31.893  26.805  1.00  0.00     0.023 C 
BRANCH  17  18
ATOM     18  C   UNL A   1      32.629  32.579  27.054  1.00  0.00     0.116 C 
BRANCH  18  19
ATOM     19  N   UNL A   1      32.478  33.912  27.616  1.00  0.00    -0.352 N 
ATOM     20  C   UNL A   1      33.213  34.518  28.599  1.00  0.00     0.251 C 
ATOM     21  H   UNL A   1      31.748  34.453  27.238  1.00  0.00     0.163 HD
ATOM     22  O   UNL A   1      32.865  35.609  29.047  1.00  0.00    -0.269 OA
BRANCH  20  23
ATOM     23  C   UNL A   1      34.406  33.841  29.136  1.00  0.00     0.039 A 
ATOM     24  C   UNL A   1      34.228  32.770  30.013  1.00  0.00     0.014 A 
ATOM     25  C   UNL A   1      35.691  34.259  28.778  1.00  0.00     0.014 A 
ATOM     26  C   UNL A   1      35.344  32.099  30.510  1.00  0.00     0.010 A 
ATOM     27  C   UNL A   1      36.797  33.532  29.202  1.00  0.00     0.010 A 
ATOM     28  C   UNL A   1      36.636  32.465  30.096  1.00  0.00    -0.014 A 
BRANCH  28  29
ATOM     29  C   UNL A   1      37.828  31.773  30.641  1.00  0.00     0.031 A 
ATOM     30  C   UNL A   1      38.314  32.094  32.028  1.00  0.00     0.074 A 
ATOM     31  C   UNL A   1      38.483  30.874  29.881  1.00  0.00     0.049 A 
ATOM     32  N   UNL A   1      39.327  31.592  32.687  1.00  0.00    -0.248 NA
ATOM     33  C   UNL A   1      37.581  33.137  32.764  1.00  0.00     0.031 C 
ATOM     34  C   UNL A   1      38.144  30.521  28.502  1.00  0.00     0.029 A 
ATOM     35  N   UNL A   1      39.572  30.091  30.168  1.00  0.00    -0.354 N 
ATOM     36  C   UNL A   1      39.358  32.265  33.901  1.00  0.00     0.074 A 
ATOM     37  C   UNL A   1      38.308  33.258  33.864  1.00  0.00     0.031 C 
ATOM     38  C   UNL A   1      38.983  29.564  28.075  1.00  0.00     0.029 A 
ATOM     39  C   UNL A   1      39.936  29.259  29.138  1.00  0.00     0.049 A 
ATOM     40  H   UNL A   1      40.047  30.121  31.029  1.00  0.00     0.167 HD
ATOM     41  C   UNL A   1      40.165  32.053  34.968  1.00  0.00     0.037 A 
ATOM     42  C   UNL A   1      40.923  28.347  29.065  1.00  0.00     0.037 A 
ATOM     43  C   UNL A   1      41.192  31.046  35.011  1.00  0.00     0.049 A 
ATOM     44  C   UNL A   1      41.798  28.121  30.267  1.00  0.00     0.074 A 
ATOM     45  C   UNL A   1      42.032  30.714  36.060  1.00  0.00     0.029 A 
ATOM     46  N   UNL A   1      41.520  30.210  33.954  1.00  0.00    -0.354 N 
ATOM     47  N   UNL A   1      41.767  28.711  31.438  1.00  0.00    -0.248 NA
ATOM     48  C   UNL A   1      42.833  27.087  30.142  1.00  0.00     0.031 C 
ATOM     49  C   UNL A   1      42.898  29.705  35.622  1.00  0.00     0.029 A 
ATOM     50  C   UNL A   1      42.560  29.371  34.320  1.00  0.00     0.049 A 
ATOM     51  H   UNL A   1      41.078  30.211  33.075  1.00  0.00     0.167 HD
ATOM     52  C   UNL A   1      42.756  28.100  32.199  1.00  0.00     0.074 A 
ATOM     53  C   UNL A   1      43.352  27.079  31.362  1.00  0.00     0.031 C 
ATOM     54  C   UNL A   1      43.139  28.358  33.474  1.00  0.00     0.037 A 
BRANCH  41  55
ATOM     55  C   UNL A   1      39.959  32.925  36.173  1.00  0.00     0.057 A 
ATOM     56  C   UNL A   1      39.007  32.617  37.157  1.00  0.00     0.134 A 
ATOM     57  C   UNL A   1      40.730  34.079  36.363  1.00  0.00     0.134 A 
ATOM     58  F   UNL A   1      38.224  31.535  37.030  1.00  0.00    -0.206 F 
ATOM     59  C   UNL A   1      38.809  33.441  38.267  1.00  0.00     0.040 A 
ATOM     60  C   UNL A   1      40.562  34.893  37.485  1.00  0.00     0.040 A 
ATOM     61  F   UNL A   1      41.661  34.432  35.464  1.00  0.00    -0.206 F 
ATOM     62  C   UNL A   1      39.593  34.579  38.437  1.00  0.00     0.006 A 
ENDBRANCH  41  55
BRANCH  42  63
ATOM     63  C   UNL A   1      41.112  27.549  27.827  1.00  0.00     0.057 A 
ATOM     64  C   UNL A   1      40.477  26.312  27.658  1.00  0.00     0.134 A 
ATOM     65  C   UNL A   1      41.944  27.992  26.793  1.00  0.00     0.134 A 
ATOM     66  F   UNL A   1      39.679  25.827  28.621  1.00  0.00    -0.206 F 
ATOM     67  C   UNL A   1      40.683  25.533  26.520  1.00  0.00     0.040 A 
ATOM     68  C   UNL A   1      42.138  27.235  25.636  1.00  0.00     0.040 A 
ATOM     69  F   UNL A   1      42.573  29.173  26.888  1.00  0.00    -0.206 F 
ATOM     70  C   UNL A   1      41.515  25.996  25.502  1.00  0.00     0.006 A 
ENDBRANCH  42  63
BRANCH  54  71
ATOM     71  C   UNL A   1      44.222  27.492  34.048  1.00  0.00     0.057 A 
ATOM     72  C   UNL A   1      45.576  27.844  33.971  1.00  0.00     0.134 A 
ATOM     73  C   UNL A   1      43.904  26.291  34.697  1.00  0.00     0.134 A 
ATOM     74  F   UNL A   1      45.951  28.976  33.356  1.00  0.00    -0.206 F 
ATOM     75  C   UNL A   1      46.577  27.014  34.480  1.00  0.00     0.040 A 
ATOM     76  C   UNL A   1      44.892  25.469  35.238  1.00  0.00     0.040 A 
ATOM     77  F   UNL A   1      42.627  25.899  34.817  1.00  0.00    -0.206 F 
ATOM     78  C   UNL A   1      46.234  25.824  35.119  1.00  0.00     0.006 A 
ENDBRANCH  54  71
ENDBRANCH  28  29
ENDBRANCH  20  23
ENDBRANCH  18  19
ENDBRANCH  17  18
ENDBRANCH  16  17
ENDBRANCH   1  16
TORSDOF 15
ENDMDL
MODEL 2
REMARK VINA RESULT:     -10.0      5.764      9.664
REMARK SMILES N#CCC[NH2+]C1(C(=O)NCCCCNC(=O)c2ccc(-c3c4nc(c(-c5c(F)cccc5F)c5ccc([nH]5)c(-c5c(F)cccc5F)c5nc(c(-c6c(F)cccc6F)c6ccc3[nH]6)C=C5)C=C4)cc2)CC1
REMARK SMILES IDX 10 1 9 2 7 3 8 4 6 6 71 7 72 8 5 9 4 12 3 13 2 14 1 15 11 16
REMARK SMILES IDX 12 17 13 18 14 19 15 20 16 22 17 23 18 24 70 25 19 26 69 27
REMARK SMILES IDX 20 28 21 29 22 30 63 31 23 32 68 33 62 34 64 35 24 36 67 37
REMARK SMILES IDX 61 38 60 39 25 41 51 42 34 43 50 44 35 45 38 46 49 47 65 48
REMARK SMILES IDX 36 49 37 50 48 52 66 53 39 54 26 55 27 56 32 57 28 58 29 59
REMARK SMILES IDX 31 60 33 61 30 62 52 63 53 64 58 65 54 66 55 67 57 68 59 69
REMARK SMILES IDX 56 70 40 71 41 72 46 73 42 74 43 75 45 76 47 77 44 78
REMARK H PARENT 9 5 5 10 5 11 14 21 64 40 38 51
REMARK Flexibility Score: inf
ROOT
ATOM      1  C   UNL A   1      36.600  21.765  25.751  1.00  0.00     0.116 C 
ENDROOT
BRANCH   1   2
ATOM      2  N   UNL A   1      35.510  21.752  26.697  1.00  0.00    -0.351 N 
ATOM      3  C   UNL A   1      34.417  22.555  26.846  1.00  0.00     0.281 C 
ATOM      4  O   UNL A   1      33.857  22.515  27.945  1.00  0.00    -0.268 OA
ATOM      5  H   UNL A   1      35.566  21.026  27.360  1.00  0.00     0.163 HD
BRANCH   3   6
ATOM      6  C   UNL A   1      33.850  23.465  25.757  1.00  0.00     0.176 C 
ATOM      7  C   UNL A   1      34.477  24.791  25.394  1.00  0.00     0.086 C 
ATOM      8  C   UNL A   1      33.150  24.756  26.111  1.00  0.00     0.086 C 
BRANCH   6   9
ATOM      9  N   UNL A   1      33.384  22.616  24.635  1.00  0.00    -0.333 N 
ATOM     10  H   UNL A   1      32.985  23.242  23.934  1.00  0.00     0.347 HD
ATOM     11  H   UNL A   1      34.217  22.093  24.367  1.00  0.00     0.347 HD
BRANCH   9  12
ATOM     12  C   UNL A   1      32.398  21.582  24.883  1.00  0.00     0.276 C 
BRANCH  12  13
ATOM     13  C   UNL A   1      32.800  20.335  24.123  1.00  0.00     0.181 C 
BRANCH  13  14
ATOM     14  C   UNL A   1      32.651  19.112  25.012  1.00  0.00     0.068 C 
ATOM     15  N   UNL A   1      32.528  18.097  25.751  1.00  0.00    -0.198 NA
ENDBRANCH  13  14
ENDBRANCH  12  13
ENDBRANCH   9  12
ENDBRANCH   6   9
ENDBRANCH   3   6
ENDBRANCH   1   2
BRANCH   1  16
ATOM     16  C   UNL A   1      36.515  20.553  24.826  1.00  0.00     0.023 C 
BRANCH  16  17
ATOM     17  C   UNL A   1      37.824  19.771  24.703  1.00  0.00     0.023 C 
BRANCH  17  18
ATOM     18  C   UNL A   1      38.870  20.120  25.751  1.00  0.00     0.116 C 
BRANCH  18  19
ATOM     19  N   UNL A   1      39.935  19.132  25.832  1.00  0.00    -0.352 N 
ATOM     20  C   UNL A   1      41.268  19.323  26.074  1.00  0.00     0.251 C 
ATOM     21  H   UNL A   1      39.658  18.197  25.694  1.00  0.00     0.163 HD
ATOM     22  O   UNL A   1      42.054  18.383  25.978  1.00  0.00    -0.269 OA
BRANCH  20  23
ATOM     23  C   UNL A   1      41.758  20.669  26.422  1.00  0.00     0.039 A 
ATOM     24  C   UNL A   1      42.063  21.555  25.388  1.00  0.00     0.014 A 
ATOM     25  C   UNL A   1      41.914  21.054  27.756  1.00  0.00     0.014 A 
ATOM     26  C   UNL A   1      42.502  22.842  25.696  1.00  0.00     0.010 A 
ATOM     27  C   UNL A   1      42.263  22.364  28.061  1.00  0.00     0.010 A 
ATOM     28  C   UNL A   1      42.590  23.261  27.034  1.00  0.00    -0.014 A 
BRANCH  28  29
ATOM     29  C   UNL A   1      43.080  24.619  27.370  1.00  0.00     0.031 A 
ATOM     30  C   UNL A   1      42.110  25.677  27.817  1.00  0.00     0.074 A 
ATOM     31  C   UNL A   1      44.391  24.903  27.252  1.00  0.00     0.049 A 
ATOM     32  N   UNL A   1      42.341  26.918  28.165  1.00  0.00    -0.248 NA
ATOM     33  C   UNL A   1      40.686  25.303  27.853  1.00  0.00     0.031 C 
ATOM     34  C   UNL A   1      45.420  23.978  26.774  1.00  0.00     0.029 A 
ATOM     35  N   UNL A   1      45.081  26.055  27.532  1.00  0.00    -0.354 N 
ATOM     36  C   UNL A   1      41.098  27.469  28.446  1.00  0.00     0.074 A 
ATOM     37  C   UNL A   1      40.109  26.453  28.163  1.00  0.00     0.031 C 
ATOM     38  C   UNL A   1      46.616  24.586  26.829  1.00  0.00     0.029 A 
ATOM     39  C   UNL A   1      46.433  25.950  27.316  1.00  0.00     0.049 A 
ATOM     40  H   UNL A   1      44.649  26.877  27.856  1.00  0.00     0.167 HD
ATOM     41  C   UNL A   1      40.805  28.699  28.930  1.00  0.00     0.037 A 
ATOM     42  C   UNL A   1      47.415  26.852  27.501  1.00  0.00     0.037 A 
ATOM     43  C   UNL A   1      41.794  29.699  29.235  1.00  0.00     0.049 A 
ATOM     44  C   UNL A   1      47.067  28.207  28.052  1.00  0.00     0.074 A 
ATOM     45  C   UNL A   1      41.609  30.959  29.777  1.00  0.00     0.029 A 
ATOM     46  N   UNL A   1      43.156  29.550  29.020  1.00  0.00    -0.354 N 
ATOM     47  N   UNL A   1      45.894  28.690  28.386  1.00  0.00    -0.248 NA
ATOM     48  C   UNL A   1      48.183  29.136  28.268  1.00  0.00     0.031 C 
ATOM     49  C   UNL A   1      42.857  31.590  29.850  1.00  0.00     0.029 A 
ATOM     50  C   UNL A   1      43.824  30.702  29.405  1.00  0.00     0.049 A 
ATOM     51  H   UNL A   1      43.585  28.746  28.651  1.00  0.00     0.167 HD
ATOM     52  C   UNL A   1      46.134  29.966  28.881  1.00  0.00     0.074 A 
ATOM     53  C   UNL A   1      47.566  30.171  28.822  1.00  0.00     0.031 C 
ATOM     54  C   UNL A   1      45.252  30.886  29.342  1.00  0.00     0.037 A 
BRANCH  41  55
ATOM     55  C   UNL A   1      39.357  29.023  29.164  1.00  0.00     0.057 A 
ATOM     56  C   UNL A   1      38.754  28.859  30.421  1.00  0.00     0.134 A 
ATOM     57  C   UNL A   1      38.557  29.517  28.126  1.00  0.00     0.134 A 
ATOM     58  F   UNL A   1      39.459  28.375  31.454  1.00  0.00    -0.206 F 
ATOM     59  C   UNL A   1      37.404  29.146  30.627  1.00  0.00     0.040 A 
ATOM     60  C   UNL A   1      37.212  29.837  28.330  1.00  0.00     0.040 A 
ATOM     61  F   UNL A   1      39.067  29.702  26.900  1.00  0.00    -0.206 F 
ATOM     62  C   UNL A   1      36.630  29.643  29.581  1.00  0.00     0.006 A 
ENDBRANCH  41  55
BRANCH  42  63
ATOM     63  C   UNL A   1      48.825  26.493  27.203  1.00  0.00     0.057 A 
ATOM     64  C   UNL A   1      49.367  26.688  25.926  1.00  0.00     0.134 A 
ATOM     65  C   UNL A   1      49.658  25.932  28.176  1.00  0.00     0.134 A 
ATOM     66  F   UNL A   1      48.613  27.208  24.946  1.00  0.00    -0.206 F 
ATOM     67  C   UNL A   1      50.675  26.313  25.621  1.00  0.00     0.040 A 
ATOM     68  C   UNL A   1      50.978  25.577  27.893  1.00  0.00     0.040 A 
ATOM     69  F   UNL A   1      49.203  25.728  29.422  1.00  0.00    -0.206 F 
ATOM     70  C   UNL A   1      51.487  25.757  26.609  1.00  0.00     0.006 A 
ENDBRANCH  42  63
BRANCH  54  71
ATOM     71  C   UNL A   1      45.820  32.177  29.858  1.00  0.00     0.057 A 
ATOM     72  C   UNL A   1      46.204  32.340  31.195  1.00  0.00     0.134 A 
ATOM     73  C   UNL A   1      45.995  33.271  28.999  1.00  0.00     0.134 A 
ATOM     74  F   UNL A   1      46.054  31.336  32.073  1.00  0.00    -0.206 F 
ATOM     75  C   UNL A   1      46.700  33.556  31.669  1.00  0.00     0.040 A 
ATOM     76  C   UNL A   1      46.520  34.480  29.453  1.00  0.00     0.040 A 
ATOM     77  F   UNL A   1      45.660  33.180  27.702  1.00  0.00    -0.206 F 
ATOM     78  C   UNL A   1      46.863  34.628  30.795  1.00  0.00     0.006 A 
ENDBRANCH  54  71
ENDBRANCH  28  29
ENDBRANCH  20  23
ENDBRANCH  18  19
ENDBRANCH  17  18
ENDBRANCH  16  17
ENDBRANCH   1  16
TORSDOF 15
ENDMDL
MODEL 3
REMARK VINA RESULT:      -9.7      1.028      2.107
REMARK SMILES N#CCC[NH2+]C1(C(=O)NCCCCNC(=O)c2ccc(-c3c4nc(c(-c5c(F)cccc5F)c5ccc([nH]5)c(-c5c(F)cccc5F)c5nc(c(-c6c(F)cccc6F)c6ccc3[nH]6)C=C5)C=C4)cc2)CC1
REMARK SMILES IDX 10 1 9 2 7 3 8 4 6 6 71 7 72 8 5 9 4 12 3 13 2 14 1 15 11 16
REMARK SMILES IDX 12 17 13 18 14 19 15 20 16 22 17 23 18 24 70 25 19 26 69 27
REMARK SMILES IDX 20 28 21 29 22 30 63 31 23 32 68 33 62 34 64 35 24 36 67 37
REMARK SMILES IDX 61 38 60 39 25 41 51 42 34 43 50 44 35 45 38 46 49 47 65 48
REMARK SMILES IDX 36 49 37 50 48 52 66 53 39 54 26 55 27 56 32 57 28 58 29 59
REMARK SMILES IDX 31 60 33 61 30 62 52 63 53 64 58 65 54 66 55 67 57 68 59 69
REMARK SMILES IDX 56 70 40 71 41 72 46 73 42 74 43 75 45 76 47 77 44 78
REMARK H PARENT 9 5 5 10 5 11 14 21 64 40 38 51
REMARK Flexibility Score: inf
ROOT
ATOM      1  C   UNL A   1      31.880  29.311  25.927  1.00  0.00     0.116 C 
ENDROOT
BRANCH   1   2
ATOM      2  N   UNL A   1      32.475  28.539  24.862  1.00  0.00    -0.351 N 
ATOM      3  C   UNL A   1      32.112  27.364  24.272  1.00  0.00     0.281 C 
ATOM      4  O   UNL A   1      32.995  26.777  23.639  1.00  0.00    -0.268 OA
ATOM      5  H   UNL A   1      33.296  28.935  24.493  1.00  0.00     0.163 HD
BRANCH   3   6
ATOM      6  C   UNL A   1      30.712  26.754  24.329  1.00  0.00     0.176 C 
ATOM      7  C   UNL A   1      30.176  26.057  25.557  1.00  0.00     0.086 C 
ATOM      8  C   UNL A   1      30.516  25.257  24.324  1.00  0.00     0.086 C 
BRANCH   6   9
ATOM      9  N   UNL A   1      29.780  27.658  23.613  1.00  0.00    -0.333 N 
ATOM     10  H   UNL A   1      28.971  27.097  23.343  1.00  0.00     0.347 HD
ATOM     11  H   UNL A   1      29.619  28.413  24.278  1.00  0.00     0.347 HD
BRANCH   9  12
ATOM     12  C   UNL A   1      30.230  28.347  22.419  1.00  0.00     0.276 C 
BRANCH  12  13
ATOM     13  C   UNL A   1      29.460  29.645  22.288  1.00  0.00     0.181 C 
BRANCH  13  14
ATOM     14  C   UNL A   1      28.043  29.465  22.808  1.00  0.00     0.068 C 
ATOM     15  N   UNL A   1      26.868  29.316  23.239  1.00  0.00    -0.198 NA
ENDBRANCH  13  14
ENDBRANCH  12  13
ENDBRANCH   9  12
ENDBRANCH   6   9
ENDBRANCH   3   6
ENDBRANCH   1   2
BRANCH   1  16
ATOM     16  C   UNL A   1      31.258  30.590  25.372  1.00  0.00     0.023 C 
BRANCH  16  17
ATOM     17  C   UNL A   1      31.095  31.704  26.407  1.00  0.00     0.023 C 
BRANCH  17  18
ATOM     18  C   UNL A   1      32.402  32.324  26.880  1.00  0.00     0.116 C 
BRANCH  18  19
ATOM     19  N   UNL A   1      32.239  33.693  27.341  1.00  0.00    -0.352 N 
ATOM     20  C   UNL A   1      32.992  34.390  28.247  1.00  0.00     0.251 C 
ATOM     21  H   UNL A   1      31.484  34.187  26.948  1.00  0.00     0.163 HD
ATOM     22  O   UNL A   1      32.633  35.506  28.620  1.00  0.00    -0.269 OA
BRANCH  20  23
ATOM     23  C   UNL A   1      34.219  33.784  28.792  1.00  0.00     0.039 A 
ATOM     24  C   UNL A   1      35.453  34.251  28.338  1.00  0.00     0.014 A 
ATOM     25  C   UNL A   1      34.154  32.763  29.745  1.00  0.00     0.014 A 
ATOM     26  C   UNL A   1      36.626  33.709  28.861  1.00  0.00     0.010 A 
ATOM     27  C   UNL A   1      35.321  32.290  30.331  1.00  0.00     0.010 A 
ATOM     28  C   UNL A   1      36.569  32.736  29.873  1.00  0.00    -0.014 A 
BRANCH  28  29
ATOM     29  C   UNL A   1      37.811  32.137  30.416  1.00  0.00     0.031 A 
ATOM     30  C   UNL A   1      38.415  32.680  31.682  1.00  0.00     0.074 A 
ATOM     31  C   UNL A   1      38.405  31.123  29.760  1.00  0.00     0.049 A 
ATOM     32  N   UNL A   1      39.487  32.289  32.322  1.00  0.00    -0.248 NA
ATOM     33  C   UNL A   1      37.740  33.835  32.299  1.00  0.00     0.031 C 
ATOM     34  C   UNL A   1      37.948  30.549  28.493  1.00  0.00     0.029 A 
ATOM     35  N   UNL A   1      39.522  30.392  30.074  1.00  0.00    -0.354 N 
ATOM     36  C   UNL A   1      39.619  33.152  33.402  1.00  0.00     0.074 A 
ATOM     37  C   UNL A   1      38.560  34.131  33.295  1.00  0.00     0.031 C 
ATOM     38  C   UNL A   1      38.756  29.531  28.156  1.00  0.00     0.029 A 
ATOM     39  C   UNL A   1      39.802  29.400  29.166  1.00  0.00     0.049 A 
ATOM     40  H   UNL A   1      40.071  30.562  30.872  1.00  0.00     0.167 HD
ATOM     41  C   UNL A   1      40.519  33.115  34.413  1.00  0.00     0.037 A 
ATOM     42  C   UNL A   1      40.787  28.483  29.157  1.00  0.00     0.037 A 
ATOM     43  C   UNL A   1      41.556  32.124  34.529  1.00  0.00     0.049 A 
ATOM     44  C   UNL A   1      41.768  28.454  30.297  1.00  0.00     0.074 A 
ATOM     45  C   UNL A   1      42.489  31.965  35.540  1.00  0.00     0.029 A 
ATOM     46  N   UNL A   1      41.797  31.124  33.600  1.00  0.00    -0.354 N 
ATOM     47  N   UNL A   1      41.835  29.230  31.353  1.00  0.00    -0.248 NA
ATOM     48  C   UNL A   1      42.798  27.409  30.252  1.00  0.00     0.031 C 
ATOM     49  C   UNL A   1      43.323  30.894  35.199  1.00  0.00     0.029 A 
ATOM     50  C   UNL A   1      42.874  30.352  34.005  1.00  0.00     0.049 A 
ATOM     51  H   UNL A   1      41.279  30.982  32.775  1.00  0.00     0.167 HD
ATOM     52  C   UNL A   1      42.893  28.748  32.112  1.00  0.00     0.074 A 
ATOM     53  C   UNL A   1      43.423  27.600  31.405  1.00  0.00     0.031 C 
ATOM     54  C   UNL A   1      43.385  29.210  33.289  1.00  0.00     0.037 A 
BRANCH  41  55
ATOM     55  C   UNL A   1      40.412  34.175  35.472  1.00  0.00     0.057 A 
ATOM     56  C   UNL A   1      41.107  35.391  35.377  1.00  0.00     0.134 A 
ATOM     57  C   UNL A   1      39.594  33.987  36.593  1.00  0.00     0.134 A 
ATOM     58  F   UNL A   1      41.921  35.629  34.337  1.00  0.00    -0.206 F 
ATOM     59  C   UNL A   1      41.016  36.364  36.373  1.00  0.00     0.040 A 
ATOM     60  C   UNL A   1      39.472  34.968  37.580  1.00  0.00     0.040 A 
ATOM     61  F   UNL A   1      38.898  32.851  36.747  1.00  0.00    -0.206 F 
ATOM     62  C   UNL A   1      40.191  36.157  37.476  1.00  0.00     0.006 A 
ENDBRANCH  41  55
BRANCH  42  63
ATOM     63  C   UNL A   1      40.874  27.492  28.055  1.00  0.00     0.057 A 
ATOM     64  C   UNL A   1      41.617  27.760  26.897  1.00  0.00     0.134 A 
ATOM     65  C   UNL A   1      40.207  26.265  28.122  1.00  0.00     0.134 A 
ATOM     66  F   UNL A   1      42.266  28.926  26.767  1.00  0.00    -0.206 F 
ATOM     67  C   UNL A   1      41.669  26.856  25.836  1.00  0.00     0.040 A 
ATOM     68  C   UNL A   1      40.273  25.338  27.079  1.00  0.00     0.040 A 
ATOM     69  F   UNL A   1      39.488  25.943  29.207  1.00  0.00    -0.206 F 
ATOM     70  C   UNL A   1      40.997  25.638  25.927  1.00  0.00     0.006 A 
ENDBRANCH  42  63
BRANCH  54  71
ATOM     71  C   UNL A   1      44.524  28.445  33.899  1.00  0.00     0.057 A 
ATOM     72  C   UNL A   1      44.321  27.272  34.637  1.00  0.00     0.134 A 
ATOM     73  C   UNL A   1      45.844  28.886  33.738  1.00  0.00     0.134 A 
ATOM     74  F   UNL A   1      43.082  26.800  34.838  1.00  0.00    -0.206 F 
ATOM     75  C   UNL A   1      45.386  26.588  35.228  1.00  0.00     0.040 A 
ATOM     76  C   UNL A   1      46.919  28.194  34.296  1.00  0.00     0.040 A 
ATOM     77  F   UNL A   1      46.111  29.996  33.032  1.00  0.00    -0.206 F 
ATOM     78  C   UNL A   1      46.689  27.048  35.054  1.00  0.00     0.006 A 
ENDBRANCH  54  71
ENDBRANCH  28  29
ENDBRANCH  20  23
ENDBRANCH  18  19
ENDBRANCH  17  18
ENDBRANCH  16  17
ENDBRANCH   1  16
TORSDOF 15
ENDMDL
