MODEL 1
REMARK VINA RESULT:     -13.2      0.000      0.000
REMARK SMILES O=C(N/N=C/c1ccccc1O)C(=O)Nc1cccc(C(=O)NCCCCNC(=O)c2ccc(-c3c4nc(c(-c5c(F)cccc5F)c5ccc([nH]5)c(-c5c(F)cccc5F)c5nc(c(-c6c(F)cccc6F)c6ccc3[nH]6)C=C5)C=C4)cc2)c1
REMARK SMILES IDX 24 1 23 2 21 3 22 4 20 6 16 7 17 8 85 9 18 10 19 11 15 12
REMARK SMILES IDX 13 13 14 14 2 16 1 17 3 18 4 20 5 21 6 22 7 23 11 24 8 25
REMARK SMILES IDX 10 26 9 27 12 28 25 30 26 31 27 32 28 33 29 34 30 36 31 37
REMARK SMILES IDX 32 38 84 39 33 40 83 41 34 42 35 43 36 44 77 45 37 46 82 47
REMARK SMILES IDX 76 48 78 49 38 50 81 51 75 52 74 53 39 55 65 56 48 57 64 58
REMARK SMILES IDX 49 59 52 60 63 61 79 62 50 63 51 64 62 66 80 67 53 68 40 69
REMARK SMILES IDX 41 70 46 71 42 72 43 73 45 74 47 75 44 76 66 77 67 78 72 79
REMARK SMILES IDX 68 80 69 81 71 82 73 83 70 84 54 85 55 86 60 87 56 88 57 89
REMARK SMILES IDX 59 90 61 91 58 92
REMARK H PARENT 23 5 15 15 3 19 12 29 28 35 78 54 52 65
REMARK Flexibility Score: inf
ROOT
ATOM      1  C   UNL A   1      31.631  29.425  26.707  1.00  0.00     0.116 C 
ENDROOT
BRANCH   1   2
ATOM      2  N   UNL A   1      32.990  29.337  27.204  1.00  0.00    -0.352 N 
ATOM      3  C   UNL A   1      34.088  28.702  26.685  1.00  0.00     0.251 C 
ATOM      4  O   UNL A   1      35.198  28.906  27.183  1.00  0.00    -0.269 OA
ATOM      5  H   UNL A   1      33.151  29.811  28.052  1.00  0.00     0.163 HD
BRANCH   3   6
ATOM      6  C   UNL A   1      34.028  27.727  25.564  1.00  0.00     0.041 A 
ATOM      7  C   UNL A   1      33.842  24.805  24.380  1.00  0.00     0.042 A 
ATOM      8  C   UNL A   1      33.363  25.475  22.743  1.00  0.00     0.026 A 
ATOM      9  C   UNL A   1      34.255  25.916  25.759  1.00  0.00     0.040 A 
ATOM     10  C   UNL A   1      33.319  27.290  22.508  1.00  0.00     0.003 A 
ATOM     11  C   UNL A   1      33.604  28.396  23.920  1.00  0.00     0.014 A 
BRANCH   7  12
ATOM     12  N   UNL A   1      33.268  23.570  24.679  1.00  0.00    -0.318 N 
ATOM     13  C   UNL A   1      32.001  23.367  25.214  1.00  0.00     0.315 C 
ATOM     14  O   UNL A   1      31.566  22.213  25.221  1.00  0.00    -0.263 OA
ATOM     15  H   UNL A   1      33.809  22.768  24.494  1.00  0.00     0.170 HD
BRANCH  13  16
ATOM     16  C   UNL A   1      31.063  24.481  25.747  1.00  0.00     0.329 C 
ATOM     17  O   UNL A   1      31.275  24.956  26.861  1.00  0.00    -0.262 OA
ATOM     18  N   UNL A   1      29.903  24.841  25.045  1.00  0.00    -0.239 N 
ATOM     19  H   UNL A   1      29.005  24.551  25.328  1.00  0.00     0.194 HD
BRANCH  18  20
ATOM     20  N   UNL A   1      30.107  25.629  23.933  1.00  0.00    -0.180 NA
ATOM     21  C   UNL A   1      30.041  26.983  24.168  1.00  0.00     0.145 C 
BRANCH  21  22
ATOM     22  C   UNL A   1      29.284  28.720  23.195  1.00  0.00     0.036 A 
ATOM     23  C   UNL A   1      27.834  29.203  23.126  1.00  0.00     0.013 A 
ATOM     24  C   UNL A   1      29.918  29.891  22.443  1.00  0.00     0.124 A 
ATOM     25  C   UNL A   1      27.278  30.484  22.837  1.00  0.00     0.001 A 
ATOM     26  C   UNL A   1      29.389  31.205  22.199  1.00  0.00     0.047 A 
ATOM     27  C   UNL A   1      28.082  31.521  22.463  1.00  0.00     0.004 A 
BRANCH  24  28
ATOM     28  O   UNL A   1      31.050  29.816  21.626  1.00  0.00    -0.507 OA
ATOM     29  H   UNL A   1      31.539  30.590  21.430  1.00  0.00     0.293 HD
ENDBRANCH  24  28
ENDBRANCH  21  22
ENDBRANCH  18  20
ENDBRANCH  13  16
ENDBRANCH   7  12
ENDBRANCH   3   6
ENDBRANCH   1   2
BRANCH   1  30
ATOM     30  C   UNL A   1      31.413  30.641  25.810  1.00  0.00     0.023 C 
BRANCH  30  31
ATOM     31  C   UNL A   1      31.172  31.952  26.559  1.00  0.00     0.023 C 
BRANCH  31  32
ATOM     32  C   UNL A   1      32.430  32.670  27.039  1.00  0.00     0.116 C 
BRANCH  32  33
ATOM     33  N   UNL A   1      32.203  34.038  27.476  1.00  0.00    -0.352 N 
ATOM     34  C   UNL A   1      32.906  34.760  28.410  1.00  0.00     0.251 C 
ATOM     35  H   UNL A   1      31.449  34.506  27.049  1.00  0.00     0.163 HD
ATOM     36  O   UNL A   1      32.528  35.875  28.753  1.00  0.00    -0.269 OA
BRANCH  34  37
ATOM     37  C   UNL A   1      34.105  34.167  29.038  1.00  0.00     0.039 A 
ATOM     38  C   UNL A   1      33.933  33.265  30.090  1.00  0.00     0.014 A 
ATOM     39  C   UNL A   1      35.389  34.493  28.590  1.00  0.00     0.014 A 
ATOM     40  C   UNL A   1      35.047  32.647  30.659  1.00  0.00     0.010 A 
ATOM     41  C   UNL A   1      36.493  33.828  29.113  1.00  0.00     0.010 A 
ATOM     42  C   UNL A   1      36.333  32.905  30.157  1.00  0.00    -0.014 A 
BRANCH  42  43
ATOM     43  C   UNL A   1      37.521  32.237  30.736  1.00  0.00     0.031 A 
ATOM     44  C   UNL A   1      38.063  32.685  32.064  1.00  0.00     0.074 A 
ATOM     45  C   UNL A   1      38.139  31.261  30.045  1.00  0.00     0.049 A 
ATOM     46  N   UNL A   1      39.104  32.245  32.723  1.00  0.00    -0.248 NA
ATOM     47  C   UNL A   1      37.360  33.795  32.724  1.00  0.00     0.031 C 
ATOM     48  C   UNL A   1      37.744  30.780  28.719  1.00  0.00     0.029 A 
ATOM     49  N   UNL A   1      39.234  30.500  30.363  1.00  0.00    -0.354 N 
ATOM     50  C   UNL A   1      39.190  33.034  33.862  1.00  0.00     0.074 A 
ATOM     51  C   UNL A   1      38.126  34.011  33.782  1.00  0.00     0.031 C 
ATOM     52  C   UNL A   1      38.569  29.785  28.351  1.00  0.00     0.029 A 
ATOM     53  C   UNL A   1      39.557  29.572  29.403  1.00  0.00     0.049 A 
ATOM     54  H   UNL A   1      39.742  30.608  31.200  1.00  0.00     0.167 HD
ATOM     55  C   UNL A   1      40.061  32.939  34.894  1.00  0.00     0.037 A 
ATOM     56  C   UNL A   1      40.532  28.645  29.386  1.00  0.00     0.037 A 
ATOM     57  C   UNL A   1      41.093  31.942  34.991  1.00  0.00     0.049 A 
ATOM     58  C   UNL A   1      41.447  28.519  30.569  1.00  0.00     0.074 A 
ATOM     59  C   UNL A   1      41.996  31.728  36.018  1.00  0.00     0.029 A 
ATOM     60  N   UNL A   1      41.351  30.982  34.024  1.00  0.00    -0.354 N 
ATOM     61  N   UNL A   1      41.479  29.232  31.668  1.00  0.00    -0.248 NA
ATOM     62  C   UNL A   1      42.452  27.446  30.518  1.00  0.00     0.031 C 
ATOM     63  C   UNL A   1      42.812  30.647  35.665  1.00  0.00     0.029 A 
ATOM     64  C   UNL A   1      42.398  30.173  34.430  1.00  0.00     0.049 A 
ATOM     65  H   UNL A   1      40.863  30.890  33.174  1.00  0.00     0.167 HD
ATOM     66  C   UNL A   1      42.484  28.679  32.451  1.00  0.00     0.074 A 
ATOM     67  C   UNL A   1      43.031  27.565  31.704  1.00  0.00     0.031 C 
ATOM     68  C   UNL A   1      42.914  29.058  33.679  1.00  0.00     0.037 A 
BRANCH  55  69
ATOM     69  C   UNL A   1      39.918  33.936  36.004  1.00  0.00     0.057 A 
ATOM     70  C   UNL A   1      39.096  33.691  37.111  1.00  0.00     0.134 A 
ATOM     71  C   UNL A   1      40.613  35.151  35.971  1.00  0.00     0.134 A 
ATOM     72  F   UNL A   1      38.390  32.552  37.194  1.00  0.00    -0.206 F 
ATOM     73  C   UNL A   1      38.949  34.628  38.133  1.00  0.00     0.040 A 
ATOM     74  C   UNL A   1      40.493  36.087  36.999  1.00  0.00     0.040 A 
ATOM     75  F   UNL A   1      41.420  35.447  34.940  1.00  0.00    -0.206 F 
ATOM     76  C   UNL A   1      39.652  35.829  38.080  1.00  0.00     0.006 A 
ENDBRANCH  55  69
BRANCH  56  77
ATOM     77  C   UNL A   1      40.653  27.721  28.232  1.00  0.00     0.057 A 
ATOM     78  C   UNL A   1      40.007  26.479  28.237  1.00  0.00     0.134 A 
ATOM     79  C   UNL A   1      41.411  28.051  27.105  1.00  0.00     0.134 A 
ATOM     80  F   UNL A   1      39.279  26.103  29.299  1.00  0.00    -0.206 F 
ATOM     81  C   UNL A   1      40.125  25.590  27.169  1.00  0.00     0.040 A 
ATOM     82  C   UNL A   1      41.524  27.179  26.021  1.00  0.00     0.040 A 
ATOM     83  F   UNL A   1      42.047  29.231  27.038  1.00  0.00    -0.206 F 
ATOM     84  C   UNL A   1      40.884  25.941  26.055  1.00  0.00     0.006 A 
ENDBRANCH  56  77
BRANCH  68  85
ATOM     85  C   UNL A   1      44.000  28.237  34.304  1.00  0.00     0.057 A 
ATOM     86  C   UNL A   1      43.718  27.094  35.060  1.00  0.00     0.134 A 
ATOM     87  C   UNL A   1      45.345  28.582  34.120  1.00  0.00     0.134 A 
ATOM     88  F   UNL A   1      42.448  26.722  35.282  1.00  0.00    -0.206 F 
ATOM     89  C   UNL A   1      44.737  26.332  35.632  1.00  0.00     0.040 A 
ATOM     90  C   UNL A   1      46.373  27.816  34.670  1.00  0.00     0.040 A 
ATOM     91  F   UNL A   1      45.680  29.663  33.400  1.00  0.00    -0.206 F 
ATOM     92  C   UNL A   1      46.070  26.690  35.433  1.00  0.00     0.006 A 
ENDBRANCH  68  85
ENDBRANCH  42  43
ENDBRANCH  34  37
ENDBRANCH  32  33
ENDBRANCH  31  32
ENDBRANCH  30  31
ENDBRANCH   1  30
TORSDOF 16
ENDMDL
MODEL 2
REMARK VINA RESULT:     -12.6      2.154      4.454
REMARK SMILES O=C(N/N=C/c1ccccc1O)C(=O)Nc1cccc(C(=O)NCCCCNC(=O)c2ccc(-c3c4nc(c(-c5c(F)cccc5F)c5ccc([nH]5)c(-c5c(F)cccc5F)c5nc(c(-c6c(F)cccc6F)c6ccc3[nH]6)C=C5)C=C4)cc2)c1
REMARK SMILES IDX 24 1 23 2 21 3 22 4 20 6 16 7 17 8 85 9 18 10 19 11 15 12
REMARK SMILES IDX 13 13 14 14 2 16 1 17 3 18 4 20 5 21 6 22 7 23 11 24 8 25
REMARK SMILES IDX 10 26 9 27 12 28 25 30 26 31 27 32 28 33 29 34 30 36 31 37
REMARK SMILES IDX 32 38 84 39 33 40 83 41 34 42 35 43 36 44 77 45 37 46 82 47
REMARK SMILES IDX 76 48 78 49 38 50 81 51 75 52 74 53 39 55 65 56 48 57 64 58
REMARK SMILES IDX 49 59 52 60 63 61 79 62 50 63 51 64 62 66 80 67 53 68 40 69
REMARK SMILES IDX 41 70 46 71 42 72 43 73 45 74 47 75 44 76 66 77 67 78 72 79
REMARK SMILES IDX 68 80 69 81 71 82 73 83 70 84 54 85 55 86 60 87 56 88 57 89
REMARK SMILES IDX 59 90 61 91 58 92
REMARK H PARENT 23 5 15 15 3 19 12 29 28 35 78 54 52 65
REMARK Flexibility Score: inf
ROOT
ATOM      1  C   UNL A   1      32.546  30.097  25.919  1.00  0.00     0.116 C 
ENDROOT
BRANCH   1   2
ATOM      2  N   UNL A   1      31.477  30.430  24.998  1.00  0.00    -0.352 N 
ATOM      3  C   UNL A   1      30.666  29.621  24.246  1.00  0.00     0.251 C 
ATOM      4  O   UNL A   1      29.696  30.110  23.661  1.00  0.00    -0.269 OA
ATOM      5  H   UNL A   1      31.307  31.394  24.895  1.00  0.00     0.163 HD
BRANCH   3   6
ATOM      6  C   UNL A   1      30.902  28.167  24.046  1.00  0.00     0.041 A 
ATOM      7  C   UNL A   1      30.825  25.147  24.968  1.00  0.00     0.042 A 
ATOM      8  C   UNL A   1      31.044  24.590  23.236  1.00  0.00     0.026 A 
ATOM      9  C   UNL A   1      30.838  26.916  25.388  1.00  0.00     0.040 A 
ATOM     10  C   UNL A   1      31.293  25.845  21.927  1.00  0.00     0.003 A 
ATOM     11  C   UNL A   1      31.175  27.612  22.329  1.00  0.00     0.014 A 
BRANCH   7  12
ATOM     12  N   UNL A   1      30.046  24.291  25.746  1.00  0.00    -0.318 N 
ATOM     13  C   UNL A   1      30.515  23.432  26.732  1.00  0.00     0.315 C 
ATOM     14  O   UNL A   1      29.679  22.901  27.467  1.00  0.00    -0.263 OA
ATOM     15  H   UNL A   1      29.075  24.296  25.582  1.00  0.00     0.170 HD
BRANCH  13  16
ATOM     16  C   UNL A   1      32.008  23.132  27.026  1.00  0.00     0.329 C 
ATOM     17  O   UNL A   1      32.322  22.703  28.135  1.00  0.00    -0.262 OA
ATOM     18  N   UNL A   1      33.007  23.484  26.107  1.00  0.00    -0.239 N 
ATOM     19  H   UNL A   1      33.588  24.269  26.234  1.00  0.00     0.194 HD
BRANCH  18  20
ATOM     20  N   UNL A   1      33.120  22.653  25.012  1.00  0.00    -0.180 NA
ATOM     21  C   UNL A   1      32.379  21.496  25.090  1.00  0.00     0.145 C 
BRANCH  21  22
ATOM     22  C   UNL A   1      32.601  19.441  24.574  1.00  0.00     0.036 A 
ATOM     23  C   UNL A   1      32.546  18.809  23.182  1.00  0.00     0.013 A 
ATOM     24  C   UNL A   1      32.925  18.167  25.356  1.00  0.00     0.124 A 
ATOM     25  C   UNL A   1      33.029  17.560  22.693  1.00  0.00     0.001 A 
ATOM     26  C   UNL A   1      33.467  16.924  24.881  1.00  0.00     0.047 A 
ATOM     27  C   UNL A   1      33.583  16.649  23.543  1.00  0.00     0.004 A 
BRANCH  24  28
ATOM     28  O   UNL A   1      32.513  17.889  26.664  1.00  0.00    -0.507 OA
ATOM     29  H   UNL A   1      31.621  17.664  26.836  1.00  0.00     0.293 HD
ENDBRANCH  24  28
ENDBRANCH  21  22
ENDBRANCH  18  20
ENDBRANCH  13  16
ENDBRANCH   7  12
ENDBRANCH   3   6
ENDBRANCH   1   2
BRANCH   1  30
ATOM     30  C   UNL A   1      32.399  30.802  27.265  1.00  0.00     0.023 C 
BRANCH  30  31
ATOM     31  C   UNL A   1      31.795  32.205  27.188  1.00  0.00     0.023 C 
BRANCH  31  32
ATOM     32  C   UNL A   1      32.804  33.345  27.091  1.00  0.00     0.116 C 
BRANCH  32  33
ATOM     33  N   UNL A   1      32.547  34.445  28.007  1.00  0.00    -0.352 N 
ATOM     34  C   UNL A   1      33.259  34.801  29.128  1.00  0.00     0.251 C 
ATOM     35  H   UNL A   1      31.765  35.004  27.798  1.00  0.00     0.163 HD
ATOM     36  O   UNL A   1      32.856  35.694  29.866  1.00  0.00    -0.269 OA
BRANCH  34  37
ATOM     37  C   UNL A   1      34.498  34.071  29.467  1.00  0.00     0.039 A 
ATOM     38  C   UNL A   1      35.684  34.435  28.827  1.00  0.00     0.014 A 
ATOM     39  C   UNL A   1      34.492  33.041  30.411  1.00  0.00     0.014 A 
ATOM     40  C   UNL A   1      36.878  33.802  29.174  1.00  0.00     0.010 A 
ATOM     41  C   UNL A   1      35.692  32.456  30.804  1.00  0.00     0.010 A 
ATOM     42  C   UNL A   1      36.894  32.825  30.182  1.00  0.00    -0.014 A 
BRANCH  42  43
ATOM     43  C   UNL A   1      38.158  32.163  30.578  1.00  0.00     0.031 A 
ATOM     44  C   UNL A   1      39.004  32.751  31.672  1.00  0.00     0.074 A 
ATOM     45  C   UNL A   1      38.567  31.061  29.921  1.00  0.00     0.049 A 
ATOM     46  N   UNL A   1      40.151  32.334  32.145  1.00  0.00    -0.248 NA
ATOM     47  C   UNL A   1      38.510  33.987  32.298  1.00  0.00     0.031 C 
ATOM     48  C   UNL A   1      37.864  30.431  28.802  1.00  0.00     0.029 A 
ATOM     49  N   UNL A   1      39.678  30.277  30.101  1.00  0.00    -0.354 N 
ATOM     50  C   UNL A   1      40.522  33.265  33.106  1.00  0.00     0.074 A 
ATOM     51  C   UNL A   1      39.504  34.292  33.117  1.00  0.00     0.031 C 
ATOM     52  C   UNL A   1      38.547  29.341  28.414  1.00  0.00     0.029 A 
ATOM     53  C   UNL A   1      39.740  29.206  29.243  1.00  0.00     0.049 A 
ATOM     54  H   UNL A   1      40.366  30.464  30.780  1.00  0.00     0.167 HD
ATOM     55  C   UNL A   1      41.602  33.252  33.923  1.00  0.00     0.037 A 
ATOM     56  C   UNL A   1      40.651  28.221  29.150  1.00  0.00     0.037 A 
ATOM     57  C   UNL A   1      42.592  32.210  33.938  1.00  0.00     0.049 A 
ATOM     58  C   UNL A   1      41.807  28.196  30.109  1.00  0.00     0.074 A 
ATOM     59  C   UNL A   1      43.696  32.077  34.762  1.00  0.00     0.029 A 
ATOM     60  N   UNL A   1      42.588  31.111  33.093  1.00  0.00    -0.354 N 
ATOM     61  N   UNL A   1      42.114  29.049  31.054  1.00  0.00    -0.248 NA
ATOM     62  C   UNL A   1      42.734  27.060  29.998  1.00  0.00     0.031 C 
ATOM     63  C   UNL A   1      44.371  30.904  34.403  1.00  0.00     0.029 A 
ATOM     64  C   UNL A   1      43.670  30.295  33.375  1.00  0.00     0.049 A 
ATOM     65  H   UNL A   1      41.916  30.937  32.395  1.00  0.00     0.167 HD
ATOM     66  C   UNL A   1      43.250  28.541  31.671  1.00  0.00     0.074 A 
ATOM     67  C   UNL A   1      43.572  27.300  30.997  1.00  0.00     0.031 C 
ATOM     68  C   UNL A   1      43.961  29.055  32.703  1.00  0.00     0.037 A 
BRANCH  55  69
ATOM     69  C   UNL A   1      41.751  34.400  34.876  1.00  0.00     0.057 A 
ATOM     70  C   UNL A   1      42.415  35.578  34.510  1.00  0.00     0.134 A 
ATOM     71  C   UNL A   1      41.221  34.331  36.170  1.00  0.00     0.134 A 
ATOM     72  F   UNL A   1      42.960  35.698  33.289  1.00  0.00    -0.206 F 
ATOM     73  C   UNL A   1      42.571  36.636  35.404  1.00  0.00     0.040 A 
ATOM     74  C   UNL A   1      41.349  35.394  37.066  1.00  0.00     0.040 A 
ATOM     75  F   UNL A   1      40.571  33.234  36.583  1.00  0.00    -0.206 F 
ATOM     76  C   UNL A   1      42.033  36.547  36.686  1.00  0.00     0.006 A 
ENDBRANCH  55  69
BRANCH  56  77
ATOM     77  C   UNL A   1      40.473  27.141  28.149  1.00  0.00     0.057 A 
ATOM     78  C   UNL A   1      39.666  26.032  28.427  1.00  0.00     0.134 A 
ATOM     79  C   UNL A   1      41.099  27.189  26.900  1.00  0.00     0.134 A 
ATOM     80  F   UNL A   1      39.054  25.925  29.616  1.00  0.00    -0.206 F 
ATOM     81  C   UNL A   1      39.503  24.999  27.505  1.00  0.00     0.040 A 
ATOM     82  C   UNL A   1      40.931  26.171  25.961  1.00  0.00     0.040 A 
ATOM     83  F   UNL A   1      41.879  28.231  26.573  1.00  0.00    -0.206 F 
ATOM     84  C   UNL A   1      40.134  25.068  26.265  1.00  0.00     0.006 A 
ENDBRANCH  56  77
BRANCH  68  85
ATOM     85  C   UNL A   1      45.131  28.255  33.189  1.00  0.00     0.057 A 
ATOM     86  C   UNL A   1      44.989  27.259  34.161  1.00  0.00     0.134 A 
ATOM     87  C   UNL A   1      46.408  28.467  32.653  1.00  0.00     0.134 A 
ATOM     88  F   UNL A   1      43.793  27.019  34.721  1.00  0.00    -0.206 F 
ATOM     89  C   UNL A   1      46.084  26.514  34.602  1.00  0.00     0.040 A 
ATOM     90  C   UNL A   1      47.505  27.715  33.071  1.00  0.00     0.040 A 
ATOM     91  F   UNL A   1      46.605  29.403  31.713  1.00  0.00    -0.206 F 
ATOM     92  C   UNL A   1      47.345  26.738  34.053  1.00  0.00     0.006 A 
ENDBRANCH  68  85
ENDBRANCH  42  43
ENDBRANCH  34  37
ENDBRANCH  32  33
ENDBRANCH  31  32
ENDBRANCH  30  31
ENDBRANCH   1  30
TORSDOF 16
ENDMDL
MODEL 3
REMARK VINA RESULT:     -12.6      4.823      9.969
REMARK SMILES O=C(N/N=C/c1ccccc1O)C(=O)Nc1cccc(C(=O)NCCCCNC(=O)c2ccc(-c3c4nc(c(-c5c(F)cccc5F)c5ccc([nH]5)c(-c5c(F)cccc5F)c5nc(c(-c6c(F)cccc6F)c6ccc3[nH]6)C=C5)C=C4)cc2)c1
REMARK SMILES IDX 24 1 23 2 21 3 22 4 20 6 16 7 17 8 85 9 18 10 19 11 15 12
REMARK SMILES IDX 13 13 14 14 2 16 1 17 3 18 4 20 5 21 6 22 7 23 11 24 8 25
REMARK SMILES IDX 10 26 9 27 12 28 25 30 26 31 27 32 28 33 29 34 30 36 31 37
REMARK SMILES IDX 32 38 84 39 33 40 83 41 34 42 35 43 36 44 77 45 37 46 82 47
REMARK SMILES IDX 76 48 78 49 38 50 81 51 75 52 74 53 39 55 65 56 48 57 64 58
REMARK SMILES IDX 49 59 52 60 63 61 79 62 50 63 51 64 62 66 80 67 53 68 40 69
REMARK SMILES IDX 41 70 46 71 42 72 43 73 45 74 47 75 44 76 66 77 67 78 72 79
REMARK SMILES IDX 68 80 69 81 71 82 73 83 70 84 54 85 55 86 60 87 56 88 57 89
REMARK SMILES IDX 59 90 61 91 58 92
REMARK H PARENT 23 5 15 15 3 19 12 29 28 35 78 54 52 65
REMARK Flexibility Score: inf
ROOT
ATOM      1  C   UNL A   1      38.541  22.970  26.321  1.00  0.00     0.116 C 
ENDROOT
BRANCH   1   2
ATOM      2  N   UNL A   1      38.057  22.631  24.996  1.00  0.00    -0.352 N 
ATOM      3  C   UNL A   1      36.811  22.764  24.443  1.00  0.00     0.251 C 
ATOM      4  O   UNL A   1      36.662  22.575  23.233  1.00  0.00    -0.269 OA
ATOM      5  H   UNL A   1      38.735  22.242  24.397  1.00  0.00     0.163 HD
BRANCH   3   6
ATOM      6  C   UNL A   1      35.587  23.085  25.224  1.00  0.00     0.041 A 
ATOM      7  C   UNL A   1      33.026  24.820  25.862  1.00  0.00     0.042 A 
ATOM      8  C   UNL A   1      32.337  23.466  26.886  1.00  0.00     0.026 A 
ATOM      9  C   UNL A   1      34.673  24.672  25.105  1.00  0.00     0.040 A 
ATOM     10  C   UNL A   1      33.341  21.957  27.152  1.00  0.00     0.003 A 
ATOM     11  C   UNL A   1      34.927  21.758  26.289  1.00  0.00     0.014 A 
BRANCH   7  12
ATOM     12  N   UNL A   1      32.062  25.577  25.198  1.00  0.00    -0.318 N 
ATOM     13  C   UNL A   1      31.534  25.307  23.942  1.00  0.00     0.315 C 
ATOM     14  O   UNL A   1      30.543  25.953  23.591  1.00  0.00    -0.263 OA
ATOM     15  H   UNL A   1      31.724  26.377  25.663  1.00  0.00     0.170 HD
BRANCH  13  16
ATOM     16  C   UNL A   1      32.049  24.215  22.968  1.00  0.00     0.329 C 
ATOM     17  O   UNL A   1      32.938  24.503  22.168  1.00  0.00    -0.262 OA
ATOM     18  N   UNL A   1      31.417  22.966  22.888  1.00  0.00    -0.239 N 
ATOM     19  H   UNL A   1      30.813  22.728  22.148  1.00  0.00     0.194 HD
BRANCH  18  20
ATOM     20  N   UNL A   1      31.702  22.095  23.918  1.00  0.00    -0.180 NA
ATOM     21  C   UNL A   1      32.637  21.133  23.615  1.00  0.00     0.145 C 
BRANCH  21  22
ATOM     22  C   UNL A   1      32.959  19.063  24.006  1.00  0.00     0.036 A 
ATOM     23  C   UNL A   1      33.146  17.932  22.994  1.00  0.00     0.013 A 
ATOM     24  C   UNL A   1      33.154  18.229  25.273  1.00  0.00     0.124 A 
ATOM     25  C   UNL A   1      33.714  16.631  23.126  1.00  0.00     0.001 A 
ATOM     26  C   UNL A   1      33.778  16.943  25.425  1.00  0.00     0.047 A 
ATOM     27  C   UNL A   1      34.122  16.173  24.345  1.00  0.00     0.004 A 
BRANCH  24  28
ATOM     28  O   UNL A   1      32.528  18.458  26.502  1.00  0.00    -0.507 OA
ATOM     29  H   UNL A   1      31.656  18.798  26.528  1.00  0.00     0.293 HD
ENDBRANCH  24  28
ENDBRANCH  21  22
ENDBRANCH  18  20
ENDBRANCH  13  16
ENDBRANCH   7  12
ENDBRANCH   3   6
ENDBRANCH   1   2
BRANCH   1  30
ATOM     30  C   UNL A   1      39.758  22.143  26.728  1.00  0.00     0.023 C 
BRANCH  30  31
ATOM     31  C   UNL A   1      39.911  20.820  25.977  1.00  0.00     0.023 C 
BRANCH  31  32
ATOM     32  C   UNL A   1      40.880  19.822  26.607  1.00  0.00     0.116 C 
BRANCH  32  33
ATOM     33  N   UNL A   1      42.039  19.520  25.782  1.00  0.00    -0.352 N 
ATOM     34  C   UNL A   1      43.072  20.354  25.429  1.00  0.00     0.251 C 
ATOM     35  H   UNL A   1      42.088  18.601  25.432  1.00  0.00     0.163 HD
ATOM     36  O   UNL A   1      43.931  19.985  24.635  1.00  0.00    -0.269 OA
BRANCH  34  37
ATOM     37  C   UNL A   1      43.124  21.724  25.981  1.00  0.00     0.039 A 
ATOM     38  C   UNL A   1      43.264  21.883  27.362  1.00  0.00     0.014 A 
ATOM     39  C   UNL A   1      43.040  22.841  25.146  1.00  0.00     0.014 A 
ATOM     40  C   UNL A   1      43.376  23.165  27.901  1.00  0.00     0.010 A 
ATOM     41  C   UNL A   1      43.218  24.116  25.676  1.00  0.00     0.010 A 
ATOM     42  C   UNL A   1      43.378  24.289  27.059  1.00  0.00    -0.014 A 
BRANCH  42  43
ATOM     43  C   UNL A   1      43.521  25.655  27.615  1.00  0.00     0.031 A 
ATOM     44  C   UNL A   1      44.889  26.236  27.836  1.00  0.00     0.074 A 
ATOM     45  C   UNL A   1      42.423  26.350  27.964  1.00  0.00     0.049 A 
ATOM     46  N   UNL A   1      45.222  27.400  28.334  1.00  0.00    -0.248 NA
ATOM     47  C   UNL A   1      46.035  25.386  27.479  1.00  0.00     0.031 C 
ATOM     48  C   UNL A   1      41.044  25.870  27.854  1.00  0.00     0.029 A 
ATOM     49  N   UNL A   1      42.296  27.612  28.485  1.00  0.00    -0.354 N 
ATOM     50  C   UNL A   1      46.610  27.412  28.367  1.00  0.00     0.074 A 
ATOM     51  C   UNL A   1      47.057  26.124  27.884  1.00  0.00     0.031 C 
ATOM     52  C   UNL A   1      40.209  26.837  28.269  1.00  0.00     0.029 A 
ATOM     53  C   UNL A   1      40.992  27.994  28.688  1.00  0.00     0.049 A 
ATOM     54  H   UNL A   1      43.065  28.189  28.695  1.00  0.00     0.167 HD
ATOM     55  C   UNL A   1      47.438  28.415  28.741  1.00  0.00     0.037 A 
ATOM     56  C   UNL A   1      40.490  29.155  29.147  1.00  0.00     0.037 A 
ATOM     57  C   UNL A   1      46.993  29.709  29.184  1.00  0.00     0.049 A 
ATOM     58  C   UNL A   1      41.427  30.274  29.498  1.00  0.00     0.074 A 
ATOM     59  C   UNL A   1      47.752  30.811  29.538  1.00  0.00     0.029 A 
ATOM     60  N   UNL A   1      45.663  30.077  29.320  1.00  0.00    -0.354 N 
ATOM     61  N   UNL A   1      42.737  30.294  29.466  1.00  0.00    -0.248 NA
ATOM     62  C   UNL A   1      40.816  31.538  29.933  1.00  0.00     0.031 C 
ATOM     63  C   UNL A   1      46.880  31.842  29.905  1.00  0.00     0.029 A 
ATOM     64  C   UNL A   1      45.579  31.390  29.752  1.00  0.00     0.049 A 
ATOM     65  H   UNL A   1      44.893  29.492  29.137  1.00  0.00     0.167 HD
ATOM     66  C   UNL A   1      43.107  31.578  29.847  1.00  0.00     0.074 A 
ATOM     67  C   UNL A   1      41.882  32.309  30.096  1.00  0.00     0.031 C 
ATOM     68  C   UNL A   1      44.349  32.103  29.976  1.00  0.00     0.037 A 
BRANCH  55  69
ATOM     69  C   UNL A   1      48.912  28.146  28.673  1.00  0.00     0.057 A 
ATOM     70  C   UNL A   1      49.607  27.584  29.751  1.00  0.00     0.134 A 
ATOM     71  C   UNL A   1      49.642  28.446  27.517  1.00  0.00     0.134 A 
ATOM     72  F   UNL A   1      48.967  27.290  30.893  1.00  0.00    -0.206 F 
ATOM     73  C   UNL A   1      50.982  27.354  29.692  1.00  0.00     0.040 A 
ATOM     74  C   UNL A   1      51.013  28.198  27.437  1.00  0.00     0.040 A 
ATOM     75  F   UNL A   1      49.036  28.983  26.448  1.00  0.00    -0.206 F 
ATOM     76  C   UNL A   1      51.688  27.657  28.531  1.00  0.00     0.006 A 
ENDBRANCH  55  69
BRANCH  56  77
ATOM     77  C   UNL A   1      39.021  29.340  29.241  1.00  0.00     0.057 A 
ATOM     78  C   UNL A   1      38.365  29.256  30.475  1.00  0.00     0.134 A 
ATOM     79  C   UNL A   1      38.242  29.603  28.110  1.00  0.00     0.134 A 
ATOM     80  F   UNL A   1      39.061  28.990  31.590  1.00  0.00    -0.206 F 
ATOM     81  C   UNL A   1      36.983  29.408  30.579  1.00  0.00     0.040 A 
ATOM     82  C   UNL A   1      36.860  29.775  28.202  1.00  0.00     0.040 A 
ATOM     83  F   UNL A   1      38.814  29.703  26.901  1.00  0.00    -0.206 F 
ATOM     84  C   UNL A   1      36.226  29.672  29.439  1.00  0.00     0.006 A 
ENDBRANCH  56  77
BRANCH  68  85
ATOM     85  C   UNL A   1      44.440  33.546  30.368  1.00  0.00     0.057 A 
ATOM     86  C   UNL A   1      44.530  33.943  31.706  1.00  0.00     0.134 A 
ATOM     87  C   UNL A   1      44.466  34.547  29.388  1.00  0.00     0.134 A 
ATOM     88  F   UNL A   1      44.496  33.030  32.690  1.00  0.00    -0.206 F 
ATOM     89  C   UNL A   1      44.622  35.289  32.061  1.00  0.00     0.040 A 
ATOM     90  C   UNL A   1      44.578  35.895  29.729  1.00  0.00     0.040 A 
ATOM     91  F   UNL A   1      44.389  34.230  28.087  1.00  0.00    -0.206 F 
ATOM     92  C   UNL A   1      44.652  36.270  31.070  1.00  0.00     0.006 A 
ENDBRANCH  68  85
ENDBRANCH  42  43
ENDBRANCH  34  37
ENDBRANCH  32  33
ENDBRANCH  31  32
ENDBRANCH  30  31
ENDBRANCH   1  30
TORSDOF 16
ENDMDL
