MODEL 1
REMARK VINA RESULT:     -12.9      0.000      0.000
REMARK SMILES Cn1c(=O)c(=O)n(C)c2cc(S(=O)(=O)N3CCC[C@H]3C(=O)NCCCCNC(=O)c3ccc(-c4c5nc(c(-c6c(F)cccc6F)c6ccc([nH]6)c(-c6c(F)cccc6F)c6nc(c(-c7c(F)cccc7F)c7ccc4[nH]7)C=C6)C=C5)cc3)ccc21
REMARK SMILES IDX 24 1 23 2 22 3 20 4 21 5 19 7 15 8 16 9 17 10 18 11 12 12
REMARK SMILES IDX 13 13 14 14 11 15 1 16 2 17 3 18 86 19 4 20 5 21 9 22 85 23
REMARK SMILES IDX 6 24 7 25 10 26 84 27 8 28 25 29 26 30 27 31 28 32 29 34
REMARK SMILES IDX 30 35 31 36 83 37 32 38 82 39 33 40 34 41 35 42 76 43 36 44
REMARK SMILES IDX 81 45 75 46 77 47 37 48 80 49 74 50 73 51 38 53 64 54 47 55
REMARK SMILES IDX 63 56 48 57 51 58 62 59 78 60 49 61 50 62 61 64 79 65 52 66
REMARK SMILES IDX 39 67 40 68 45 69 41 70 42 71 44 72 46 73 43 74 65 75 66 76
REMARK SMILES IDX 71 77 67 78 68 79 70 80 72 81 69 82 53 83 54 84 59 85 55 86
REMARK SMILES IDX 56 87 58 88 60 89 57 90
REMARK H PARENT 22 6 27 33 77 52 51 63
REMARK Flexibility Score: inf
ROOT
ATOM      1  C   UNL A   1      32.110  29.210  27.063  1.00  0.00     0.023 C 
ENDROOT
BRANCH   1   2
ATOM      2  C   UNL A   1      32.155  30.286  25.984  1.00  0.00     0.116 C 
BRANCH   2   3
ATOM      3  N   UNL A   1      31.117  30.093  24.995  1.00  0.00    -0.355 N 
ATOM      4  C   UNL A   1      31.020  29.211  23.966  1.00  0.00     0.238 C 
ATOM      5  O   UNL A   1      30.001  29.290  23.269  1.00  0.00    -0.273 OA
ATOM      6  H   UNL A   1      30.350  30.703  25.084  1.00  0.00     0.163 HD
BRANCH   4   7
ATOM      7  C   UNL A   1      31.996  28.065  23.745  1.00  0.00     0.162 C 
ATOM      8  N   UNL A   1      31.497  26.767  23.235  1.00  0.00    -0.185 NA
ATOM      9  C   UNL A   1      32.205  26.386  21.996  1.00  0.00     0.103 C 
ATOM     10  C   UNL A   1      33.469  27.224  22.005  1.00  0.00     0.019 C 
ATOM     11  C   UNL A   1      33.077  28.491  22.746  1.00  0.00     0.032 C 
BRANCH   8  12
ATOM     12  S   UNL A   1      31.024  25.567  24.318  1.00  0.00     0.243 S 
ATOM     13  O   UNL A   1      30.274  24.598  23.545  1.00  0.00    -0.207 OA
ATOM     14  O   UNL A   1      30.465  26.197  25.492  1.00  0.00    -0.207 OA
BRANCH  12  15
ATOM     15  C   UNL A   1      32.530  24.744  24.826  1.00  0.00     0.084 A 
ATOM     16  C   UNL A   1      37.412  23.691  25.850  1.00  0.00     0.154 C 
ATOM     17  N   UNL A   1      36.258  22.870  25.509  1.00  0.00    -0.305 N 
ATOM     18  C   UNL A   1      36.462  21.511  25.294  1.00  0.00     0.316 A 
ATOM     19  C   UNL A   1      34.983  23.467  25.339  1.00  0.00     0.068 A 
ATOM     20  O   UNL A   1      37.559  20.967  25.388  1.00  0.00    -0.263 OA
ATOM     21  C   UNL A   1      35.241  20.657  24.925  1.00  0.00     0.316 A 
ATOM     22  C   UNL A   1      33.898  22.718  24.847  1.00  0.00     0.069 A 
ATOM     23  C   UNL A   1      34.792  24.819  25.646  1.00  0.00     0.030 A 
ATOM     24  O   UNL A   1      35.378  19.438  24.863  1.00  0.00    -0.263 OA
ATOM     25  N   UNL A   1      34.038  21.315  24.664  1.00  0.00    -0.305 N 
ATOM     26  C   UNL A   1      32.685  23.378  24.557  1.00  0.00     0.050 A 
ATOM     27  C   UNL A   1      33.571  25.443  25.420  1.00  0.00     0.024 A 
ATOM     28  C   UNL A   1      32.893  20.505  24.276  1.00  0.00     0.154 C 
ENDBRANCH  12  15
ENDBRANCH   8  12
ENDBRANCH   4   7
ENDBRANCH   2   3
ENDBRANCH   1   2
BRANCH   1  29
ATOM     29  C   UNL A   1      33.466  28.601  27.410  1.00  0.00     0.023 C 
BRANCH  29  30
ATOM     30  C   UNL A   1      34.644  29.563  27.344  1.00  0.00     0.116 C 
BRANCH  30  31
ATOM     31  N   UNL A   1      34.797  30.388  28.536  1.00  0.00    -0.352 N 
ATOM     32  C   UNL A   1      35.890  30.497  29.366  1.00  0.00     0.251 C 
ATOM     33  H   UNL A   1      34.018  30.938  28.778  1.00  0.00     0.163 HD
ATOM     34  O   UNL A   1      35.846  31.178  30.383  1.00  0.00    -0.269 OA
BRANCH  32  35
ATOM     35  C   UNL A   1      37.103  29.726  29.031  1.00  0.00     0.039 A 
ATOM     36  C   UNL A   1      37.757  28.996  30.023  1.00  0.00     0.014 A 
ATOM     37  C   UNL A   1      37.653  29.849  27.753  1.00  0.00     0.014 A 
ATOM     38  C   UNL A   1      39.054  28.558  29.797  1.00  0.00     0.010 A 
ATOM     39  C   UNL A   1      38.923  29.325  27.502  1.00  0.00     0.010 A 
ATOM     40  C   UNL A   1      39.660  28.735  28.541  1.00  0.00    -0.014 A 
BRANCH  40  41
ATOM     41  C   UNL A   1      41.079  28.334  28.356  1.00  0.00     0.031 A 
ATOM     42  C   UNL A   1      41.437  26.922  27.972  1.00  0.00     0.074 A 
ATOM     43  C   UNL A   1      42.042  29.267  28.464  1.00  0.00     0.049 A 
ATOM     44  N   UNL A   1      42.618  26.403  27.742  1.00  0.00    -0.248 NA
ATOM     45  C   UNL A   1      40.328  25.967  27.829  1.00  0.00     0.031 C 
ATOM     46  C   UNL A   1      41.820  30.674  28.804  1.00  0.00     0.029 A 
ATOM     47  N   UNL A   1      43.396  29.182  28.265  1.00  0.00    -0.354 N 
ATOM     48  C   UNL A   1      42.397  25.059  27.460  1.00  0.00     0.074 A 
ATOM     49  C   UNL A   1      40.971  24.837  27.569  1.00  0.00     0.031 C 
ATOM     50  C   UNL A   1      42.985  31.334  28.722  1.00  0.00     0.029 A 
ATOM     51  C   UNL A   1      44.043  30.386  28.395  1.00  0.00     0.049 A 
ATOM     52  H   UNL A   1      43.859  28.340  28.051  1.00  0.00     0.167 HD
ATOM     53  C   UNL A   1      43.297  24.101  27.133  1.00  0.00     0.037 A 
ATOM     54  C   UNL A   1      45.348  30.690  28.275  1.00  0.00     0.037 A 
ATOM     55  C   UNL A   1      44.713  24.329  26.994  1.00  0.00     0.049 A 
ATOM     56  C   UNL A   1      46.329  29.597  27.971  1.00  0.00     0.074 A 
ATOM     57  C   UNL A   1      45.702  23.434  26.626  1.00  0.00     0.029 A 
ATOM     58  N   UNL A   1      45.341  25.545  27.221  1.00  0.00    -0.354 N 
ATOM     59  N   UNL A   1      46.104  28.335  27.701  1.00  0.00    -0.248 NA
ATOM     60  C   UNL A   1      47.749  29.973  27.975  1.00  0.00     0.031 C 
ATOM     61  C   UNL A   1      46.935  24.097  26.671  1.00  0.00     0.029 A 
ATOM     62  C   UNL A   1      46.708  25.416  27.029  1.00  0.00     0.049 A 
ATOM     63  H   UNL A   1      44.884  26.377  27.479  1.00  0.00     0.167 HD
ATOM     64  C   UNL A   1      47.352  27.766  27.487  1.00  0.00     0.074 A 
ATOM     65  C   UNL A   1      48.327  28.828  27.641  1.00  0.00     0.031 C 
ATOM     66  C   UNL A   1      47.665  26.481  27.193  1.00  0.00     0.037 A 
BRANCH  53  67
ATOM     67  C   UNL A   1      42.777  22.707  26.929  1.00  0.00     0.057 A 
ATOM     68  C   UNL A   1      42.669  22.170  25.639  1.00  0.00     0.134 A 
ATOM     69  C   UNL A   1      42.374  21.898  28.000  1.00  0.00     0.134 A 
ATOM     70  F   UNL A   1      43.030  22.892  24.569  1.00  0.00    -0.206 F 
ATOM     71  C   UNL A   1      42.184  20.879  25.423  1.00  0.00     0.040 A 
ATOM     72  C   UNL A   1      41.910  20.596  27.797  1.00  0.00     0.040 A 
ATOM     73  F   UNL A   1      42.465  22.345  29.261  1.00  0.00    -0.206 F 
ATOM     74  C   UNL A   1      41.811  20.084  26.505  1.00  0.00     0.006 A 
ENDBRANCH  53  67
BRANCH  54  75
ATOM     75  C   UNL A   1      45.801  32.091  28.448  1.00  0.00     0.057 A 
ATOM     76  C   UNL A   1      46.200  32.585  29.695  1.00  0.00     0.134 A 
ATOM     77  C   UNL A   1      45.851  32.968  27.359  1.00  0.00     0.134 A 
ATOM     78  F   UNL A   1      46.171  31.794  30.778  1.00  0.00    -0.206 F 
ATOM     79  C   UNL A   1      46.618  33.905  29.857  1.00  0.00     0.040 A 
ATOM     80  C   UNL A   1      46.291  34.284  27.501  1.00  0.00     0.040 A 
ATOM     81  F   UNL A   1      45.500  32.545  26.135  1.00  0.00    -0.206 F 
ATOM     82  C   UNL A   1      46.670  34.758  28.756  1.00  0.00     0.006 A 
ENDBRANCH  54  75
BRANCH  66  83
ATOM     83  C   UNL A   1      49.118  26.169  26.999  1.00  0.00     0.057 A 
ATOM     84  C   UNL A   1      49.931  25.846  28.092  1.00  0.00     0.134 A 
ATOM     85  C   UNL A   1      49.711  26.181  25.730  1.00  0.00     0.134 A 
ATOM     86  F   UNL A   1      49.424  25.820  29.334  1.00  0.00    -0.206 F 
ATOM     87  C   UNL A   1      51.284  25.543  27.930  1.00  0.00     0.040 A 
ATOM     88  C   UNL A   1      51.056  25.857  25.553  1.00  0.00     0.040 A 
ATOM     89  F   UNL A   1      48.981  26.463  24.641  1.00  0.00    -0.206 F 
ATOM     90  C   UNL A   1      51.847  25.539  26.655  1.00  0.00     0.006 A 
ENDBRANCH  66  83
ENDBRANCH  40  41
ENDBRANCH  32  35
ENDBRANCH  30  31
ENDBRANCH  29  30
ENDBRANCH   1  29
TORSDOF 13
ENDMDL
MODEL 2
REMARK VINA RESULT:     -12.7      4.923      8.452
REMARK SMILES Cn1c(=O)c(=O)n(C)c2cc(S(=O)(=O)N3CCC[C@H]3C(=O)NCCCCNC(=O)c3ccc(-c4c5nc(c(-c6c(F)cccc6F)c6ccc([nH]6)c(-c6c(F)cccc6F)c6nc(c(-c7c(F)cccc7F)c7ccc4[nH]7)C=C6)C=C5)cc3)ccc21
REMARK SMILES IDX 24 1 23 2 22 3 20 4 21 5 19 7 15 8 16 9 17 10 18 11 12 12
REMARK SMILES IDX 13 13 14 14 11 15 1 16 2 17 3 18 86 19 4 20 5 21 9 22 85 23
REMARK SMILES IDX 6 24 7 25 10 26 84 27 8 28 25 29 26 30 27 31 28 32 29 34
REMARK SMILES IDX 30 35 31 36 83 37 32 38 82 39 33 40 34 41 35 42 76 43 36 44
REMARK SMILES IDX 81 45 75 46 77 47 37 48 80 49 74 50 73 51 38 53 64 54 47 55
REMARK SMILES IDX 63 56 48 57 51 58 62 59 78 60 49 61 50 62 61 64 79 65 52 66
REMARK SMILES IDX 39 67 40 68 45 69 41 70 42 71 44 72 46 73 43 74 65 75 66 76
REMARK SMILES IDX 71 77 67 78 68 79 70 80 72 81 69 82 53 83 54 84 59 85 55 86
REMARK SMILES IDX 56 87 58 88 60 89 57 90
REMARK H PARENT 22 6 27 33 77 52 51 63
REMARK Flexibility Score: inf
ROOT
ATOM      1  C   UNL A   1      32.291  30.224  26.912  1.00  0.00     0.023 C 
ENDROOT
BRANCH   1   2
ATOM      2  C   UNL A   1      32.924  29.664  25.644  1.00  0.00     0.116 C 
BRANCH   2   3
ATOM      3  N   UNL A   1      32.005  29.704  24.528  1.00  0.00    -0.355 N 
ATOM      4  C   UNL A   1      31.826  28.847  23.490  1.00  0.00     0.238 C 
ATOM      5  O   UNL A   1      30.955  29.153  22.666  1.00  0.00    -0.273 OA
ATOM      6  H   UNL A   1      31.406  30.485  24.520  1.00  0.00     0.163 HD
BRANCH   4   7
ATOM      7  C   UNL A   1      32.511  27.492  23.390  1.00  0.00     0.162 C 
ATOM      8  N   UNL A   1      31.699  26.255  23.454  1.00  0.00    -0.185 NA
ATOM      9  C   UNL A   1      31.923  25.421  22.255  1.00  0.00     0.103 C 
ATOM     10  C   UNL A   1      33.231  25.925  21.678  1.00  0.00     0.019 C 
ATOM     11  C   UNL A   1      33.274  27.393  22.065  1.00  0.00     0.032 C 
BRANCH   8  12
ATOM     12  S   UNL A   1      31.424  25.509  24.939  1.00  0.00     0.243 S 
ATOM     13  O   UNL A   1      30.279  24.642  24.750  1.00  0.00    -0.207 OA
ATOM     14  O   UNL A   1      31.450  26.516  25.974  1.00  0.00    -0.207 OA
BRANCH  12  15
ATOM     15  C   UNL A   1      32.827  24.432  25.214  1.00  0.00     0.084 A 
ATOM     16  C   UNL A   1      37.563  22.576  25.571  1.00  0.00     0.154 C 
ATOM     17  N   UNL A   1      36.260  21.967  25.334  1.00  0.00    -0.305 N 
ATOM     18  C   UNL A   1      36.219  20.612  25.026  1.00  0.00     0.316 A 
ATOM     19  C   UNL A   1      35.086  22.762  25.354  1.00  0.00     0.068 A 
ATOM     20  O   UNL A   1      37.218  19.901  24.956  1.00  0.00    -0.263 OA
ATOM     21  C   UNL A   1      34.843  19.982  24.768  1.00  0.00     0.316 A 
ATOM     22  C   UNL A   1      33.847  22.224  24.962  1.00  0.00     0.069 A 
ATOM     23  C   UNL A   1      35.151  24.103  25.751  1.00  0.00     0.030 A 
ATOM     24  O   UNL A   1      34.775  18.764  24.628  1.00  0.00    -0.263 OA
ATOM     25  N   UNL A   1      33.738  20.833  24.692  1.00  0.00    -0.305 N 
ATOM     26  C   UNL A   1      32.730  23.080  24.858  1.00  0.00     0.050 A 
ATOM     27  C   UNL A   1      34.028  24.920  25.709  1.00  0.00     0.024 A 
ATOM     28  C   UNL A   1      32.442  20.236  24.408  1.00  0.00     0.154 C 
ENDBRANCH  12  15
ENDBRANCH   8  12
ENDBRANCH   4   7
ENDBRANCH   2   3
ENDBRANCH   1   2
BRANCH   1  29
ATOM     29  C   UNL A   1      31.966  31.715  26.855  1.00  0.00     0.023 C 
BRANCH  29  30
ATOM     30  C   UNL A   1      32.996  32.628  27.507  1.00  0.00     0.116 C 
BRANCH  30  31
ATOM     31  N   UNL A   1      32.516  33.985  27.737  1.00  0.00    -0.352 N 
ATOM     32  C   UNL A   1      33.015  34.933  28.602  1.00  0.00     0.251 C 
ATOM     33  H   UNL A   1      31.734  34.258  27.205  1.00  0.00     0.163 HD
ATOM     34  O   UNL A   1      32.457  36.014  28.745  1.00  0.00    -0.269 OA
BRANCH  32  35
ATOM     35  C   UNL A   1      34.211  34.595  29.397  1.00  0.00     0.039 A 
ATOM     36  C   UNL A   1      35.479  34.716  28.827  1.00  0.00     0.014 A 
ATOM     37  C   UNL A   1      34.046  34.033  30.665  1.00  0.00     0.014 A 
ATOM     38  C   UNL A   1      36.557  34.092  29.439  1.00  0.00     0.010 A 
ATOM     39  C   UNL A   1      35.153  33.488  31.320  1.00  0.00     0.010 A 
ATOM     40  C   UNL A   1      36.403  33.453  30.681  1.00  0.00    -0.014 A 
BRANCH  40  41
ATOM     41  C   UNL A   1      37.554  32.721  31.270  1.00  0.00     0.031 A 
ATOM     42  C   UNL A   1      38.042  33.038  32.659  1.00  0.00     0.074 A 
ATOM     43  C   UNL A   1      38.115  31.715  30.573  1.00  0.00     0.049 A 
ATOM     44  N   UNL A   1      39.013  32.483  33.341  1.00  0.00    -0.248 NA
ATOM     45  C   UNL A   1      37.353  34.121  33.378  1.00  0.00     0.031 C 
ATOM     46  C   UNL A   1      37.715  31.294  29.229  1.00  0.00     0.029 A 
ATOM     47  N   UNL A   1      39.117  30.843  30.911  1.00  0.00    -0.354 N 
ATOM     48  C   UNL A   1      39.072  33.166  34.550  1.00  0.00     0.074 A 
ATOM     49  C   UNL A   1      38.053  34.193  34.502  1.00  0.00     0.031 C 
ATOM     50  C   UNL A   1      38.415  30.202  28.885  1.00  0.00     0.029 A 
ATOM     51  C   UNL A   1      39.360  29.892  29.951  1.00  0.00     0.049 A 
ATOM     52  H   UNL A   1      39.614  30.894  31.759  1.00  0.00     0.167 HD
ATOM     53  C   UNL A   1      39.893  32.954  35.607  1.00  0.00     0.037 A 
ATOM     54  C   UNL A   1      40.252  28.886  29.928  1.00  0.00     0.037 A 
ATOM     55  C   UNL A   1      40.887  31.913  35.667  1.00  0.00     0.049 A 
ATOM     56  C   UNL A   1      41.189  28.712  31.087  1.00  0.00     0.074 A 
ATOM     57  C   UNL A   1      41.739  31.589  36.709  1.00  0.00     0.029 A 
ATOM     58  N   UNL A   1      41.161  31.024  34.638  1.00  0.00    -0.354 N 
ATOM     59  N   UNL A   1      41.227  29.362  32.224  1.00  0.00    -0.248 NA
ATOM     60  C   UNL A   1      42.219  27.675  30.946  1.00  0.00     0.031 C 
ATOM     61  C   UNL A   1      42.560  30.533  36.294  1.00  0.00     0.029 A 
ATOM     62  C   UNL A   1      42.190  30.172  35.008  1.00  0.00     0.049 A 
ATOM     63  H   UNL A   1      40.694  31.002  33.772  1.00  0.00     0.167 HD
ATOM     64  C   UNL A   1      42.275  28.803  32.943  1.00  0.00     0.074 A 
ATOM     65  C   UNL A   1      42.832  27.749  32.118  1.00  0.00     0.031 C 
ATOM     66  C   UNL A   1      42.737  29.133  34.174  1.00  0.00     0.037 A 
BRANCH  53  67
ATOM     67  C   UNL A   1      39.769  33.889  36.776  1.00  0.00     0.057 A 
ATOM     68  C   UNL A   1      38.934  33.570  37.855  1.00  0.00     0.134 A 
ATOM     69  C   UNL A   1      40.461  35.105  36.834  1.00  0.00     0.134 A 
ATOM     70  F   UNL A   1      38.237  32.424  37.861  1.00  0.00    -0.206 F 
ATOM     71  C   UNL A   1      38.797  34.423  38.951  1.00  0.00     0.040 A 
ATOM     72  C   UNL A   1      40.350  35.956  37.937  1.00  0.00     0.040 A 
ATOM     73  F   UNL A   1      41.287  35.466  35.841  1.00  0.00    -0.206 F 
ATOM     74  C   UNL A   1      39.513  35.618  38.998  1.00  0.00     0.006 A 
ENDBRANCH  53  67
BRANCH  54  75
ATOM     75  C   UNL A   1      40.305  27.968  28.765  1.00  0.00     0.057 A 
ATOM     76  C   UNL A   1      41.047  28.279  27.619  1.00  0.00     0.134 A 
ATOM     77  C   UNL A   1      39.615  26.751  28.780  1.00  0.00     0.134 A 
ATOM     78  F   UNL A   1      41.727  29.432  27.544  1.00  0.00    -0.206 F 
ATOM     79  C   UNL A   1      41.089  27.418  26.523  1.00  0.00     0.040 A 
ATOM     80  C   UNL A   1      39.668  25.869  27.700  1.00  0.00     0.040 A 
ATOM     81  F   UNL A   1      38.903  26.392  29.858  1.00  0.00    -0.206 F 
ATOM     82  C   UNL A   1      40.402  26.206  26.564  1.00  0.00     0.006 A 
ENDBRANCH  54  75
BRANCH  66  83
ATOM     83  C   UNL A   1      43.886  28.328  34.700  1.00  0.00     0.057 A 
ATOM     84  C   UNL A   1      45.206  28.750  34.499  1.00  0.00     0.134 A 
ATOM     85  C   UNL A   1      43.686  27.137  35.410  1.00  0.00     0.134 A 
ATOM     86  F   UNL A   1      45.465  29.880  33.825  1.00  0.00    -0.206 F 
ATOM     87  C   UNL A   1      46.288  28.018  34.991  1.00  0.00     0.040 A 
ATOM     88  C   UNL A   1      44.759  26.409  35.927  1.00  0.00     0.040 A 
ATOM     89  F   UNL A   1      42.445  26.689  35.652  1.00  0.00    -0.206 F 
ATOM     90  C   UNL A   1      46.064  26.848  35.715  1.00  0.00     0.006 A 
ENDBRANCH  66  83
ENDBRANCH  40  41
ENDBRANCH  32  35
ENDBRANCH  30  31
ENDBRANCH  29  30
ENDBRANCH   1  29
TORSDOF 13
ENDMDL
MODEL 3
REMARK VINA RESULT:     -12.7      4.321      7.796
REMARK SMILES Cn1c(=O)c(=O)n(C)c2cc(S(=O)(=O)N3CCC[C@H]3C(=O)NCCCCNC(=O)c3ccc(-c4c5nc(c(-c6c(F)cccc6F)c6ccc([nH]6)c(-c6c(F)cccc6F)c6nc(c(-c7c(F)cccc7F)c7ccc4[nH]7)C=C6)C=C5)cc3)ccc21
REMARK SMILES IDX 24 1 23 2 22 3 20 4 21 5 19 7 15 8 16 9 17 10 18 11 12 12
REMARK SMILES IDX 13 13 14 14 11 15 1 16 2 17 3 18 86 19 4 20 5 21 9 22 85 23
REMARK SMILES IDX 6 24 7 25 10 26 84 27 8 28 25 29 26 30 27 31 28 32 29 34
REMARK SMILES IDX 30 35 31 36 83 37 32 38 82 39 33 40 34 41 35 42 76 43 36 44
REMARK SMILES IDX 81 45 75 46 77 47 37 48 80 49 74 50 73 51 38 53 64 54 47 55
REMARK SMILES IDX 63 56 48 57 51 58 62 59 78 60 49 61 50 62 61 64 79 65 52 66
REMARK SMILES IDX 39 67 40 68 45 69 41 70 42 71 44 72 46 73 43 74 65 75 66 76
REMARK SMILES IDX 71 77 67 78 68 79 70 80 72 81 69 82 53 83 54 84 59 85 55 86
REMARK SMILES IDX 56 87 58 88 60 89 57 90
REMARK H PARENT 22 6 27 33 77 52 51 63
REMARK Flexibility Score: inf
ROOT
ATOM      1  C   UNL A   1      30.999  30.539  25.026  1.00  0.00     0.023 C 
ENDROOT
BRANCH   1   2
ATOM      2  C   UNL A   1      32.181  29.634  25.354  1.00  0.00     0.116 C 
BRANCH   2   3
ATOM      3  N   UNL A   1      33.123  29.569  24.258  1.00  0.00    -0.355 N 
ATOM      4  C   UNL A   1      33.524  28.524  23.489  1.00  0.00     0.238 C 
ATOM      5  O   UNL A   1      34.366  28.773  22.617  1.00  0.00    -0.273 OA
ATOM      6  H   UNL A   1      33.543  30.430  24.029  1.00  0.00     0.163 HD
BRANCH   4   7
ATOM      7  C   UNL A   1      32.883  27.145  23.543  1.00  0.00     0.162 C 
ATOM      8  N   UNL A   1      31.956  26.812  24.648  1.00  0.00    -0.185 NA
ATOM      9  C   UNL A   1      30.645  26.384  24.119  1.00  0.00     0.103 C 
ATOM     10  C   UNL A   1      30.921  26.003  22.677  1.00  0.00     0.019 C 
ATOM     11  C   UNL A   1      32.076  26.898  22.264  1.00  0.00     0.032 C 
BRANCH   8  12
ATOM     12  S   UNL A   1      32.549  26.102  26.056  1.00  0.00     0.243 S 
ATOM     13  O   UNL A   1      31.391  25.763  26.857  1.00  0.00    -0.207 OA
ATOM     14  O   UNL A   1      33.615  26.926  26.575  1.00  0.00    -0.207 OA
BRANCH  12  15
ATOM     15  C   UNL A   1      33.280  24.548  25.551  1.00  0.00     0.084 A 
ATOM     16  C   UNL A   1      34.060  19.600  24.602  1.00  0.00     0.154 C 
ATOM     17  N   UNL A   1      34.947  20.721  24.884  1.00  0.00    -0.305 N 
ATOM     18  C   UNL A   1      36.302  20.456  25.050  1.00  0.00     0.316 A 
ATOM     19  C   UNL A   1      34.418  22.026  25.047  1.00  0.00     0.068 A 
ATOM     20  O   UNL A   1      36.790  19.333  24.961  1.00  0.00    -0.263 OA
ATOM     21  C   UNL A   1      37.227  21.642  25.357  1.00  0.00     0.316 A 
ATOM     22  C   UNL A   1      35.236  23.084  25.484  1.00  0.00     0.069 A 
ATOM     23  C   UNL A   1      33.065  22.275  24.788  1.00  0.00     0.030 A 
ATOM     24  O   UNL A   1      38.440  21.448  25.375  1.00  0.00    -0.263 OA
ATOM     25  N   UNL A   1      36.637  22.881  25.615  1.00  0.00    -0.305 N 
ATOM     26  C   UNL A   1      34.646  24.333  25.771  1.00  0.00     0.050 A 
ATOM     27  C   UNL A   1      32.509  23.529  25.009  1.00  0.00     0.024 A 
ATOM     28  C   UNL A   1      37.515  23.994  25.945  1.00  0.00     0.154 C 
ENDBRANCH  12  15
ENDBRANCH   8  12
ENDBRANCH   4   7
ENDBRANCH   2   3
ENDBRANCH   1   2
BRANCH   1  29
ATOM     29  C   UNL A   1      30.898  31.792  25.891  1.00  0.00     0.023 C 
BRANCH  29  30
ATOM     30  C   UNL A   1      32.117  32.081  26.757  1.00  0.00     0.116 C 
BRANCH  30  31
ATOM     31  N   UNL A   1      32.123  33.419  27.334  1.00  0.00    -0.352 N 
ATOM     32  C   UNL A   1      33.103  34.018  28.094  1.00  0.00     0.251 C 
ATOM     33  H   UNL A   1      31.323  33.965  27.158  1.00  0.00     0.163 HD
ATOM     34  O   UNL A   1      32.936  35.130  28.579  1.00  0.00    -0.269 OA
BRANCH  32  35
ATOM     35  C   UNL A   1      34.344  33.264  28.357  1.00  0.00     0.039 A 
ATOM     36  C   UNL A   1      34.272  31.932  28.766  1.00  0.00     0.014 A 
ATOM     37  C   UNL A   1      35.567  33.937  28.321  1.00  0.00     0.014 A 
ATOM     38  C   UNL A   1      35.392  31.336  29.330  1.00  0.00     0.010 A 
ATOM     39  C   UNL A   1      36.712  33.300  28.804  1.00  0.00     0.010 A 
ATOM     40  C   UNL A   1      36.619  32.020  29.374  1.00  0.00    -0.014 A 
BRANCH  40  41
ATOM     41  C   UNL A   1      37.777  31.390  30.060  1.00  0.00     0.031 A 
ATOM     42  C   UNL A   1      38.053  31.665  31.515  1.00  0.00     0.074 A 
ATOM     43  C   UNL A   1      38.539  30.510  29.385  1.00  0.00     0.049 A 
ATOM     44  N   UNL A   1      39.000  31.182  32.282  1.00  0.00    -0.248 NA
ATOM     45  C   UNL A   1      37.153  32.604  32.201  1.00  0.00     0.031 C 
ATOM     46  C   UNL A   1      38.357  30.140  27.980  1.00  0.00     0.029 A 
ATOM     47  N   UNL A   1      39.597  29.742  29.797  1.00  0.00    -0.354 N 
ATOM     48  C   UNL A   1      38.829  31.781  33.525  1.00  0.00     0.074 A 
ATOM     49  C   UNL A   1      37.701  32.680  33.406  1.00  0.00     0.031 C 
ATOM     50  C   UNL A   1      39.225  29.166  27.667  1.00  0.00     0.029 A 
ATOM     51  C   UNL A   1      40.069  28.896  28.824  1.00  0.00     0.049 A 
ATOM     52  H   UNL A   1      39.980  29.792  30.702  1.00  0.00     0.167 HD
ATOM     53  C   UNL A   1      39.540  31.594  34.663  1.00  0.00     0.037 A 
ATOM     54  C   UNL A   1      41.078  28.008  28.857  1.00  0.00     0.037 A 
ATOM     55  C   UNL A   1      40.644  30.677  34.790  1.00  0.00     0.049 A 
ATOM     56  C   UNL A   1      41.886  27.866  30.113  1.00  0.00     0.074 A 
ATOM     57  C   UNL A   1      41.402  30.385  35.911  1.00  0.00     0.029 A 
ATOM     58  N   UNL A   1      41.148  29.902  33.756  1.00  0.00    -0.354 N 
ATOM     59  N   UNL A   1      41.708  28.434  31.281  1.00  0.00    -0.248 NA
ATOM     60  C   UNL A   1      43.050  26.972  30.045  1.00  0.00     0.031 C 
ATOM     61  C   UNL A   1      42.393  29.465  35.544  1.00  0.00     0.029 A 
ATOM     62  C   UNL A   1      42.226  29.155  34.204  1.00  0.00     0.049 A 
ATOM     63  H   UNL A   1      40.793  29.886  32.838  1.00  0.00     0.167 HD
ATOM     64  C   UNL A   1      42.726  27.954  32.093  1.00  0.00     0.074 A 
ATOM     65  C   UNL A   1      43.506  27.036  31.288  1.00  0.00     0.031 C 
ATOM     66  C   UNL A   1      42.995  28.250  33.388  1.00  0.00     0.037 A 
BRANCH  53  67
ATOM     67  C   UNL A   1      39.162  32.423  35.857  1.00  0.00     0.057 A 
ATOM     68  C   UNL A   1      38.261  31.926  36.809  1.00  0.00     0.134 A 
ATOM     69  C   UNL A   1      39.674  33.710  36.064  1.00  0.00     0.134 A 
ATOM     70  F   UNL A   1      37.727  30.704  36.670  1.00  0.00    -0.206 F 
ATOM     71  C   UNL A   1      37.889  32.678  37.925  1.00  0.00     0.040 A 
ATOM     72  C   UNL A   1      39.327  34.462  37.189  1.00  0.00     0.040 A 
ATOM     73  F   UNL A   1      40.551  34.240  35.198  1.00  0.00    -0.206 F 
ATOM     74  C   UNL A   1      38.429  33.947  38.122  1.00  0.00     0.006 A 
ENDBRANCH  53  67
BRANCH  54  75
ATOM     75  C   UNL A   1      41.384  27.188  27.661  1.00  0.00     0.057 A 
ATOM     76  C   UNL A   1      42.238  27.651  26.653  1.00  0.00     0.134 A 
ATOM     77  C   UNL A   1      40.829  25.913  27.505  1.00  0.00     0.134 A 
ATOM     78  F   UNL A   1      42.798  28.866  26.744  1.00  0.00    -0.206 F 
ATOM     79  C   UNL A   1      42.517  26.881  25.524  1.00  0.00     0.040 A 
ATOM     80  C   UNL A   1      41.120  25.122  26.394  1.00  0.00     0.040 A 
ATOM     81  F   UNL A   1      40.020  25.409  28.449  1.00  0.00    -0.206 F 
ATOM     82  C   UNL A   1      41.962  25.610  25.395  1.00  0.00     0.006 A 
ENDBRANCH  54  75
BRANCH  66  83
ATOM     83  C   UNL A   1      44.167  27.552  34.009  1.00  0.00     0.057 A 
ATOM     84  C   UNL A   1      45.433  28.150  34.016  1.00  0.00     0.134 A 
ATOM     85  C   UNL A   1      44.041  26.291  34.606  1.00  0.00     0.134 A 
ATOM     86  F   UNL A   1      45.620  29.355  33.459  1.00  0.00    -0.206 F 
ATOM     87  C   UNL A   1      46.533  27.519  34.598  1.00  0.00     0.040 A 
ATOM     88  C   UNL A   1      45.129  25.661  35.212  1.00  0.00     0.040 A 
ATOM     89  F   UNL A   1      42.851  25.674  34.649  1.00  0.00    -0.206 F 
ATOM     90  C   UNL A   1      46.380  26.274  35.206  1.00  0.00     0.006 A 
ENDBRANCH  66  83
ENDBRANCH  40  41
ENDBRANCH  32  35
ENDBRANCH  30  31
ENDBRANCH  29  30
ENDBRANCH   1  29
TORSDOF 13
ENDMDL
