MODEL 1
REMARK VINA RESULT:     -11.8      0.000      0.000
REMARK SMILES CCc1cc(Nc2cccc(C(=O)NCCCCNC(=O)c3ccc(-c4c5nc(c(-c6c(F)cccc6F)c6ccc([nH]6)c(-c6c(F)cccc6F)c6nc(c(-c7c(F)cccc7F)c7ccc4[nH]7)C=C6)C=C5)cc3)c2)nc(C(C)C)n1
REMARK SMILES IDX 16 1 15 2 14 3 12 4 13 5 11 7 7 8 8 9 76 10 9 11 10 12 6 13
REMARK SMILES IDX 5 15 3 16 4 17 82 18 78 19 77 20 2 21 1 22 79 23 80 24 81 25
REMARK SMILES IDX 17 26 18 27 19 28 20 29 21 31 22 32 23 33 75 34 24 35 74 36
REMARK SMILES IDX 25 37 26 38 27 39 68 40 28 41 73 42 67 43 69 44 29 45 72 46
REMARK SMILES IDX 66 47 65 48 30 50 56 51 39 52 55 53 40 54 43 55 54 56 70 57
REMARK SMILES IDX 41 58 42 59 53 61 71 62 44 63 31 64 32 65 37 66 33 67 34 68
REMARK SMILES IDX 36 69 38 70 35 71 57 72 58 73 63 74 59 75 60 76 62 77 64 78
REMARK SMILES IDX 61 79 45 80 46 81 51 82 47 83 48 84 50 85 52 86 49 87
REMARK H PARENT 14 6 6 14 19 30 69 49 43 60
REMARK Flexibility Score: inf
ROOT
ATOM      1  C   UNL A   1      36.780  20.348  24.995  1.00  0.00     0.023 C 
ENDROOT
BRANCH   1   2
ATOM      2  C   UNL A   1      36.790  21.787  25.497  1.00  0.00     0.116 C 
BRANCH   2   3
ATOM      3  N   UNL A   1      35.704  22.121  26.407  1.00  0.00    -0.352 N 
ATOM      4  C   UNL A   1      34.477  22.711  26.170  1.00  0.00     0.251 C 
ATOM      5  O   UNL A   1      33.721  22.907  27.120  1.00  0.00    -0.269 OA
ATOM      6  H   UNL A   1      35.871  21.888  27.348  1.00  0.00     0.163 HD
BRANCH   4   7
ATOM      7  C   UNL A   1      34.078  23.174  24.814  1.00  0.00     0.041 A 
ATOM      8  C   UNL A   1      33.674  24.999  23.244  1.00  0.00     0.040 A 
ATOM      9  C   UNL A   1      33.005  24.095  22.411  1.00  0.00     0.026 A 
ATOM     10  C   UNL A   1      34.284  24.489  24.395  1.00  0.00     0.040 A 
ATOM     11  C   UNL A   1      32.927  22.736  22.739  1.00  0.00     0.003 A 
ATOM     12  C   UNL A   1      33.442  22.279  23.952  1.00  0.00     0.014 A 
BRANCH   8  13
ATOM     13  N   UNL A   1      33.628  26.380  22.971  1.00  0.00    -0.340 N 
ATOM     14  H   UNL A   1      34.293  26.700  22.319  1.00  0.00     0.168 HD
BRANCH  13  15
ATOM     15  C   UNL A   1      32.774  27.371  23.491  1.00  0.00     0.134 A 
ATOM     16  C   UNL A   1      30.972  28.879  23.241  1.00  0.00     0.046 A 
ATOM     17  C   UNL A   1      31.807  27.930  22.677  1.00  0.00     0.071 A 
ATOM     18  N   UNL A   1      31.074  29.245  24.534  1.00  0.00    -0.238 NA
ATOM     19  C   UNL A   1      32.033  28.649  25.260  1.00  0.00     0.133 A 
ATOM     20  N   UNL A   1      32.878  27.726  24.780  1.00  0.00    -0.216 NA
BRANCH  16  21
ATOM     21  C   UNL A   1      29.920  29.580  22.419  1.00  0.00     0.053 C 
ATOM     22  C   UNL A   1      28.834  30.231  23.261  1.00  0.00     0.011 C 
ENDBRANCH  16  21
BRANCH  19  23
ATOM     23  C   UNL A   1      32.244  29.069  26.695  1.00  0.00     0.051 C 
ATOM     24  C   UNL A   1      31.406  28.196  27.627  1.00  0.00     0.016 C 
ATOM     25  C   UNL A   1      33.721  29.055  27.083  1.00  0.00     0.016 C 
ENDBRANCH  19  23
ENDBRANCH  13  15
ENDBRANCH   8  13
ENDBRANCH   4   7
ENDBRANCH   2   3
ENDBRANCH   1   2
BRANCH   1  26
ATOM     26  C   UNL A   1      38.136  19.716  24.718  1.00  0.00     0.023 C 
BRANCH  26  27
ATOM     27  C   UNL A   1      39.221  19.976  25.755  1.00  0.00     0.116 C 
BRANCH  27  28
ATOM     28  N   UNL A   1      40.229  18.928  25.836  1.00  0.00    -0.352 N 
ATOM     29  C   UNL A   1      41.575  19.018  26.115  1.00  0.00     0.251 C 
ATOM     30  H   UNL A   1      39.898  18.017  25.665  1.00  0.00     0.163 HD
ATOM     31  O   UNL A   1      42.282  18.020  26.064  1.00  0.00    -0.269 OA
BRANCH  29  32
ATOM     32  C   UNL A   1      42.179  20.332  26.429  1.00  0.00     0.039 A 
ATOM     33  C   UNL A   1      42.704  21.097  25.383  1.00  0.00     0.014 A 
ATOM     34  C   UNL A   1      42.200  20.824  27.735  1.00  0.00     0.014 A 
ATOM     35  C   UNL A   1      43.159  22.394  25.634  1.00  0.00     0.010 A 
ATOM     36  C   UNL A   1      42.574  22.144  27.970  1.00  0.00     0.010 A 
ATOM     37  C   UNL A   1      43.048  22.946  26.920  1.00  0.00    -0.014 A 
BRANCH  37  38
ATOM     38  C   UNL A   1      43.405  24.363  27.188  1.00  0.00     0.031 A 
ATOM     39  C   UNL A   1      44.833  24.818  27.081  1.00  0.00     0.074 A 
ATOM     40  C   UNL A   1      42.455  25.222  27.611  1.00  0.00     0.049 A 
ATOM     41  N   UNL A   1      45.353  25.987  27.359  1.00  0.00    -0.248 NA
ATOM     42  C   UNL A   1      45.814  23.817  26.632  1.00  0.00     0.031 C 
ATOM     43  C   UNL A   1      41.043  24.895  27.810  1.00  0.00     0.029 A 
ATOM     44  N   UNL A   1      42.540  26.546  27.963  1.00  0.00    -0.354 N 
ATOM     45  C   UNL A   1      46.719  25.854  27.145  1.00  0.00     0.074 A 
ATOM     46  C   UNL A   1      46.953  24.480  26.758  1.00  0.00     0.031 C 
ATOM     47  C   UNL A   1      40.389  25.993  28.220  1.00  0.00     0.029 A 
ATOM     48  C   UNL A   1      41.341  27.093  28.351  1.00  0.00     0.049 A 
ATOM     49  H   UNL A   1      43.382  27.057  27.940  1.00  0.00     0.167 HD
ATOM     50  C   UNL A   1      47.687  26.795  27.241  1.00  0.00     0.037 A 
ATOM     51  C   UNL A   1      41.042  28.337  28.770  1.00  0.00     0.037 A 
ATOM     52  C   UNL A   1      47.448  28.172  27.587  1.00  0.00     0.049 A 
ATOM     53  C   UNL A   1      42.133  29.366  28.858  1.00  0.00     0.074 A 
ATOM     54  C   UNL A   1      48.350  29.220  27.629  1.00  0.00     0.029 A 
ATOM     55  N   UNL A   1      46.215  28.690  27.953  1.00  0.00    -0.354 N 
ATOM     56  N   UNL A   1      43.408  29.246  28.578  1.00  0.00    -0.248 NA
ATOM     57  C   UNL A   1      41.743  30.707  29.318  1.00  0.00     0.031 C 
ATOM     58  C   UNL A   1      47.671  30.365  28.057  1.00  0.00     0.029 A 
ATOM     59  C   UNL A   1      46.338  30.039  28.243  1.00  0.00     0.049 A 
ATOM     60  H   UNL A   1      45.376  28.176  27.998  1.00  0.00     0.167 HD
ATOM     61  C   UNL A   1      43.966  30.498  28.798  1.00  0.00     0.074 A 
ATOM     62  C   UNL A   1      42.888  31.367  29.226  1.00  0.00     0.031 C 
ATOM     63  C   UNL A   1      45.255  30.893  28.657  1.00  0.00     0.037 A 
BRANCH  50  64
ATOM     64  C   UNL A   1      49.097  26.365  26.963  1.00  0.00     0.057 A 
ATOM     65  C   UNL A   1      49.630  26.368  25.667  1.00  0.00     0.134 A 
ATOM     66  C   UNL A   1      49.940  25.964  28.008  1.00  0.00     0.134 A 
ATOM     67  F   UNL A   1      48.872  26.729  24.622  1.00  0.00    -0.206 F 
ATOM     68  C   UNL A   1      50.941  25.961  25.416  1.00  0.00     0.040 A 
ATOM     69  C   UNL A   1      51.262  25.580  27.772  1.00  0.00     0.040 A 
ATOM     70  F   UNL A   1      49.496  25.944  29.273  1.00  0.00    -0.206 F 
ATOM     71  C   UNL A   1      51.763  25.571  26.471  1.00  0.00     0.006 A 
ENDBRANCH  50  64
BRANCH  51  72
ATOM     72  C   UNL A   1      39.640  28.692  29.105  1.00  0.00     0.057 A 
ATOM     73  C   UNL A   1      39.153  28.528  30.407  1.00  0.00     0.134 A 
ATOM     74  C   UNL A   1      38.757  29.193  28.142  1.00  0.00     0.134 A 
ATOM     75  F   UNL A   1      39.947  28.033  31.368  1.00  0.00    -0.206 F 
ATOM     76  C   UNL A   1      37.832  28.834  30.737  1.00  0.00     0.040 A 
ATOM     77  C   UNL A   1      37.440  29.524  28.464  1.00  0.00     0.040 A 
ATOM     78  F   UNL A   1      39.166  29.378  26.878  1.00  0.00    -0.206 F 
ATOM     79  C   UNL A   1      36.972  29.338  29.764  1.00  0.00     0.006 A 
ENDBRANCH  51  72
BRANCH  63  80
ATOM     80  C   UNL A   1      45.565  32.334  28.933  1.00  0.00     0.057 A 
ATOM     81  C   UNL A   1      46.026  32.766  30.182  1.00  0.00     0.134 A 
ATOM     82  C   UNL A   1      45.436  33.295  27.922  1.00  0.00     0.134 A 
ATOM     83  F   UNL A   1      46.156  31.896  31.196  1.00  0.00    -0.206 F 
ATOM     84  C   UNL A   1      46.331  34.106  30.423  1.00  0.00     0.040 A 
ATOM     85  C   UNL A   1      45.761  34.633  28.142  1.00  0.00     0.040 A 
ATOM     86  F   UNL A   1      45.006  32.946  26.700  1.00  0.00    -0.206 F 
ATOM     87  C   UNL A   1      46.206  35.043  29.398  1.00  0.00     0.006 A 
ENDBRANCH  63  80
ENDBRANCH  37  38
ENDBRANCH  29  32
ENDBRANCH  27  28
ENDBRANCH  26  27
ENDBRANCH   1  26
TORSDOF 15
ENDMDL
MODEL 2
REMARK VINA RESULT:     -11.8      1.537      2.591
REMARK SMILES CCc1cc(Nc2cccc(C(=O)NCCCCNC(=O)c3ccc(-c4c5nc(c(-c6c(F)cccc6F)c6ccc([nH]6)c(-c6c(F)cccc6F)c6nc(c(-c7c(F)cccc7F)c7ccc4[nH]7)C=C6)C=C5)cc3)c2)nc(C(C)C)n1
REMARK SMILES IDX 16 1 15 2 14 3 12 4 13 5 11 7 7 8 8 9 76 10 9 11 10 12 6 13
REMARK SMILES IDX 5 15 3 16 4 17 82 18 78 19 77 20 2 21 1 22 79 23 80 24 81 25
REMARK SMILES IDX 17 26 18 27 19 28 20 29 21 31 22 32 23 33 75 34 24 35 74 36
REMARK SMILES IDX 25 37 26 38 27 39 68 40 28 41 73 42 67 43 69 44 29 45 72 46
REMARK SMILES IDX 66 47 65 48 30 50 56 51 39 52 55 53 40 54 43 55 54 56 70 57
REMARK SMILES IDX 41 58 42 59 53 61 71 62 44 63 31 64 32 65 37 66 33 67 34 68
REMARK SMILES IDX 36 69 38 70 35 71 57 72 58 73 63 74 59 75 60 76 62 77 64 78
REMARK SMILES IDX 61 79 45 80 46 81 51 82 47 83 48 84 50 85 52 86 49 87
REMARK H PARENT 14 6 6 14 19 30 69 49 43 60
REMARK Flexibility Score: inf
ROOT
ATOM      1  C   UNL A   1      36.443  20.771  25.161  1.00  0.00     0.023 C 
ENDROOT
BRANCH   1   2
ATOM      2  C   UNL A   1      36.413  22.142  25.824  1.00  0.00     0.116 C 
BRANCH   2   3
ATOM      3  N   UNL A   1      35.199  22.429  26.574  1.00  0.00    -0.352 N 
ATOM      4  C   UNL A   1      34.036  23.073  26.200  1.00  0.00     0.251 C 
ATOM      5  O   UNL A   1      33.140  23.208  27.031  1.00  0.00    -0.269 OA
ATOM      6  H   UNL A   1      35.207  22.109  27.506  1.00  0.00     0.163 HD
BRANCH   4   7
ATOM      7  C   UNL A   1      33.870  23.665  24.845  1.00  0.00     0.041 A 
ATOM      8  C   UNL A   1      33.675  25.633  23.414  1.00  0.00     0.040 A 
ATOM      9  C   UNL A   1      33.209  24.803  22.387  1.00  0.00     0.026 A 
ATOM     10  C   UNL A   1      34.088  25.021  24.602  1.00  0.00     0.040 A 
ATOM     11  C   UNL A   1      33.135  23.416  22.560  1.00  0.00     0.003 A 
ATOM     12  C   UNL A   1      33.442  22.849  23.797  1.00  0.00     0.014 A 
BRANCH   8  13
ATOM     13  N   UNL A   1      33.617  27.034  23.274  1.00  0.00    -0.340 N 
ATOM     14  H   UNL A   1      34.407  27.445  22.854  1.00  0.00     0.168 HD
BRANCH  13  15
ATOM     15  C   UNL A   1      32.599  27.932  23.644  1.00  0.00     0.134 A 
ATOM     16  C   UNL A   1      31.725  29.570  25.107  1.00  0.00     0.046 A 
ATOM     17  C   UNL A   1      32.740  28.679  24.800  1.00  0.00     0.071 A 
ATOM     18  N   UNL A   1      30.645  29.727  24.317  1.00  0.00    -0.238 NA
ATOM     19  C   UNL A   1      30.588  28.972  23.208  1.00  0.00     0.133 A 
ATOM     20  N   UNL A   1      31.530  28.087  22.850  1.00  0.00    -0.216 NA
BRANCH  16  21
ATOM     21  C   UNL A   1      31.766  30.390  26.372  1.00  0.00     0.053 C 
ATOM     22  C   UNL A   1      33.160  30.510  26.966  1.00  0.00     0.011 C 
ENDBRANCH  16  21
BRANCH  19  23
ATOM     23  C   UNL A   1      29.369  29.050  22.321  1.00  0.00     0.051 C 
ATOM     24  C   UNL A   1      28.132  28.583  23.085  1.00  0.00     0.016 C 
ATOM     25  C   UNL A   1      29.178  30.447  21.734  1.00  0.00     0.016 C 
ENDBRANCH  19  23
ENDBRANCH  13  15
ENDBRANCH   8  13
ENDBRANCH   4   7
ENDBRANCH   2   3
ENDBRANCH   1   2
BRANCH   1  26
ATOM     26  C   UNL A   1      37.815  20.227  24.788  1.00  0.00     0.023 C 
BRANCH  26  27
ATOM     27  C   UNL A   1      38.924  20.449  25.809  1.00  0.00     0.116 C 
BRANCH  27  28
ATOM     28  N   UNL A   1      39.978  19.446  25.770  1.00  0.00    -0.352 N 
ATOM     29  C   UNL A   1      41.311  19.552  26.101  1.00  0.00     0.251 C 
ATOM     30  H   UNL A   1      39.695  18.556  25.457  1.00  0.00     0.163 HD
ATOM     31  O   UNL A   1      42.065  18.603  25.929  1.00  0.00    -0.269 OA
BRANCH  29  32
ATOM     32  C   UNL A   1      41.843  20.830  26.621  1.00  0.00     0.039 A 
ATOM     33  C   UNL A   1      42.331  21.775  25.713  1.00  0.00     0.014 A 
ATOM     34  C   UNL A   1      41.835  21.114  27.988  1.00  0.00     0.014 A 
ATOM     35  C   UNL A   1      42.716  23.039  26.167  1.00  0.00     0.010 A 
ATOM     36  C   UNL A   1      42.138  22.399  28.429  1.00  0.00     0.010 A 
ATOM     37  C   UNL A   1      42.572  23.378  27.522  1.00  0.00    -0.014 A 
BRANCH  37  38
ATOM     38  C   UNL A   1      42.853  24.752  28.010  1.00  0.00     0.031 A 
ATOM     39  C   UNL A   1      44.250  25.149  28.396  1.00  0.00     0.074 A 
ATOM     40  C   UNL A   1      41.835  25.619  28.187  1.00  0.00     0.049 A 
ATOM     41  N   UNL A   1      44.678  26.268  28.924  1.00  0.00    -0.248 NA
ATOM     42  C   UNL A   1      45.303  24.141  28.192  1.00  0.00     0.031 C 
ATOM     43  C   UNL A   1      40.426  25.342  27.903  1.00  0.00     0.029 A 
ATOM     44  N   UNL A   1      41.829  26.907  28.661  1.00  0.00    -0.354 N 
ATOM     45  C   UNL A   1      46.038  26.090  29.138  1.00  0.00     0.074 A 
ATOM     46  C   UNL A   1      46.357  24.740  28.726  1.00  0.00     0.031 C 
ATOM     47  C   UNL A   1      39.697  26.435  28.182  1.00  0.00     0.029 A 
ATOM     48  C   UNL A   1      40.580  27.476  28.699  1.00  0.00     0.049 A 
ATOM     49  H   UNL A   1      42.645  27.379  28.948  1.00  0.00     0.167 HD
ATOM     50  C   UNL A   1      46.944  26.976  29.615  1.00  0.00     0.037 A 
ATOM     51  C   UNL A   1      40.187  28.697  29.110  1.00  0.00     0.037 A 
ATOM     52  C   UNL A   1      46.635  28.331  29.986  1.00  0.00     0.049 A 
ATOM     53  C   UNL A   1      41.215  29.666  29.625  1.00  0.00     0.074 A 
ATOM     54  C   UNL A   1      47.497  29.331  30.400  1.00  0.00     0.029 A 
ATOM     55  N   UNL A   1      45.359  28.876  29.991  1.00  0.00    -0.354 N 
ATOM     56  N   UNL A   1      42.510  29.510  29.750  1.00  0.00    -0.248 NA
ATOM     57  C   UNL A   1      40.724  30.984  30.053  1.00  0.00     0.031 C 
ATOM     58  C   UNL A   1      46.739  30.469  30.691  1.00  0.00     0.029 A 
ATOM     59  C   UNL A   1      45.410  30.192  30.420  1.00  0.00     0.049 A 
ATOM     60  H   UNL A   1      44.539  28.398  29.726  1.00  0.00     0.167 HD
ATOM     61  C   UNL A   1      42.993  30.715  30.241  1.00  0.00     0.074 A 
ATOM     62  C   UNL A   1      41.852  31.597  30.384  1.00  0.00     0.031 C 
ATOM     63  C   UNL A   1      44.268  31.060  30.547  1.00  0.00     0.037 A 
BRANCH  50  64
ATOM     64  C   UNL A   1      48.361  26.504  29.757  1.00  0.00     0.057 A 
ATOM     65  C   UNL A   1      48.815  25.863  30.917  1.00  0.00     0.134 A 
ATOM     66  C   UNL A   1      49.278  26.674  28.712  1.00  0.00     0.134 A 
ATOM     67  F   UNL A   1      47.991  25.681  31.959  1.00  0.00    -0.206 F 
ATOM     68  C   UNL A   1      50.136  25.433  31.044  1.00  0.00     0.040 A 
ATOM     69  C   UNL A   1      50.596  26.224  28.817  1.00  0.00     0.040 A 
ATOM     70  F   UNL A   1      48.908  27.274  27.570  1.00  0.00    -0.206 F 
ATOM     71  C   UNL A   1      51.030  25.608  29.989  1.00  0.00     0.006 A 
ENDBRANCH  50  64
BRANCH  51  72
ATOM     72  C   UNL A   1      38.759  29.089  29.018  1.00  0.00     0.057 A 
ATOM     73  C   UNL A   1      37.920  29.003  30.136  1.00  0.00     0.134 A 
ATOM     74  C   UNL A   1      38.197  29.549  27.822  1.00  0.00     0.134 A 
ATOM     75  F   UNL A   1      38.397  28.550  31.305  1.00  0.00    -0.206 F 
ATOM     76  C   UNL A   1      36.569  29.344  30.064  1.00  0.00     0.040 A 
ATOM     77  C   UNL A   1      36.852  29.915  27.742  1.00  0.00     0.040 A 
ATOM     78  F   UNL A   1      38.950  29.659  26.718  1.00  0.00    -0.206 F 
ATOM     79  C   UNL A   1      36.033  29.807  28.865  1.00  0.00     0.006 A 
ENDBRANCH  51  72
BRANCH  63  80
ATOM     80  C   UNL A   1      44.502  32.460  31.030  1.00  0.00     0.057 A 
ATOM     81  C   UNL A   1      44.738  33.518  30.144  1.00  0.00     0.134 A 
ATOM     82  C   UNL A   1      44.452  32.759  32.398  1.00  0.00     0.134 A 
ATOM     83  F   UNL A   1      44.813  33.294  28.823  1.00  0.00    -0.206 F 
ATOM     84  C   UNL A   1      44.934  34.822  30.602  1.00  0.00     0.040 A 
ATOM     85  C   UNL A   1      44.621  34.061  32.866  1.00  0.00     0.040 A 
ATOM     86  F   UNL A   1      44.222  31.791  33.298  1.00  0.00    -0.206 F 
ATOM     87  C   UNL A   1      44.869  35.097  31.968  1.00  0.00     0.006 A 
ENDBRANCH  63  80
ENDBRANCH  37  38
ENDBRANCH  29  32
ENDBRANCH  27  28
ENDBRANCH  26  27
ENDBRANCH   1  26
TORSDOF 15
ENDMDL
MODEL 3
REMARK VINA RESULT:     -11.6      5.279     10.011
REMARK SMILES CCc1cc(Nc2cccc(C(=O)NCCCCNC(=O)c3ccc(-c4c5nc(c(-c6c(F)cccc6F)c6ccc([nH]6)c(-c6c(F)cccc6F)c6nc(c(-c7c(F)cccc7F)c7ccc4[nH]7)C=C6)C=C5)cc3)c2)nc(C(C)C)n1
REMARK SMILES IDX 16 1 15 2 14 3 12 4 13 5 11 7 7 8 8 9 76 10 9 11 10 12 6 13
REMARK SMILES IDX 5 15 3 16 4 17 82 18 78 19 77 20 2 21 1 22 79 23 80 24 81 25
REMARK SMILES IDX 17 26 18 27 19 28 20 29 21 31 22 32 23 33 75 34 24 35 74 36
REMARK SMILES IDX 25 37 26 38 27 39 68 40 28 41 73 42 67 43 69 44 29 45 72 46
REMARK SMILES IDX 66 47 65 48 30 50 56 51 39 52 55 53 40 54 43 55 54 56 70 57
REMARK SMILES IDX 41 58 42 59 53 61 71 62 44 63 31 64 32 65 37 66 33 67 34 68
REMARK SMILES IDX 36 69 38 70 35 71 57 72 58 73 63 74 59 75 60 76 62 77 64 78
REMARK SMILES IDX 61 79 45 80 46 81 51 82 47 83 48 84 50 85 52 86 49 87
REMARK H PARENT 14 6 6 14 19 30 69 49 43 60
REMARK Flexibility Score: inf
ROOT
ATOM      1  C   UNL A   1      31.948  30.393  26.404  1.00  0.00     0.023 C 
ENDROOT
BRANCH   1   2
ATOM      2  C   UNL A   1      31.449  29.860  25.068  1.00  0.00     0.116 C 
BRANCH   2   3
ATOM      3  N   UNL A   1      32.495  29.385  24.173  1.00  0.00    -0.352 N 
ATOM      4  C   UNL A   1      32.777  28.116  23.708  1.00  0.00     0.251 C 
ATOM      5  O   UNL A   1      33.741  27.960  22.959  1.00  0.00    -0.269 OA
ATOM      6  H   UNL A   1      33.103  30.086  23.845  1.00  0.00     0.163 HD
BRANCH   4   7
ATOM      7  C   UNL A   1      31.992  26.928  24.141  1.00  0.00     0.041 A 
ATOM      8  C   UNL A   1      31.869  24.806  25.339  1.00  0.00     0.040 A 
ATOM      9  C   UNL A   1      30.667  24.533  24.673  1.00  0.00     0.026 A 
ATOM     10  C   UNL A   1      32.459  26.055  25.123  1.00  0.00     0.040 A 
ATOM     11  C   UNL A   1      30.100  25.470  23.802  1.00  0.00     0.003 A 
ATOM     12  C   UNL A   1      30.774  26.658  23.516  1.00  0.00     0.014 A 
BRANCH   8  13
ATOM     13  N   UNL A   1      32.496  23.804  26.106  1.00  0.00    -0.340 N 
ATOM     14  H   UNL A   1      32.386  23.892  27.080  1.00  0.00     0.168 HD
BRANCH  13  15
ATOM     15  C   UNL A   1      33.256  22.695  25.686  1.00  0.00     0.134 A 
ATOM     16  C   UNL A   1      33.460  20.382  25.245  1.00  0.00     0.046 A 
ATOM     17  C   UNL A   1      32.683  21.437  25.694  1.00  0.00     0.071 A 
ATOM     18  N   UNL A   1      34.720  20.559  24.801  1.00  0.00    -0.238 NA
ATOM     19  C   UNL A   1      35.200  21.813  24.817  1.00  0.00     0.133 A 
ATOM     20  N   UNL A   1      34.507  22.880  25.240  1.00  0.00    -0.216 NA
BRANCH  16  21
ATOM     21  C   UNL A   1      32.940  18.968  25.264  1.00  0.00     0.053 C 
ATOM     22  C   UNL A   1      32.488  18.475  23.898  1.00  0.00     0.011 C 
ENDBRANCH  16  21
BRANCH  19  23
ATOM     23  C   UNL A   1      36.629  22.064  24.400  1.00  0.00     0.051 C 
ATOM     24  C   UNL A   1      36.664  22.901  23.123  1.00  0.00     0.016 C 
ATOM     25  C   UNL A   1      37.446  22.706  25.520  1.00  0.00     0.016 C 
ENDBRANCH  19  23
ENDBRANCH  13  15
ENDBRANCH   8  13
ENDBRANCH   4   7
ENDBRANCH   2   3
ENDBRANCH   1   2
BRANCH   1  26
ATOM     26  C   UNL A   1      31.613  31.842  26.725  1.00  0.00     0.023 C 
BRANCH  26  27
ATOM     27  C   UNL A   1      32.750  32.683  27.293  1.00  0.00     0.116 C 
BRANCH  27  28
ATOM     28  N   UNL A   1      32.375  34.053  27.610  1.00  0.00    -0.352 N 
ATOM     29  C   UNL A   1      32.939  34.939  28.501  1.00  0.00     0.251 C 
ATOM     30  H   UNL A   1      31.599  34.399  27.112  1.00  0.00     0.163 HD
ATOM     31  O   UNL A   1      32.430  36.038  28.683  1.00  0.00    -0.269 OA
BRANCH  29  32
ATOM     32  C   UNL A   1      34.136  34.546  29.277  1.00  0.00     0.039 A 
ATOM     33  C   UNL A   1      33.962  34.028  30.564  1.00  0.00     0.014 A 
ATOM     34  C   UNL A   1      35.417  34.653  28.734  1.00  0.00     0.014 A 
ATOM     35  C   UNL A   1      35.063  33.527  31.264  1.00  0.00     0.010 A 
ATOM     36  C   UNL A   1      36.499  34.079  29.395  1.00  0.00     0.010 A 
ATOM     37  C   UNL A   1      36.331  33.501  30.663  1.00  0.00    -0.014 A 
BRANCH  37  38
ATOM     38  C   UNL A   1      37.492  32.860  31.332  1.00  0.00     0.031 A 
ATOM     39  C   UNL A   1      38.174  31.679  30.699  1.00  0.00     0.074 A 
ATOM     40  C   UNL A   1      37.880  33.286  32.551  1.00  0.00     0.049 A 
ATOM     41  N   UNL A   1      39.142  30.933  31.167  1.00  0.00    -0.248 NA
ATOM     42  C   UNL A   1      37.680  31.262  29.377  1.00  0.00     0.031 C 
ATOM     43  C   UNL A   1      37.269  34.386  33.299  1.00  0.00     0.029 A 
ATOM     44  N   UNL A   1      38.877  32.836  33.381  1.00  0.00    -0.354 N 
ATOM     45  C   UNL A   1      39.355  29.946  30.214  1.00  0.00     0.074 A 
ATOM     46  C   UNL A   1      38.384  30.161  29.162  1.00  0.00     0.031 C 
ATOM     47  C   UNL A   1      37.919  34.542  34.463  1.00  0.00     0.029 A 
ATOM     48  C   UNL A   1      38.968  33.531  34.562  1.00  0.00     0.049 A 
ATOM     49  H   UNL A   1      39.470  32.083  33.152  1.00  0.00     0.167 HD
ATOM     50  C   UNL A   1      40.285  28.963  30.204  1.00  0.00     0.037 A 
ATOM     51  C   UNL A   1      39.800  33.371  35.609  1.00  0.00     0.037 A 
ATOM     52  C   UNL A   1      41.276  28.775  31.230  1.00  0.00     0.049 A 
ATOM     53  C   UNL A   1      40.832  32.279  35.568  1.00  0.00     0.074 A 
ATOM     54  C   UNL A   1      42.314  27.861  31.270  1.00  0.00     0.029 A 
ATOM     55  N   UNL A   1      41.349  29.514  32.401  1.00  0.00    -0.354 N 
ATOM     56  N   UNL A   1      41.071  31.401  34.625  1.00  0.00    -0.248 NA
ATOM     57  C   UNL A   1      41.713  32.158  36.739  1.00  0.00     0.031 C 
ATOM     58  C   UNL A   1      42.993  28.023  32.483  1.00  0.00     0.029 A 
ATOM     59  C   UNL A   1      42.402  29.063  33.180  1.00  0.00     0.049 A 
ATOM     60  H   UNL A   1      40.743  30.252  32.643  1.00  0.00     0.167 HD
ATOM     61  C   UNL A   1      42.145  30.644  35.072  1.00  0.00     0.074 A 
ATOM     62  C   UNL A   1      42.518  31.172  36.369  1.00  0.00     0.031 C 
ATOM     63  C   UNL A   1      42.768  29.605  34.463  1.00  0.00     0.037 A 
BRANCH  50  64
ATOM     64  C   UNL A   1      40.278  28.017  29.040  1.00  0.00     0.057 A 
ATOM     65  C   UNL A   1      41.003  28.277  27.869  1.00  0.00     0.134 A 
ATOM     66  C   UNL A   1      39.553  26.819  29.098  1.00  0.00     0.134 A 
ATOM     67  F   UNL A   1      41.707  29.412  27.744  1.00  0.00    -0.206 F 
ATOM     68  C   UNL A   1      40.985  27.395  26.788  1.00  0.00     0.040 A 
ATOM     69  C   UNL A   1      39.550  25.917  28.033  1.00  0.00     0.040 A 
ATOM     70  F   UNL A   1      38.843  26.505  30.191  1.00  0.00    -0.206 F 
ATOM     71  C   UNL A   1      40.262  26.207  26.871  1.00  0.00     0.006 A 
ENDBRANCH  50  64
BRANCH  51  72
ATOM     72  C   UNL A   1      39.718  34.289  36.772  1.00  0.00     0.057 A 
ATOM     73  C   UNL A   1      39.005  33.926  37.921  1.00  0.00     0.134 A 
ATOM     74  C   UNL A   1      40.336  35.544  36.764  1.00  0.00     0.134 A 
ATOM     75  F   UNL A   1      38.374  32.744  37.978  1.00  0.00    -0.206 F 
ATOM     76  C   UNL A   1      38.896  34.784  39.015  1.00  0.00     0.040 A 
ATOM     77  C   UNL A   1      40.254  36.404  37.861  1.00  0.00     0.040 A 
ATOM     78  F   UNL A   1      41.039  35.947  35.695  1.00  0.00    -0.206 F 
ATOM     79  C   UNL A   1      39.526  36.026  38.988  1.00  0.00     0.006 A 
ENDBRANCH  51  72
BRANCH  63  80
ATOM     80  C   UNL A   1      43.938  28.995  35.174  1.00  0.00     0.057 A 
ATOM     81  C   UNL A   1      43.787  27.923  36.062  1.00  0.00     0.134 A 
ATOM     82  C   UNL A   1      45.237  29.463  34.937  1.00  0.00     0.134 A 
ATOM     83  F   UNL A   1      42.567  27.439  36.342  1.00  0.00    -0.206 F 
ATOM     84  C   UNL A   1      44.886  27.348  36.703  1.00  0.00     0.040 A 
ATOM     85  C   UNL A   1      46.345  28.881  35.552  1.00  0.00     0.040 A 
ATOM     86  F   UNL A   1      45.451  30.482  34.092  1.00  0.00    -0.206 F 
ATOM     87  C   UNL A   1      46.171  27.823  36.443  1.00  0.00     0.006 A 
ENDBRANCH  63  80
ENDBRANCH  37  38
ENDBRANCH  29  32
ENDBRANCH  27  28
ENDBRANCH  26  27
ENDBRANCH   1  26
TORSDOF 15
ENDMDL
