MODEL 1
REMARK VINA RESULT:     -13.2      0.000      0.000
REMARK SMILES O=C(NCCCCNC(=O)c1nnn(-c2cccc(Br)c2)c1[C@@H]1COc2ccccc2O1)c1ccc(-c2c3nc(c(-c4c(F)cccc4F)c4ccc([nH]4)c(-c4c(F)cccc4F)c4nc(c(-c5c(F)cccc5F)c5ccc2[nH]5)C=C4)C=C3)cc1
REMARK SMILES IDX 5 1 4 2 3 3 1 4 2 5 33 7 34 8 86 9 35 10 85 11 36 12 37 13
REMARK SMILES IDX 38 14 79 15 39 16 84 17 78 18 80 19 40 20 83 21 77 22 76 23
REMARK SMILES IDX 41 25 67 26 50 27 66 28 51 29 54 30 65 31 81 32 52 33 53 34
REMARK SMILES IDX 64 36 82 37 55 38 42 39 43 40 48 41 44 42 45 43 47 44 49 45
REMARK SMILES IDX 46 46 68 47 69 48 74 49 70 50 71 51 73 52 75 53 72 54 56 55
REMARK SMILES IDX 57 56 62 57 58 58 59 59 61 60 63 61 60 62 6 63 7 64 8 65
REMARK SMILES IDX 9 66 10 68 11 69 12 70 22 71 13 72 14 73 23 74 24 75 32 76
REMARK SMILES IDX 25 77 31 78 26 79 30 80 27 81 29 82 28 83 15 84 16 85 21 86
REMARK SMILES IDX 17 87 19 88 18 89 20 90
REMARK H PARENT 3 6 80 24 54 35 8 67
REMARK Flexibility Score: inf
ROOT
ATOM      1  C   UNL A   1      32.782  30.219  27.016  1.00  0.00     0.023 C 
ENDROOT
BRANCH   1   2
ATOM      2  C   UNL A   1      34.038  31.043  27.302  1.00  0.00     0.116 C 
BRANCH   2   3
ATOM      3  N   UNL A   1      34.090  31.671  28.613  1.00  0.00    -0.352 N 
ATOM      4  O   UNL A   1      34.857  32.779  30.363  1.00  0.00    -0.269 OA
ATOM      5  C   UNL A   1      35.092  31.917  29.528  1.00  0.00     0.251 C 
ATOM      6  H   UNL A   1      33.211  31.995  28.916  1.00  0.00     0.163 HD
BRANCH   5   7
ATOM      7  C   UNL A   1      36.402  31.195  29.598  1.00  0.00     0.039 A 
ATOM      8  C   UNL A   1      37.658  31.784  29.480  1.00  0.00     0.014 A 
ATOM      9  C   UNL A   1      36.339  29.790  29.735  1.00  0.00     0.014 A 
ATOM     10  C   UNL A   1      38.814  31.001  29.469  1.00  0.00     0.010 A 
ATOM     11  C   UNL A   1      37.495  29.001  29.727  1.00  0.00     0.010 A 
ATOM     12  C   UNL A   1      38.738  29.608  29.579  1.00  0.00    -0.014 A 
BRANCH  12  13
ATOM     13  C   UNL A   1      39.998  28.862  29.675  1.00  0.00     0.031 A 
ATOM     14  C   UNL A   1      40.579  28.740  31.049  1.00  0.00     0.074 A 
ATOM     15  C   UNL A   1      40.559  28.165  28.665  1.00  0.00     0.049 A 
ATOM     16  N   UNL A   1      41.766  29.057  31.464  1.00  0.00    -0.248 NA
ATOM     17  C   UNL A   1      39.695  28.225  32.106  1.00  0.00     0.031 C 
ATOM     18  C   UNL A   1      39.993  27.871  27.349  1.00  0.00     0.029 A 
ATOM     19  N   UNL A   1      41.738  27.474  28.661  1.00  0.00    -0.354 N 
ATOM     20  C   UNL A   1      41.833  28.646  32.796  1.00  0.00     0.074 A 
ATOM     21  C   UNL A   1      40.506  28.224  33.164  1.00  0.00     0.031 C 
ATOM     22  C   UNL A   1      40.729  26.903  26.757  1.00  0.00     0.029 A 
ATOM     23  C   UNL A   1      41.877  26.597  27.597  1.00  0.00     0.049 A 
ATOM     24  H   UNL A   1      42.429  27.591  29.353  1.00  0.00     0.167 HD
ATOM     25  C   UNL A   1      43.006  28.524  33.479  1.00  0.00     0.037 A 
ATOM     26  C   UNL A   1      42.824  25.638  27.449  1.00  0.00     0.037 A 
ATOM     27  C   UNL A   1      44.073  29.268  32.873  1.00  0.00     0.049 A 
ATOM     28  C   UNL A   1      43.952  25.947  28.358  1.00  0.00     0.074 A 
ATOM     29  C   UNL A   1      44.296  30.601  32.587  1.00  0.00     0.029 A 
ATOM     30  N   UNL A   1      45.049  28.583  32.196  1.00  0.00    -0.354 N 
ATOM     31  N   UNL A   1      44.792  26.929  28.196  1.00  0.00    -0.248 NA
ATOM     32  C   UNL A   1      43.943  25.347  29.683  1.00  0.00     0.031 C 
ATOM     33  C   UNL A   1      45.056  30.601  31.382  1.00  0.00     0.029 A 
ATOM     34  C   UNL A   1      45.257  29.267  31.026  1.00  0.00     0.049 A 
ATOM     35  H   UNL A   1      45.509  27.765  32.490  1.00  0.00     0.167 HD
ATOM     36  C   UNL A   1      45.111  27.338  29.482  1.00  0.00     0.074 A 
ATOM     37  C   UNL A   1      44.658  26.256  30.348  1.00  0.00     0.031 C 
ATOM     38  C   UNL A   1      45.461  28.630  29.747  1.00  0.00     0.037 A 
BRANCH  25  39
ATOM     39  C   UNL A   1      43.251  27.500  34.556  1.00  0.00     0.057 A 
ATOM     40  C   UNL A   1      43.422  26.145  34.221  1.00  0.00     0.134 A 
ATOM     41  C   UNL A   1      43.050  27.759  35.928  1.00  0.00     0.134 A 
ATOM     42  F   UNL A   1      43.585  25.768  32.944  1.00  0.00    -0.206 F 
ATOM     43  C   UNL A   1      43.359  25.122  35.175  1.00  0.00     0.040 A 
ATOM     44  C   UNL A   1      43.034  26.750  36.895  1.00  0.00     0.040 A 
ATOM     45  F   UNL A   1      42.765  28.987  36.382  1.00  0.00    -0.206 F 
ATOM     46  C   UNL A   1      43.163  25.423  36.517  1.00  0.00     0.006 A 
ENDBRANCH  25  39
BRANCH  26  47
ATOM     47  C   UNL A   1      42.715  24.335  26.758  1.00  0.00     0.057 A 
ATOM     48  C   UNL A   1      43.350  24.102  25.530  1.00  0.00     0.134 A 
ATOM     49  C   UNL A   1      42.200  23.202  27.411  1.00  0.00     0.134 A 
ATOM     50  F   UNL A   1      43.916  25.111  24.853  1.00  0.00    -0.206 F 
ATOM     51  C   UNL A   1      43.475  22.815  24.989  1.00  0.00     0.040 A 
ATOM     52  C   UNL A   1      42.307  21.914  26.878  1.00  0.00     0.040 A 
ATOM     53  F   UNL A   1      41.652  23.294  28.632  1.00  0.00    -0.206 F 
ATOM     54  C   UNL A   1      42.958  21.715  25.667  1.00  0.00     0.006 A 
ENDBRANCH  26  47
BRANCH  38  55
ATOM     55  C   UNL A   1      45.778  29.527  28.585  1.00  0.00     0.057 A 
ATOM     56  C   UNL A   1      44.807  30.237  27.864  1.00  0.00     0.134 A 
ATOM     57  C   UNL A   1      47.118  29.795  28.279  1.00  0.00     0.134 A 
ATOM     58  F   UNL A   1      43.505  30.128  28.161  1.00  0.00    -0.206 F 
ATOM     59  C   UNL A   1      45.154  31.132  26.848  1.00  0.00     0.040 A 
ATOM     60  C   UNL A   1      47.478  30.714  27.291  1.00  0.00     0.040 A 
ATOM     61  F   UNL A   1      48.102  29.201  28.973  1.00  0.00    -0.206 F 
ATOM     62  C   UNL A   1      46.493  31.376  26.562  1.00  0.00     0.006 A 
ENDBRANCH  38  55
ENDBRANCH  12  13
ENDBRANCH   5   7
ENDBRANCH   2   3
ENDBRANCH   1   2
BRANCH   1  63
ATOM     63  C   UNL A   1      32.914  28.703  27.183  1.00  0.00     0.023 C 
BRANCH  63  64
ATOM     64  C   UNL A   1      31.745  27.847  27.774  1.00  0.00     0.116 C 
BRANCH  64  65
ATOM     65  N   UNL A   1      30.882  27.067  26.804  1.00  0.00    -0.351 N 
ATOM     66  C   UNL A   1      30.612  25.864  26.144  1.00  0.00     0.273 C 
ATOM     67  H   UNL A   1      30.193  27.700  26.496  1.00  0.00     0.163 HD
ATOM     68  O   UNL A   1      29.496  25.994  25.600  1.00  0.00    -0.267 OA
BRANCH  66  69
ATOM     69  C   UNL A   1      31.286  24.510  25.936  1.00  0.00     0.178 A 
ATOM     70  N   UNL A   1      31.702  23.920  27.138  1.00  0.00    -0.124 NA
ATOM     71  C   UNL A   1      31.622  23.564  24.930  1.00  0.00     0.122 A 
ATOM     72  N   UNL A   1      32.307  22.770  26.913  1.00  0.00    -0.061 NA
ATOM     73  N   UNL A   1      32.194  22.491  25.611  1.00  0.00    -0.213 N 
BRANCH  71  74
ATOM     74  C   UNL A   1      31.574  23.513  23.410  1.00  0.00     0.262 C 
ATOM     75  C   UNL A   1      32.955  23.537  22.871  1.00  0.00     0.281 C 
ATOM     76  O   UNL A   1      30.856  24.644  22.814  1.00  0.00    -0.477 OA
ATOM     77  O   UNL A   1      33.529  24.683  23.497  1.00  0.00    -0.485 OA
ATOM     78  C   UNL A   1      31.560  25.819  22.864  1.00  0.00     0.162 A 
ATOM     79  C   UNL A   1      32.814  25.831  23.427  1.00  0.00     0.161 A 
ATOM     80  C   UNL A   1      31.048  27.016  22.403  1.00  0.00     0.050 A 
ATOM     81  C   UNL A   1      33.386  26.992  23.922  1.00  0.00     0.050 A 
ATOM     82  C   UNL A   1      31.716  28.212  22.717  1.00  0.00     0.004 A 
ATOM     83  C   UNL A   1      32.830  28.204  23.560  1.00  0.00     0.004 A 
ENDBRANCH  71  74
BRANCH  73  84
ATOM     84  C   UNL A   1      32.994  21.488  25.010  1.00  0.00     0.068 A 
ATOM     85  C   UNL A   1      32.376  20.263  24.734  1.00  0.00     0.028 A 
ATOM     86  C   UNL A   1      34.388  21.601  25.029  1.00  0.00     0.044 A 
ATOM     87  C   UNL A   1      33.163  19.120  24.605  1.00  0.00     0.003 A 
ATOM     88  C   UNL A   1      35.161  20.451  24.901  1.00  0.00     0.020 A 
ATOM     89  C   UNL A   1      34.553  19.208  24.717  1.00  0.00     0.016 A 
ATOM     90  Br  UNL A   1      37.038  20.557  25.097  1.00  0.00    -0.051 Br
ENDBRANCH  73  84
ENDBRANCH  66  69
ENDBRANCH  64  65
ENDBRANCH  63  64
ENDBRANCH   1  63
TORSDOF 13
ENDMDL
MODEL 2
REMARK VINA RESULT:     -12.9      3.126      8.125
REMARK SMILES O=C(NCCCCNC(=O)c1nnn(-c2cccc(Br)c2)c1[C@@H]1COc2ccccc2O1)c1ccc(-c2c3nc(c(-c4c(F)cccc4F)c4ccc([nH]4)c(-c4c(F)cccc4F)c4nc(c(-c5c(F)cccc5F)c5ccc2[nH]5)C=C4)C=C3)cc1
REMARK SMILES IDX 5 1 4 2 3 3 1 4 2 5 33 7 34 8 86 9 35 10 85 11 36 12 37 13
REMARK SMILES IDX 38 14 79 15 39 16 84 17 78 18 80 19 40 20 83 21 77 22 76 23
REMARK SMILES IDX 41 25 67 26 50 27 66 28 51 29 54 30 65 31 81 32 52 33 53 34
REMARK SMILES IDX 64 36 82 37 55 38 42 39 43 40 48 41 44 42 45 43 47 44 49 45
REMARK SMILES IDX 46 46 68 47 69 48 74 49 70 50 71 51 73 52 75 53 72 54 56 55
REMARK SMILES IDX 57 56 62 57 58 58 59 59 61 60 63 61 60 62 6 63 7 64 8 65
REMARK SMILES IDX 9 66 10 68 11 69 12 70 22 71 13 72 14 73 23 74 24 75 32 76
REMARK SMILES IDX 25 77 31 78 26 79 30 80 27 81 29 82 28 83 15 84 16 85 21 86
REMARK SMILES IDX 17 87 19 88 18 89 20 90
REMARK H PARENT 3 6 80 24 54 35 8 67
REMARK Flexibility Score: inf
ROOT
ATOM      1  C   UNL A   1      38.153  22.785  25.870  1.00  0.00     0.023 C 
ENDROOT
BRANCH   1   2
ATOM      2  C   UNL A   1      39.253  21.845  26.365  1.00  0.00     0.116 C 
BRANCH   2   3
ATOM      3  N   UNL A   1      40.558  22.030  25.751  1.00  0.00    -0.352 N 
ATOM      4  O   UNL A   1      42.697  22.530  25.515  1.00  0.00    -0.269 OA
ATOM      5  C   UNL A   1      41.620  22.881  25.978  1.00  0.00     0.251 C 
ATOM      6  H   UNL A   1      40.721  21.408  25.006  1.00  0.00     0.163 HD
BRANCH   5   7
ATOM      7  C   UNL A   1      41.546  24.192  26.697  1.00  0.00     0.039 A 
ATOM      8  C   UNL A   1      42.041  24.443  27.975  1.00  0.00     0.014 A 
ATOM      9  C   UNL A   1      40.860  25.235  26.036  1.00  0.00     0.014 A 
ATOM     10  C   UNL A   1      41.836  25.680  28.588  1.00  0.00     0.010 A 
ATOM     11  C   UNL A   1      40.655  26.478  26.645  1.00  0.00     0.010 A 
ATOM     12  C   UNL A   1      41.133  26.697  27.933  1.00  0.00    -0.014 A 
BRANCH  12  13
ATOM     13  C   UNL A   1      41.056  28.006  28.592  1.00  0.00     0.031 A 
ATOM     14  C   UNL A   1      42.149  28.971  28.253  1.00  0.00     0.074 A 
ATOM     15  C   UNL A   1      40.012  28.437  29.329  1.00  0.00     0.049 A 
ATOM     16  N   UNL A   1      42.950  29.610  29.048  1.00  0.00    -0.248 NA
ATOM     17  C   UNL A   1      42.399  29.224  26.825  1.00  0.00     0.031 C 
ATOM     18  C   UNL A   1      38.709  27.798  29.507  1.00  0.00     0.029 A 
ATOM     19  N   UNL A   1      39.875  29.620  30.000  1.00  0.00    -0.354 N 
ATOM     20  C   UNL A   1      43.706  30.458  28.237  1.00  0.00     0.074 A 
ATOM     21  C   UNL A   1      43.388  30.115  26.874  1.00  0.00     0.031 C 
ATOM     22  C   UNL A   1      37.852  28.686  30.060  1.00  0.00     0.029 A 
ATOM     23  C   UNL A   1      38.574  29.908  30.381  1.00  0.00     0.049 A 
ATOM     24  H   UNL A   1      40.635  30.215  30.195  1.00  0.00     0.167 HD
ATOM     25  C   UNL A   1      44.431  31.503  28.725  1.00  0.00     0.037 A 
ATOM     26  C   UNL A   1      38.106  31.087  30.858  1.00  0.00     0.037 A 
ATOM     27  C   UNL A   1      44.705  31.372  30.128  1.00  0.00     0.049 A 
ATOM     28  C   UNL A   1      39.256  31.889  31.338  1.00  0.00     0.074 A 
ATOM     29  C   UNL A   1      45.372  30.451  30.911  1.00  0.00     0.029 A 
ATOM     30  N   UNL A   1      44.019  32.169  31.008  1.00  0.00    -0.354 N 
ATOM     31  N   UNL A   1      39.951  31.629  32.408  1.00  0.00    -0.248 NA
ATOM     32  C   UNL A   1      39.869  32.824  30.408  1.00  0.00     0.031 C 
ATOM     33  C   UNL A   1      44.663  30.430  32.148  1.00  0.00     0.029 A 
ATOM     34  C   UNL A   1      43.622  31.353  32.037  1.00  0.00     0.049 A 
ATOM     35  H   UNL A   1      43.847  33.133  30.921  1.00  0.00     0.167 HD
ATOM     36  C   UNL A   1      41.242  32.029  32.097  1.00  0.00     0.074 A 
ATOM     37  C   UNL A   1      41.105  32.862  30.909  1.00  0.00     0.031 C 
ATOM     38  C   UNL A   1      42.325  31.426  32.666  1.00  0.00     0.037 A 
BRANCH  25  39
ATOM     39  C   UNL A   1      44.661  32.791  27.978  1.00  0.00     0.057 A 
ATOM     40  C   UNL A   1      45.914  33.059  27.398  1.00  0.00     0.134 A 
ATOM     41  C   UNL A   1      43.782  33.891  28.047  1.00  0.00     0.134 A 
ATOM     42  F   UNL A   1      46.850  32.102  27.308  1.00  0.00    -0.206 F 
ATOM     43  C   UNL A   1      46.277  34.337  26.955  1.00  0.00     0.040 A 
ATOM     44  C   UNL A   1      44.117  35.159  27.564  1.00  0.00     0.040 A 
ATOM     45  F   UNL A   1      42.599  33.814  28.671  1.00  0.00    -0.206 F 
ATOM     46  C   UNL A   1      45.377  35.393  27.038  1.00  0.00     0.006 A 
ENDBRANCH  25  39
BRANCH  26  47
ATOM     47  C   UNL A   1      36.757  31.675  30.701  1.00  0.00     0.057 A 
ATOM     48  C   UNL A   1      35.937  31.933  31.808  1.00  0.00     0.134 A 
ATOM     49  C   UNL A   1      36.343  32.239  29.482  1.00  0.00     0.134 A 
ATOM     50  F   UNL A   1      36.272  31.480  33.025  1.00  0.00    -0.206 F 
ATOM     51  C   UNL A   1      34.779  32.715  31.711  1.00  0.00     0.040 A 
ATOM     52  C   UNL A   1      35.185  33.012  29.367  1.00  0.00     0.040 A 
ATOM     53  F   UNL A   1      37.097  32.133  28.377  1.00  0.00    -0.206 F 
ATOM     54  C   UNL A   1      34.403  33.263  30.488  1.00  0.00     0.006 A 
ENDBRANCH  26  47
BRANCH  38  55
ATOM     55  C   UNL A   1      42.093  30.527  33.846  1.00  0.00     0.057 A 
ATOM     56  C   UNL A   1      41.745  29.172  33.735  1.00  0.00     0.134 A 
ATOM     57  C   UNL A   1      42.372  31.007  35.131  1.00  0.00     0.134 A 
ATOM     58  F   UNL A   1      41.568  28.598  32.538  1.00  0.00    -0.206 F 
ATOM     59  C   UNL A   1      41.628  28.349  34.858  1.00  0.00     0.040 A 
ATOM     60  C   UNL A   1      42.293  30.185  36.258  1.00  0.00     0.040 A 
ATOM     61  F   UNL A   1      42.774  32.276  35.308  1.00  0.00    -0.206 F 
ATOM     62  C   UNL A   1      41.907  28.853  36.124  1.00  0.00     0.006 A 
ENDBRANCH  38  55
ENDBRANCH  12  13
ENDBRANCH   5   7
ENDBRANCH   2   3
ENDBRANCH   1   2
BRANCH   1  63
ATOM     63  C   UNL A   1      37.296  22.273  24.710  1.00  0.00     0.023 C 
BRANCH  63  64
ATOM     64  C   UNL A   1      36.654  23.261  23.679  1.00  0.00     0.116 C 
BRANCH  64  65
ATOM     65  N   UNL A   1      35.254  22.955  23.189  1.00  0.00    -0.351 N 
ATOM     66  C   UNL A   1      33.984  23.419  22.831  1.00  0.00     0.273 C 
ATOM     67  H   UNL A   1      35.225  21.979  23.065  1.00  0.00     0.163 HD
ATOM     68  O   UNL A   1      33.388  22.462  22.297  1.00  0.00    -0.267 OA
BRANCH  66  69
ATOM     69  C   UNL A   1      33.188  24.719  22.915  1.00  0.00     0.178 A 
ATOM     70  N   UNL A   1      33.808  25.780  22.239  1.00  0.00    -0.124 NA
ATOM     71  C   UNL A   1      31.972  25.263  23.409  1.00  0.00     0.122 A 
ATOM     72  N   UNL A   1      33.107  26.890  22.362  1.00  0.00    -0.061 NA
ATOM     73  N   UNL A   1      31.960  26.589  22.980  1.00  0.00    -0.213 N 
BRANCH  71  74
ATOM     74  C   UNL A   1      30.830  24.780  24.291  1.00  0.00     0.262 C 
ATOM     75  C   UNL A   1      30.888  25.476  25.600  1.00  0.00     0.281 C 
ATOM     76  O   UNL A   1      30.877  23.340  24.564  1.00  0.00    -0.477 OA
ATOM     77  O   UNL A   1      32.228  25.247  26.031  1.00  0.00    -0.485 OA
ATOM     78  C   UNL A   1      31.862  22.989  25.451  1.00  0.00     0.162 A 
ATOM     79  C   UNL A   1      32.666  23.965  25.988  1.00  0.00     0.161 A 
ATOM     80  C   UNL A   1      32.112  21.678  25.808  1.00  0.00     0.050 A 
ATOM     81  C   UNL A   1      33.921  23.683  26.503  1.00  0.00     0.050 A 
ATOM     82  C   UNL A   1      33.287  21.375  26.516  1.00  0.00     0.004 A 
ATOM     83  C   UNL A   1      34.237  22.365  26.774  1.00  0.00     0.004 A 
ENDBRANCH  71  74
BRANCH  73  84
ATOM     84  C   UNL A   1      31.139  27.607  23.524  1.00  0.00     0.068 A 
ATOM     85  C   UNL A   1      30.049  28.024  22.752  1.00  0.00     0.028 A 
ATOM     86  C   UNL A   1      31.602  28.383  24.592  1.00  0.00     0.044 A 
ATOM     87  C   UNL A   1      29.504  29.288  22.973  1.00  0.00     0.003 A 
ATOM     88  C   UNL A   1      31.050  29.644  24.799  1.00  0.00     0.020 A 
ATOM     89  C   UNL A   1      30.024  30.110  23.977  1.00  0.00     0.016 A 
ATOM     90  Br  UNL A   1      31.778  30.778  26.125  1.00  0.00    -0.051 Br
ENDBRANCH  73  84
ENDBRANCH  66  69
ENDBRANCH  64  65
ENDBRANCH  63  64
ENDBRANCH   1  63
TORSDOF 13
ENDMDL
MODEL 3
REMARK VINA RESULT:     -12.8      1.816      2.495
REMARK SMILES O=C(NCCCCNC(=O)c1nnn(-c2cccc(Br)c2)c1[C@@H]1COc2ccccc2O1)c1ccc(-c2c3nc(c(-c4c(F)cccc4F)c4ccc([nH]4)c(-c4c(F)cccc4F)c4nc(c(-c5c(F)cccc5F)c5ccc2[nH]5)C=C4)C=C3)cc1
REMARK SMILES IDX 5 1 4 2 3 3 1 4 2 5 33 7 34 8 86 9 35 10 85 11 36 12 37 13
REMARK SMILES IDX 38 14 79 15 39 16 84 17 78 18 80 19 40 20 83 21 77 22 76 23
REMARK SMILES IDX 41 25 67 26 50 27 66 28 51 29 54 30 65 31 81 32 52 33 53 34
REMARK SMILES IDX 64 36 82 37 55 38 42 39 43 40 48 41 44 42 45 43 47 44 49 45
REMARK SMILES IDX 46 46 68 47 69 48 74 49 70 50 71 51 73 52 75 53 72 54 56 55
REMARK SMILES IDX 57 56 62 57 58 58 59 59 61 60 63 61 60 62 6 63 7 64 8 65
REMARK SMILES IDX 9 66 10 68 11 69 12 70 22 71 13 72 14 73 23 74 24 75 32 76
REMARK SMILES IDX 25 77 31 78 26 79 30 80 27 81 29 82 28 83 15 84 16 85 21 86
REMARK SMILES IDX 17 87 19 88 18 89 20 90
REMARK H PARENT 3 6 80 24 54 35 8 67
REMARK Flexibility Score: inf
ROOT
ATOM      1  C   UNL A   1      33.280  29.859  26.445  1.00  0.00     0.023 C 
ENDROOT
BRANCH   1   2
ATOM      2  C   UNL A   1      34.655  29.603  27.062  1.00  0.00     0.116 C 
BRANCH   2   3
ATOM      3  N   UNL A   1      35.151  30.649  27.942  1.00  0.00    -0.352 N 
ATOM      4  O   UNL A   1      36.522  32.103  28.884  1.00  0.00    -0.269 OA
ATOM      5  C   UNL A   1      36.384  30.957  28.478  1.00  0.00     0.251 C 
ATOM      6  H   UNL A   1      34.448  31.282  28.217  1.00  0.00     0.163 HD
BRANCH   5   7
ATOM      7  C   UNL A   1      37.527  30.003  28.634  1.00  0.00     0.039 A 
ATOM      8  C   UNL A   1      37.727  29.150  29.717  1.00  0.00     0.014 A 
ATOM      9  C   UNL A   1      38.508  30.023  27.617  1.00  0.00     0.014 A 
ATOM     10  C   UNL A   1      38.879  28.365  29.802  1.00  0.00     0.010 A 
ATOM     11  C   UNL A   1      39.662  29.237  27.696  1.00  0.00     0.010 A 
ATOM     12  C   UNL A   1      39.855  28.414  28.802  1.00  0.00    -0.014 A 
BRANCH  12  13
ATOM     13  C   UNL A   1      40.982  27.478  28.902  1.00  0.00     0.031 A 
ATOM     14  C   UNL A   1      41.772  27.545  30.171  1.00  0.00     0.074 A 
ATOM     15  C   UNL A   1      41.239  26.486  28.025  1.00  0.00     0.049 A 
ATOM     16  N   UNL A   1      43.049  27.710  30.331  1.00  0.00    -0.248 NA
ATOM     17  C   UNL A   1      41.021  27.448  31.433  1.00  0.00     0.031 C 
ATOM     18  C   UNL A   1      40.410  26.030  26.910  1.00  0.00     0.029 A 
ATOM     19  N   UNL A   1      42.278  25.598  28.027  1.00  0.00    -0.354 N 
ATOM     20  C   UNL A   1      43.287  27.590  31.700  1.00  0.00     0.074 A 
ATOM     21  C   UNL A   1      41.997  27.519  32.338  1.00  0.00     0.031 C 
ATOM     22  C   UNL A   1      40.870  24.835  26.475  1.00  0.00     0.029 A 
ATOM     23  C   UNL A   1      42.088  24.502  27.199  1.00  0.00     0.049 A 
ATOM     24  H   UNL A   1      43.090  25.725  28.568  1.00  0.00     0.167 HD
ATOM     25  C   UNL A   1      44.529  27.395  32.225  1.00  0.00     0.037 A 
ATOM     26  C   UNL A   1      42.833  23.371  27.160  1.00  0.00     0.037 A 
ATOM     27  C   UNL A   1      45.574  27.772  31.316  1.00  0.00     0.049 A 
ATOM     28  C   UNL A   1      44.139  23.646  27.804  1.00  0.00     0.074 A 
ATOM     29  C   UNL A   1      45.945  28.945  30.687  1.00  0.00     0.029 A 
ATOM     30  N   UNL A   1      46.296  26.784  30.698  1.00  0.00    -0.354 N 
ATOM     31  N   UNL A   1      45.079  24.390  27.294  1.00  0.00    -0.248 NA
ATOM     32  C   UNL A   1      44.273  23.357  29.223  1.00  0.00     0.031 C 
ATOM     33  C   UNL A   1      46.470  28.540  29.426  1.00  0.00     0.029 A 
ATOM     34  C   UNL A   1      46.396  27.148  29.380  1.00  0.00     0.049 A 
ATOM     35  H   UNL A   1      46.668  25.976  31.117  1.00  0.00     0.167 HD
ATOM     36  C   UNL A   1      45.680  24.997  28.386  1.00  0.00     0.074 A 
ATOM     37  C   UNL A   1      45.227  24.234  29.543  1.00  0.00     0.031 C 
ATOM     38  C   UNL A   1      46.267  26.224  28.279  1.00  0.00     0.037 A 
BRANCH  25  39
ATOM     39  C   UNL A   1      44.800  26.599  33.475  1.00  0.00     0.057 A 
ATOM     40  C   UNL A   1      45.477  27.188  34.557  1.00  0.00     0.134 A 
ATOM     41  C   UNL A   1      44.663  25.198  33.542  1.00  0.00     0.134 A 
ATOM     42  F   UNL A   1      45.702  28.511  34.591  1.00  0.00    -0.206 F 
ATOM     43  C   UNL A   1      46.012  26.433  35.609  1.00  0.00     0.040 A 
ATOM     44  C   UNL A   1      45.150  24.439  34.611  1.00  0.00     0.040 A 
ATOM     45  F   UNL A   1      44.139  24.488  32.534  1.00  0.00    -0.206 F 
ATOM     46  C   UNL A   1      45.850  25.053  35.637  1.00  0.00     0.006 A 
ENDBRANCH  25  39
BRANCH  26  47
ATOM     47  C   UNL A   1      42.403  21.995  26.828  1.00  0.00     0.057 A 
ATOM     48  C   UNL A   1      43.099  21.215  25.893  1.00  0.00     0.134 A 
ATOM     49  C   UNL A   1      41.452  21.317  27.611  1.00  0.00     0.134 A 
ATOM     50  F   UNL A   1      44.060  21.759  25.133  1.00  0.00    -0.206 F 
ATOM     51  C   UNL A   1      42.870  19.840  25.753  1.00  0.00     0.040 A 
ATOM     52  C   UNL A   1      41.205  19.948  27.474  1.00  0.00     0.040 A 
ATOM     53  F   UNL A   1      40.792  21.943  28.596  1.00  0.00    -0.206 F 
ATOM     54  C   UNL A   1      41.925  19.201  26.551  1.00  0.00     0.006 A 
ENDBRANCH  26  47
BRANCH  38  55
ATOM     55  C   UNL A   1      46.508  26.772  26.902  1.00  0.00     0.057 A 
ATOM     56  C   UNL A   1      47.691  26.562  26.177  1.00  0.00     0.134 A 
ATOM     57  C   UNL A   1      45.457  27.407  26.230  1.00  0.00     0.134 A 
ATOM     58  F   UNL A   1      48.710  25.867  26.700  1.00  0.00    -0.206 F 
ATOM     59  C   UNL A   1      47.838  27.013  24.863  1.00  0.00     0.040 A 
ATOM     60  C   UNL A   1      45.580  27.830  24.904  1.00  0.00     0.040 A 
ATOM     61  F   UNL A   1      44.274  27.584  26.838  1.00  0.00    -0.206 F 
ATOM     62  C   UNL A   1      46.778  27.645  24.220  1.00  0.00     0.006 A 
ENDBRANCH  38  55
ENDBRANCH  12  13
ENDBRANCH   5   7
ENDBRANCH   2   3
ENDBRANCH   1   2
BRANCH   1  63
ATOM     63  C   UNL A   1      32.074  29.369  27.252  1.00  0.00     0.023 C 
BRANCH  63  64
ATOM     64  C   UNL A   1      31.895  27.854  27.603  1.00  0.00     0.116 C 
BRANCH  64  65
ATOM     65  N   UNL A   1      30.971  27.033  26.727  1.00  0.00    -0.351 N 
ATOM     66  C   UNL A   1      30.669  25.807  26.126  1.00  0.00     0.273 C 
ATOM     67  H   UNL A   1      30.250  27.647  26.455  1.00  0.00     0.163 HD
ATOM     68  O   UNL A   1      29.513  25.905  25.667  1.00  0.00    -0.267 OA
BRANCH  66  69
ATOM     69  C   UNL A   1      31.347  24.456  25.907  1.00  0.00     0.178 A 
ATOM     70  N   UNL A   1      31.788  23.869  27.101  1.00  0.00    -0.124 NA
ATOM     71  C   UNL A   1      31.668  23.511  24.896  1.00  0.00     0.122 A 
ATOM     72  N   UNL A   1      32.394  22.722  26.866  1.00  0.00    -0.061 NA
ATOM     73  N   UNL A   1      32.258  22.441  25.566  1.00  0.00    -0.213 N 
BRANCH  71  74
ATOM     74  C   UNL A   1      31.591  23.458  23.377  1.00  0.00     0.262 C 
ATOM     75  C   UNL A   1      32.962  23.493  22.811  1.00  0.00     0.281 C 
ATOM     76  O   UNL A   1      30.852  24.582  22.794  1.00  0.00    -0.477 OA
ATOM     77  O   UNL A   1      33.537  24.644  23.425  1.00  0.00    -0.485 OA
ATOM     78  C   UNL A   1      31.547  25.763  22.829  1.00  0.00     0.162 A 
ATOM     79  C   UNL A   1      32.811  25.787  23.368  1.00  0.00     0.161 A 
ATOM     80  C   UNL A   1      31.015  26.955  22.378  1.00  0.00     0.050 A 
ATOM     81  C   UNL A   1      33.382  26.953  23.851  1.00  0.00     0.050 A 
ATOM     82  C   UNL A   1      31.680  28.157  22.677  1.00  0.00     0.004 A 
ATOM     83  C   UNL A   1      32.809  28.159  23.499  1.00  0.00     0.004 A 
ENDBRANCH  71  74
BRANCH  73  84
ATOM     84  C   UNL A   1      33.051  21.441  24.952  1.00  0.00     0.068 A 
ATOM     85  C   UNL A   1      32.428  20.220  24.669  1.00  0.00     0.028 A 
ATOM     86  C   UNL A   1      34.446  21.551  24.961  1.00  0.00     0.044 A 
ATOM     87  C   UNL A   1      33.211  19.077  24.525  1.00  0.00     0.003 A 
ATOM     88  C   UNL A   1      35.215  20.400  24.818  1.00  0.00     0.020 A 
ATOM     89  C   UNL A   1      34.603  19.161  24.628  1.00  0.00     0.016 A 
ATOM     90  Br  UNL A   1      37.094  20.500  25.001  1.00  0.00    -0.051 Br
ENDBRANCH  73  84
ENDBRANCH  66  69
ENDBRANCH  64  65
ENDBRANCH  63  64
ENDBRANCH   1  63
TORSDOF 13
ENDMDL
