MODEL 1
REMARK VINA RESULT:     -10.8      0.000      0.000
REMARK SMILES COCc1nc2ccccc2n1CC(=O)NCCCCNC(=O)c1ccc(-c2c3nc(c(-c4c(F)cccc4F)c4ccc([nH]4)c(-c4c(F)cccc4F)c4nc(c(-c5c(F)cccc5F)c5ccc2[nH]5)C=C4)C=C3)cc1
REMARK SMILES IDX 18 1 17 2 16 3 14 4 15 5 13 7 12 8 4 9 5 10 6 11 11 12 7 13
REMARK SMILES IDX 10 14 8 15 9 16 3 17 2 18 1 19 19 20 20 21 21 22 22 23 23 25
REMARK SMILES IDX 24 26 25 27 77 28 26 29 76 30 27 31 28 32 29 33 70 34 30 35
REMARK SMILES IDX 75 36 69 37 71 38 31 39 74 40 68 41 67 42 32 44 58 45 41 46
REMARK SMILES IDX 57 47 42 48 45 49 56 50 72 51 43 52 44 53 55 55 73 56 46 57
REMARK SMILES IDX 33 58 34 59 39 60 35 61 36 62 38 63 40 64 37 65 59 66 60 67
REMARK SMILES IDX 65 68 61 69 62 70 64 71 66 72 63 73 47 74 48 75 53 76 49 77
REMARK SMILES IDX 50 78 52 79 54 80 51 81
REMARK H PARENT 16 6 21 24 71 43 45 54
REMARK Flexibility Score: inf
ROOT
ATOM      1  C   UNL A   1      40.187  21.634  26.888  1.00  0.00     0.023 C 
ENDROOT
BRANCH   1   2
ATOM      2  C   UNL A   1      38.979  22.491  26.537  1.00  0.00     0.116 C 
BRANCH   2   3
ATOM      3  N   UNL A   1      38.491  22.282  25.192  1.00  0.00    -0.355 N 
ATOM      4  C   UNL A   1      37.260  21.858  24.789  1.00  0.00     0.240 C 
ATOM      5  O   UNL A   1      36.886  22.221  23.667  1.00  0.00    -0.273 OA
ATOM      6  H   UNL A   1      39.134  22.471  24.471  1.00  0.00     0.163 HD
BRANCH   4   7
ATOM      7  C   UNL A   1      36.320  21.077  25.692  1.00  0.00     0.223 C 
BRANCH   7   8
ATOM      8  N   UNL A   1      34.943  20.943  25.237  1.00  0.00    -0.316 N 
ATOM      9  C   UNL A   1      33.947  21.906  25.214  1.00  0.00     0.136 A 
ATOM     10  N   UNL A   1      32.879  21.439  24.588  1.00  0.00    -0.231 NA
ATOM     11  C   UNL A   1      33.154  20.138  24.267  1.00  0.00     0.089 A 
ATOM     12  C   UNL A   1      34.408  19.768  24.732  1.00  0.00     0.069 A 
ATOM     13  C   UNL A   1      32.374  19.204  23.569  1.00  0.00     0.030 A 
ATOM     14  C   UNL A   1      34.920  18.472  24.568  1.00  0.00     0.028 A 
ATOM     15  C   UNL A   1      32.885  17.917  23.358  1.00  0.00     0.002 A 
ATOM     16  C   UNL A   1      34.137  17.558  23.857  1.00  0.00     0.002 A 
BRANCH   9  17
ATOM     17  C   UNL A   1      33.998  23.268  25.842  1.00  0.00     0.235 C 
BRANCH  17  18
ATOM     18  O   UNL A   1      33.003  24.098  25.262  1.00  0.00    -0.377 OA
ATOM     19  C   UNL A   1      33.386  25.465  25.194  1.00  0.00     0.195 C 
ENDBRANCH  17  18
ENDBRANCH   9  17
ENDBRANCH   7   8
ENDBRANCH   4   7
ENDBRANCH   2   3
ENDBRANCH   1   2
BRANCH   1  20
ATOM     20  C   UNL A   1      40.474  20.487  25.910  1.00  0.00     0.023 C 
BRANCH  20  21
ATOM     21  C   UNL A   1      41.664  19.599  26.282  1.00  0.00     0.116 C 
BRANCH  21  22
ATOM     22  N   UNL A   1      42.779  19.686  25.359  1.00  0.00    -0.352 N 
ATOM     23  C   UNL A   1      43.739  20.615  25.090  1.00  0.00     0.251 C 
ATOM     24  H   UNL A   1      42.863  18.885  24.793  1.00  0.00     0.163 HD
ATOM     25  O   UNL A   1      44.612  20.273  24.281  1.00  0.00    -0.269 OA
BRANCH  23  26
ATOM     26  C   UNL A   1      43.778  21.992  25.639  1.00  0.00     0.039 A 
ATOM     27  C   UNL A   1      44.394  22.366  26.831  1.00  0.00     0.014 A 
ATOM     28  C   UNL A   1      43.069  22.967  24.909  1.00  0.00     0.014 A 
ATOM     29  C   UNL A   1      44.212  23.643  27.341  1.00  0.00     0.010 A 
ATOM     30  C   UNL A   1      42.905  24.254  25.402  1.00  0.00     0.010 A 
ATOM     31  C   UNL A   1      43.431  24.570  26.648  1.00  0.00    -0.014 A 
BRANCH  31  32
ATOM     32  C   UNL A   1      43.261  25.882  27.256  1.00  0.00     0.031 A 
ATOM     33  C   UNL A   1      44.345  26.857  26.949  1.00  0.00     0.074 A 
ATOM     34  C   UNL A   1      42.188  26.225  27.995  1.00  0.00     0.049 A 
ATOM     35  N   UNL A   1      45.187  27.396  27.769  1.00  0.00    -0.248 NA
ATOM     36  C   UNL A   1      44.597  27.176  25.536  1.00  0.00     0.031 C 
ATOM     37  C   UNL A   1      40.938  25.488  28.190  1.00  0.00     0.029 A 
ATOM     38  N   UNL A   1      41.970  27.380  28.681  1.00  0.00    -0.354 N 
ATOM     39  C   UNL A   1      45.968  28.262  27.006  1.00  0.00     0.074 A 
ATOM     40  C   UNL A   1      45.651  27.987  25.629  1.00  0.00     0.031 C 
ATOM     41  C   UNL A   1      40.018  26.309  28.745  1.00  0.00     0.029 A 
ATOM     42  C   UNL A   1      40.655  27.571  29.077  1.00  0.00     0.049 A 
ATOM     43  H   UNL A   1      42.686  28.026  28.879  1.00  0.00     0.167 HD
ATOM     44  C   UNL A   1      46.658  29.286  27.578  1.00  0.00     0.037 A 
ATOM     45  C   UNL A   1      40.123  28.709  29.589  1.00  0.00     0.037 A 
ATOM     46  C   UNL A   1      46.854  29.070  28.988  1.00  0.00     0.049 A 
ATOM     47  C   UNL A   1      41.238  29.533  30.115  1.00  0.00     0.074 A 
ATOM     48  C   UNL A   1      47.494  28.114  29.754  1.00  0.00     0.029 A 
ATOM     49  N   UNL A   1      46.058  29.766  29.864  1.00  0.00    -0.354 N 
ATOM     50  N   UNL A   1      41.938  29.219  31.168  1.00  0.00    -0.248 NA
ATOM     51  C   UNL A   1      41.868  30.481  29.207  1.00  0.00     0.031 C 
ATOM     52  C   UNL A   1      46.677  27.965  30.914  1.00  0.00     0.029 A 
ATOM     53  C   UNL A   1      45.622  28.871  30.803  1.00  0.00     0.049 A 
ATOM     54  H   UNL A   1      45.841  30.725  29.823  1.00  0.00     0.167 HD
ATOM     55  C   UNL A   1      43.240  29.570  30.844  1.00  0.00     0.074 A 
ATOM     56  C   UNL A   1      43.121  30.425  29.665  1.00  0.00     0.031 C 
ATOM     57  C   UNL A   1      44.304  28.912  31.389  1.00  0.00     0.037 A 
BRANCH  44  58
ATOM     58  C   UNL A   1      46.800  30.656  26.955  1.00  0.00     0.057 A 
ATOM     59  C   UNL A   1      45.713  31.499  26.651  1.00  0.00     0.134 A 
ATOM     60  C   UNL A   1      48.058  31.289  26.977  1.00  0.00     0.134 A 
ATOM     61  F   UNL A   1      44.448  31.065  26.635  1.00  0.00    -0.206 F 
ATOM     62  C   UNL A   1      45.854  32.874  26.448  1.00  0.00     0.040 A 
ATOM     63  C   UNL A   1      48.204  32.673  26.823  1.00  0.00     0.040 A 
ATOM     64  F   UNL A   1      49.174  30.596  27.245  1.00  0.00    -0.206 F 
ATOM     65  C   UNL A   1      47.097  33.473  26.576  1.00  0.00     0.006 A 
ENDBRANCH  44  58
BRANCH  45  66
ATOM     66  C   UNL A   1      38.767  29.258  29.379  1.00  0.00     0.057 A 
ATOM     67  C   UNL A   1      37.796  29.210  30.396  1.00  0.00     0.134 A 
ATOM     68  C   UNL A   1      38.302  29.590  28.100  1.00  0.00     0.134 A 
ATOM     69  F   UNL A   1      38.117  28.823  31.640  1.00  0.00    -0.206 F 
ATOM     70  C   UNL A   1      36.443  29.463  30.154  1.00  0.00     0.040 A 
ATOM     71  C   UNL A   1      36.947  29.841  27.842  1.00  0.00     0.040 A 
ATOM     72  F   UNL A   1      39.144  29.617  27.056  1.00  0.00    -0.206 F 
ATOM     73  C   UNL A   1      36.011  29.767  28.870  1.00  0.00     0.006 A 
ENDBRANCH  45  66
BRANCH  57  74
ATOM     74  C   UNL A   1      44.031  27.966  32.524  1.00  0.00     0.057 A 
ATOM     75  C   UNL A   1      44.091  28.449  33.835  1.00  0.00     0.134 A 
ATOM     76  C   UNL A   1      43.840  26.585  32.363  1.00  0.00     0.134 A 
ATOM     77  F   UNL A   1      44.332  29.749  34.066  1.00  0.00    -0.206 F 
ATOM     78  C   UNL A   1      43.946  27.604  34.937  1.00  0.00     0.040 A 
ATOM     79  C   UNL A   1      43.662  25.734  33.457  1.00  0.00     0.040 A 
ATOM     80  F   UNL A   1      43.874  26.017  31.151  1.00  0.00    -0.206 F 
ATOM     81  C   UNL A   1      43.718  26.243  34.751  1.00  0.00     0.006 A 
ENDBRANCH  57  74
ENDBRANCH  31  32
ENDBRANCH  23  26
ENDBRANCH  21  22
ENDBRANCH  20  21
ENDBRANCH   1  20
TORSDOF 14
ENDMDL
MODEL 2
REMARK VINA RESULT:     -10.7      0.748      2.058
REMARK SMILES COCc1nc2ccccc2n1CC(=O)NCCCCNC(=O)c1ccc(-c2c3nc(c(-c4c(F)cccc4F)c4ccc([nH]4)c(-c4c(F)cccc4F)c4nc(c(-c5c(F)cccc5F)c5ccc2[nH]5)C=C4)C=C3)cc1
REMARK SMILES IDX 18 1 17 2 16 3 14 4 15 5 13 7 12 8 4 9 5 10 6 11 11 12 7 13
REMARK SMILES IDX 10 14 8 15 9 16 3 17 2 18 1 19 19 20 20 21 21 22 22 23 23 25
REMARK SMILES IDX 24 26 25 27 77 28 26 29 76 30 27 31 28 32 29 33 70 34 30 35
REMARK SMILES IDX 75 36 69 37 71 38 31 39 74 40 68 41 67 42 32 44 58 45 41 46
REMARK SMILES IDX 57 47 42 48 45 49 56 50 72 51 43 52 44 53 55 55 73 56 46 57
REMARK SMILES IDX 33 58 34 59 39 60 35 61 36 62 38 63 40 64 37 65 59 66 60 67
REMARK SMILES IDX 65 68 61 69 62 70 64 71 66 72 63 73 47 74 48 75 53 76 49 77
REMARK SMILES IDX 50 78 52 79 54 80 51 81
REMARK H PARENT 16 6 21 24 71 43 45 54
REMARK Flexibility Score: inf
ROOT
ATOM      1  C   UNL A   1      40.036  21.511  26.895  1.00  0.00     0.023 C 
ENDROOT
BRANCH   1   2
ATOM      2  C   UNL A   1      38.980  22.477  26.376  1.00  0.00     0.116 C 
BRANCH   2   3
ATOM      3  N   UNL A   1      38.426  22.099  25.096  1.00  0.00    -0.355 N 
ATOM      4  C   UNL A   1      37.125  21.862  24.766  1.00  0.00     0.240 C 
ATOM      5  O   UNL A   1      36.806  22.053  23.587  1.00  0.00    -0.273 OA
ATOM      6  H   UNL A   1      39.076  21.999  24.363  1.00  0.00     0.163 HD
BRANCH   4   7
ATOM      7  C   UNL A   1      36.068  21.494  25.794  1.00  0.00     0.223 C 
BRANCH   7   8
ATOM      8  N   UNL A   1      34.701  21.898  25.494  1.00  0.00    -0.316 N 
ATOM      9  C   UNL A   1      33.613  21.095  25.195  1.00  0.00     0.136 A 
ATOM     10  N   UNL A   1      32.512  21.827  25.135  1.00  0.00    -0.231 NA
ATOM     11  C   UNL A   1      32.897  23.126  25.324  1.00  0.00     0.089 A 
ATOM     12  C   UNL A   1      34.274  23.216  25.470  1.00  0.00     0.069 A 
ATOM     13  C   UNL A   1      32.119  24.291  25.387  1.00  0.00     0.030 A 
ATOM     14  C   UNL A   1      34.934  24.444  25.639  1.00  0.00     0.028 A 
ATOM     15  C   UNL A   1      32.755  25.521  25.598  1.00  0.00     0.002 A 
ATOM     16  C   UNL A   1      34.142  25.593  25.715  1.00  0.00     0.002 A 
BRANCH   9  17
ATOM     17  C   UNL A   1      33.633  19.622  24.910  1.00  0.00     0.235 C 
BRANCH  17  18
ATOM     18  O   UNL A   1      32.567  18.988  25.602  1.00  0.00    -0.377 OA
ATOM     19  C   UNL A   1      32.547  17.578  25.427  1.00  0.00     0.195 C 
ENDBRANCH  17  18
ENDBRANCH   9  17
ENDBRANCH   7   8
ENDBRANCH   4   7
ENDBRANCH   2   3
ENDBRANCH   1   2
BRANCH   1  20
ATOM     20  C   UNL A   1      40.447  20.411  25.908  1.00  0.00     0.023 C 
BRANCH  20  21
ATOM     21  C   UNL A   1      41.657  19.576  26.334  1.00  0.00     0.116 C 
BRANCH  21  22
ATOM     22  N   UNL A   1      42.780  19.650  25.419  1.00  0.00    -0.352 N 
ATOM     23  C   UNL A   1      43.745  20.572  25.147  1.00  0.00     0.251 C 
ATOM     24  H   UNL A   1      42.865  18.842  24.863  1.00  0.00     0.163 HD
ATOM     25  O   UNL A   1      44.622  20.219  24.349  1.00  0.00    -0.269 OA
BRANCH  23  26
ATOM     26  C   UNL A   1      43.783  21.955  25.682  1.00  0.00     0.039 A 
ATOM     27  C   UNL A   1      44.454  22.354  26.836  1.00  0.00     0.014 A 
ATOM     28  C   UNL A   1      43.016  22.908  24.983  1.00  0.00     0.014 A 
ATOM     29  C   UNL A   1      44.273  23.631  27.344  1.00  0.00     0.010 A 
ATOM     30  C   UNL A   1      42.851  24.196  25.473  1.00  0.00     0.010 A 
ATOM     31  C   UNL A   1      43.437  24.535  26.686  1.00  0.00    -0.014 A 
BRANCH  31  32
ATOM     32  C   UNL A   1      43.271  25.849  27.291  1.00  0.00     0.031 A 
ATOM     33  C   UNL A   1      44.354  26.822  26.975  1.00  0.00     0.074 A 
ATOM     34  C   UNL A   1      42.204  26.195  28.036  1.00  0.00     0.049 A 
ATOM     35  N   UNL A   1      45.202  27.363  27.787  1.00  0.00    -0.248 NA
ATOM     36  C   UNL A   1      44.597  27.137  25.559  1.00  0.00     0.031 C 
ATOM     37  C   UNL A   1      40.954  25.460  28.241  1.00  0.00     0.029 A 
ATOM     38  N   UNL A   1      41.991  27.353  28.720  1.00  0.00    -0.354 N 
ATOM     39  C   UNL A   1      45.978  28.226  27.017  1.00  0.00     0.074 A 
ATOM     40  C   UNL A   1      45.652  27.947  25.643  1.00  0.00     0.031 C 
ATOM     41  C   UNL A   1      40.038  26.283  28.800  1.00  0.00     0.029 A 
ATOM     42  C   UNL A   1      40.679  27.546  29.124  1.00  0.00     0.049 A 
ATOM     43  H   UNL A   1      42.709  27.998  28.911  1.00  0.00     0.167 HD
ATOM     44  C   UNL A   1      46.673  29.252  27.581  1.00  0.00     0.037 A 
ATOM     45  C   UNL A   1      40.151  28.685  29.636  1.00  0.00     0.037 A 
ATOM     46  C   UNL A   1      46.878  29.040  28.990  1.00  0.00     0.049 A 
ATOM     47  C   UNL A   1      41.270  29.510  30.152  1.00  0.00     0.074 A 
ATOM     48  C   UNL A   1      47.521  28.085  29.755  1.00  0.00     0.029 A 
ATOM     49  N   UNL A   1      46.088  29.739  29.869  1.00  0.00    -0.354 N 
ATOM     50  N   UNL A   1      41.976  29.199  31.202  1.00  0.00    -0.248 NA
ATOM     51  C   UNL A   1      41.894  30.455  29.237  1.00  0.00     0.031 C 
ATOM     52  C   UNL A   1      46.712  27.940  30.921  1.00  0.00     0.029 A 
ATOM     53  C   UNL A   1      45.657  28.847  30.814  1.00  0.00     0.049 A 
ATOM     54  H   UNL A   1      45.872  30.698  29.827  1.00  0.00     0.167 HD
ATOM     55  C   UNL A   1      43.276  29.549  30.868  1.00  0.00     0.074 A 
ATOM     56  C   UNL A   1      43.150  30.399  29.687  1.00  0.00     0.031 C 
ATOM     57  C   UNL A   1      44.343  28.890  31.408  1.00  0.00     0.037 A 
BRANCH  44  58
ATOM     58  C   UNL A   1      46.812  30.619  26.953  1.00  0.00     0.057 A 
ATOM     59  C   UNL A   1      45.724  31.464  26.659  1.00  0.00     0.134 A 
ATOM     60  C   UNL A   1      48.072  31.249  26.959  1.00  0.00     0.134 A 
ATOM     61  F   UNL A   1      44.457  31.035  26.657  1.00  0.00    -0.206 F 
ATOM     62  C   UNL A   1      45.867  32.839  26.451  1.00  0.00     0.040 A 
ATOM     63  C   UNL A   1      48.221  32.632  26.801  1.00  0.00     0.040 A 
ATOM     64  F   UNL A   1      49.189  30.553  27.217  1.00  0.00    -0.206 F 
ATOM     65  C   UNL A   1      47.112  33.434  26.563  1.00  0.00     0.006 A 
ENDBRANCH  44  58
BRANCH  45  66
ATOM     66  C   UNL A   1      38.794  29.235  29.433  1.00  0.00     0.057 A 
ATOM     67  C   UNL A   1      37.822  29.170  30.448  1.00  0.00     0.134 A 
ATOM     68  C   UNL A   1      38.329  29.586  28.158  1.00  0.00     0.134 A 
ATOM     69  F   UNL A   1      38.142  28.766  31.686  1.00  0.00    -0.206 F 
ATOM     70  C   UNL A   1      36.469  29.424  30.208  1.00  0.00     0.040 A 
ATOM     71  C   UNL A   1      36.974  29.838  27.902  1.00  0.00     0.040 A 
ATOM     72  F   UNL A   1      39.171  29.629  27.116  1.00  0.00    -0.206 F 
ATOM     73  C   UNL A   1      36.037  29.747  28.929  1.00  0.00     0.006 A 
ENDBRANCH  45  66
BRANCH  57  74
ATOM     74  C   UNL A   1      44.077  27.949  32.547  1.00  0.00     0.057 A 
ATOM     75  C   UNL A   1      44.155  28.433  33.857  1.00  0.00     0.134 A 
ATOM     76  C   UNL A   1      43.874  26.569  32.391  1.00  0.00     0.134 A 
ATOM     77  F   UNL A   1      44.408  29.732  34.083  1.00  0.00    -0.206 F 
ATOM     78  C   UNL A   1      44.017  27.590  34.962  1.00  0.00     0.040 A 
ATOM     79  C   UNL A   1      43.702  25.721  33.488  1.00  0.00     0.040 A 
ATOM     80  F   UNL A   1      43.890  25.999  31.180  1.00  0.00    -0.206 F 
ATOM     81  C   UNL A   1      43.777  26.231  34.780  1.00  0.00     0.006 A 
ENDBRANCH  57  74
ENDBRANCH  31  32
ENDBRANCH  23  26
ENDBRANCH  21  22
ENDBRANCH  20  21
ENDBRANCH   1  20
TORSDOF 14
ENDMDL
MODEL 3
REMARK VINA RESULT:     -10.6      2.211      3.017
REMARK SMILES COCc1nc2ccccc2n1CC(=O)NCCCCNC(=O)c1ccc(-c2c3nc(c(-c4c(F)cccc4F)c4ccc([nH]4)c(-c4c(F)cccc4F)c4nc(c(-c5c(F)cccc5F)c5ccc2[nH]5)C=C4)C=C3)cc1
REMARK SMILES IDX 18 1 17 2 16 3 14 4 15 5 13 7 12 8 4 9 5 10 6 11 11 12 7 13
REMARK SMILES IDX 10 14 8 15 9 16 3 17 2 18 1 19 19 20 20 21 21 22 22 23 23 25
REMARK SMILES IDX 24 26 25 27 77 28 26 29 76 30 27 31 28 32 29 33 70 34 30 35
REMARK SMILES IDX 75 36 69 37 71 38 31 39 74 40 68 41 67 42 32 44 58 45 41 46
REMARK SMILES IDX 57 47 42 48 45 49 56 50 72 51 43 52 44 53 55 55 73 56 46 57
REMARK SMILES IDX 33 58 34 59 39 60 35 61 36 62 38 63 40 64 37 65 59 66 60 67
REMARK SMILES IDX 65 68 61 69 62 70 64 71 66 72 63 73 47 74 48 75 53 76 49 77
REMARK SMILES IDX 50 78 52 79 54 80 51 81
REMARK H PARENT 16 6 21 24 71 43 45 54
REMARK Flexibility Score: inf
ROOT
ATOM      1  C   UNL A   1      39.072  23.123  26.771  1.00  0.00     0.023 C 
ENDROOT
BRANCH   1   2
ATOM      2  C   UNL A   1      37.758  23.631  26.193  1.00  0.00     0.116 C 
BRANCH   2   3
ATOM      3  N   UNL A   1      37.456  23.099  24.883  1.00  0.00    -0.355 N 
ATOM      4  C   UNL A   1      36.450  22.255  24.518  1.00  0.00     0.240 C 
ATOM      5  O   UNL A   1      36.063  22.326  23.346  1.00  0.00    -0.273 OA
ATOM      6  H   UNL A   1      38.058  23.384  24.158  1.00  0.00     0.163 HD
BRANCH   4   7
ATOM      7  C   UNL A   1      35.738  21.345  25.504  1.00  0.00     0.223 C 
BRANCH   7   8
ATOM      8  N   UNL A   1      34.439  20.829  25.093  1.00  0.00    -0.316 N 
ATOM      9  C   UNL A   1      33.223  21.491  25.057  1.00  0.00     0.136 A 
ATOM     10  N   UNL A   1      32.308  20.729  24.481  1.00  0.00    -0.231 NA
ATOM     11  C   UNL A   1      32.915  19.533  24.206  1.00  0.00     0.089 A 
ATOM     12  C   UNL A   1      34.229  19.532  24.651  1.00  0.00     0.069 A 
ATOM     13  C   UNL A   1      32.401  18.394  23.569  1.00  0.00     0.030 A 
ATOM     14  C   UNL A   1      35.065  18.411  24.527  1.00  0.00     0.028 A 
ATOM     15  C   UNL A   1      33.234  17.280  23.397  1.00  0.00     0.002 A 
ATOM     16  C   UNL A   1      34.543  17.290  23.876  1.00  0.00     0.002 A 
BRANCH   9  17
ATOM     17  C   UNL A   1      32.918  22.846  25.628  1.00  0.00     0.235 C 
BRANCH  17  18
ATOM     18  O   UNL A   1      32.219  22.700  26.854  1.00  0.00    -0.377 OA
ATOM     19  C   UNL A   1      33.075  22.441  27.959  1.00  0.00     0.195 C 
ENDBRANCH  17  18
ENDBRANCH   9  17
ENDBRANCH   7   8
ENDBRANCH   4   7
ENDBRANCH   2   3
ENDBRANCH   1   2
BRANCH   1  20
ATOM     20  C   UNL A   1      39.660  21.897  26.061  1.00  0.00     0.023 C 
BRANCH  20  21
ATOM     21  C   UNL A   1      41.125  21.597  26.390  1.00  0.00     0.116 C 
BRANCH  21  22
ATOM     22  N   UNL A   1      42.074  22.231  25.495  1.00  0.00    -0.352 N 
ATOM     23  C   UNL A   1      42.624  23.473  25.394  1.00  0.00     0.251 C 
ATOM     24  H   UNL A   1      42.398  21.618  24.796  1.00  0.00     0.163 HD
ATOM     25  O   UNL A   1      43.506  23.606  24.535  1.00  0.00    -0.269 OA
BRANCH  23  26
ATOM     26  C   UNL A   1      42.210  24.660  26.179  1.00  0.00     0.039 A 
ATOM     27  C   UNL A   1      41.408  25.698  25.708  1.00  0.00     0.014 A 
ATOM     28  C   UNL A   1      42.740  24.754  27.482  1.00  0.00     0.014 A 
ATOM     29  C   UNL A   1      41.233  26.846  26.464  1.00  0.00     0.010 A 
ATOM     30  C   UNL A   1      42.547  25.891  28.255  1.00  0.00     0.010 A 
ATOM     31  C   UNL A   1      41.840  26.959  27.717  1.00  0.00    -0.014 A 
BRANCH  31  32
ATOM     32  C   UNL A   1      41.637  28.204  28.445  1.00  0.00     0.031 A 
ATOM     33  C   UNL A   1      42.721  29.211  28.273  1.00  0.00     0.074 A 
ATOM     34  C   UNL A   1      40.537  28.465  29.177  1.00  0.00     0.049 A 
ATOM     35  N   UNL A   1      43.530  29.672  29.170  1.00  0.00    -0.248 NA
ATOM     36  C   UNL A   1      43.017  29.669  26.907  1.00  0.00     0.031 C 
ATOM     37  C   UNL A   1      39.288  27.705  29.255  1.00  0.00     0.029 A 
ATOM     38  N   UNL A   1      40.285  29.546  29.966  1.00  0.00    -0.354 N 
ATOM     39  C   UNL A   1      44.328  30.613  28.523  1.00  0.00     0.074 A 
ATOM     40  C   UNL A   1      44.060  30.474  27.116  1.00  0.00     0.031 C 
ATOM     41  C   UNL A   1      38.342  28.461  29.857  1.00  0.00     0.029 A 
ATOM     42  C   UNL A   1      38.956  29.689  30.333  1.00  0.00     0.049 A 
ATOM     43  H   UNL A   1      40.988  30.174  30.250  1.00  0.00     0.167 HD
ATOM     44  C   UNL A   1      44.989  31.581  29.217  1.00  0.00     0.037 A 
ATOM     45  C   UNL A   1      38.396  30.767  30.936  1.00  0.00     0.037 A 
ATOM     46  C   UNL A   1      45.139  31.228  30.604  1.00  0.00     0.049 A 
ATOM     47  C   UNL A   1      39.485  31.542  31.578  1.00  0.00     0.074 A 
ATOM     48  C   UNL A   1      45.762  30.205  31.294  1.00  0.00     0.029 A 
ATOM     49  N   UNL A   1      44.307  31.829  31.516  1.00  0.00    -0.354 N 
ATOM     50  N   UNL A   1      40.152  31.130  32.619  1.00  0.00    -0.248 NA
ATOM     51  C   UNL A   1      40.135  32.579  30.789  1.00  0.00     0.031 C 
ATOM     52  C   UNL A   1      44.908  29.937  32.405  1.00  0.00     0.029 A 
ATOM     53  C   UNL A   1      43.849  30.843  32.348  1.00  0.00     0.049 A 
ATOM     54  H   UNL A   1      44.083  32.787  31.563  1.00  0.00     0.167 HD
ATOM     55  C   UNL A   1      41.460  31.520  32.376  1.00  0.00     0.074 A 
ATOM     56  C   UNL A   1      41.373  32.486  31.283  1.00  0.00     0.031 C 
ATOM     57  C   UNL A   1      42.512  30.818  32.889  1.00  0.00     0.037 A 
BRANCH  44  58
ATOM     58  C   UNL A   1      45.138  33.006  28.737  1.00  0.00     0.057 A 
ATOM     59  C   UNL A   1      44.067  33.915  28.622  1.00  0.00     0.134 A 
ATOM     60  C   UNL A   1      46.420  33.590  28.717  1.00  0.00     0.134 A 
ATOM     61  F   UNL A   1      42.787  33.530  28.670  1.00  0.00    -0.206 F 
ATOM     62  C   UNL A   1      44.251  35.299  28.559  1.00  0.00     0.040 A 
ATOM     63  C   UNL A   1      46.614  34.976  28.703  1.00  0.00     0.040 A 
ATOM     64  F   UNL A   1      47.523  32.832  28.810  1.00  0.00    -0.206 F 
ATOM     65  C   UNL A   1      45.525  35.836  28.642  1.00  0.00     0.006 A 
ENDBRANCH  44  58
BRANCH  45  66
ATOM     66  C   UNL A   1      37.042  31.326  30.735  1.00  0.00     0.057 A 
ATOM     67  C   UNL A   1      36.686  31.955  29.528  1.00  0.00     0.134 A 
ATOM     68  C   UNL A   1      36.159  31.507  31.806  1.00  0.00     0.134 A 
ATOM     69  F   UNL A   1      37.499  31.916  28.462  1.00  0.00    -0.206 F 
ATOM     70  C   UNL A   1      35.529  32.728  29.398  1.00  0.00     0.040 A 
ATOM     71  C   UNL A   1      34.997  32.284  31.692  1.00  0.00     0.040 A 
ATOM     72  F   UNL A   1      36.435  30.986  33.011  1.00  0.00    -0.206 F 
ATOM     73  C   UNL A   1      34.685  32.906  30.486  1.00  0.00     0.006 A 
ENDBRANCH  45  66
BRANCH  57  74
ATOM     74  C   UNL A   1      42.210  29.763  33.915  1.00  0.00     0.057 A 
ATOM     75  C   UNL A   1      42.396  30.064  35.268  1.00  0.00     0.134 A 
ATOM     76  C   UNL A   1      41.868  28.439  33.600  1.00  0.00     0.134 A 
ATOM     77  F   UNL A   1      42.784  31.294  35.640  1.00  0.00    -0.206 F 
ATOM     78  C   UNL A   1      42.230  29.100  36.266  1.00  0.00     0.040 A 
ATOM     79  C   UNL A   1      41.667  27.474  34.591  1.00  0.00     0.040 A 
ATOM     80  F   UNL A   1      41.772  28.032  32.328  1.00  0.00    -0.206 F 
ATOM     81  C   UNL A   1      41.852  27.803  35.930  1.00  0.00     0.006 A 
ENDBRANCH  57  74
ENDBRANCH  31  32
ENDBRANCH  23  26
ENDBRANCH  21  22
ENDBRANCH  20  21
ENDBRANCH   1  20
TORSDOF 14
ENDMDL
