MODEL 1
REMARK VINA RESULT:     -10.3      0.000      0.000
REMARK SMILES CCCCCC[C@@H](C(=O)NCCCCNC(=O)c1ccc(-c2c3nc(c(-c4c(F)cccc4F)c4ccc([nH]4)c(-c4c(F)cccc4F)c4nc(c(-c5c(F)cccc5F)c5ccc2[nH]5)C=C4)C=C3)cc1)c1ccccc1C
REMARK SMILES IDX 11 1 10 2 8 3 9 4 7 6 6 7 5 8 4 9 3 10 2 11 1 12 72 13 73 14
REMARK SMILES IDX 77 15 74 16 76 17 78 18 75 19 12 20 13 21 14 22 15 23 16 24
REMARK SMILES IDX 17 26 18 27 19 28 71 29 20 30 70 31 21 32 22 33 23 34 64 35
REMARK SMILES IDX 24 36 69 37 63 38 65 39 25 40 68 41 62 42 61 43 26 45 52 46
REMARK SMILES IDX 35 47 51 48 36 49 39 50 50 51 66 52 37 53 38 54 49 56 67 57
REMARK SMILES IDX 40 58 27 59 28 60 33 61 29 62 30 63 32 64 34 65 31 66 53 67
REMARK SMILES IDX 54 68 59 69 55 70 56 71 58 72 60 73 57 74 41 75 42 76 47 77
REMARK SMILES IDX 43 78 44 79 46 80 48 81 45 82
REMARK H PARENT 10 5 15 25 65 44 39 55
REMARK Flexibility Score: inf
ROOT
ATOM      1  C   UNL A   1      37.564  23.391  25.796  1.00  0.00     0.116 C 
ENDROOT
BRANCH   1   2
ATOM      2  N   UNL A   1      37.430  23.419  24.355  1.00  0.00    -0.356 N 
ATOM      3  C   UNL A   1      36.331  23.249  23.561  1.00  0.00     0.227 C 
ATOM      4  O   UNL A   1      36.559  22.991  22.376  1.00  0.00    -0.274 OA
ATOM      5  H   UNL A   1      38.268  23.590  23.866  1.00  0.00     0.163 HD
BRANCH   3   6
ATOM      6  C   UNL A   1      34.893  23.427  24.110  1.00  0.00     0.109 C 
BRANCH   6   7
ATOM      7  C   UNL A   1      34.855  24.136  25.495  1.00  0.00     0.018 C 
BRANCH   7   8
ATOM      8  C   UNL A   1      33.697  25.072  25.825  1.00  0.00     0.001 C 
BRANCH   8   9
ATOM      9  C   UNL A   1      32.586  24.489  26.702  1.00  0.00     0.000 C 
BRANCH   9  10
ATOM     10  C   UNL A   1      31.296  24.158  25.947  1.00  0.00    -0.000 C 
BRANCH  10  11
ATOM     11  C   UNL A   1      30.712  22.765  26.209  1.00  0.00    -0.003 C 
ATOM     12  C   UNL A   1      29.534  22.757  27.173  1.00  0.00     0.004 C 
ENDBRANCH  10  11
ENDBRANCH   9  10
ENDBRANCH   8   9
ENDBRANCH   7   8
ENDBRANCH   6   7
BRANCH   6  13
ATOM     13  C   UNL A   1      34.209  22.033  24.178  1.00  0.00    -0.033 A 
ATOM     14  C   UNL A   1      34.860  20.953  24.820  1.00  0.00     0.005 A 
ATOM     15  C   UNL A   1      32.964  21.772  23.559  1.00  0.00    -0.047 A 
ATOM     16  C   UNL A   1      34.295  19.680  24.889  1.00  0.00     0.000 A 
ATOM     17  C   UNL A   1      32.418  20.471  23.620  1.00  0.00     0.004 A 
ATOM     18  C   UNL A   1      32.212  22.780  22.732  1.00  0.00     0.044 C 
ATOM     19  C   UNL A   1      33.071  19.438  24.289  1.00  0.00     0.000 A 
ENDBRANCH   6  13
ENDBRANCH   3   6
ENDBRANCH   1   2
BRANCH   1  20
ATOM     20  C   UNL A   1      38.781  22.544  26.189  1.00  0.00     0.023 C 
BRANCH  20  21
ATOM     21  C   UNL A   1      38.886  21.191  25.503  1.00  0.00     0.023 C 
BRANCH  21  22
ATOM     22  C   UNL A   1      39.386  20.076  26.401  1.00  0.00     0.116 C 
BRANCH  22  23
ATOM     23  N   UNL A   1      40.520  19.341  25.857  1.00  0.00    -0.352 N 
ATOM     24  C   UNL A   1      41.844  19.724  25.813  1.00  0.00     0.251 C 
ATOM     25  H   UNL A   1      40.316  18.459  25.471  1.00  0.00     0.163 HD
ATOM     26  O   UNL A   1      42.678  19.029  25.255  1.00  0.00    -0.269 OA
BRANCH  24  27
ATOM     27  C   UNL A   1      42.228  21.021  26.414  1.00  0.00     0.039 A 
ATOM     28  C   UNL A   1      42.543  22.089  25.573  1.00  0.00     0.014 A 
ATOM     29  C   UNL A   1      42.205  21.193  27.800  1.00  0.00     0.014 A 
ATOM     30  C   UNL A   1      42.773  23.350  26.124  1.00  0.00     0.010 A 
ATOM     31  C   UNL A   1      42.320  22.467  28.336  1.00  0.00     0.010 A 
ATOM     32  C   UNL A   1      42.630  23.555  27.507  1.00  0.00    -0.014 A 
BRANCH  32  33
ATOM     33  C   UNL A   1      42.857  24.888  28.114  1.00  0.00     0.031 A 
ATOM     34  C   UNL A   1      44.242  25.280  28.553  1.00  0.00     0.074 A 
ATOM     35  C   UNL A   1      41.817  25.721  28.317  1.00  0.00     0.049 A 
ATOM     36  N   UNL A   1      44.647  26.384  29.128  1.00  0.00    -0.248 NA
ATOM     37  C   UNL A   1      45.308  24.283  28.360  1.00  0.00     0.031 C 
ATOM     38  C   UNL A   1      40.417  25.424  28.008  1.00  0.00     0.029 A 
ATOM     39  N   UNL A   1      41.782  26.991  28.833  1.00  0.00    -0.354 N 
ATOM     40  C   UNL A   1      46.001  26.201  29.380  1.00  0.00     0.074 A 
ATOM     41  C   UNL A   1      46.333  24.857  28.969  1.00  0.00     0.031 C 
ATOM     42  C   UNL A   1      39.666  26.499  28.301  1.00  0.00     0.029 A 
ATOM     43  C   UNL A   1      40.526  27.548  28.839  1.00  0.00     0.049 A 
ATOM     44  H   UNL A   1      42.580  27.459  29.168  1.00  0.00     0.167 HD
ATOM     45  C   UNL A   1      46.898  27.085  29.872  1.00  0.00     0.037 A 
ATOM     46  C   UNL A   1      40.122  28.774  29.222  1.00  0.00     0.037 A 
ATOM     47  C   UNL A   1      46.575  28.439  30.234  1.00  0.00     0.049 A 
ATOM     48  C   UNL A   1      41.145  29.757  29.718  1.00  0.00     0.074 A 
ATOM     49  C   UNL A   1      47.421  29.441  30.675  1.00  0.00     0.029 A 
ATOM     50  N   UNL A   1      45.299  28.980  30.182  1.00  0.00    -0.354 N 
ATOM     51  N   UNL A   1      42.438  29.599  29.875  1.00  0.00    -0.248 NA
ATOM     52  C   UNL A   1      40.657  31.096  30.074  1.00  0.00     0.031 C 
ATOM     53  C   UNL A   1      46.650  30.582  30.920  1.00  0.00     0.029 A 
ATOM     54  C   UNL A   1      45.332  30.301  30.594  1.00  0.00     0.049 A 
ATOM     55  H   UNL A   1      44.491  28.497  29.897  1.00  0.00     0.167 HD
ATOM     56  C   UNL A   1      42.921  30.822  30.322  1.00  0.00     0.074 A 
ATOM     57  C   UNL A   1      41.783  31.718  30.392  1.00  0.00     0.031 C 
ATOM     58  C   UNL A   1      44.188  31.174  30.649  1.00  0.00     0.037 A 
BRANCH  45  59
ATOM     59  C   UNL A   1      48.315  26.614  30.023  1.00  0.00     0.057 A 
ATOM     60  C   UNL A   1      48.756  25.962  31.183  1.00  0.00     0.134 A 
ATOM     61  C   UNL A   1      49.250  26.810  29.000  1.00  0.00     0.134 A 
ATOM     62  F   UNL A   1      47.915  25.759  32.210  1.00  0.00    -0.206 F 
ATOM     63  C   UNL A   1      50.082  25.554  31.335  1.00  0.00     0.040 A 
ATOM     64  C   UNL A   1      50.572  26.381  29.127  1.00  0.00     0.040 A 
ATOM     65  F   UNL A   1      48.896  27.425  27.861  1.00  0.00    -0.206 F 
ATOM     66  C   UNL A   1      50.993  25.758  30.301  1.00  0.00     0.006 A 
ENDBRANCH  45  59
BRANCH  46  67
ATOM     67  C   UNL A   1      38.695  29.162  29.098  1.00  0.00     0.057 A 
ATOM     68  C   UNL A   1      37.836  29.109  30.203  1.00  0.00     0.134 A 
ATOM     69  C   UNL A   1      38.151  29.584  27.879  1.00  0.00     0.134 A 
ATOM     70  F   UNL A   1      38.295  28.697  31.394  1.00  0.00    -0.206 F 
ATOM     71  C   UNL A   1      36.484  29.438  30.096  1.00  0.00     0.040 A 
ATOM     72  C   UNL A   1      36.806  29.938  27.763  1.00  0.00     0.040 A 
ATOM     73  F   UNL A   1      38.924  29.666  26.786  1.00  0.00    -0.206 F 
ATOM     74  C   UNL A   1      35.966  29.857  28.873  1.00  0.00     0.006 A 
ENDBRANCH  46  67
BRANCH  58  75
ATOM     75  C   UNL A   1      44.410  32.593  31.081  1.00  0.00     0.057 A 
ATOM     76  C   UNL A   1      44.687  33.610  30.159  1.00  0.00     0.134 A 
ATOM     77  C   UNL A   1      44.321  32.948  32.433  1.00  0.00     0.134 A 
ATOM     78  F   UNL A   1      44.797  33.331  28.851  1.00  0.00    -0.206 F 
ATOM     79  C   UNL A   1      44.897  34.926  30.570  1.00  0.00     0.040 A 
ATOM     80  C   UNL A   1      44.502  34.265  32.852  1.00  0.00     0.040 A 
ATOM     81  F   UNL A   1      44.048  32.022  33.364  1.00  0.00    -0.206 F 
ATOM     82  C   UNL A   1      44.798  35.258  31.920  1.00  0.00     0.006 A 
ENDBRANCH  58  75
ENDBRANCH  32  33
ENDBRANCH  24  27
ENDBRANCH  22  23
ENDBRANCH  21  22
ENDBRANCH  20  21
ENDBRANCH   1  20
TORSDOF 17
ENDMDL
MODEL 2
REMARK VINA RESULT:     -10.2      3.950      8.870
REMARK SMILES CCCCCC[C@@H](C(=O)NCCCCNC(=O)c1ccc(-c2c3nc(c(-c4c(F)cccc4F)c4ccc([nH]4)c(-c4c(F)cccc4F)c4nc(c(-c5c(F)cccc5F)c5ccc2[nH]5)C=C4)C=C3)cc1)c1ccccc1C
REMARK SMILES IDX 11 1 10 2 8 3 9 4 7 6 6 7 5 8 4 9 3 10 2 11 1 12 72 13 73 14
REMARK SMILES IDX 77 15 74 16 76 17 78 18 75 19 12 20 13 21 14 22 15 23 16 24
REMARK SMILES IDX 17 26 18 27 19 28 71 29 20 30 70 31 21 32 22 33 23 34 64 35
REMARK SMILES IDX 24 36 69 37 63 38 65 39 25 40 68 41 62 42 61 43 26 45 52 46
REMARK SMILES IDX 35 47 51 48 36 49 39 50 50 51 66 52 37 53 38 54 49 56 67 57
REMARK SMILES IDX 40 58 27 59 28 60 33 61 29 62 30 63 32 64 34 65 31 66 53 67
REMARK SMILES IDX 54 68 59 69 55 70 56 71 58 72 60 73 57 74 41 75 42 76 47 77
REMARK SMILES IDX 43 78 44 79 46 80 48 81 45 82
REMARK H PARENT 10 5 15 25 65 44 39 55
REMARK Flexibility Score: inf
ROOT
ATOM      1  C   UNL A   1      34.076  29.427  27.017  1.00  0.00     0.116 C 
ENDROOT
BRANCH   1   2
ATOM      2  N   UNL A   1      32.960  28.875  27.754  1.00  0.00    -0.356 N 
ATOM      3  C   UNL A   1      32.034  27.938  27.394  1.00  0.00     0.227 C 
ATOM      4  O   UNL A   1      31.009  27.902  28.082  1.00  0.00    -0.274 OA
ATOM      5  H   UNL A   1      32.851  29.232  28.665  1.00  0.00     0.163 HD
BRANCH   3   6
ATOM      6  C   UNL A   1      32.286  26.947  26.229  1.00  0.00     0.109 C 
BRANCH   6   7
ATOM      7  C   UNL A   1      33.794  26.796  25.876  1.00  0.00     0.018 C 
BRANCH   7   8
ATOM      8  C   UNL A   1      34.299  25.476  25.301  1.00  0.00     0.001 C 
BRANCH   8   9
ATOM      9  C   UNL A   1      34.128  25.289  23.791  1.00  0.00     0.000 C 
BRANCH   9  10
ATOM     10  C   UNL A   1      32.989  24.344  23.400  1.00  0.00    -0.000 C 
BRANCH  10  11
ATOM     11  C   UNL A   1      32.048  24.857  22.304  1.00  0.00    -0.003 C 
ATOM     12  C   UNL A   1      32.662  25.921  21.406  1.00  0.00     0.004 C 
ENDBRANCH  10  11
ENDBRANCH   9  10
ENDBRANCH   8   9
ENDBRANCH   7   8
ENDBRANCH   6   7
BRANCH   6  13
ATOM     13  C   UNL A   1      31.468  27.413  24.992  1.00  0.00    -0.033 A 
ATOM     14  C   UNL A   1      31.915  28.510  24.217  1.00  0.00     0.005 A 
ATOM     15  C   UNL A   1      30.236  26.818  24.634  1.00  0.00    -0.047 A 
ATOM     16  C   UNL A   1      31.205  28.976  23.111  1.00  0.00     0.000 A 
ATOM     17  C   UNL A   1      29.520  27.318  23.524  1.00  0.00     0.004 A 
ATOM     18  C   UNL A   1      29.567  25.731  25.432  1.00  0.00     0.044 C 
ATOM     19  C   UNL A   1      30.006  28.379  22.763  1.00  0.00     0.000 A 
ENDBRANCH   6  13
ENDBRANCH   3   6
ENDBRANCH   1   2
BRANCH   1  20
ATOM     20  C   UNL A   1      34.322  30.877  27.455  1.00  0.00     0.023 C 
BRANCH  20  21
ATOM     21  C   UNL A   1      33.073  31.705  27.710  1.00  0.00     0.023 C 
BRANCH  21  22
ATOM     22  C   UNL A   1      33.121  33.100  27.119  1.00  0.00     0.116 C 
BRANCH  22  23
ATOM     23  N   UNL A   1      32.625  34.139  28.012  1.00  0.00    -0.352 N 
ATOM     24  C   UNL A   1      33.215  34.633  29.156  1.00  0.00     0.251 C 
ATOM     25  H   UNL A   1      31.760  34.540  27.768  1.00  0.00     0.163 HD
ATOM     26  O   UNL A   1      32.642  35.460  29.848  1.00  0.00    -0.269 OA
BRANCH  24  27
ATOM     27  C   UNL A   1      34.538  34.106  29.557  1.00  0.00     0.039 A 
ATOM     28  C   UNL A   1      34.617  33.231  30.642  1.00  0.00     0.014 A 
ATOM     29  C   UNL A   1      35.680  34.421  28.818  1.00  0.00     0.014 A 
ATOM     30  C   UNL A   1      35.835  32.622  30.944  1.00  0.00     0.010 A 
ATOM     31  C   UNL A   1      36.860  33.729  29.047  1.00  0.00     0.010 A 
ATOM     32  C   UNL A   1      36.958  32.842  30.128  1.00  0.00    -0.014 A 
BRANCH  32  33
ATOM     33  C   UNL A   1      38.260  32.196  30.421  1.00  0.00     0.031 A 
ATOM     34  C   UNL A   1      39.221  32.856  31.373  1.00  0.00     0.074 A 
ATOM     35  C   UNL A   1      38.598  31.050  29.798  1.00  0.00     0.049 A 
ATOM     36  N   UNL A   1      40.416  32.472  31.742  1.00  0.00    -0.248 NA
ATOM     37  C   UNL A   1      38.801  34.143  31.955  1.00  0.00     0.031 C 
ATOM     38  C   UNL A   1      37.788  30.356  28.796  1.00  0.00     0.029 A 
ATOM     39  N   UNL A   1      39.719  30.269  29.919  1.00  0.00    -0.354 N 
ATOM     40  C   UNL A   1      40.891  33.476  32.577  1.00  0.00     0.074 A 
ATOM     41  C   UNL A   1      39.893  34.520  32.600  1.00  0.00     0.031 C 
ATOM     42  C   UNL A   1      38.419  29.229  28.425  1.00  0.00     0.029 A 
ATOM     43  C   UNL A   1      39.685  29.135  29.144  1.00  0.00     0.049 A 
ATOM     44  H   UNL A   1      40.476  30.499  30.505  1.00  0.00     0.167 HD
ATOM     45  C   UNL A   1      42.038  33.509  33.294  1.00  0.00     0.037 A 
ATOM     46  C   UNL A   1      40.572  28.127  29.042  1.00  0.00     0.037 A 
ATOM     47  C   UNL A   1      43.006  32.447  33.308  1.00  0.00     0.049 A 
ATOM     48  C   UNL A   1      41.816  28.162  29.886  1.00  0.00     0.074 A 
ATOM     49  C   UNL A   1      44.167  32.345  34.053  1.00  0.00     0.029 A 
ATOM     50  N   UNL A   1      42.914  31.292  32.544  1.00  0.00    -0.354 N 
ATOM     51  N   UNL A   1      42.216  29.079  30.735  1.00  0.00    -0.248 NA
ATOM     52  C   UNL A   1      42.723  27.012  29.772  1.00  0.00     0.031 C 
ATOM     53  C   UNL A   1      44.795  31.141  33.717  1.00  0.00     0.029 A 
ATOM     54  C   UNL A   1      44.004  30.476  32.792  1.00  0.00     0.049 A 
ATOM     55  H   UNL A   1      42.184  31.085  31.918  1.00  0.00     0.167 HD
ATOM     56  C   UNL A   1      43.405  28.606  31.274  1.00  0.00     0.074 A 
ATOM     57  C   UNL A   1      43.651  27.312  30.670  1.00  0.00     0.031 C 
ATOM     58  C   UNL A   1      44.223  29.190  32.184  1.00  0.00     0.037 A 
BRANCH  45  59
ATOM     59  C   UNL A   1      42.287  34.728  34.134  1.00  0.00     0.057 A 
ATOM     60  C   UNL A   1      41.863  34.803  35.468  1.00  0.00     0.134 A 
ATOM     61  C   UNL A   1      42.958  35.838  33.608  1.00  0.00     0.134 A 
ATOM     62  F   UNL A   1      41.198  33.781  36.029  1.00  0.00    -0.206 F 
ATOM     63  C   UNL A   1      42.067  35.949  36.238  1.00  0.00     0.040 A 
ATOM     64  C   UNL A   1      43.193  36.980  34.375  1.00  0.00     0.040 A 
ATOM     65  F   UNL A   1      43.392  35.833  32.338  1.00  0.00    -0.206 F 
ATOM     66  C   UNL A   1      42.740  37.040  35.692  1.00  0.00     0.006 A 
ENDBRANCH  45  59
BRANCH  46  67
ATOM     67  C   UNL A   1      40.293  26.974  28.150  1.00  0.00     0.057 A 
ATOM     68  C   UNL A   1      39.472  25.921  28.572  1.00  0.00     0.134 A 
ATOM     69  C   UNL A   1      40.842  26.889  26.865  1.00  0.00     0.134 A 
ATOM     70  F   UNL A   1      38.930  25.939  29.799  1.00  0.00    -0.206 F 
ATOM     71  C   UNL A   1      39.226  24.813  27.759  1.00  0.00     0.040 A 
ATOM     72  C   UNL A   1      40.587  25.798  26.033  1.00  0.00     0.040 A 
ATOM     73  F   UNL A   1      41.628  27.870  26.399  1.00  0.00    -0.206 F 
ATOM     74  C   UNL A   1      39.783  24.751  26.484  1.00  0.00     0.006 A 
ENDBRANCH  46  67
BRANCH  58  75
ATOM     75  C   UNL A   1      45.440  28.418  32.598  1.00  0.00     0.057 A 
ATOM     76  C   UNL A   1      45.410  27.511  33.665  1.00  0.00     0.134 A 
ATOM     77  C   UNL A   1      46.648  28.566  31.906  1.00  0.00     0.134 A 
ATOM     78  F   UNL A   1      44.286  27.333  34.375  1.00  0.00    -0.206 F 
ATOM     79  C   UNL A   1      46.548  26.800  34.047  1.00  0.00     0.040 A 
ATOM     80  C   UNL A   1      47.785  27.841  32.261  1.00  0.00     0.040 A 
ATOM     81  F   UNL A   1      46.739  29.411  30.868  1.00  0.00    -0.206 F 
ATOM     82  C   UNL A   1      47.739  26.959  33.340  1.00  0.00     0.006 A 
ENDBRANCH  58  75
ENDBRANCH  32  33
ENDBRANCH  24  27
ENDBRANCH  22  23
ENDBRANCH  21  22
ENDBRANCH  20  21
ENDBRANCH   1  20
TORSDOF 17
ENDMDL
MODEL 3
REMARK VINA RESULT:     -10.1      4.624      9.333
REMARK SMILES CCCCCC[C@@H](C(=O)NCCCCNC(=O)c1ccc(-c2c3nc(c(-c4c(F)cccc4F)c4ccc([nH]4)c(-c4c(F)cccc4F)c4nc(c(-c5c(F)cccc5F)c5ccc2[nH]5)C=C4)C=C3)cc1)c1ccccc1C
REMARK SMILES IDX 11 1 10 2 8 3 9 4 7 6 6 7 5 8 4 9 3 10 2 11 1 12 72 13 73 14
REMARK SMILES IDX 77 15 74 16 76 17 78 18 75 19 12 20 13 21 14 22 15 23 16 24
REMARK SMILES IDX 17 26 18 27 19 28 71 29 20 30 70 31 21 32 22 33 23 34 64 35
REMARK SMILES IDX 24 36 69 37 63 38 65 39 25 40 68 41 62 42 61 43 26 45 52 46
REMARK SMILES IDX 35 47 51 48 36 49 39 50 50 51 66 52 37 53 38 54 49 56 67 57
REMARK SMILES IDX 40 58 27 59 28 60 33 61 29 62 30 63 32 64 34 65 31 66 53 67
REMARK SMILES IDX 54 68 59 69 55 70 56 71 58 72 60 73 57 74 41 75 42 76 47 77
REMARK SMILES IDX 43 78 44 79 46 80 48 81 45 82
REMARK H PARENT 10 5 15 25 65 44 39 55
REMARK Flexibility Score: inf
ROOT
ATOM      1  C   UNL A   1      32.577  29.741  25.784  1.00  0.00     0.116 C 
ENDROOT
BRANCH   1   2
ATOM      2  N   UNL A   1      33.238  29.700  24.497  1.00  0.00    -0.356 N 
ATOM      3  C   UNL A   1      33.306  28.704  23.564  1.00  0.00     0.227 C 
ATOM      4  O   UNL A   1      34.203  28.816  22.723  1.00  0.00    -0.274 OA
ATOM      5  H   UNL A   1      33.716  30.526  24.253  1.00  0.00     0.163 HD
BRANCH   3   6
ATOM      6  C   UNL A   1      32.281  27.542  23.535  1.00  0.00     0.109 C 
BRANCH   6   7
ATOM      7  C   UNL A   1      32.710  26.378  22.595  1.00  0.00     0.018 C 
BRANCH   7   8
ATOM      8  C   UNL A   1      33.209  25.070  23.203  1.00  0.00     0.001 C 
BRANCH   8   9
ATOM      9  C   UNL A   1      34.166  25.200  24.391  1.00  0.00     0.000 C 
BRANCH   9  10
ATOM     10  C   UNL A   1      33.792  24.334  25.596  1.00  0.00    -0.000 C 
BRANCH  10  11
ATOM     11  C   UNL A   1      32.507  24.736  26.329  1.00  0.00    -0.003 C 
ATOM     12  C   UNL A   1      31.428  23.663  26.325  1.00  0.00     0.004 C 
ENDBRANCH  10  11
ENDBRANCH   9  10
ENDBRANCH   8   9
ENDBRANCH   7   8
ENDBRANCH   6   7
BRANCH   6  13
ATOM     13  C   UNL A   1      30.894  28.109  23.124  1.00  0.00    -0.033 A 
ATOM     14  C   UNL A   1      30.811  29.299  22.363  1.00  0.00     0.005 A 
ATOM     15  C   UNL A   1      29.681  27.511  23.539  1.00  0.00    -0.047 A 
ATOM     16  C   UNL A   1      29.589  29.857  21.987  1.00  0.00     0.000 A 
ATOM     17  C   UNL A   1      28.454  28.103  23.168  1.00  0.00     0.004 A 
ATOM     18  C   UNL A   1      29.604  26.320  24.456  1.00  0.00     0.044 C 
ATOM     19  C   UNL A   1      28.408  29.257  22.389  1.00  0.00     0.000 A 
ENDBRANCH   6  13
ENDBRANCH   3   6
ENDBRANCH   1   2
BRANCH   1  20
ATOM     20  C   UNL A   1      31.470  30.803  25.767  1.00  0.00     0.023 C 
BRANCH  20  21
ATOM     21  C   UNL A   1      31.423  31.718  26.980  1.00  0.00     0.023 C 
BRANCH  21  22
ATOM     22  C   UNL A   1      32.641  32.608  27.134  1.00  0.00     0.116 C 
BRANCH  22  23
ATOM     23  N   UNL A   1      32.332  33.967  27.556  1.00  0.00    -0.352 N 
ATOM     24  C   UNL A   1      33.012  34.755  28.461  1.00  0.00     0.251 C 
ATOM     25  H   UNL A   1      31.538  34.376  27.143  1.00  0.00     0.163 HD
ATOM     26  O   UNL A   1      32.589  35.858  28.771  1.00  0.00    -0.269 OA
BRANCH  24  27
ATOM     27  C   UNL A   1      34.240  34.219  29.087  1.00  0.00     0.039 A 
ATOM     28  C   UNL A   1      34.122  33.348  30.171  1.00  0.00     0.014 A 
ATOM     29  C   UNL A   1      35.496  34.522  28.556  1.00  0.00     0.014 A 
ATOM     30  C   UNL A   1      35.265  32.731  30.681  1.00  0.00     0.010 A 
ATOM     31  C   UNL A   1      36.613  33.822  28.988  1.00  0.00     0.010 A 
ATOM     32  C   UNL A   1      36.513  32.938  30.072  1.00  0.00    -0.014 A 
BRANCH  32  33
ATOM     33  C   UNL A   1      37.740  32.283  30.588  1.00  0.00     0.031 A 
ATOM     34  C   UNL A   1      38.391  32.804  31.841  1.00  0.00     0.074 A 
ATOM     35  C   UNL A   1      38.292  31.259  29.909  1.00  0.00     0.049 A 
ATOM     36  N   UNL A   1      39.478  32.393  32.442  1.00  0.00    -0.248 NA
ATOM     37  C   UNL A   1      37.761  33.972  32.480  1.00  0.00     0.031 C 
ATOM     38  C   UNL A   1      37.801  30.715  28.642  1.00  0.00     0.029 A 
ATOM     39  N   UNL A   1      39.393  30.493  30.194  1.00  0.00    -0.354 N 
ATOM     40  C   UNL A   1      39.668  33.261  33.509  1.00  0.00     0.074 A 
ATOM     41  C   UNL A   1      38.633  34.265  33.431  1.00  0.00     0.031 C 
ATOM     42  C   UNL A   1      38.572  29.676  28.282  1.00  0.00     0.029 A 
ATOM     43  C   UNL A   1      39.623  29.497  29.277  1.00  0.00     0.049 A 
ATOM     44  H   UNL A   1      39.966  30.644  30.981  1.00  0.00     0.167 HD
ATOM     45  C   UNL A   1      40.596  33.205  34.492  1.00  0.00     0.037 A 
ATOM     46  C   UNL A   1      40.569  28.538  29.256  1.00  0.00     0.037 A 
ATOM     47  C   UNL A   1      41.594  32.176  34.594  1.00  0.00     0.049 A 
ATOM     48  C   UNL A   1      41.559  28.465  30.385  1.00  0.00     0.074 A 
ATOM     49  C   UNL A   1      42.538  31.983  35.587  1.00  0.00     0.029 A 
ATOM     50  N   UNL A   1      41.767  31.156  33.670  1.00  0.00    -0.354 N 
ATOM     51  N   UNL A   1      41.678  29.244  31.435  1.00  0.00    -0.248 NA
ATOM     52  C   UNL A   1      42.536  27.369  30.337  1.00  0.00     0.031 C 
ATOM     53  C   UNL A   1      43.303  30.862  35.247  1.00  0.00     0.029 A 
ATOM     54  C   UNL A   1      42.810  30.335  34.064  1.00  0.00     0.049 A 
ATOM     55  H   UNL A   1      41.229  31.035  32.855  1.00  0.00     0.167 HD
ATOM     56  C   UNL A   1      42.723  28.718  32.183  1.00  0.00     0.074 A 
ATOM     57  C   UNL A   1      43.191  27.542  31.476  1.00  0.00     0.031 C 
ATOM     58  C   UNL A   1      43.252  29.168  33.347  1.00  0.00     0.037 A 
BRANCH  45  59
ATOM     59  C   UNL A   1      40.553  34.280  35.539  1.00  0.00     0.057 A 
ATOM     60  C   UNL A   1      39.807  34.132  36.716  1.00  0.00     0.134 A 
ATOM     61  C   UNL A   1      41.265  35.474  35.372  1.00  0.00     0.134 A 
ATOM     62  F   UNL A   1      39.087  33.019  36.930  1.00  0.00    -0.206 F 
ATOM     63  C   UNL A   1      39.742  35.146  37.674  1.00  0.00     0.040 A 
ATOM     64  C   UNL A   1      41.231  36.484  36.335  1.00  0.00     0.040 A 
ATOM     65  F   UNL A   1      42.001  35.681  34.270  1.00  0.00    -0.206 F 
ATOM     66  C   UNL A   1      40.461  36.324  37.486  1.00  0.00     0.006 A 
ENDBRANCH  45  59
BRANCH  46  67
ATOM     67  C   UNL A   1      40.591  27.536  28.162  1.00  0.00     0.057 A 
ATOM     68  C   UNL A   1      41.300  27.778  26.979  1.00  0.00     0.134 A 
ATOM     69  C   UNL A   1      39.903  26.321  28.263  1.00  0.00     0.134 A 
ATOM     70  F   UNL A   1      41.967  28.931  26.816  1.00  0.00    -0.206 F 
ATOM     71  C   UNL A   1      41.303  26.861  25.926  1.00  0.00     0.040 A 
ATOM     72  C   UNL A   1      39.916  25.385  27.228  1.00  0.00     0.040 A 
ATOM     73  F   UNL A   1      39.213  26.026  29.375  1.00  0.00    -0.206 F 
ATOM     74  C   UNL A   1      40.612  25.659  26.051  1.00  0.00     0.006 A 
ENDBRANCH  46  67
BRANCH  58  75
ATOM     75  C   UNL A   1      44.373  28.366  33.939  1.00  0.00     0.057 A 
ATOM     76  C   UNL A   1      45.715  28.659  33.663  1.00  0.00     0.134 A 
ATOM     77  C   UNL A   1      44.106  27.305  34.813  1.00  0.00     0.134 A 
ATOM     78  F   UNL A   1      46.035  29.655  32.824  1.00  0.00    -0.206 F 
ATOM     79  C   UNL A   1      46.751  27.905  34.214  1.00  0.00     0.040 A 
ATOM     80  C   UNL A   1      45.134  26.562  35.391  1.00  0.00     0.040 A 
ATOM     81  F   UNL A   1      42.842  26.981  35.125  1.00  0.00    -0.206 F 
ATOM     82  C   UNL A   1      46.462  26.856  35.086  1.00  0.00     0.006 A 
ENDBRANCH  58  75
ENDBRANCH  32  33
ENDBRANCH  24  27
ENDBRANCH  22  23
ENDBRANCH  21  22
ENDBRANCH  20  21
ENDBRANCH   1  20
TORSDOF 17
ENDMDL
