MODEL 1
REMARK VINA RESULT:     -11.3      0.000      0.000
REMARK SMILES CC[C@@H](C)[C@H](NC(=O)CCc1ccc(F)c(F)c1)C(=O)NCCCCNC(=O)c1ccc(-c2c3nc(c(-c4c(F)cccc4F)c4ccc([nH]4)c(-c4c(F)cccc4F)c4nc(c(-c5c(F)cccc5F)c5ccc2[nH]5)C=C4)C=C3)cc1
REMARK SMILES IDX 22 1 21 2 19 3 20 4 5 6 3 7 4 8 2 9 1 10 6 11 7 12 8 14 9 15
REMARK SMILES IDX 10 16 11 17 12 18 18 19 13 20 16 21 14 22 17 23 15 24 23 25
REMARK SMILES IDX 24 26 25 27 26 28 27 29 28 31 29 32 30 33 82 34 31 35 81 36
REMARK SMILES IDX 32 37 33 38 34 39 75 40 35 41 80 42 74 43 76 44 36 45 79 46
REMARK SMILES IDX 73 47 72 48 37 50 63 51 46 52 62 53 47 54 50 55 61 56 77 57
REMARK SMILES IDX 48 58 49 59 60 61 78 62 51 63 38 64 39 65 44 66 40 67 41 68
REMARK SMILES IDX 43 69 45 70 42 71 64 72 65 73 70 74 66 75 67 76 69 77 71 78
REMARK SMILES IDX 68 79 52 80 53 81 58 82 54 83 55 84 57 85 59 86 56 87
REMARK H PARENT 21 5 6 13 26 30 76 49 50 60
REMARK Flexibility Score: inf
ROOT
ATOM      1  C   UNL A   1      32.894  29.745  26.090  1.00  0.00     0.116 C 
ENDROOT
BRANCH   1   2
ATOM      2  N   UNL A   1      33.590  29.205  24.939  1.00  0.00    -0.354 N 
ATOM      3  C   UNL A   1      33.411  28.031  24.271  1.00  0.00     0.242 C 
ATOM      4  O   UNL A   1      33.936  27.940  23.157  1.00  0.00    -0.273 OA
ATOM      5  H   UNL A   1      34.307  29.778  24.583  1.00  0.00     0.163 HD
BRANCH   3   6
ATOM      6  C   UNL A   1      32.482  26.926  24.807  1.00  0.00     0.174 C 
BRANCH   6   7
ATOM      7  C   UNL A   1      33.225  26.030  25.870  1.00  0.00     0.018 C 
ATOM      8  C   UNL A   1      34.419  25.330  25.204  1.00  0.00     0.010 C 
BRANCH   7   9
ATOM      9  C   UNL A   1      32.317  25.014  26.607  1.00  0.00     0.002 C 
ATOM     10  C   UNL A   1      32.572  23.543  26.311  1.00  0.00     0.004 C 
ENDBRANCH   7   9
ENDBRANCH   6   7
BRANCH   6  11
ATOM     11  N   UNL A   1      31.771  26.119  23.796  1.00  0.00    -0.344 N 
ATOM     12  C   UNL A   1      30.493  25.627  23.854  1.00  0.00     0.220 C 
ATOM     13  H   UNL A   1      32.278  25.907  22.979  1.00  0.00     0.164 HD
ATOM     14  O   UNL A   1      30.260  24.554  23.296  1.00  0.00    -0.275 OA
BRANCH  12  15
ATOM     15  C   UNL A   1      29.363  26.425  24.486  1.00  0.00     0.105 C 
BRANCH  15  16
ATOM     16  C   UNL A   1      28.318  26.980  23.530  1.00  0.00     0.045 C 
BRANCH  16  17
ATOM     17  C   UNL A   1      28.564  28.410  23.134  1.00  0.00    -0.044 A 
ATOM     18  C   UNL A   1      29.726  28.787  22.441  1.00  0.00     0.007 A 
ATOM     19  C   UNL A   1      27.641  29.396  23.510  1.00  0.00     0.046 A 
ATOM     20  C   UNL A   1      29.963  30.131  22.141  1.00  0.00     0.043 A 
ATOM     21  C   UNL A   1      27.887  30.730  23.210  1.00  0.00     0.159 A 
ATOM     22  C   UNL A   1      29.042  31.096  22.532  1.00  0.00     0.158 A 
ATOM     23  F   UNL A   1      27.010  31.661  23.608  1.00  0.00    -0.204 F 
ATOM     24  F   UNL A   1      29.282  32.386  22.261  1.00  0.00    -0.204 F 
ENDBRANCH  16  17
ENDBRANCH  15  16
ENDBRANCH  12  15
ENDBRANCH   6  11
ENDBRANCH   3   6
ENDBRANCH   1   2
BRANCH   1  25
ATOM     25  C   UNL A   1      31.551  30.396  25.778  1.00  0.00     0.023 C 
BRANCH  25  26
ATOM     26  C   UNL A   1      31.329  31.792  26.347  1.00  0.00     0.023 C 
BRANCH  26  27
ATOM     27  C   UNL A   1      32.559  32.479  26.916  1.00  0.00     0.116 C 
BRANCH  27  28
ATOM     28  N   UNL A   1      32.294  33.788  27.481  1.00  0.00    -0.352 N 
ATOM     29  C   UNL A   1      33.024  34.474  28.423  1.00  0.00     0.251 C 
ATOM     30  H   UNL A   1      31.488  34.244  27.148  1.00  0.00     0.163 HD
ATOM     31  O   UNL A   1      32.660  35.564  28.820  1.00  0.00    -0.269 OA
BRANCH  29  32
ATOM     32  C   UNL A   1      34.230  33.834  28.980  1.00  0.00     0.039 A 
ATOM     33  C   UNL A   1      34.056  32.762  29.857  1.00  0.00     0.014 A 
ATOM     34  C   UNL A   1      35.509  34.257  28.607  1.00  0.00     0.014 A 
ATOM     35  C   UNL A   1      35.174  32.091  30.343  1.00  0.00     0.010 A 
ATOM     36  C   UNL A   1      36.618  33.535  29.026  1.00  0.00     0.010 A 
ATOM     37  C   UNL A   1      36.459  32.467  29.921  1.00  0.00    -0.014 A 
BRANCH  37  38
ATOM     38  C   UNL A   1      37.655  31.806  30.486  1.00  0.00     0.031 A 
ATOM     39  C   UNL A   1      38.081  32.140  31.888  1.00  0.00     0.074 A 
ATOM     40  C   UNL A   1      38.357  30.935  29.739  1.00  0.00     0.049 A 
ATOM     41  N   UNL A   1      39.093  31.682  32.576  1.00  0.00    -0.248 NA
ATOM     42  C   UNL A   1      37.280  33.151  32.600  1.00  0.00     0.031 C 
ATOM     43  C   UNL A   1      38.066  30.583  28.348  1.00  0.00     0.029 A 
ATOM     44  N   UNL A   1      39.458  30.183  30.051  1.00  0.00    -0.354 N 
ATOM     45  C   UNL A   1      39.066  32.369  33.784  1.00  0.00     0.074 A 
ATOM     46  C   UNL A   1      37.974  33.313  33.714  1.00  0.00     0.031 C 
ATOM     47  C   UNL A   1      38.946  29.653  27.939  1.00  0.00     0.029 A 
ATOM     48  C   UNL A   1      39.866  29.357  29.033  1.00  0.00     0.049 A 
ATOM     49  H   UNL A   1      39.914  30.230  30.923  1.00  0.00     0.167 HD
ATOM     50  C   UNL A   1      39.862  32.205  34.865  1.00  0.00     0.037 A 
ATOM     51  C   UNL A   1      40.858  28.450  29.002  1.00  0.00     0.037 A 
ATOM     52  C   UNL A   1      40.906  31.222  34.945  1.00  0.00     0.049 A 
ATOM     53  C   UNL A   1      41.678  28.229  30.243  1.00  0.00     0.074 A 
ATOM     54  C   UNL A   1      41.735  30.924  36.011  1.00  0.00     0.029 A 
ATOM     55  N   UNL A   1      41.251  30.363  33.911  1.00  0.00    -0.354 N 
ATOM     56  N   UNL A   1      41.604  28.840  31.401  1.00  0.00    -0.248 NA
ATOM     57  C   UNL A   1      42.705  27.181  30.179  1.00  0.00     0.031 C 
ATOM     58  C   UNL A   1      42.595  29.892  35.615  1.00  0.00     0.029 A 
ATOM     59  C   UNL A   1      42.279  29.531  34.314  1.00  0.00     0.049 A 
ATOM     60  H   UNL A   1      40.827  30.349  33.023  1.00  0.00     0.167 HD
ATOM     61  C   UNL A   1      42.549  28.229  32.214  1.00  0.00     0.074 A 
ATOM     62  C   UNL A   1      43.177  27.195  31.417  1.00  0.00     0.031 C 
ATOM     63  C   UNL A   1      42.868  28.496  33.504  1.00  0.00     0.037 A 
BRANCH  50  64
ATOM     64  C   UNL A   1      39.614  33.103  36.040  1.00  0.00     0.057 A 
ATOM     65  C   UNL A   1      38.692  32.771  37.042  1.00  0.00     0.134 A 
ATOM     66  C   UNL A   1      40.296  34.319  36.167  1.00  0.00     0.134 A 
ATOM     67  F   UNL A   1      37.989  31.630  36.968  1.00  0.00    -0.206 F 
ATOM     68  C   UNL A   1      38.433  33.631  38.110  1.00  0.00     0.040 A 
ATOM     69  C   UNL A   1      40.065  35.175  37.245  1.00  0.00     0.040 A 
ATOM     70  F   UNL A   1      41.191  34.698  35.242  1.00  0.00    -0.206 F 
ATOM     71  C   UNL A   1      39.126  34.836  38.216  1.00  0.00     0.006 A 
ENDBRANCH  50  64
BRANCH  51  72
ATOM     72  C   UNL A   1      41.080  27.632  27.785  1.00  0.00     0.057 A 
ATOM     73  C   UNL A   1      40.464  26.384  27.637  1.00  0.00     0.134 A 
ATOM     74  C   UNL A   1      41.903  28.073  26.744  1.00  0.00     0.134 A 
ATOM     75  F   UNL A   1      39.673  25.903  28.609  1.00  0.00    -0.206 F 
ATOM     76  C   UNL A   1      40.673  25.593  26.507  1.00  0.00     0.040 A 
ATOM     77  C   UNL A   1      42.106  27.302  25.597  1.00  0.00     0.040 A 
ATOM     78  F   UNL A   1      42.513  29.265  26.820  1.00  0.00    -0.206 F 
ATOM     79  C   UNL A   1      41.495  26.055  25.480  1.00  0.00     0.006 A 
ENDBRANCH  51  72
BRANCH  63  80
ATOM     80  C   UNL A   1      43.908  27.626  34.139  1.00  0.00     0.057 A 
ATOM     81  C   UNL A   1      45.263  27.975  34.134  1.00  0.00     0.134 A 
ATOM     82  C   UNL A   1      43.541  26.446  34.795  1.00  0.00     0.134 A 
ATOM     83  F   UNL A   1      45.677  29.089  33.512  1.00  0.00    -0.206 F 
ATOM     84  C   UNL A   1      46.223  27.165  34.742  1.00  0.00     0.040 A 
ATOM     85  C   UNL A   1      44.488  25.639  35.424  1.00  0.00     0.040 A 
ATOM     86  F   UNL A   1      42.256  26.063  34.841  1.00  0.00    -0.206 F 
ATOM     87  C   UNL A   1      45.835  25.996  35.393  1.00  0.00     0.006 A 
ENDBRANCH  63  80
ENDBRANCH  37  38
ENDBRANCH  29  32
ENDBRANCH  27  28
ENDBRANCH  26  27
ENDBRANCH  25  26
ENDBRANCH   1  25
TORSDOF 17
ENDMDL
MODEL 2
REMARK VINA RESULT:     -11.2      4.372      9.059
REMARK SMILES CC[C@@H](C)[C@H](NC(=O)CCc1ccc(F)c(F)c1)C(=O)NCCCCNC(=O)c1ccc(-c2c3nc(c(-c4c(F)cccc4F)c4ccc([nH]4)c(-c4c(F)cccc4F)c4nc(c(-c5c(F)cccc5F)c5ccc2[nH]5)C=C4)C=C3)cc1
REMARK SMILES IDX 22 1 21 2 19 3 20 4 5 6 3 7 4 8 2 9 1 10 6 11 7 12 8 14 9 15
REMARK SMILES IDX 10 16 11 17 12 18 18 19 13 20 16 21 14 22 17 23 15 24 23 25
REMARK SMILES IDX 24 26 25 27 26 28 27 29 28 31 29 32 30 33 82 34 31 35 81 36
REMARK SMILES IDX 32 37 33 38 34 39 75 40 35 41 80 42 74 43 76 44 36 45 79 46
REMARK SMILES IDX 73 47 72 48 37 50 63 51 46 52 62 53 47 54 50 55 61 56 77 57
REMARK SMILES IDX 48 58 49 59 60 61 78 62 51 63 38 64 39 65 44 66 40 67 41 68
REMARK SMILES IDX 43 69 45 70 42 71 64 72 65 73 70 74 66 75 67 76 69 77 71 78
REMARK SMILES IDX 68 79 52 80 53 81 58 82 54 83 55 84 57 85 59 86 56 87
REMARK H PARENT 21 5 6 13 26 30 76 49 50 60
REMARK Flexibility Score: inf
ROOT
ATOM      1  C   UNL A   1      37.759  23.403  25.694  1.00  0.00     0.116 C 
ENDROOT
BRANCH   1   2
ATOM      2  N   UNL A   1      37.274  23.086  24.365  1.00  0.00    -0.354 N 
ATOM      3  C   UNL A   1      36.001  23.004  23.887  1.00  0.00     0.242 C 
ATOM      4  O   UNL A   1      35.868  23.002  22.660  1.00  0.00    -0.273 OA
ATOM      5  H   UNL A   1      37.978  22.900  23.702  1.00  0.00     0.163 HD
BRANCH   3   6
ATOM      6  C   UNL A   1      34.779  23.060  24.821  1.00  0.00     0.174 C 
BRANCH   6   7
ATOM      7  C   UNL A   1      34.457  21.636  25.416  1.00  0.00     0.018 C 
ATOM      8  C   UNL A   1      34.506  21.700  26.951  1.00  0.00     0.010 C 
BRANCH   7   9
ATOM      9  C   UNL A   1      35.350  20.493  24.873  1.00  0.00     0.002 C 
ATOM     10  C   UNL A   1      34.669  19.149  24.657  1.00  0.00     0.004 C 
ENDBRANCH   7   9
ENDBRANCH   6   7
BRANCH   6  11
ATOM     11  N   UNL A   1      33.575  23.728  24.287  1.00  0.00    -0.344 N 
ATOM     12  C   UNL A   1      32.651  24.475  24.971  1.00  0.00     0.220 C 
ATOM     13  H   UNL A   1      33.416  23.622  23.322  1.00  0.00     0.164 HD
ATOM     14  O   UNL A   1      31.482  24.447  24.580  1.00  0.00    -0.275 OA
BRANCH  12  15
ATOM     15  C   UNL A   1      33.060  25.402  26.105  1.00  0.00     0.105 C 
BRANCH  15  16
ATOM     16  C   UNL A   1      33.865  26.630  25.709  1.00  0.00     0.045 C 
BRANCH  16  17
ATOM     17  C   UNL A   1      33.077  27.910  25.765  1.00  0.00    -0.044 A 
ATOM     18  C   UNL A   1      32.072  28.192  24.826  1.00  0.00     0.007 A 
ATOM     19  C   UNL A   1      33.388  28.866  26.743  1.00  0.00     0.046 A 
ATOM     20  C   UNL A   1      31.398  29.416  24.860  1.00  0.00     0.043 A 
ATOM     21  C   UNL A   1      32.716  30.081  26.766  1.00  0.00     0.159 A 
ATOM     22  C   UNL A   1      31.728  30.356  25.830  1.00  0.00     0.158 A 
ATOM     23  F   UNL A   1      33.050  30.995  27.686  1.00  0.00    -0.204 F 
ATOM     24  F   UNL A   1      31.095  31.536  25.846  1.00  0.00    -0.204 F 
ENDBRANCH  16  17
ENDBRANCH  15  16
ENDBRANCH  12  15
ENDBRANCH   6  11
ENDBRANCH   3   6
ENDBRANCH   1   2
BRANCH   1  25
ATOM     25  C   UNL A   1      38.759  22.404  26.265  1.00  0.00     0.023 C 
BRANCH  25  26
ATOM     26  C   UNL A   1      38.968  21.125  25.464  1.00  0.00     0.023 C 
BRANCH  26  27
ATOM     27  C   UNL A   1      39.367  19.898  26.267  1.00  0.00     0.116 C 
BRANCH  27  28
ATOM     28  N   UNL A   1      40.567  19.242  25.784  1.00  0.00    -0.352 N 
ATOM     29  C   UNL A   1      41.867  19.682  25.856  1.00  0.00     0.251 C 
ATOM     30  H   UNL A   1      40.433  18.370  25.347  1.00  0.00     0.163 HD
ATOM     31  O   UNL A   1      42.774  19.026  25.381  1.00  0.00    -0.269 OA
BRANCH  29  32
ATOM     32  C   UNL A   1      42.131  20.994  26.477  1.00  0.00     0.039 A 
ATOM     33  C   UNL A   1      42.395  22.075  25.636  1.00  0.00     0.014 A 
ATOM     34  C   UNL A   1      42.074  21.159  27.865  1.00  0.00     0.014 A 
ATOM     35  C   UNL A   1      42.576  23.339  26.187  1.00  0.00     0.010 A 
ATOM     36  C   UNL A   1      42.172  22.434  28.406  1.00  0.00     0.010 A 
ATOM     37  C   UNL A   1      42.454  23.527  27.574  1.00  0.00    -0.014 A 
BRANCH  37  38
ATOM     38  C   UNL A   1      42.716  24.852  28.175  1.00  0.00     0.031 A 
ATOM     39  C   UNL A   1      44.123  25.220  28.551  1.00  0.00     0.074 A 
ATOM     40  C   UNL A   1      41.696  25.701  28.396  1.00  0.00     0.049 A 
ATOM     41  N   UNL A   1      44.573  26.322  29.090  1.00  0.00    -0.248 NA
ATOM     42  C   UNL A   1      45.158  24.196  28.324  1.00  0.00     0.031 C 
ATOM     43  C   UNL A   1      40.284  25.423  28.123  1.00  0.00     0.029 A 
ATOM     44  N   UNL A   1      41.694  26.975  28.898  1.00  0.00    -0.354 N 
ATOM     45  C   UNL A   1      45.932  26.111  29.290  1.00  0.00     0.074 A 
ATOM     46  C   UNL A   1      46.223  24.760  28.870  1.00  0.00     0.031 C 
ATOM     47  C   UNL A   1      39.558  26.512  28.426  1.00  0.00     0.029 A 
ATOM     48  C   UNL A   1      40.449  27.553  28.925  1.00  0.00     0.049 A 
ATOM     49  H   UNL A   1      42.509  27.434  29.210  1.00  0.00     0.167 HD
ATOM     50  C   UNL A   1      46.860  26.979  29.756  1.00  0.00     0.037 A 
ATOM     51  C   UNL A   1      40.081  28.794  29.293  1.00  0.00     0.037 A 
ATOM     52  C   UNL A   1      46.571  28.339  30.115  1.00  0.00     0.049 A 
ATOM     53  C   UNL A   1      41.142  29.766  29.731  1.00  0.00     0.074 A 
ATOM     54  C   UNL A   1      47.441  29.327  30.540  1.00  0.00     0.029 A 
ATOM     55  N   UNL A   1      45.305  28.906  30.074  1.00  0.00    -0.354 N 
ATOM     56  N   UNL A   1      42.433  29.577  29.857  1.00  0.00    -0.248 NA
ATOM     57  C   UNL A   1      40.697  31.127  30.058  1.00  0.00     0.031 C 
ATOM     58  C   UNL A   1      46.697  30.490  30.771  1.00  0.00     0.029 A 
ATOM     59  C   UNL A   1      45.370  30.231  30.462  1.00  0.00     0.049 A 
ATOM     60  H   UNL A   1      44.484  28.434  29.808  1.00  0.00     0.167 HD
ATOM     61  C   UNL A   1      42.961  30.801  30.244  1.00  0.00     0.074 A 
ATOM     62  C   UNL A   1      41.849  31.726  30.324  1.00  0.00     0.031 C 
ATOM     63  C   UNL A   1      44.248  31.132  30.509  1.00  0.00     0.037 A 
BRANCH  50  64
ATOM     64  C   UNL A   1      48.266  26.474  29.883  1.00  0.00     0.057 A 
ATOM     65  C   UNL A   1      48.720  25.836  31.046  1.00  0.00     0.134 A 
ATOM     66  C   UNL A   1      49.182  26.636  28.836  1.00  0.00     0.134 A 
ATOM     67  F   UNL A   1      47.898  25.669  32.094  1.00  0.00    -0.206 F 
ATOM     68  C   UNL A   1      50.042  25.407  31.176  1.00  0.00     0.040 A 
ATOM     69  C   UNL A   1      50.500  26.187  28.944  1.00  0.00     0.040 A 
ATOM     70  F   UNL A   1      48.813  27.239  27.696  1.00  0.00    -0.206 F 
ATOM     71  C   UNL A   1      50.935  25.579  30.119  1.00  0.00     0.006 A 
ENDBRANCH  50  64
BRANCH  51  72
ATOM     72  C   UNL A   1      38.662  29.210  29.190  1.00  0.00     0.057 A 
ATOM     73  C   UNL A   1      38.124  29.630  27.967  1.00  0.00     0.134 A 
ATOM     74  C   UNL A   1      37.809  29.193  30.298  1.00  0.00     0.134 A 
ATOM     75  F   UNL A   1      38.898  29.679  26.872  1.00  0.00    -0.206 F 
ATOM     76  C   UNL A   1      36.795  30.040  27.854  1.00  0.00     0.040 A 
ATOM     77  C   UNL A   1      36.471  29.580  30.196  1.00  0.00     0.040 A 
ATOM     78  F   UNL A   1      38.260  28.789  31.494  1.00  0.00    -0.206 F 
ATOM     79  C   UNL A   1      35.963  30.012  28.972  1.00  0.00     0.006 A 
ENDBRANCH  51  72
BRANCH  63  80
ATOM     80  C   UNL A   1      44.521  32.562  30.861  1.00  0.00     0.057 A 
ATOM     81  C   UNL A   1      44.800  33.521  29.881  1.00  0.00     0.134 A 
ATOM     82  C   UNL A   1      44.468  32.987  32.194  1.00  0.00     0.134 A 
ATOM     83  F   UNL A   1      44.875  33.171  28.589  1.00  0.00    -0.206 F 
ATOM     84  C   UNL A   1      45.039  34.854  30.218  1.00  0.00     0.040 A 
ATOM     85  C   UNL A   1      44.685  34.319  32.541  1.00  0.00     0.040 A 
ATOM     86  F   UNL A   1      44.197  32.115  33.177  1.00  0.00    -0.206 F 
ATOM     87  C   UNL A   1      44.978  35.256  31.551  1.00  0.00     0.006 A 
ENDBRANCH  63  80
ENDBRANCH  37  38
ENDBRANCH  29  32
ENDBRANCH  27  28
ENDBRANCH  26  27
ENDBRANCH  25  26
ENDBRANCH   1  25
TORSDOF 17
ENDMDL
MODEL 3
REMARK VINA RESULT:     -11.1      4.212      8.686
REMARK SMILES CC[C@@H](C)[C@H](NC(=O)CCc1ccc(F)c(F)c1)C(=O)NCCCCNC(=O)c1ccc(-c2c3nc(c(-c4c(F)cccc4F)c4ccc([nH]4)c(-c4c(F)cccc4F)c4nc(c(-c5c(F)cccc5F)c5ccc2[nH]5)C=C4)C=C3)cc1
REMARK SMILES IDX 22 1 21 2 19 3 20 4 5 6 3 7 4 8 2 9 1 10 6 11 7 12 8 14 9 15
REMARK SMILES IDX 10 16 11 17 12 18 18 19 13 20 16 21 14 22 17 23 15 24 23 25
REMARK SMILES IDX 24 26 25 27 26 28 27 29 28 31 29 32 30 33 82 34 31 35 81 36
REMARK SMILES IDX 32 37 33 38 34 39 75 40 35 41 80 42 74 43 76 44 36 45 79 46
REMARK SMILES IDX 73 47 72 48 37 50 63 51 46 52 62 53 47 54 50 55 61 56 77 57
REMARK SMILES IDX 48 58 49 59 60 61 78 62 51 63 38 64 39 65 44 66 40 67 41 68
REMARK SMILES IDX 43 69 45 70 42 71 64 72 65 73 70 74 66 75 67 76 69 77 71 78
REMARK SMILES IDX 68 79 52 80 53 81 58 82 54 83 55 84 57 85 59 86 56 87
REMARK H PARENT 21 5 6 13 26 30 76 49 50 60
REMARK Flexibility Score: inf
ROOT
ATOM      1  C   UNL A   1      33.823  24.453  26.082  1.00  0.00     0.116 C 
ENDROOT
BRANCH   1   2
ATOM      2  N   UNL A   1      32.463  24.621  26.555  1.00  0.00    -0.354 N 
ATOM      3  C   UNL A   1      31.602  25.667  26.411  1.00  0.00     0.242 C 
ATOM      4  O   UNL A   1      30.413  25.445  26.656  1.00  0.00    -0.273 OA
ATOM      5  H   UNL A   1      32.104  23.856  27.061  1.00  0.00     0.163 HD
BRANCH   3   6
ATOM      6  C   UNL A   1      32.058  27.019  25.832  1.00  0.00     0.174 C 
BRANCH   6   7
ATOM      7  C   UNL A   1      32.749  27.903  26.940  1.00  0.00     0.018 C 
ATOM      8  C   UNL A   1      31.807  29.049  27.341  1.00  0.00     0.010 C 
BRANCH   7   9
ATOM      9  C   UNL A   1      34.152  28.437  26.558  1.00  0.00     0.002 C 
ATOM     10  C   UNL A   1      34.820  29.362  27.565  1.00  0.00     0.004 C 
ENDBRANCH   7   9
ENDBRANCH   6   7
BRANCH   6  11
ATOM     11  N   UNL A   1      31.051  27.776  25.061  1.00  0.00    -0.344 N 
ATOM     12  C   UNL A   1      31.207  28.392  23.847  1.00  0.00     0.220 C 
ATOM     13  H   UNL A   1      30.159  27.847  25.470  1.00  0.00     0.164 HD
ATOM     14  O   UNL A   1      30.555  29.416  23.630  1.00  0.00    -0.275 OA
BRANCH  12  15
ATOM     15  C   UNL A   1      32.065  27.781  22.750  1.00  0.00     0.105 C 
BRANCH  15  16
ATOM     16  C   UNL A   1      31.398  26.714  21.894  1.00  0.00     0.045 C 
BRANCH  16  17
ATOM     17  C   UNL A   1      31.678  25.310  22.356  1.00  0.00    -0.044 A 
ATOM     18  C   UNL A   1      30.725  24.575  23.078  1.00  0.00     0.007 A 
ATOM     19  C   UNL A   1      32.936  24.744  22.107  1.00  0.00     0.046 A 
ATOM     20  C   UNL A   1      31.033  23.296  23.551  1.00  0.00     0.043 A 
ATOM     21  C   UNL A   1      33.234  23.474  22.586  1.00  0.00     0.159 A 
ATOM     22  C   UNL A   1      32.289  22.755  23.305  1.00  0.00     0.158 A 
ATOM     23  F   UNL A   1      34.453  22.963  22.369  1.00  0.00    -0.204 F 
ATOM     24  F   UNL A   1      32.588  21.539  23.780  1.00  0.00    -0.204 F 
ENDBRANCH  16  17
ENDBRANCH  15  16
ENDBRANCH  12  15
ENDBRANCH   6  11
ENDBRANCH   3   6
ENDBRANCH   1   2
BRANCH   1  25
ATOM     25  C   UNL A   1      34.407  23.062  26.295  1.00  0.00     0.023 C 
BRANCH  25  26
ATOM     26  C   UNL A   1      35.657  22.724  25.492  1.00  0.00     0.023 C 
BRANCH  26  27
ATOM     27  C   UNL A   1      36.962  23.290  26.028  1.00  0.00     0.116 C 
BRANCH  27  28
ATOM     28  N   UNL A   1      38.072  22.357  25.980  1.00  0.00    -0.352 N 
ATOM     29  C   UNL A   1      39.379  22.568  26.347  1.00  0.00     0.251 C 
ATOM     30  H   UNL A   1      37.862  21.457  25.641  1.00  0.00     0.163 HD
ATOM     31  O   UNL A   1      40.210  21.688  26.227  1.00  0.00    -0.269 OA
BRANCH  29  32
ATOM     32  C   UNL A   1      39.763  23.905  26.840  1.00  0.00     0.039 A 
ATOM     33  C   UNL A   1      40.040  24.046  28.200  1.00  0.00     0.014 A 
ATOM     34  C   UNL A   1      39.891  24.987  25.963  1.00  0.00     0.014 A 
ATOM     35  C   UNL A   1      40.475  25.276  28.682  1.00  0.00     0.010 A 
ATOM     36  C   UNL A   1      40.404  26.189  26.431  1.00  0.00     0.010 A 
ATOM     37  C   UNL A   1      40.670  26.350  27.799  1.00  0.00    -0.014 A 
BRANCH  37  38
ATOM     38  C   UNL A   1      41.063  27.680  28.312  1.00  0.00     0.031 A 
ATOM     39  C   UNL A   1      42.510  28.082  28.268  1.00  0.00     0.074 A 
ATOM     40  C   UNL A   1      40.132  28.502  28.828  1.00  0.00     0.049 A 
ATOM     41  N   UNL A   1      43.071  29.194  28.664  1.00  0.00    -0.248 NA
ATOM     42  C   UNL A   1      43.459  27.087  27.739  1.00  0.00     0.031 C 
ATOM     43  C   UNL A   1      38.708  28.188  28.973  1.00  0.00     0.029 A 
ATOM     44  N   UNL A   1      40.245  29.774  29.322  1.00  0.00    -0.354 N 
ATOM     45  C   UNL A   1      44.434  29.019  28.459  1.00  0.00     0.074 A 
ATOM     46  C   UNL A   1      44.622  27.677  27.958  1.00  0.00     0.031 C 
ATOM     47  C   UNL A   1      38.075  29.256  29.485  1.00  0.00     0.029 A 
ATOM     48  C   UNL A   1      39.048  30.319  29.715  1.00  0.00     0.049 A 
ATOM     49  H   UNL A   1      41.104  30.252  29.389  1.00  0.00     0.167 HD
ATOM     50  C   UNL A   1      45.436  29.908  28.644  1.00  0.00     0.037 A 
ATOM     51  C   UNL A   1      38.773  31.549  30.186  1.00  0.00     0.037 A 
ATOM     52  C   UNL A   1      45.231  31.259  29.086  1.00  0.00     0.049 A 
ATOM     53  C   UNL A   1      39.892  32.546  30.308  1.00  0.00     0.074 A 
ATOM     54  C   UNL A   1      46.163  32.268  29.250  1.00  0.00     0.029 A 
ATOM     55  N   UNL A   1      43.995  31.794  29.419  1.00  0.00    -0.354 N 
ATOM     56  N   UNL A   1      41.168  32.391  30.052  1.00  0.00    -0.248 NA
ATOM     57  C   UNL A   1      39.528  33.895  30.763  1.00  0.00     0.031 C 
ATOM     58  C   UNL A   1      45.491  33.411  29.699  1.00  0.00     0.029 A 
ATOM     59  C   UNL A   1      44.138  33.119  29.785  1.00  0.00     0.049 A 
ATOM     60  H   UNL A   1      43.143  31.302  29.398  1.00  0.00     0.167 HD
ATOM     61  C   UNL A   1      41.756  33.627  30.282  1.00  0.00     0.074 A 
ATOM     62  C   UNL A   1      40.693  34.523  30.690  1.00  0.00     0.031 C 
ATOM     63  C   UNL A   1      43.056  33.991  30.166  1.00  0.00     0.037 A 
BRANCH  50  64
ATOM     64  C   UNL A   1      46.830  29.439  28.353  1.00  0.00     0.057 A 
ATOM     65  C   UNL A   1      47.380  29.506  27.066  1.00  0.00     0.134 A 
ATOM     66  C   UNL A   1      47.631  28.904  29.370  1.00  0.00     0.134 A 
ATOM     67  F   UNL A   1      46.656  29.988  26.043  1.00  0.00    -0.206 F 
ATOM     68  C   UNL A   1      48.662  29.028  26.792  1.00  0.00     0.040 A 
ATOM     69  C   UNL A   1      48.925  28.447  29.114  1.00  0.00     0.040 A 
ATOM     70  F   UNL A   1      47.166  28.810  30.625  1.00  0.00    -0.206 F 
ATOM     71  C   UNL A   1      49.440  28.500  27.821  1.00  0.00     0.006 A 
ENDBRANCH  50  64
BRANCH  51  72
ATOM     72  C   UNL A   1      37.375  31.928  30.503  1.00  0.00     0.057 A 
ATOM     73  C   UNL A   1      36.531  32.450  29.515  1.00  0.00     0.134 A 
ATOM     74  C   UNL A   1      36.847  31.776  31.789  1.00  0.00     0.134 A 
ATOM     75  F   UNL A   1      36.987  32.630  28.266  1.00  0.00    -0.206 F 
ATOM     76  C   UNL A   1      35.218  32.827  29.798  1.00  0.00     0.040 A 
ATOM     77  C   UNL A   1      35.528  32.130  32.083  1.00  0.00     0.040 A 
ATOM     78  F   UNL A   1      37.601  31.271  32.776  1.00  0.00    -0.206 F 
ATOM     79  C   UNL A   1      34.712  32.663  31.087  1.00  0.00     0.006 A 
ENDBRANCH  51  72
BRANCH  63  80
ATOM     80  C   UNL A   1      43.386  35.426  30.438  1.00  0.00     0.057 A 
ATOM     81  C   UNL A   1      43.748  35.868  31.715  1.00  0.00     0.134 A 
ATOM     82  C   UNL A   1      43.376  36.365  29.400  1.00  0.00     0.134 A 
ATOM     83  F   UNL A   1      43.766  35.016  32.751  1.00  0.00    -0.206 F 
ATOM     84  C   UNL A   1      44.069  37.205  31.956  1.00  0.00     0.040 A 
ATOM     85  C   UNL A   1      43.714  37.699  29.624  1.00  0.00     0.040 A 
ATOM     86  F   UNL A   1      43.045  35.999  28.153  1.00  0.00    -0.206 F 
ATOM     87  C   UNL A   1      44.056  38.123  30.907  1.00  0.00     0.006 A 
ENDBRANCH  63  80
ENDBRANCH  37  38
ENDBRANCH  29  32
ENDBRANCH  27  28
ENDBRANCH  26  27
ENDBRANCH  25  26
ENDBRANCH   1  25
TORSDOF 17
ENDMDL
