MODEL 1
REMARK VINA RESULT:     -12.1      0.000      0.000
REMARK SMILES Cc1c(Cl)cc2c(c1C)O[C@H](C(F)(F)F)C(C(=O)NCCCCNC(=O)c1ccc(-c3c4nc(c(-c5c(F)cccc5F)c5ccc([nH]5)c(-c5c(F)cccc5F)c5nc(c(-c6c(F)cccc6F)c6ccc3[nH]6)C=C5)C=C4)cc1)=C2
REMARK SMILES IDX 22 1 21 2 20 3 19 4 17 5 18 6 16 8 1 9 2 10 3 11 8 12 4 13
REMARK SMILES IDX 5 14 7 15 9 16 6 17 10 18 81 19 11 20 12 21 13 22 14 23
REMARK SMILES IDX 15 24 23 25 24 26 25 27 26 29 27 30 28 31 80 32 29 33 79 34
REMARK SMILES IDX 30 35 31 36 32 37 73 38 33 39 78 40 72 41 74 42 34 43 77 44
REMARK SMILES IDX 71 45 70 46 35 48 61 49 44 50 60 51 45 52 48 53 59 54 75 55
REMARK SMILES IDX 46 56 47 57 58 59 76 60 49 61 36 62 37 63 42 64 38 65 39 66
REMARK SMILES IDX 41 67 43 68 40 69 62 70 63 71 68 72 64 73 65 74 67 75 69 76
REMARK SMILES IDX 66 77 50 78 51 79 56 80 52 81 53 82 55 83 57 84 54 85
REMARK H PARENT 19 7 24 28 74 47 48 58
REMARK Flexibility Score: inf
ROOT
ATOM      1  C   UNL A   1      33.647  28.923  25.473  1.00  0.00     0.023 C 
ENDROOT
BRANCH   1   2
ATOM      2  C   UNL A   1      33.661  27.585  24.731  1.00  0.00     0.023 C 
BRANCH   2   3
ATOM      3  C   UNL A   1      32.287  27.124  24.254  1.00  0.00     0.116 C 
BRANCH   3   4
ATOM      4  N   UNL A   1      31.516  26.520  25.326  1.00  0.00    -0.352 N 
ATOM      5  C   UNL A   1      31.471  25.323  25.955  1.00  0.00     0.251 C 
ATOM      6  O   UNL A   1      30.617  25.229  26.843  1.00  0.00    -0.270 OA
ATOM      7  H   UNL A   1      30.851  27.147  25.691  1.00  0.00     0.163 HD
BRANCH   5   8
ATOM      8  C   UNL A   1      32.352  24.155  25.654  1.00  0.00     0.067 C 
ATOM      9  C   UNL A   1      37.265  19.865  25.050  1.00  0.00     0.046 C 
ATOM     10  C   UNL A   1      36.325  21.024  25.274  1.00  0.00    -0.026 A 
ATOM     11  C   UNL A   1      36.812  22.292  25.654  1.00  0.00     0.045 A 
ATOM     12  C   UNL A   1      34.934  20.871  25.058  1.00  0.00    -0.004 A 
ATOM     13  Cl  UNL A   1      38.502  22.607  25.853  1.00  0.00    -0.084 Cl
ATOM     14  C   UNL A   1      35.943  23.364  25.883  1.00  0.00     0.032 A 
ATOM     15  C   UNL A   1      34.077  21.962  25.310  1.00  0.00     0.131 A 
ATOM     16  C   UNL A   1      34.318  19.576  24.589  1.00  0.00     0.049 C 
ATOM     17  C   UNL A   1      34.570  23.199  25.726  1.00  0.00     0.019 A 
ATOM     18  O   UNL A   1      32.732  21.739  25.184  1.00  0.00    -0.475 OA
ATOM     19  C   UNL A   1      33.642  24.287  26.014  1.00  0.00     0.025 C 
ATOM     20  C   UNL A   1      31.898  22.905  24.956  1.00  0.00     0.314 C 
BRANCH  20  21
ATOM     21  C   UNL A   1      31.703  23.105  23.442  1.00  0.00     0.429 C 
ATOM     22  F   UNL A   1      32.600  24.005  22.966  1.00  0.00    -0.167 F 
ATOM     23  F   UNL A   1      31.897  21.964  22.738  1.00  0.00    -0.167 F 
ATOM     24  F   UNL A   1      30.470  23.557  23.127  1.00  0.00    -0.167 F 
ENDBRANCH  20  21
ENDBRANCH   5   8
ENDBRANCH   3   4
ENDBRANCH   2   3
ENDBRANCH   1   2
BRANCH   1  25
ATOM     25  C   UNL A   1      33.812  28.833  26.990  1.00  0.00     0.116 C 
BRANCH  25  26
ATOM     26  N   UNL A   1      33.725  30.118  27.670  1.00  0.00    -0.352 N 
ATOM     27  C   UNL A   1      34.698  30.753  28.404  1.00  0.00     0.251 C 
ATOM     28  H   UNL A   1      32.863  30.588  27.595  1.00  0.00     0.163 HD
ATOM     29  O   UNL A   1      34.462  31.805  28.986  1.00  0.00    -0.269 OA
BRANCH  27  30
ATOM     30  C   UNL A   1      36.022  30.117  28.516  1.00  0.00     0.039 A 
ATOM     31  C   UNL A   1      36.900  30.200  27.434  1.00  0.00     0.014 A 
ATOM     32  C   UNL A   1      36.414  29.513  29.714  1.00  0.00     0.014 A 
ATOM     33  C   UNL A   1      38.207  29.738  27.578  1.00  0.00     0.010 A 
ATOM     34  C   UNL A   1      37.733  29.107  29.875  1.00  0.00     0.010 A 
ATOM     35  C   UNL A   1      38.642  29.223  28.812  1.00  0.00    -0.014 A 
BRANCH  35  36
ATOM     36  C   UNL A   1      40.048  28.800  29.008  1.00  0.00     0.031 A 
ATOM     37  C   UNL A   1      41.033  29.750  29.624  1.00  0.00     0.074 A 
ATOM     38  C   UNL A   1      40.445  27.588  28.579  1.00  0.00     0.049 A 
ATOM     39  N   UNL A   1      42.316  29.593  29.820  1.00  0.00    -0.248 NA
ATOM     40  C   UNL A   1      40.511  31.056  30.054  1.00  0.00     0.031 C 
ATOM     41  C   UNL A   1      39.586  26.596  27.929  1.00  0.00     0.029 A 
ATOM     42  N   UNL A   1      41.676  26.985  28.622  1.00  0.00    -0.354 N 
ATOM     43  C   UNL A   1      42.757  30.782  30.384  1.00  0.00     0.074 A 
ATOM     44  C   UNL A   1      41.615  31.669  30.455  1.00  0.00     0.031 C 
ATOM     45  C   UNL A   1      40.311  25.497  27.661  1.00  0.00     0.029 A 
ATOM     46  C   UNL A   1      41.688  25.719  28.090  1.00  0.00     0.049 A 
ATOM     47  H   UNL A   1      42.475  27.420  28.998  1.00  0.00     0.167 HD
ATOM     48  C   UNL A   1      43.995  31.097  30.828  1.00  0.00     0.037 A 
ATOM     49  C   UNL A   1      42.698  24.838  27.967  1.00  0.00     0.037 A 
ATOM     50  C   UNL A   1      45.121  30.204  30.783  1.00  0.00     0.049 A 
ATOM     51  C   UNL A   1      44.066  25.211  28.465  1.00  0.00     0.074 A 
ATOM     52  C   UNL A   1      46.406  30.413  31.252  1.00  0.00     0.029 A 
ATOM     53  N   UNL A   1      45.093  28.927  30.241  1.00  0.00    -0.354 N 
ATOM     54  N   UNL A   1      44.459  26.323  29.037  1.00  0.00    -0.248 NA
ATOM     55  C   UNL A   1      45.129  24.209  28.301  1.00  0.00     0.031 C 
ATOM     56  C   UNL A   1      47.163  29.272  30.968  1.00  0.00     0.029 A 
ATOM     57  C   UNL A   1      46.341  28.341  30.353  1.00  0.00     0.049 A 
ATOM     58  H   UNL A   1      44.302  28.502  29.836  1.00  0.00     0.167 HD
ATOM     59  C   UNL A   1      45.807  26.151  29.316  1.00  0.00     0.074 A 
ATOM     60  C   UNL A   1      46.163  24.821  28.863  1.00  0.00     0.031 C 
ATOM     61  C   UNL A   1      46.673  27.016  29.896  1.00  0.00     0.037 A 
BRANCH  48  62
ATOM     62  C   UNL A   1      44.189  32.461  31.415  1.00  0.00     0.057 A 
ATOM     63  C   UNL A   1      44.022  32.698  32.785  1.00  0.00     0.134 A 
ATOM     64  C   UNL A   1      44.572  33.542  30.612  1.00  0.00     0.134 A 
ATOM     65  F   UNL A   1      43.640  31.707  33.604  1.00  0.00    -0.206 F 
ATOM     66  C   UNL A   1      44.209  33.968  33.334  1.00  0.00     0.040 A 
ATOM     67  C   UNL A   1      44.784  34.811  31.152  1.00  0.00     0.040 A 
ATOM     68  F   UNL A   1      44.749  33.380  29.292  1.00  0.00    -0.206 F 
ATOM     69  C   UNL A   1      44.598  35.027  32.516  1.00  0.00     0.006 A 
ENDBRANCH  48  62
BRANCH  49  70
ATOM     70  C   UNL A   1      42.441  23.500  27.382  1.00  0.00     0.057 A 
ATOM     71  C   UNL A   1      42.547  23.291  26.003  1.00  0.00     0.134 A 
ATOM     72  C   UNL A   1      42.103  22.400  28.180  1.00  0.00     0.134 A 
ATOM     73  F   UNL A   1      42.851  24.312  25.188  1.00  0.00    -0.206 F 
ATOM     74  C   UNL A   1      42.318  22.037  25.433  1.00  0.00     0.040 A 
ATOM     75  C   UNL A   1      41.888  21.137  27.626  1.00  0.00     0.040 A 
ATOM     76  F   UNL A   1      41.993  22.536  29.509  1.00  0.00    -0.206 F 
ATOM     77  C   UNL A   1      41.993  20.954  26.248  1.00  0.00     0.006 A 
ENDBRANCH  49  70
BRANCH  61  78
ATOM     78  C   UNL A   1      48.086  26.553  30.087  1.00  0.00     0.057 A 
ATOM     79  C   UNL A   1      48.479  25.862  31.239  1.00  0.00     0.134 A 
ATOM     80  C   UNL A   1      49.040  26.741  29.080  1.00  0.00     0.134 A 
ATOM     81  F   UNL A   1      47.611  25.662  32.242  1.00  0.00    -0.206 F 
ATOM     82  C   UNL A   1      49.780  25.378  31.385  1.00  0.00     0.040 A 
ATOM     83  C   UNL A   1      50.337  26.244  29.207  1.00  0.00     0.040 A 
ATOM     84  F   UNL A   1      48.721  27.389  27.951  1.00  0.00    -0.206 F 
ATOM     85  C   UNL A   1      50.710  25.561  30.363  1.00  0.00     0.006 A 
ENDBRANCH  61  78
ENDBRANCH  35  36
ENDBRANCH  27  30
ENDBRANCH  25  26
ENDBRANCH   1  25
TORSDOF 12
ENDMDL
MODEL 2
REMARK VINA RESULT:     -12.0      2.760      7.610
REMARK SMILES Cc1c(Cl)cc2c(c1C)O[C@H](C(F)(F)F)C(C(=O)NCCCCNC(=O)c1ccc(-c3c4nc(c(-c5c(F)cccc5F)c5ccc([nH]5)c(-c5c(F)cccc5F)c5nc(c(-c6c(F)cccc6F)c6ccc3[nH]6)C=C5)C=C4)cc1)=C2
REMARK SMILES IDX 22 1 21 2 20 3 19 4 17 5 18 6 16 8 1 9 2 10 3 11 8 12 4 13
REMARK SMILES IDX 5 14 7 15 9 16 6 17 10 18 81 19 11 20 12 21 13 22 14 23
REMARK SMILES IDX 15 24 23 25 24 26 25 27 26 29 27 30 28 31 80 32 29 33 79 34
REMARK SMILES IDX 30 35 31 36 32 37 73 38 33 39 78 40 72 41 74 42 34 43 77 44
REMARK SMILES IDX 71 45 70 46 35 48 61 49 44 50 60 51 45 52 48 53 59 54 75 55
REMARK SMILES IDX 46 56 47 57 58 59 76 60 49 61 36 62 37 63 42 64 38 65 39 66
REMARK SMILES IDX 41 67 43 68 40 69 62 70 63 71 68 72 64 73 65 74 67 75 69 76
REMARK SMILES IDX 66 77 50 78 51 79 56 80 52 81 53 82 55 83 57 84 54 85
REMARK H PARENT 19 7 24 28 74 47 48 58
REMARK Flexibility Score: inf
ROOT
ATOM      1  C   UNL A   1      38.115  19.751  24.997  1.00  0.00     0.023 C 
ENDROOT
BRANCH   1   2
ATOM      2  C   UNL A   1      37.043  20.843  25.003  1.00  0.00     0.023 C 
BRANCH   2   3
ATOM      3  C   UNL A   1      35.613  20.311  24.981  1.00  0.00     0.116 C 
BRANCH   3   4
ATOM      4  N   UNL A   1      34.852  20.754  26.135  1.00  0.00    -0.352 N 
ATOM      5  C   UNL A   1      34.128  21.844  26.479  1.00  0.00     0.251 C 
ATOM      6  O   UNL A   1      33.638  21.811  27.613  1.00  0.00    -0.270 OA
ATOM      7  H   UNL A   1      34.866  20.085  26.856  1.00  0.00     0.163 HD
BRANCH   5   8
ATOM      8  C   UNL A   1      33.896  23.037  25.610  1.00  0.00     0.067 C 
ATOM      9  C   UNL A   1      33.353  29.031  23.026  1.00  0.00     0.046 C 
ATOM     10  C   UNL A   1      33.518  27.781  23.854  1.00  0.00    -0.026 A 
ATOM     11  C   UNL A   1      33.664  27.852  25.255  1.00  0.00     0.045 A 
ATOM     12  C   UNL A   1      33.478  26.504  23.243  1.00  0.00    -0.004 A 
ATOM     13  Cl  UNL A   1      33.632  29.357  26.109  1.00  0.00    -0.084 Cl
ATOM     14  C   UNL A   1      33.837  26.698  26.026  1.00  0.00     0.032 A 
ATOM     15  C   UNL A   1      33.671  25.357  24.038  1.00  0.00     0.131 A 
ATOM     16  C   UNL A   1      33.263  26.315  21.761  1.00  0.00     0.049 C 
ATOM     17  C   UNL A   1      33.856  25.445  25.418  1.00  0.00     0.019 A 
ATOM     18  O   UNL A   1      33.724  24.151  23.390  1.00  0.00    -0.475 OA
ATOM     19  C   UNL A   1      34.092  24.233  26.195  1.00  0.00     0.025 C 
ATOM     20  C   UNL A   1      33.431  22.972  24.184  1.00  0.00     0.314 C 
BRANCH  20  21
ATOM     21  C   UNL A   1      31.934  22.634  24.060  1.00  0.00     0.429 C 
ATOM     22  F   UNL A   1      31.757  21.289  24.019  1.00  0.00    -0.167 F 
ATOM     23  F   UNL A   1      31.210  23.082  25.112  1.00  0.00    -0.167 F 
ATOM     24  F   UNL A   1      31.371  23.150  22.945  1.00  0.00    -0.167 F 
ENDBRANCH  20  21
ENDBRANCH   5   8
ENDBRANCH   3   4
ENDBRANCH   2   3
ENDBRANCH   1   2
BRANCH   1  25
ATOM     25  C   UNL A   1      39.375  20.066  25.802  1.00  0.00     0.116 C 
BRANCH  25  26
ATOM     26  N   UNL A   1      40.346  18.980  25.827  1.00  0.00    -0.352 N 
ATOM     27  C   UNL A   1      41.688  19.054  26.112  1.00  0.00     0.251 C 
ATOM     28  H   UNL A   1      39.997  18.084  25.613  1.00  0.00     0.163 HD
ATOM     29  O   UNL A   1      42.406  18.065  26.025  1.00  0.00    -0.269 OA
BRANCH  27  30
ATOM     30  C   UNL A   1      42.259  20.361  26.480  1.00  0.00     0.039 A 
ATOM     31  C   UNL A   1      42.802  21.163  25.475  1.00  0.00     0.014 A 
ATOM     32  C   UNL A   1      42.184  20.816  27.800  1.00  0.00     0.014 A 
ATOM     33  C   UNL A   1      43.207  22.461  25.781  1.00  0.00     0.010 A 
ATOM     34  C   UNL A   1      42.534  22.129  28.091  1.00  0.00     0.010 A 
ATOM     35  C   UNL A   1      43.040  22.964  27.083  1.00  0.00    -0.014 A 
BRANCH  35  36
ATOM     36  C   UNL A   1      43.391  24.366  27.409  1.00  0.00     0.031 A 
ATOM     37  C   UNL A   1      44.825  24.804  27.372  1.00  0.00     0.074 A 
ATOM     38  C   UNL A   1      42.425  25.221  27.794  1.00  0.00     0.049 A 
ATOM     39  N   UNL A   1      45.341  25.964  27.687  1.00  0.00    -0.248 NA
ATOM     40  C   UNL A   1      45.812  23.798  26.950  1.00  0.00     0.031 C 
ATOM     41  C   UNL A   1      41.002  24.898  27.907  1.00  0.00     0.029 A 
ATOM     42  N   UNL A   1      42.498  26.540  28.165  1.00  0.00    -0.354 N 
ATOM     43  C   UNL A   1      46.711  25.825  27.511  1.00  0.00     0.074 A 
ATOM     44  C   UNL A   1      46.952  24.455  27.111  1.00  0.00     0.031 C 
ATOM     45  C   UNL A   1      40.332  25.997  28.291  1.00  0.00     0.029 A 
ATOM     46  C   UNL A   1      41.280  27.090  28.482  1.00  0.00     0.049 A 
ATOM     47  H   UNL A   1      43.343  27.044  28.202  1.00  0.00     0.167 HD
ATOM     48  C   UNL A   1      47.677  26.761  27.646  1.00  0.00     0.037 A 
ATOM     49  C   UNL A   1      40.966  28.338  28.877  1.00  0.00     0.037 A 
ATOM     50  C   UNL A   1      47.433  28.129  28.016  1.00  0.00     0.049 A 
ATOM     51  C   UNL A   1      42.058  29.360  29.023  1.00  0.00     0.074 A 
ATOM     52  C   UNL A   1      48.341  29.166  28.132  1.00  0.00     0.029 A 
ATOM     53  N   UNL A   1      46.184  28.650  28.324  1.00  0.00    -0.354 N 
ATOM     54  N   UNL A   1      43.345  29.227  28.811  1.00  0.00    -0.248 NA
ATOM     55  C   UNL A   1      41.655  30.704  29.461  1.00  0.00     0.031 C 
ATOM     56  C   UNL A   1      47.645  30.310  28.537  1.00  0.00     0.029 A 
ATOM     57  C   UNL A   1      46.300  29.991  28.642  1.00  0.00     0.049 A 
ATOM     58  H   UNL A   1      45.342  28.140  28.318  1.00  0.00     0.167 HD
ATOM     59  C   UNL A   1      43.904  30.470  29.073  1.00  0.00     0.074 A 
ATOM     60  C   UNL A   1      42.815  31.349  29.446  1.00  0.00     0.031 C 
ATOM     61  C   UNL A   1      45.203  30.849  29.009  1.00  0.00     0.037 A 
BRANCH  48  62
ATOM     62  C   UNL A   1      49.088  26.336  27.374  1.00  0.00     0.057 A 
ATOM     63  C   UNL A   1      49.630  26.381  26.084  1.00  0.00     0.134 A 
ATOM     64  C   UNL A   1      49.921  25.906  28.414  1.00  0.00     0.134 A 
ATOM     65  F   UNL A   1      48.877  26.769  25.044  1.00  0.00    -0.206 F 
ATOM     66  C   UNL A   1      50.947  25.992  25.832  1.00  0.00     0.040 A 
ATOM     67  C   UNL A   1      51.246  25.536  28.178  1.00  0.00     0.040 A 
ATOM     68  F   UNL A   1      49.463  25.841  29.673  1.00  0.00    -0.206 F 
ATOM     69  C   UNL A   1      51.760  25.575  26.884  1.00  0.00     0.006 A 
ENDBRANCH  48  62
BRANCH  49  70
ATOM     70  C   UNL A   1      39.549  28.698  29.125  1.00  0.00     0.057 A 
ATOM     71  C   UNL A   1      38.748  29.198  28.093  1.00  0.00     0.134 A 
ATOM     72  C   UNL A   1      38.959  28.538  30.384  1.00  0.00     0.134 A 
ATOM     73  F   UNL A   1      39.265  29.388  26.870  1.00  0.00    -0.206 F 
ATOM     74  C   UNL A   1      37.410  29.534  28.303  1.00  0.00     0.040 A 
ATOM     75  C   UNL A   1      37.617  28.854  30.605  1.00  0.00     0.040 A 
ATOM     76  F   UNL A   1      39.674  28.057  31.411  1.00  0.00    -0.206 F 
ATOM     77  C   UNL A   1      36.840  29.356  29.563  1.00  0.00     0.006 A 
ENDBRANCH  49  70
BRANCH  61  78
ATOM     78  C   UNL A   1      45.521  32.276  29.338  1.00  0.00     0.057 A 
ATOM     79  C   UNL A   1      45.895  32.663  30.629  1.00  0.00     0.134 A 
ATOM     80  C   UNL A   1      45.518  33.255  28.337  1.00  0.00     0.134 A 
ATOM     81  F   UNL A   1      45.905  31.771  31.631  1.00  0.00    -0.206 F 
ATOM     82  C   UNL A   1      46.250  33.982  30.916  1.00  0.00     0.040 A 
ATOM     83  C   UNL A   1      45.891  34.572  28.608  1.00  0.00     0.040 A 
ATOM     84  F   UNL A   1      45.176  32.944  27.078  1.00  0.00    -0.206 F 
ATOM     85  C   UNL A   1      46.258  34.938  29.902  1.00  0.00     0.006 A 
ENDBRANCH  61  78
ENDBRANCH  35  36
ENDBRANCH  27  30
ENDBRANCH  25  26
ENDBRANCH   1  25
TORSDOF 12
ENDMDL
MODEL 3
REMARK VINA RESULT:     -11.9      3.551      5.241
REMARK SMILES Cc1c(Cl)cc2c(c1C)O[C@H](C(F)(F)F)C(C(=O)NCCCCNC(=O)c1ccc(-c3c4nc(c(-c5c(F)cccc5F)c5ccc([nH]5)c(-c5c(F)cccc5F)c5nc(c(-c6c(F)cccc6F)c6ccc3[nH]6)C=C5)C=C4)cc1)=C2
REMARK SMILES IDX 22 1 21 2 20 3 19 4 17 5 18 6 16 8 1 9 2 10 3 11 8 12 4 13
REMARK SMILES IDX 5 14 7 15 9 16 6 17 10 18 81 19 11 20 12 21 13 22 14 23
REMARK SMILES IDX 15 24 23 25 24 26 25 27 26 29 27 30 28 31 80 32 29 33 79 34
REMARK SMILES IDX 30 35 31 36 32 37 73 38 33 39 78 40 72 41 74 42 34 43 77 44
REMARK SMILES IDX 71 45 70 46 35 48 61 49 44 50 60 51 45 52 48 53 59 54 75 55
REMARK SMILES IDX 46 56 47 57 58 59 76 60 49 61 36 62 37 63 42 64 38 65 39 66
REMARK SMILES IDX 41 67 43 68 40 69 62 70 63 71 68 72 64 73 65 74 67 75 69 76
REMARK SMILES IDX 66 77 50 78 51 79 56 80 52 81 53 82 55 83 57 84 54 85
REMARK H PARENT 19 7 24 28 74 47 48 58
REMARK Flexibility Score: inf
ROOT
ATOM      1  C   UNL A   1      31.525  31.994  26.761  1.00  0.00     0.023 C 
ENDROOT
BRANCH   1   2
ATOM      2  C   UNL A   1      31.783  30.491  26.641  1.00  0.00     0.023 C 
BRANCH   2   3
ATOM      3  C   UNL A   1      33.161  30.139  26.087  1.00  0.00     0.116 C 
BRANCH   3   4
ATOM      4  N   UNL A   1      33.103  29.762  24.686  1.00  0.00    -0.352 N 
ATOM      5  C   UNL A   1      32.984  28.615  23.978  1.00  0.00     0.251 C 
ATOM      6  O   UNL A   1      32.988  28.755  22.750  1.00  0.00    -0.270 OA
ATOM      7  H   UNL A   1      33.165  30.548  24.098  1.00  0.00     0.163 HD
BRANCH   5   8
ATOM      8  C   UNL A   1      32.856  27.247  24.563  1.00  0.00     0.067 C 
ATOM      9  C   UNL A   1      33.812  21.297  27.130  1.00  0.00     0.046 C 
ATOM     10  C   UNL A   1      33.858  22.664  26.493  1.00  0.00    -0.026 A 
ATOM     11  C   UNL A   1      35.052  23.166  25.935  1.00  0.00     0.045 A 
ATOM     12  C   UNL A   1      32.685  23.451  26.398  1.00  0.00    -0.004 A 
ATOM     13  Cl  UNL A   1      36.518  22.245  25.917  1.00  0.00    -0.084 Cl
ATOM     14  C   UNL A   1      35.106  24.441  25.361  1.00  0.00     0.032 A 
ATOM     15  C   UNL A   1      32.767  24.738  25.829  1.00  0.00     0.131 A 
ATOM     16  C   UNL A   1      31.343  22.982  26.905  1.00  0.00     0.049 C 
ATOM     17  C   UNL A   1      33.965  25.238  25.319  1.00  0.00     0.019 A 
ATOM     18  O   UNL A   1      31.630  25.502  25.849  1.00  0.00    -0.475 OA
ATOM     19  C   UNL A   1      34.012  26.592  24.776  1.00  0.00     0.025 C 
ATOM     20  C   UNL A   1      31.550  26.574  24.875  1.00  0.00     0.314 C 
BRANCH  20  21
ATOM     21  C   UNL A   1      30.826  26.065  23.614  1.00  0.00     0.429 C 
ATOM     22  F   UNL A   1      30.053  27.047  23.085  1.00  0.00    -0.167 F 
ATOM     23  F   UNL A   1      31.685  25.689  22.638  1.00  0.00    -0.167 F 
ATOM     24  F   UNL A   1      30.023  25.008  23.863  1.00  0.00    -0.167 F 
ENDBRANCH  20  21
ENDBRANCH   5   8
ENDBRANCH   3   4
ENDBRANCH   2   3
ENDBRANCH   1   2
BRANCH   1  25
ATOM     25  C   UNL A   1      32.698  32.820  27.289  1.00  0.00     0.116 C 
BRANCH  25  26
ATOM     26  N   UNL A   1      32.341  34.182  27.661  1.00  0.00    -0.352 N 
ATOM     27  C   UNL A   1      32.967  35.002  28.568  1.00  0.00     0.251 C 
ATOM     28  H   UNL A   1      31.553  34.561  27.207  1.00  0.00     0.163 HD
ATOM     29  O   UNL A   1      32.513  36.107  28.837  1.00  0.00    -0.269 OA
BRANCH  27  30
ATOM     30  C   UNL A   1      34.176  34.505  29.248  1.00  0.00     0.039 A 
ATOM     31  C   UNL A   1      34.035  33.843  30.469  1.00  0.00     0.014 A 
ATOM     32  C   UNL A   1      35.428  34.629  28.639  1.00  0.00     0.014 A 
ATOM     33  C   UNL A   1      35.147  33.236  31.049  1.00  0.00     0.010 A 
ATOM     34  C   UNL A   1      36.523  33.974  29.189  1.00  0.00     0.010 A 
ATOM     35  C   UNL A   1      36.390  33.266  30.393  1.00  0.00    -0.014 A 
BRANCH  35  36
ATOM     36  C   UNL A   1      37.565  32.560  30.955  1.00  0.00     0.031 A 
ATOM     37  C   UNL A   1      38.205  33.062  32.215  1.00  0.00     0.074 A 
ATOM     38  C   UNL A   1      38.086  31.508  30.297  1.00  0.00     0.049 A 
ATOM     39  N   UNL A   1      39.275  32.624  32.827  1.00  0.00    -0.248 NA
ATOM     40  C   UNL A   1      37.573  34.224  32.860  1.00  0.00     0.031 C 
ATOM     41  C   UNL A   1      37.575  30.955  29.041  1.00  0.00     0.029 A 
ATOM     42  N   UNL A   1      39.166  30.716  30.593  1.00  0.00    -0.354 N 
ATOM     43  C   UNL A   1      39.450  33.462  33.920  1.00  0.00     0.074 A 
ATOM     44  C   UNL A   1      38.407  34.463  33.861  1.00  0.00     0.031 C 
ATOM     45  C   UNL A   1      38.324  29.896  28.691  1.00  0.00     0.029 A 
ATOM     46  C   UNL A   1      39.384  29.716  29.677  1.00  0.00     0.049 A 
ATOM     47  H   UNL A   1      39.733  30.853  31.386  1.00  0.00     0.167 HD
ATOM     48  C   UNL A   1      40.381  33.387  34.898  1.00  0.00     0.037 A 
ATOM     49  C   UNL A   1      40.330  28.760  29.642  1.00  0.00     0.037 A 
ATOM     50  C   UNL A   1      41.399  32.375  34.971  1.00  0.00     0.049 A 
ATOM     51  C   UNL A   1      41.356  28.700  30.739  1.00  0.00     0.074 A 
ATOM     52  C   UNL A   1      42.359  32.186  35.949  1.00  0.00     0.029 A 
ATOM     53  N   UNL A   1      41.584  31.376  34.026  1.00  0.00    -0.354 N 
ATOM     54  N   UNL A   1      41.484  29.472  31.791  1.00  0.00    -0.248 NA
ATOM     55  C   UNL A   1      42.367  27.636  30.646  1.00  0.00     0.031 C 
ATOM     56  C   UNL A   1      43.143  31.087  35.583  1.00  0.00     0.029 A 
ATOM     57  C   UNL A   1      42.650  30.574  34.393  1.00  0.00     0.049 A 
ATOM     58  H   UNL A   1      41.038  31.256  33.216  1.00  0.00     0.167 HD
ATOM     59  C   UNL A   1      42.576  28.980  32.493  1.00  0.00     0.074 A 
ATOM     60  C   UNL A   1      43.067  27.834  31.755  1.00  0.00     0.031 C 
ATOM     61  C   UNL A   1      43.122  29.437  33.645  1.00  0.00     0.037 A 
BRANCH  48  62
ATOM     62  C   UNL A   1      40.327  34.424  35.979  1.00  0.00     0.057 A 
ATOM     63  C   UNL A   1      39.574  34.229  37.143  1.00  0.00     0.134 A 
ATOM     64  C   UNL A   1      41.054  35.615  35.869  1.00  0.00     0.134 A 
ATOM     65  F   UNL A   1      38.843  33.115  37.301  1.00  0.00    -0.206 F 
ATOM     66  C   UNL A   1      39.529  35.191  38.153  1.00  0.00     0.040 A 
ATOM     67  C   UNL A   1      41.036  36.575  36.881  1.00  0.00     0.040 A 
ATOM     68  F   UNL A   1      41.796  35.863  34.778  1.00  0.00    -0.206 F 
ATOM     69  C   UNL A   1      40.268  36.366  38.025  1.00  0.00     0.006 A 
ENDBRANCH  48  62
BRANCH  49  70
ATOM     70  C   UNL A   1      40.327  27.759  28.549  1.00  0.00     0.057 A 
ATOM     71  C   UNL A   1      39.612  26.563  28.677  1.00  0.00     0.134 A 
ATOM     72  C   UNL A   1      41.017  27.976  27.351  1.00  0.00     0.134 A 
ATOM     73  F   UNL A   1      38.946  26.294  29.809  1.00  0.00    -0.206 F 
ATOM     74  C   UNL A   1      39.589  25.612  27.656  1.00  0.00     0.040 A 
ATOM     75  C   UNL A   1      40.989  27.042  26.314  1.00  0.00     0.040 A 
ATOM     76  F   UNL A   1      41.715  29.106  27.166  1.00  0.00    -0.206 F 
ATOM     77  C   UNL A   1      40.275  25.854  26.467  1.00  0.00     0.006 A 
ENDBRANCH  49  70
BRANCH  61  78
ATOM     78  C   UNL A   1      44.304  28.694  34.189  1.00  0.00     0.057 A 
ATOM     79  C   UNL A   1      45.614  29.096  33.906  1.00  0.00     0.134 A 
ATOM     80  C   UNL A   1      44.127  27.610  35.058  1.00  0.00     0.134 A 
ATOM     81  F   UNL A   1      45.846  30.121  33.071  1.00  0.00    -0.206 F 
ATOM     82  C   UNL A   1      46.711  28.439  34.464  1.00  0.00     0.040 A 
ATOM     83  C   UNL A   1      45.216  26.959  35.638  1.00  0.00     0.040 A 
ATOM     84  F   UNL A   1      42.896  27.183  35.373  1.00  0.00    -0.206 F 
ATOM     85  C   UNL A   1      46.513  27.373  35.340  1.00  0.00     0.006 A 
ENDBRANCH  61  78
ENDBRANCH  35  36
ENDBRANCH  27  30
ENDBRANCH  25  26
ENDBRANCH   1  25
TORSDOF 12
ENDMDL
