MODEL 1
REMARK VINA RESULT:     -11.7      0.000      0.000
REMARK SMILES COc1cc(CC(=O)N2CCC[C@H]2C(=O)NCCCCNC(=O)c2ccc(-c3c4nc(c(-c5c(F)cccc5F)c5ccc([nH]5)c(-c5c(F)cccc5F)c5nc(c(-c6c(F)cccc6F)c6ccc3[nH]6)C=C5)C=C4)cc2)ccc1C
REMARK SMILES IDX 17 1 16 2 14 3 15 4 13 6 9 7 10 8 11 9 12 10 7 11 8 12 6 13
REMARK SMILES IDX 5 14 3 15 4 16 80 17 79 18 81 19 78 20 2 21 1 22 18 23 19 24
REMARK SMILES IDX 20 25 21 26 22 27 23 29 24 30 25 31 77 32 26 33 76 34 27 35
REMARK SMILES IDX 28 36 29 37 70 38 30 39 75 40 69 41 71 42 31 43 74 44 68 45
REMARK SMILES IDX 67 46 32 48 58 49 41 50 57 51 42 52 45 53 56 54 72 55 43 56
REMARK SMILES IDX 44 57 55 59 73 60 46 61 33 62 34 63 39 64 35 65 36 66 38 67
REMARK SMILES IDX 40 68 37 69 59 70 60 71 65 72 61 73 62 74 64 75 66 76 63 77
REMARK SMILES IDX 47 78 48 79 53 80 49 81 50 82 52 83 54 84 51 85
REMARK H PARENT 16 5 21 28 71 47 45 58
REMARK Flexibility Score: inf
ROOT
ATOM      1  C   UNL A   1      31.793  29.504  25.089  1.00  0.00     0.116 C 
ENDROOT
BRANCH   1   2
ATOM      2  N   UNL A   1      31.108  29.349  23.814  1.00  0.00    -0.354 N 
ATOM      3  C   UNL A   1      31.038  28.250  23.000  1.00  0.00     0.242 C 
ATOM      4  O   UNL A   1      30.169  28.242  22.123  1.00  0.00    -0.273 OA
ATOM      5  H   UNL A   1      30.629  30.147  23.492  1.00  0.00     0.163 HD
BRANCH   3   6
ATOM      6  C   UNL A   1      32.012  27.072  23.208  1.00  0.00     0.174 C 
ATOM      7  N   UNL A   1      31.410  25.867  23.799  1.00  0.00    -0.330 N 
ATOM      8  C   UNL A   1      31.436  24.762  22.856  1.00  0.00     0.120 C 
ATOM      9  C   UNL A   1      32.593  25.082  21.936  1.00  0.00     0.024 C 
ATOM     10  C   UNL A   1      32.553  26.600  21.840  1.00  0.00     0.037 C 
BRANCH   7  11
ATOM     11  C   UNL A   1      30.977  25.849  25.109  1.00  0.00     0.227 C 
ATOM     12  O   UNL A   1      29.810  26.119  25.403  1.00  0.00    -0.275 OA
BRANCH  11  13
ATOM     13  C   UNL A   1      31.995  25.721  26.231  1.00  0.00     0.135 C 
BRANCH  13  14
ATOM     14  C   UNL A   1      33.182  24.827  26.009  1.00  0.00    -0.035 A 
ATOM     15  C   UNL A   1      34.187  22.614  26.227  1.00  0.00     0.122 A 
ATOM     16  C   UNL A   1      33.086  23.465  26.343  1.00  0.00     0.051 A 
ATOM     17  C   UNL A   1      35.407  23.126  25.761  1.00  0.00    -0.009 A 
ATOM     18  C   UNL A   1      35.478  24.471  25.358  1.00  0.00     0.007 A 
ATOM     19  C   UNL A   1      36.644  22.281  25.660  1.00  0.00     0.048 C 
ATOM     20  C   UNL A   1      34.376  25.317  25.479  1.00  0.00     0.005 A 
BRANCH  15  21
ATOM     21  O   UNL A   1      34.162  21.305  26.630  1.00  0.00    -0.496 OA
ATOM     22  C   UNL A   1      33.190  20.487  25.986  1.00  0.00     0.278 C 
ENDBRANCH  15  21
ENDBRANCH  13  14
ENDBRANCH  11  13
ENDBRANCH   7  11
ENDBRANCH   3   6
ENDBRANCH   1   2
BRANCH   1  23
ATOM     23  C   UNL A   1      33.319  29.442  24.985  1.00  0.00     0.023 C 
BRANCH  23  24
ATOM     24  C   UNL A   1      34.049  28.882  26.206  1.00  0.00     0.023 C 
BRANCH  24  25
ATOM     25  C   UNL A   1      33.523  29.369  27.550  1.00  0.00     0.116 C 
BRANCH  25  26
ATOM     26  N   UNL A   1      34.029  30.661  27.982  1.00  0.00    -0.352 N 
ATOM     27  C   UNL A   1      35.285  31.006  28.467  1.00  0.00     0.251 C 
ATOM     28  H   UNL A   1      33.385  31.404  27.924  1.00  0.00     0.163 HD
ATOM     29  O   UNL A   1      35.490  32.142  28.846  1.00  0.00    -0.269 OA
BRANCH  27  30
ATOM     30  C   UNL A   1      36.411  30.029  28.399  1.00  0.00     0.039 A 
ATOM     31  C   UNL A   1      36.620  29.196  29.507  1.00  0.00     0.014 A 
ATOM     32  C   UNL A   1      37.339  30.033  27.362  1.00  0.00     0.014 A 
ATOM     33  C   UNL A   1      37.859  28.579  29.685  1.00  0.00     0.010 A 
ATOM     34  C   UNL A   1      38.597  29.504  27.575  1.00  0.00     0.010 A 
ATOM     35  C   UNL A   1      38.877  28.834  28.767  1.00  0.00    -0.014 A 
BRANCH  35  36
ATOM     36  C   UNL A   1      40.281  28.550  29.031  1.00  0.00     0.031 A 
ATOM     37  C   UNL A   1      40.941  27.362  28.464  1.00  0.00     0.074 A 
ATOM     38  C   UNL A   1      41.011  29.422  29.761  1.00  0.00     0.049 A 
ATOM     39  N   UNL A   1      41.914  26.739  29.040  1.00  0.00    -0.248 NA
ATOM     40  C   UNL A   1      40.541  26.770  27.193  1.00  0.00     0.031 C 
ATOM     41  C   UNL A   1      42.460  29.432  29.939  1.00  0.00     0.029 A 
ATOM     42  N   UNL A   1      40.541  30.373  30.678  1.00  0.00    -0.354 N 
ATOM     43  C   UNL A   1      42.452  25.877  28.115  1.00  0.00     0.074 A 
ATOM     44  C   UNL A   1      41.517  25.874  27.011  1.00  0.00     0.031 C 
ATOM     45  C   UNL A   1      42.748  30.081  31.078  1.00  0.00     0.029 A 
ATOM     46  C   UNL A   1      41.487  30.392  31.726  1.00  0.00     0.049 A 
ATOM     47  H   UNL A   1      39.721  30.914  30.606  1.00  0.00     0.167 HD
ATOM     48  C   UNL A   1      43.706  25.373  28.300  1.00  0.00     0.037 A 
ATOM     49  C   UNL A   1      41.150  30.049  33.002  1.00  0.00     0.037 A 
ATOM     50  C   UNL A   1      44.320  25.878  29.522  1.00  0.00     0.049 A 
ATOM     51  C   UNL A   1      41.967  28.917  33.578  1.00  0.00     0.074 A 
ATOM     52  C   UNL A   1      45.221  26.906  29.757  1.00  0.00     0.029 A 
ATOM     53  N   UNL A   1      43.800  25.525  30.761  1.00  0.00    -0.354 N 
ATOM     54  N   UNL A   1      42.674  28.089  32.861  1.00  0.00    -0.248 NA
ATOM     55  C   UNL A   1      42.024  28.605  35.002  1.00  0.00     0.031 C 
ATOM     56  C   UNL A   1      45.239  27.175  31.145  1.00  0.00     0.029 A 
ATOM     57  C   UNL A   1      44.350  26.310  31.757  1.00  0.00     0.049 A 
ATOM     58  H   UNL A   1      43.134  24.815  30.909  1.00  0.00     0.167 HD
ATOM     59  C   UNL A   1      43.241  27.138  33.674  1.00  0.00     0.074 A 
ATOM     60  C   UNL A   1      42.830  27.529  35.009  1.00  0.00     0.031 C 
ATOM     61  C   UNL A   1      43.983  26.114  33.152  1.00  0.00     0.037 A 
BRANCH  48  62
ATOM     62  C   UNL A   1      44.466  24.687  27.193  1.00  0.00     0.057 A 
ATOM     63  C   UNL A   1      44.628  23.288  27.162  1.00  0.00     0.134 A 
ATOM     64  C   UNL A   1      45.105  25.373  26.147  1.00  0.00     0.134 A 
ATOM     65  F   UNL A   1      43.992  22.482  28.021  1.00  0.00    -0.206 F 
ATOM     66  C   UNL A   1      45.465  22.640  26.247  1.00  0.00     0.040 A 
ATOM     67  C   UNL A   1      45.985  24.744  25.254  1.00  0.00     0.040 A 
ATOM     68  F   UNL A   1      44.883  26.679  25.938  1.00  0.00    -0.206 F 
ATOM     69  C   UNL A   1      46.183  23.372  25.314  1.00  0.00     0.006 A 
ENDBRANCH  48  62
BRANCH  49  70
ATOM     70  C   UNL A   1      39.725  30.323  33.324  1.00  0.00     0.057 A 
ATOM     71  C   UNL A   1      39.327  31.656  33.536  1.00  0.00     0.134 A 
ATOM     72  C   UNL A   1      38.721  29.392  33.047  1.00  0.00     0.134 A 
ATOM     73  F   UNL A   1      40.243  32.598  33.812  1.00  0.00    -0.206 F 
ATOM     74  C   UNL A   1      38.004  32.067  33.354  1.00  0.00     0.040 A 
ATOM     75  C   UNL A   1      37.389  29.791  32.882  1.00  0.00     0.040 A 
ATOM     76  F   UNL A   1      39.024  28.106  32.820  1.00  0.00    -0.206 F 
ATOM     77  C   UNL A   1      37.036  31.135  32.993  1.00  0.00     0.006 A 
ENDBRANCH  49  70
BRANCH  61  78
ATOM     78  C   UNL A   1      44.520  24.884  33.865  1.00  0.00     0.057 A 
ATOM     79  C   UNL A   1      43.738  23.887  34.463  1.00  0.00     0.134 A 
ATOM     80  C   UNL A   1      45.911  24.604  33.854  1.00  0.00     0.134 A 
ATOM     81  F   UNL A   1      42.401  23.939  34.463  1.00  0.00    -0.206 F 
ATOM     82  C   UNL A   1      44.292  22.737  35.050  1.00  0.00     0.040 A 
ATOM     83  C   UNL A   1      46.469  23.435  34.383  1.00  0.00     0.040 A 
ATOM     84  F   UNL A   1      46.803  25.444  33.305  1.00  0.00    -0.206 F 
ATOM     85  C   UNL A   1      45.660  22.500  34.999  1.00  0.00     0.006 A 
ENDBRANCH  61  78
ENDBRANCH  35  36
ENDBRANCH  27  30
ENDBRANCH  25  26
ENDBRANCH  24  25
ENDBRANCH  23  24
ENDBRANCH   1  23
TORSDOF 15
ENDMDL
MODEL 2
REMARK VINA RESULT:     -11.7      1.514      2.063
REMARK SMILES COc1cc(CC(=O)N2CCC[C@H]2C(=O)NCCCCNC(=O)c2ccc(-c3c4nc(c(-c5c(F)cccc5F)c5ccc([nH]5)c(-c5c(F)cccc5F)c5nc(c(-c6c(F)cccc6F)c6ccc3[nH]6)C=C5)C=C4)cc2)ccc1C
REMARK SMILES IDX 17 1 16 2 14 3 15 4 13 6 9 7 10 8 11 9 12 10 7 11 8 12 6 13
REMARK SMILES IDX 5 14 3 15 4 16 80 17 79 18 81 19 78 20 2 21 1 22 18 23 19 24
REMARK SMILES IDX 20 25 21 26 22 27 23 29 24 30 25 31 77 32 26 33 76 34 27 35
REMARK SMILES IDX 28 36 29 37 70 38 30 39 75 40 69 41 71 42 31 43 74 44 68 45
REMARK SMILES IDX 67 46 32 48 58 49 41 50 57 51 42 52 45 53 56 54 72 55 43 56
REMARK SMILES IDX 44 57 55 59 73 60 46 61 33 62 34 63 39 64 35 65 36 66 38 67
REMARK SMILES IDX 40 68 37 69 59 70 60 71 65 72 61 73 62 74 64 75 66 76 63 77
REMARK SMILES IDX 47 78 48 79 53 80 49 81 50 82 52 83 54 84 51 85
REMARK H PARENT 16 5 21 28 71 47 45 58
REMARK Flexibility Score: inf
ROOT
ATOM      1  C   UNL A   1      32.248  28.810  26.728  1.00  0.00     0.116 C 
ENDROOT
BRANCH   1   2
ATOM      2  N   UNL A   1      31.707  29.376  25.500  1.00  0.00    -0.354 N 
ATOM      3  C   UNL A   1      31.682  28.839  24.240  1.00  0.00     0.242 C 
ATOM      4  O   UNL A   1      30.920  29.351  23.415  1.00  0.00    -0.273 OA
ATOM      5  H   UNL A   1      31.304  30.270  25.588  1.00  0.00     0.163 HD
BRANCH   3   6
ATOM      6  C   UNL A   1      32.572  27.626  23.900  1.00  0.00     0.174 C 
ATOM      7  N   UNL A   1      31.859  26.343  23.799  1.00  0.00    -0.330 N 
ATOM      8  C   UNL A   1      31.912  25.831  22.441  1.00  0.00     0.120 C 
ATOM      9  C   UNL A   1      33.161  26.450  21.855  1.00  0.00     0.024 C 
ATOM     10  C   UNL A   1      33.207  27.824  22.506  1.00  0.00     0.037 C 
BRANCH   7  11
ATOM     11  C   UNL A   1      31.311  25.735  24.909  1.00  0.00     0.227 C 
ATOM     12  O   UNL A   1      30.106  25.822  25.160  1.00  0.00    -0.275 OA
BRANCH  11  13
ATOM     13  C   UNL A   1      32.229  25.142  25.966  1.00  0.00     0.135 C 
BRANCH  13  14
ATOM     14  C   UNL A   1      33.383  24.298  25.506  1.00  0.00    -0.035 A 
ATOM     15  C   UNL A   1      34.212  22.108  24.816  1.00  0.00     0.122 A 
ATOM     16  C   UNL A   1      33.157  22.950  25.173  1.00  0.00     0.051 A 
ATOM     17  C   UNL A   1      35.517  22.618  24.779  1.00  0.00    -0.009 A 
ATOM     18  C   UNL A   1      35.729  23.983  25.040  1.00  0.00     0.007 A 
ATOM     19  C   UNL A   1      36.704  21.757  24.453  1.00  0.00     0.048 C 
ATOM     20  C   UNL A   1      34.672  24.819  25.399  1.00  0.00     0.005 A 
BRANCH  15  21
ATOM     21  O   UNL A   1      34.046  20.769  24.577  1.00  0.00    -0.496 OA
ATOM     22  C   UNL A   1      32.805  20.404  23.983  1.00  0.00     0.278 C 
ENDBRANCH  15  21
ENDBRANCH  13  14
ENDBRANCH  11  13
ENDBRANCH   7  11
ENDBRANCH   3   6
ENDBRANCH   1   2
BRANCH   1  23
ATOM     23  C   UNL A   1      33.611  29.381  27.127  1.00  0.00     0.023 C 
BRANCH  23  24
ATOM     24  C   UNL A   1      33.627  30.859  27.519  1.00  0.00     0.023 C 
BRANCH  24  25
ATOM     25  C   UNL A   1      35.013  31.480  27.631  1.00  0.00     0.116 C 
BRANCH  25  26
ATOM     26  N   UNL A   1      35.406  31.881  28.971  1.00  0.00    -0.352 N 
ATOM     27  C   UNL A   1      36.260  31.254  29.871  1.00  0.00     0.251 C 
ATOM     28  H   UNL A   1      35.006  32.723  29.290  1.00  0.00     0.163 HD
ATOM     29  O   UNL A   1      36.404  31.720  30.985  1.00  0.00    -0.269 OA
BRANCH  27  30
ATOM     30  C   UNL A   1      37.095  30.098  29.435  1.00  0.00     0.039 A 
ATOM     31  C   UNL A   1      37.243  29.026  30.327  1.00  0.00     0.014 A 
ATOM     32  C   UNL A   1      37.847  30.121  28.265  1.00  0.00     0.014 A 
ATOM     33  C   UNL A   1      38.308  28.138  30.170  1.00  0.00     0.010 A 
ATOM     34  C   UNL A   1      38.956  29.304  28.153  1.00  0.00     0.010 A 
ATOM     35  C   UNL A   1      39.224  28.357  29.143  1.00  0.00    -0.014 A 
BRANCH  35  36
ATOM     36  C   UNL A   1      40.539  27.733  29.097  1.00  0.00     0.031 A 
ATOM     37  C   UNL A   1      40.705  26.328  28.688  1.00  0.00     0.074 A 
ATOM     38  C   UNL A   1      41.635  28.471  29.377  1.00  0.00     0.049 A 
ATOM     39  N   UNL A   1      41.645  25.560  29.129  1.00  0.00    -0.248 NA
ATOM     40  C   UNL A   1      39.806  25.669  27.748  1.00  0.00     0.031 C 
ATOM     41  C   UNL A   1      43.031  28.096  29.168  1.00  0.00     0.029 A 
ATOM     42  N   UNL A   1      41.701  29.656  30.123  1.00  0.00    -0.354 N 
ATOM     43  C   UNL A   1      41.659  24.437  28.336  1.00  0.00     0.074 A 
ATOM     44  C   UNL A   1      40.450  24.514  27.546  1.00  0.00     0.031 C 
ATOM     45  C   UNL A   1      43.799  28.819  29.999  1.00  0.00     0.029 A 
ATOM     46  C   UNL A   1      42.906  29.581  30.853  1.00  0.00     0.049 A 
ATOM     47  H   UNL A   1      41.042  30.389  30.134  1.00  0.00     0.167 HD
ATOM     48  C   UNL A   1      42.762  23.636  28.309  1.00  0.00     0.037 A 
ATOM     49  C   UNL A   1      42.919  29.569  32.217  1.00  0.00     0.037 A 
ATOM     50  C   UNL A   1      43.825  24.143  29.170  1.00  0.00     0.049 A 
ATOM     51  C   UNL A   1      43.600  28.365  32.822  1.00  0.00     0.074 A 
ATOM     52  C   UNL A   1      44.960  24.895  28.905  1.00  0.00     0.029 A 
ATOM     53  N   UNL A   1      43.654  24.167  30.548  1.00  0.00    -0.354 N 
ATOM     54  N   UNL A   1      43.844  27.262  32.173  1.00  0.00    -0.248 NA
ATOM     55  C   UNL A   1      44.030  28.295  34.214  1.00  0.00     0.031 C 
ATOM     56  C   UNL A   1      45.470  25.378  30.132  1.00  0.00     0.029 A 
ATOM     57  C   UNL A   1      44.648  24.918  31.145  1.00  0.00     0.049 A 
ATOM     58  H   UNL A   1      42.927  23.712  31.032  1.00  0.00     0.167 HD
ATOM     59  C   UNL A   1      44.410  26.340  33.019  1.00  0.00     0.074 A 
ATOM     60  C   UNL A   1      44.536  27.051  34.277  1.00  0.00     0.031 C 
ATOM     61  C   UNL A   1      44.703  25.073  32.591  1.00  0.00     0.037 A 
BRANCH  48  62
ATOM     62  C   UNL A   1      42.965  22.584  27.247  1.00  0.00     0.057 A 
ATOM     63  C   UNL A   1      42.251  21.370  27.260  1.00  0.00     0.134 A 
ATOM     64  C   UNL A   1      43.897  22.703  26.203  1.00  0.00     0.134 A 
ATOM     65  F   UNL A   1      41.250  21.146  28.120  1.00  0.00    -0.206 F 
ATOM     66  C   UNL A   1      42.536  20.312  26.390  1.00  0.00     0.040 A 
ATOM     67  C   UNL A   1      44.228  21.634  25.356  1.00  0.00     0.040 A 
ATOM     68  F   UNL A   1      44.510  23.869  25.951  1.00  0.00    -0.206 F 
ATOM     69  C   UNL A   1      43.558  20.424  25.462  1.00  0.00     0.006 A 
ENDBRANCH  48  62
BRANCH  49  70
ATOM     70  C   UNL A   1      41.765  30.288  32.818  1.00  0.00     0.057 A 
ATOM     71  C   UNL A   1      41.818  31.692  32.906  1.00  0.00     0.134 A 
ATOM     72  C   UNL A   1      40.509  29.688  32.935  1.00  0.00     0.134 A 
ATOM     73  F   UNL A   1      42.996  32.330  32.807  1.00  0.00    -0.206 F 
ATOM     74  C   UNL A   1      40.660  32.470  32.978  1.00  0.00     0.040 A 
ATOM     75  C   UNL A   1      39.344  30.458  33.027  1.00  0.00     0.040 A 
ATOM     76  F   UNL A   1      40.377  28.357  32.848  1.00  0.00    -0.206 F 
ATOM     77  C   UNL A   1      39.414  31.850  33.006  1.00  0.00     0.006 A 
ENDBRANCH  49  70
BRANCH  61  78
ATOM     78  C   UNL A   1      45.148  23.880  33.420  1.00  0.00     0.057 A 
ATOM     79  C   UNL A   1      46.442  23.676  33.918  1.00  0.00     0.134 A 
ATOM     80  C   UNL A   1      44.197  22.923  33.859  1.00  0.00     0.134 A 
ATOM     81  F   UNL A   1      47.434  24.545  33.692  1.00  0.00    -0.206 F 
ATOM     82  C   UNL A   1      46.777  22.585  34.737  1.00  0.00     0.040 A 
ATOM     83  C   UNL A   1      44.506  21.865  34.721  1.00  0.00     0.040 A 
ATOM     84  F   UNL A   1      42.908  22.979  33.491  1.00  0.00    -0.206 F 
ATOM     85  C   UNL A   1      45.806  21.682  35.153  1.00  0.00     0.006 A 
ENDBRANCH  61  78
ENDBRANCH  35  36
ENDBRANCH  27  30
ENDBRANCH  25  26
ENDBRANCH  24  25
ENDBRANCH  23  24
ENDBRANCH   1  23
TORSDOF 15
ENDMDL
MODEL 3
REMARK VINA RESULT:     -11.6      3.400      8.793
REMARK SMILES COc1cc(CC(=O)N2CCC[C@H]2C(=O)NCCCCNC(=O)c2ccc(-c3c4nc(c(-c5c(F)cccc5F)c5ccc([nH]5)c(-c5c(F)cccc5F)c5nc(c(-c6c(F)cccc6F)c6ccc3[nH]6)C=C5)C=C4)cc2)ccc1C
REMARK SMILES IDX 17 1 16 2 14 3 15 4 13 6 9 7 10 8 11 9 12 10 7 11 8 12 6 13
REMARK SMILES IDX 5 14 3 15 4 16 80 17 79 18 81 19 78 20 2 21 1 22 18 23 19 24
REMARK SMILES IDX 20 25 21 26 22 27 23 29 24 30 25 31 77 32 26 33 76 34 27 35
REMARK SMILES IDX 28 36 29 37 70 38 30 39 75 40 69 41 71 42 31 43 74 44 68 45
REMARK SMILES IDX 67 46 32 48 58 49 41 50 57 51 42 52 45 53 56 54 72 55 43 56
REMARK SMILES IDX 44 57 55 59 73 60 46 61 33 62 34 63 39 64 35 65 36 66 38 67
REMARK SMILES IDX 40 68 37 69 59 70 60 71 65 72 61 73 62 74 64 75 66 76 63 77
REMARK SMILES IDX 47 78 48 79 53 80 49 81 50 82 52 83 54 84 51 85
REMARK H PARENT 16 5 21 28 71 47 45 58
REMARK Flexibility Score: inf
ROOT
ATOM      1  C   UNL A   1      35.372  21.419  25.913  1.00  0.00     0.116 C 
ENDROOT
BRANCH   1   2
ATOM      2  N   UNL A   1      34.135  20.667  25.760  1.00  0.00    -0.354 N 
ATOM      3  C   UNL A   1      32.866  21.130  25.527  1.00  0.00     0.242 C 
ATOM      4  O   UNL A   1      32.023  20.316  25.140  1.00  0.00    -0.273 OA
ATOM      5  H   UNL A   1      34.222  19.689  25.836  1.00  0.00     0.163 HD
BRANCH   3   6
ATOM      6  C   UNL A   1      32.540  22.623  25.734  1.00  0.00     0.174 C 
ATOM      7  N   UNL A   1      32.330  23.388  24.496  1.00  0.00    -0.330 N 
ATOM      8  C   UNL A   1      30.958  23.858  24.406  1.00  0.00     0.120 C 
ATOM      9  C   UNL A   1      30.493  23.932  25.843  1.00  0.00     0.024 C 
ATOM     10  C   UNL A   1      31.206  22.760  26.501  1.00  0.00     0.037 C 
BRANCH   7  11
ATOM     11  C   UNL A   1      33.370  23.651  23.628  1.00  0.00     0.227 C 
ATOM     12  O   UNL A   1      33.728  22.822  22.786  1.00  0.00    -0.275 OA
BRANCH  11  13
ATOM     13  C   UNL A   1      34.240  24.876  23.852  1.00  0.00     0.135 C 
BRANCH  13  14
ATOM     14  C   UNL A   1      33.607  26.087  24.478  1.00  0.00    -0.035 A 
ATOM     15  C   UNL A   1      32.383  28.178  24.185  1.00  0.00     0.122 A 
ATOM     16  C   UNL A   1      32.919  27.001  23.660  1.00  0.00     0.051 A 
ATOM     17  C   UNL A   1      32.525  28.448  25.553  1.00  0.00    -0.009 A 
ATOM     18  C   UNL A   1      33.148  27.497  26.380  1.00  0.00     0.007 A 
ATOM     19  C   UNL A   1      32.018  29.718  26.176  1.00  0.00     0.048 C 
ATOM     20  C   UNL A   1      33.684  26.324  25.850  1.00  0.00     0.005 A 
BRANCH  15  21
ATOM     21  O   UNL A   1      31.790  29.137  23.407  1.00  0.00    -0.496 OA
ATOM     22  C   UNL A   1      30.495  28.808  22.914  1.00  0.00     0.278 C 
ENDBRANCH  15  21
ENDBRANCH  13  14
ENDBRANCH  11  13
ENDBRANCH   7  11
ENDBRANCH   3   6
ENDBRANCH   1   2
BRANCH   1  23
ATOM     23  C   UNL A   1      36.330  21.284  24.727  1.00  0.00     0.023 C 
BRANCH  23  24
ATOM     24  C   UNL A   1      37.809  21.124  25.078  1.00  0.00     0.023 C 
BRANCH  24  25
ATOM     25  C   UNL A   1      38.430  22.311  25.803  1.00  0.00     0.116 C 
BRANCH  25  26
ATOM     26  N   UNL A   1      39.877  22.266  25.938  1.00  0.00    -0.352 N 
ATOM     27  C   UNL A   1      40.766  23.270  26.302  1.00  0.00     0.251 C 
ATOM     28  H   UNL A   1      40.289  21.393  25.742  1.00  0.00     0.163 HD
ATOM     29  O   UNL A   1      41.961  23.047  26.287  1.00  0.00    -0.269 OA
BRANCH  27  30
ATOM     30  C   UNL A   1      40.258  24.568  26.834  1.00  0.00     0.039 A 
ATOM     31  C   UNL A   1      40.605  25.738  26.142  1.00  0.00     0.014 A 
ATOM     32  C   UNL A   1      39.603  24.667  28.057  1.00  0.00     0.014 A 
ATOM     33  C   UNL A   1      40.528  26.972  26.788  1.00  0.00     0.010 A 
ATOM     34  C   UNL A   1      39.611  25.870  28.736  1.00  0.00     0.010 A 
ATOM     35  C   UNL A   1      40.136  27.010  28.126  1.00  0.00    -0.014 A 
BRANCH  35  36
ATOM     36  C   UNL A   1      40.358  28.160  28.992  1.00  0.00     0.031 A 
ATOM     37  C   UNL A   1      39.338  29.212  29.143  1.00  0.00     0.074 A 
ATOM     38  C   UNL A   1      41.495  28.236  29.718  1.00  0.00     0.049 A 
ATOM     39  N   UNL A   1      39.616  30.449  29.387  1.00  0.00    -0.248 NA
ATOM     40  C   UNL A   1      37.910  28.949  29.018  1.00  0.00     0.031 C 
ATOM     41  C   UNL A   1      41.795  29.175  30.796  1.00  0.00     0.029 A 
ATOM     42  N   UNL A   1      42.714  27.591  29.468  1.00  0.00    -0.354 N 
ATOM     43  C   UNL A   1      38.441  31.070  29.737  1.00  0.00     0.074 A 
ATOM     44  C   UNL A   1      37.399  30.119  29.415  1.00  0.00     0.031 C 
ATOM     45  C   UNL A   1      43.128  29.283  30.911  1.00  0.00     0.029 A 
ATOM     46  C   UNL A   1      43.716  28.517  29.827  1.00  0.00     0.049 A 
ATOM     47  H   UNL A   1      42.843  26.680  29.115  1.00  0.00     0.167 HD
ATOM     48  C   UNL A   1      38.470  32.257  30.407  1.00  0.00     0.037 A 
ATOM     49  C   UNL A   1      44.607  29.000  28.914  1.00  0.00     0.037 A 
ATOM     50  C   UNL A   1      39.834  32.696  30.677  1.00  0.00     0.049 A 
ATOM     51  C   UNL A   1      44.613  30.504  28.786  1.00  0.00     0.074 A 
ATOM     52  C   UNL A   1      40.641  32.595  31.800  1.00  0.00     0.029 A 
ATOM     53  N   UNL A   1      40.669  33.061  29.629  1.00  0.00    -0.354 N 
ATOM     54  N   UNL A   1      43.651  31.277  29.207  1.00  0.00    -0.248 NA
ATOM     55  C   UNL A   1      45.685  31.256  28.143  1.00  0.00     0.031 C 
ATOM     56  C   UNL A   1      41.970  32.896  31.424  1.00  0.00     0.029 A 
ATOM     57  C   UNL A   1      41.973  33.183  30.071  1.00  0.00     0.049 A 
ATOM     58  H   UNL A   1      40.374  33.213  28.702  1.00  0.00     0.167 HD
ATOM     59  C   UNL A   1      43.928  32.582  28.882  1.00  0.00     0.074 A 
ATOM     60  C   UNL A   1      45.230  32.517  28.247  1.00  0.00     0.031 C 
ATOM     61  C   UNL A   1      43.037  33.584  29.161  1.00  0.00     0.037 A 
BRANCH  48  62
ATOM     62  C   UNL A   1      37.249  32.826  31.086  1.00  0.00     0.057 A 
ATOM     63  C   UNL A   1      36.900  32.469  32.403  1.00  0.00     0.134 A 
ATOM     64  C   UNL A   1      36.350  33.705  30.460  1.00  0.00     0.134 A 
ATOM     65  F   UNL A   1      37.706  31.730  33.174  1.00  0.00    -0.206 F 
ATOM     66  C   UNL A   1      35.690  32.846  32.996  1.00  0.00     0.040 A 
ATOM     67  C   UNL A   1      35.113  34.052  31.023  1.00  0.00     0.040 A 
ATOM     68  F   UNL A   1      36.647  34.279  29.285  1.00  0.00    -0.206 F 
ATOM     69  C   UNL A   1      34.770  33.605  32.291  1.00  0.00     0.006 A 
ENDBRANCH  48  62
BRANCH  49  70
ATOM     70  C   UNL A   1      44.881  28.048  27.806  1.00  0.00     0.057 A 
ATOM     71  C   UNL A   1      45.710  26.940  28.059  1.00  0.00     0.134 A 
ATOM     72  C   UNL A   1      44.065  27.990  26.673  1.00  0.00     0.134 A 
ATOM     73  F   UNL A   1      46.523  26.936  29.129  1.00  0.00    -0.206 F 
ATOM     74  C   UNL A   1      45.637  25.774  27.293  1.00  0.00     0.040 A 
ATOM     75  C   UNL A   1      43.999  26.833  25.887  1.00  0.00     0.040 A 
ATOM     76  F   UNL A   1      43.238  29.002  26.374  1.00  0.00    -0.206 F 
ATOM     77  C   UNL A   1      44.752  25.709  26.221  1.00  0.00     0.006 A 
ENDBRANCH  49  70
BRANCH  61  78
ATOM     78  C   UNL A   1      43.084  35.035  28.714  1.00  0.00     0.057 A 
ATOM     79  C   UNL A   1      42.914  35.483  27.397  1.00  0.00     0.134 A 
ATOM     80  C   UNL A   1      43.186  36.074  29.674  1.00  0.00     0.134 A 
ATOM     81  F   UNL A   1      42.694  34.639  26.383  1.00  0.00    -0.206 F 
ATOM     82  C   UNL A   1      42.902  36.846  27.055  1.00  0.00     0.040 A 
ATOM     83  C   UNL A   1      43.116  37.434  29.353  1.00  0.00     0.040 A 
ATOM     84  F   UNL A   1      43.335  35.822  30.984  1.00  0.00    -0.206 F 
ATOM     85  C   UNL A   1      42.988  37.827  28.034  1.00  0.00     0.006 A 
ENDBRANCH  61  78
ENDBRANCH  35  36
ENDBRANCH  27  30
ENDBRANCH  25  26
ENDBRANCH  24  25
ENDBRANCH  23  24
ENDBRANCH   1  23
TORSDOF 15
ENDMDL
