MODEL 1
REMARK VINA RESULT:     -12.1      0.000      0.000
REMARK SMILES CS(=O)(=O)c1ccc(/C=C(/C(=O)NCCCCNC(=O)c2ccc(-c3c4nc(c(-c5c(F)cccc5F)c5ccc([nH]5)c(-c5c(F)cccc5F)c5nc(c(-c6c(F)cccc6F)c6ccc3[nH]6)C=C5)C=C4)cc2)c2ccc(O)cc2)cc1
REMARK SMILES IDX 15 1 14 2 13 3 11 4 12 5 10 7 9 8 8 9 5 10 6 11 83 12 7 13
REMARK SMILES IDX 82 14 2 15 1 16 3 17 4 18 75 19 76 20 81 21 77 22 80 23
REMARK SMILES IDX 78 24 79 25 16 27 17 28 18 29 19 30 20 32 21 33 22 34 74 35
REMARK SMILES IDX 23 36 73 37 24 38 25 39 26 40 67 41 27 42 72 43 66 44 68 45
REMARK SMILES IDX 28 46 71 47 65 48 64 49 29 51 55 52 38 53 54 54 39 55 42 56
REMARK SMILES IDX 53 57 69 58 40 59 41 60 52 62 70 63 43 64 30 65 31 66 36 67
REMARK SMILES IDX 32 68 33 69 35 70 37 71 34 72 56 73 57 74 62 75 58 76 59 77
REMARK SMILES IDX 61 78 63 79 60 80 44 81 45 82 50 83 46 84 47 85 49 86 51 87
REMARK SMILES IDX 48 88
REMARK H PARENT 13 6 79 26 18 31 68 50 42 61
REMARK Flexibility Score: inf
ROOT
ATOM      1  C   UNL A   1      31.678  27.205  26.759  1.00  0.00     0.023 C 
ENDROOT
BRANCH   1   2
ATOM      2  C   UNL A   1      31.919  25.837  26.110  1.00  0.00     0.116 C 
BRANCH   2   3
ATOM      3  N   UNL A   1      32.135  25.997  24.686  1.00  0.00    -0.352 N 
ATOM      4  C   UNL A   1      32.713  25.226  23.727  1.00  0.00     0.251 C 
ATOM      5  O   UNL A   1      32.771  25.729  22.602  1.00  0.00    -0.269 OA
ATOM      6  H   UNL A   1      31.786  26.849  24.338  1.00  0.00     0.163 HD
BRANCH   4   7
ATOM      7  C   UNL A   1      33.187  23.806  23.959  1.00  0.00     0.047 C 
ATOM      8  C   UNL A   1      32.326  22.775  24.125  1.00  0.00     0.022 C 
BRANCH   8   9
ATOM      9  C   UNL A   1      32.576  21.317  24.196  1.00  0.00    -0.025 A 
ATOM     10  C   UNL A   1      33.152  18.574  24.071  1.00  0.00     0.067 A 
ATOM     11  C   UNL A   1      33.492  19.304  25.209  1.00  0.00     0.021 A 
ATOM     12  C   UNL A   1      32.501  19.186  23.003  1.00  0.00     0.021 A 
ATOM     13  C   UNL A   1      33.165  20.661  25.283  1.00  0.00     0.009 A 
ATOM     14  C   UNL A   1      32.215  20.552  23.071  1.00  0.00     0.009 A 
BRANCH  10  15
ATOM     15  S   UNL A   1      33.595  16.857  23.977  1.00  0.00     0.175 S 
ATOM     16  C   UNL A   1      35.088  16.784  24.931  1.00  0.00     0.163 C 
ATOM     17  O   UNL A   1      33.917  16.566  22.596  1.00  0.00    -0.224 OA
ATOM     18  O   UNL A   1      32.574  16.099  24.680  1.00  0.00    -0.224 OA
ENDBRANCH  10  15
ENDBRANCH   8   9
BRANCH   7  19
ATOM     19  C   UNL A   1      34.642  23.618  24.197  1.00  0.00    -0.013 A 
ATOM     20  C   UNL A   1      35.144  23.925  25.475  1.00  0.00     0.013 A 
ATOM     21  C   UNL A   1      35.499  23.031  23.256  1.00  0.00     0.013 A 
ATOM     22  C   UNL A   1      36.450  23.594  25.828  1.00  0.00     0.047 A 
ATOM     23  C   UNL A   1      36.804  22.675  23.620  1.00  0.00     0.047 A 
ATOM     24  C   UNL A   1      37.257  22.940  24.911  1.00  0.00     0.115 A 
BRANCH  24  25
ATOM     25  O   UNL A   1      38.492  22.546  25.330  1.00  0.00    -0.508 OA
ATOM     26  H   UNL A   1      39.178  23.176  25.423  1.00  0.00     0.293 HD
ENDBRANCH  24  25
ENDBRANCH   7  19
ENDBRANCH   4   7
ENDBRANCH   2   3
ENDBRANCH   1   2
BRANCH   1  27
ATOM     27  C   UNL A   1      32.641  28.296  26.280  1.00  0.00     0.023 C 
BRANCH  27  28
ATOM     28  C   UNL A   1      33.769  28.618  27.251  1.00  0.00     0.116 C 
BRANCH  28  29
ATOM     29  N   UNL A   1      33.741  29.995  27.725  1.00  0.00    -0.352 N 
ATOM     30  C   UNL A   1      34.753  30.695  28.338  1.00  0.00     0.251 C 
ATOM     31  H   UNL A   1      32.897  30.482  27.589  1.00  0.00     0.163 HD
ATOM     32  O   UNL A   1      34.562  31.815  28.796  1.00  0.00    -0.269 OA
BRANCH  30  33
ATOM     33  C   UNL A   1      36.071  30.047  28.461  1.00  0.00     0.039 A 
ATOM     34  C   UNL A   1      36.982  30.147  27.408  1.00  0.00     0.014 A 
ATOM     35  C   UNL A   1      36.427  29.429  29.662  1.00  0.00     0.014 A 
ATOM     36  C   UNL A   1      38.287  29.685  27.588  1.00  0.00     0.010 A 
ATOM     37  C   UNL A   1      37.744  29.044  29.863  1.00  0.00     0.010 A 
ATOM     38  C   UNL A   1      38.687  29.168  28.830  1.00  0.00    -0.014 A 
BRANCH  38  39
ATOM     39  C   UNL A   1      40.077  28.718  29.089  1.00  0.00     0.031 A 
ATOM     40  C   UNL A   1      41.065  29.695  29.660  1.00  0.00     0.074 A 
ATOM     41  C   UNL A   1      40.476  27.488  28.714  1.00  0.00     0.049 A 
ATOM     42  N   UNL A   1      42.363  29.585  29.789  1.00  0.00    -0.248 NA
ATOM     43  C   UNL A   1      40.523  30.987  30.115  1.00  0.00     0.031 C 
ATOM     44  C   UNL A   1      39.617  26.457  28.128  1.00  0.00     0.029 A 
ATOM     45  N   UNL A   1      41.719  26.905  28.746  1.00  0.00    -0.354 N 
ATOM     46  C   UNL A   1      42.792  30.799  30.308  1.00  0.00     0.074 A 
ATOM     47  C   UNL A   1      41.627  31.649  30.424  1.00  0.00     0.031 C 
ATOM     48  C   UNL A   1      40.357  25.368  27.862  1.00  0.00     0.029 A 
ATOM     49  C   UNL A   1      41.748  25.641  28.208  1.00  0.00     0.049 A 
ATOM     50  H   UNL A   1      42.514  27.351  29.119  1.00  0.00     0.167 HD
ATOM     51  C   UNL A   1      44.041  31.165  30.675  1.00  0.00     0.037 A 
ATOM     52  C   UNL A   1      42.787  24.807  27.994  1.00  0.00     0.037 A 
ATOM     53  C   UNL A   1      45.189  30.303  30.582  1.00  0.00     0.049 A 
ATOM     54  C   UNL A   1      44.173  25.247  28.383  1.00  0.00     0.074 A 
ATOM     55  C   UNL A   1      46.491  30.559  30.972  1.00  0.00     0.029 A 
ATOM     56  N   UNL A   1      45.171  29.019  30.058  1.00  0.00    -0.354 N 
ATOM     57  N   UNL A   1      44.561  26.380  28.918  1.00  0.00    -0.248 NA
ATOM     58  C   UNL A   1      45.268  24.297  28.137  1.00  0.00     0.031 C 
ATOM     59  C   UNL A   1      47.272  29.450  30.637  1.00  0.00     0.029 A 
ATOM     60  C   UNL A   1      46.445  28.478  30.099  1.00  0.00     0.049 A 
ATOM     61  H   UNL A   1      44.372  28.561  29.711  1.00  0.00     0.167 HD
ATOM     62  C   UNL A   1      45.932  26.260  29.116  1.00  0.00     0.074 A 
ATOM     63  C   UNL A   1      46.310  24.946  28.638  1.00  0.00     0.031 C 
ATOM     64  C   UNL A   1      46.796  27.155  29.652  1.00  0.00     0.037 A 
BRANCH  51  65
ATOM     65  C   UNL A   1      44.231  32.556  31.205  1.00  0.00     0.057 A 
ATOM     66  C   UNL A   1      44.506  33.640  30.359  1.00  0.00     0.134 A 
ATOM     67  C   UNL A   1      44.107  32.822  32.574  1.00  0.00     0.134 A 
ATOM     68  F   UNL A   1      44.650  33.452  29.038  1.00  0.00    -0.206 F 
ATOM     69  C   UNL A   1      44.682  34.931  30.860  1.00  0.00     0.040 A 
ATOM     70  C   UNL A   1      44.249  34.114  33.083  1.00  0.00     0.040 A 
ATOM     71  F   UNL A   1      43.838  31.833  33.439  1.00  0.00    -0.206 F 
ATOM     72  C   UNL A   1      44.544  35.172  32.225  1.00  0.00     0.006 A 
ENDBRANCH  51  65
BRANCH  52  73
ATOM     73  C   UNL A   1      42.559  23.469  27.390  1.00  0.00     0.057 A 
ATOM     74  C   UNL A   1      42.217  22.368  28.185  1.00  0.00     0.134 A 
ATOM     75  C   UNL A   1      42.691  23.251  26.014  1.00  0.00     0.134 A 
ATOM     76  F   UNL A   1      42.092  22.508  29.513  1.00  0.00    -0.206 F 
ATOM     77  C   UNL A   1      42.039  21.096  27.638  1.00  0.00     0.040 A 
ATOM     78  C   UNL A   1      42.489  21.990  25.449  1.00  0.00     0.040 A 
ATOM     79  F   UNL A   1      43.009  24.264  25.195  1.00  0.00    -0.206 F 
ATOM     80  C   UNL A   1      42.171  20.905  26.264  1.00  0.00     0.006 A 
ENDBRANCH  52  73
BRANCH  64  81
ATOM     81  C   UNL A   1      48.225  26.731  29.828  1.00  0.00     0.057 A 
ATOM     82  C   UNL A   1      49.221  27.067  28.905  1.00  0.00     0.134 A 
ATOM     83  C   UNL A   1      48.619  26.064  30.995  1.00  0.00     0.134 A 
ATOM     84  F   UNL A   1      48.908  27.697  27.763  1.00  0.00    -0.206 F 
ATOM     85  C   UNL A   1      50.561  26.748  29.134  1.00  0.00     0.040 A 
ATOM     86  C   UNL A   1      49.958  25.765  31.249  1.00  0.00     0.040 A 
ATOM     87  F   UNL A   1      47.714  25.723  31.924  1.00  0.00    -0.206 F 
ATOM     88  C   UNL A   1      50.934  26.107  30.316  1.00  0.00     0.006 A 
ENDBRANCH  64  81
ENDBRANCH  38  39
ENDBRANCH  30  33
ENDBRANCH  28  29
ENDBRANCH  27  28
ENDBRANCH   1  27
TORSDOF 15
ENDMDL
MODEL 2
REMARK VINA RESULT:     -12.1      2.626      7.792
REMARK SMILES CS(=O)(=O)c1ccc(/C=C(/C(=O)NCCCCNC(=O)c2ccc(-c3c4nc(c(-c5c(F)cccc5F)c5ccc([nH]5)c(-c5c(F)cccc5F)c5nc(c(-c6c(F)cccc6F)c6ccc3[nH]6)C=C5)C=C4)cc2)c2ccc(O)cc2)cc1
REMARK SMILES IDX 15 1 14 2 13 3 11 4 12 5 10 7 9 8 8 9 5 10 6 11 83 12 7 13
REMARK SMILES IDX 82 14 2 15 1 16 3 17 4 18 75 19 76 20 81 21 77 22 80 23
REMARK SMILES IDX 78 24 79 25 16 27 17 28 18 29 19 30 20 32 21 33 22 34 74 35
REMARK SMILES IDX 23 36 73 37 24 38 25 39 26 40 67 41 27 42 72 43 66 44 68 45
REMARK SMILES IDX 28 46 71 47 65 48 64 49 29 51 55 52 38 53 54 54 39 55 42 56
REMARK SMILES IDX 53 57 69 58 40 59 41 60 52 62 70 63 43 64 30 65 31 66 36 67
REMARK SMILES IDX 32 68 33 69 35 70 37 71 34 72 56 73 57 74 62 75 58 76 59 77
REMARK SMILES IDX 61 78 63 79 60 80 44 81 45 82 50 83 46 84 47 85 49 86 51 87
REMARK SMILES IDX 48 88
REMARK H PARENT 13 6 79 26 18 31 68 50 42 61
REMARK Flexibility Score: inf
ROOT
ATOM      1  C   UNL A   1      37.104  21.324  24.401  1.00  0.00     0.023 C 
ENDROOT
BRANCH   1   2
ATOM      2  C   UNL A   1      36.825  22.390  25.465  1.00  0.00     0.116 C 
BRANCH   2   3
ATOM      3  N   UNL A   1      35.941  21.856  26.481  1.00  0.00    -0.352 N 
ATOM      4  C   UNL A   1      34.634  22.059  26.797  1.00  0.00     0.251 C 
ATOM      5  O   UNL A   1      34.227  21.457  27.794  1.00  0.00    -0.269 OA
ATOM      6  H   UNL A   1      36.383  21.202  27.069  1.00  0.00     0.163 HD
BRANCH   4   7
ATOM      7  C   UNL A   1      33.684  22.889  25.959  1.00  0.00     0.047 C 
ATOM      8  C   UNL A   1      33.075  23.997  26.442  1.00  0.00     0.022 C 
BRANCH   8   9
ATOM      9  C   UNL A   1      32.258  25.021  25.751  1.00  0.00    -0.025 A 
ATOM     10  C   UNL A   1      30.906  26.964  24.243  1.00  0.00     0.067 A 
ATOM     11  C   UNL A   1      30.202  25.888  24.783  1.00  0.00     0.021 A 
ATOM     12  C   UNL A   1      32.273  27.102  24.470  1.00  0.00     0.021 A 
ATOM     13  C   UNL A   1      30.873  24.947  25.569  1.00  0.00     0.009 A 
ATOM     14  C   UNL A   1      32.941  26.132  25.222  1.00  0.00     0.009 A 
BRANCH  10  15
ATOM     15  S   UNL A   1      30.050  28.140  23.226  1.00  0.00     0.175 S 
ATOM     16  C   UNL A   1      28.352  27.663  23.418  1.00  0.00     0.163 C 
ATOM     17  O   UNL A   1      30.443  27.896  21.854  1.00  0.00    -0.224 OA
ATOM     18  O   UNL A   1      30.219  29.451  23.829  1.00  0.00    -0.224 OA
ENDBRANCH  10  15
ENDBRANCH   8   9
BRANCH   7  19
ATOM     19  C   UNL A   1      33.290  22.327  24.641  1.00  0.00    -0.013 A 
ATOM     20  C   UNL A   1      32.698  21.050  24.623  1.00  0.00     0.013 A 
ATOM     21  C   UNL A   1      33.361  23.058  23.448  1.00  0.00     0.013 A 
ATOM     22  C   UNL A   1      32.131  20.543  23.456  1.00  0.00     0.047 A 
ATOM     23  C   UNL A   1      32.768  22.558  22.281  1.00  0.00     0.047 A 
ATOM     24  C   UNL A   1      32.138  21.315  22.305  1.00  0.00     0.115 A 
BRANCH  24  25
ATOM     25  O   UNL A   1      31.486  20.823  21.214  1.00  0.00    -0.508 OA
ATOM     26  H   UNL A   1      30.873  20.122  21.312  1.00  0.00     0.293 HD
ENDBRANCH  24  25
ENDBRANCH   7  19
ENDBRANCH   4   7
ENDBRANCH   2   3
ENDBRANCH   1   2
BRANCH   1  27
ATOM     27  C   UNL A   1      37.882  20.112  24.927  1.00  0.00     0.023 C 
BRANCH  27  28
ATOM     28  C   UNL A   1      39.103  20.459  25.769  1.00  0.00     0.116 C 
BRANCH  28  29
ATOM     29  N   UNL A   1      40.095  19.394  25.802  1.00  0.00    -0.352 N 
ATOM     30  C   UNL A   1      41.433  19.499  26.102  1.00  0.00     0.251 C 
ATOM     31  H   UNL A   1      39.769  18.491  25.585  1.00  0.00     0.163 HD
ATOM     32  O   UNL A   1      42.188  18.542  25.979  1.00  0.00    -0.269 OA
BRANCH  30  33
ATOM     33  C   UNL A   1      41.946  20.809  26.544  1.00  0.00     0.039 A 
ATOM     34  C   UNL A   1      42.430  21.709  25.593  1.00  0.00     0.014 A 
ATOM     35  C   UNL A   1      41.850  21.168  27.890  1.00  0.00     0.014 A 
ATOM     36  C   UNL A   1      42.754  23.009  25.986  1.00  0.00     0.010 A 
ATOM     37  C   UNL A   1      42.098  22.481  28.261  1.00  0.00     0.010 A 
ATOM     38  C   UNL A   1      42.552  23.415  27.315  1.00  0.00    -0.014 A 
BRANCH  38  39
ATOM     39  C   UNL A   1      42.825  24.800  27.769  1.00  0.00     0.031 A 
ATOM     40  C   UNL A   1      44.221  25.169  28.186  1.00  0.00     0.074 A 
ATOM     41  C   UNL A   1      41.817  25.682  27.912  1.00  0.00     0.049 A 
ATOM     42  N   UNL A   1      44.649  26.248  28.790  1.00  0.00    -0.248 NA
ATOM     43  C   UNL A   1      45.271  24.172  27.919  1.00  0.00     0.031 C 
ATOM     44  C   UNL A   1      40.416  25.435  27.563  1.00  0.00     0.029 A 
ATOM     45  N   UNL A   1      41.813  26.959  28.417  1.00  0.00    -0.354 N 
ATOM     46  C   UNL A   1      46.006  26.045  29.001  1.00  0.00     0.074 A 
ATOM     47  C   UNL A   1      46.321  24.722  28.509  1.00  0.00     0.031 C 
ATOM     48  C   UNL A   1      39.692  26.527  27.859  1.00  0.00     0.029 A 
ATOM     49  C   UNL A   1      40.564  27.528  28.465  1.00  0.00     0.049 A 
ATOM     50  H   UNL A   1      42.629  27.422  28.716  1.00  0.00     0.167 HD
ATOM     51  C   UNL A   1      46.912  26.893  29.539  1.00  0.00     0.037 A 
ATOM     52  C   UNL A   1      40.164  28.714  28.966  1.00  0.00     0.037 A 
ATOM     53  C   UNL A   1      46.595  28.217  30.002  1.00  0.00     0.049 A 
ATOM     54  C   UNL A   1      41.185  29.630  29.587  1.00  0.00     0.074 A 
ATOM     55  C   UNL A   1      47.448  29.176  30.518  1.00  0.00     0.029 A 
ATOM     56  N   UNL A   1      45.322  28.767  30.006  1.00  0.00    -0.354 N 
ATOM     57  N   UNL A   1      42.475  29.448  29.739  1.00  0.00    -0.248 NA
ATOM     58  C   UNL A   1      40.699  30.915  30.110  1.00  0.00     0.031 C 
ATOM     59  C   UNL A   1      46.684  30.287  30.884  1.00  0.00     0.029 A 
ATOM     60  C   UNL A   1      45.365  30.046  30.535  1.00  0.00     0.049 A 
ATOM     61  H   UNL A   1      44.509  28.316  29.681  1.00  0.00     0.167 HD
ATOM     62  C   UNL A   1      42.959  30.610  30.328  1.00  0.00     0.074 A 
ATOM     63  C   UNL A   1      41.824  31.489  30.512  1.00  0.00     0.031 C 
ATOM     64  C   UNL A   1      44.230  30.922  30.677  1.00  0.00     0.037 A 
BRANCH  51  65
ATOM     65  C   UNL A   1      48.329  26.412  29.660  1.00  0.00     0.057 A 
ATOM     66  C   UNL A   1      49.277  26.636  28.652  1.00  0.00     0.134 A 
ATOM     67  C   UNL A   1      48.759  25.744  30.813  1.00  0.00     0.134 A 
ATOM     68  F   UNL A   1      48.927  27.260  27.516  1.00  0.00    -0.206 F 
ATOM     69  C   UNL A   1      50.592  26.185  28.774  1.00  0.00     0.040 A 
ATOM     70  C   UNL A   1      50.080  25.317  30.959  1.00  0.00     0.040 A 
ATOM     71  F   UNL A   1      47.906  25.502  31.820  1.00  0.00    -0.206 F 
ATOM     72  C   UNL A   1      50.999  25.530  29.934  1.00  0.00     0.006 A 
ENDBRANCH  51  65
BRANCH  52  73
ATOM     73  C   UNL A   1      38.734  29.112  28.897  1.00  0.00     0.057 A 
ATOM     74  C   UNL A   1      37.895  28.981  30.010  1.00  0.00     0.134 A 
ATOM     75  C   UNL A   1      38.166  29.614  27.720  1.00  0.00     0.134 A 
ATOM     76  F   UNL A   1      38.375  28.489  31.162  1.00  0.00    -0.206 F 
ATOM     77  C   UNL A   1      36.540  29.311  29.950  1.00  0.00     0.040 A 
ATOM     78  C   UNL A   1      36.819  29.974  27.653  1.00  0.00     0.040 A 
ATOM     79  F   UNL A   1      38.916  29.772  26.620  1.00  0.00    -0.206 F 
ATOM     80  C   UNL A   1      35.999  29.813  28.769  1.00  0.00     0.006 A 
ENDBRANCH  52  73
BRANCH  64  81
ATOM     81  C   UNL A   1      44.491  32.294  31.225  1.00  0.00     0.057 A 
ATOM     82  C   UNL A   1      44.788  33.383  30.398  1.00  0.00     0.134 A 
ATOM     83  C   UNL A   1      44.342  32.542  32.596  1.00  0.00     0.134 A 
ATOM     84  F   UNL A   1      44.954  33.211  29.078  1.00  0.00    -0.206 F 
ATOM     85  C   UNL A   1      44.931  34.671  30.917  1.00  0.00     0.040 A 
ATOM     86  C   UNL A   1      44.456  33.828  33.123  1.00  0.00     0.040 A 
ATOM     87  F   UNL A   1      44.048  31.542  33.441  1.00  0.00    -0.206 F 
ATOM     88  C   UNL A   1      44.752  34.898  32.282  1.00  0.00     0.006 A 
ENDBRANCH  64  81
ENDBRANCH  38  39
ENDBRANCH  30  33
ENDBRANCH  28  29
ENDBRANCH  27  28
ENDBRANCH   1  27
TORSDOF 15
ENDMDL
MODEL 3
REMARK VINA RESULT:     -12.1      3.731      8.880
REMARK SMILES CS(=O)(=O)c1ccc(/C=C(/C(=O)NCCCCNC(=O)c2ccc(-c3c4nc(c(-c5c(F)cccc5F)c5ccc([nH]5)c(-c5c(F)cccc5F)c5nc(c(-c6c(F)cccc6F)c6ccc3[nH]6)C=C5)C=C4)cc2)c2ccc(O)cc2)cc1
REMARK SMILES IDX 15 1 14 2 13 3 11 4 12 5 10 7 9 8 8 9 5 10 6 11 83 12 7 13
REMARK SMILES IDX 82 14 2 15 1 16 3 17 4 18 75 19 76 20 81 21 77 22 80 23
REMARK SMILES IDX 78 24 79 25 16 27 17 28 18 29 19 30 20 32 21 33 22 34 74 35
REMARK SMILES IDX 23 36 73 37 24 38 25 39 26 40 67 41 27 42 72 43 66 44 68 45
REMARK SMILES IDX 28 46 71 47 65 48 64 49 29 51 55 52 38 53 54 54 39 55 42 56
REMARK SMILES IDX 53 57 69 58 40 59 41 60 52 62 70 63 43 64 30 65 31 66 36 67
REMARK SMILES IDX 32 68 33 69 35 70 37 71 34 72 56 73 57 74 62 75 58 76 59 77
REMARK SMILES IDX 61 78 63 79 60 80 44 81 45 82 50 83 46 84 47 85 49 86 51 87
REMARK SMILES IDX 48 88
REMARK H PARENT 13 6 79 26 18 31 68 50 42 61
REMARK Flexibility Score: inf
ROOT
ATOM      1  C   UNL A   1      35.887  23.279  23.504  1.00  0.00     0.023 C 
ENDROOT
BRANCH   1   2
ATOM      2  C   UNL A   1      34.394  23.624  23.476  1.00  0.00     0.116 C 
BRANCH   2   3
ATOM      3  N   UNL A   1      33.810  23.399  24.782  1.00  0.00    -0.352 N 
ATOM      4  C   UNL A   1      32.990  24.125  25.588  1.00  0.00     0.251 C 
ATOM      5  O   UNL A   1      32.744  23.624  26.688  1.00  0.00    -0.269 OA
ATOM      6  H   UNL A   1      34.059  22.529  25.170  1.00  0.00     0.163 HD
BRANCH   4   7
ATOM      7  C   UNL A   1      32.331  25.423  25.169  1.00  0.00     0.047 C 
ATOM      8  C   UNL A   1      31.684  25.557  23.988  1.00  0.00     0.022 C 
BRANCH   8   9
ATOM      9  C   UNL A   1      30.847  26.664  23.472  1.00  0.00    -0.025 A 
ATOM     10  C   UNL A   1      29.147  28.776  22.749  1.00  0.00     0.067 A 
ATOM     11  C   UNL A   1      30.493  28.811  22.384  1.00  0.00     0.021 A 
ATOM     12  C   UNL A   1      28.628  27.687  23.444  1.00  0.00     0.021 A 
ATOM     13  C   UNL A   1      31.325  27.737  22.711  1.00  0.00     0.009 A 
ATOM     14  C   UNL A   1      29.479  26.638  23.801  1.00  0.00     0.009 A 
BRANCH  10  15
ATOM     15  S   UNL A   1      28.104  30.157  22.351  1.00  0.00     0.175 S 
ATOM     16  C   UNL A   1      29.043  31.541  22.941  1.00  0.00     0.163 C 
ATOM     17  O   UNL A   1      26.904  30.040  23.153  1.00  0.00    -0.224 OA
ATOM     18  O   UNL A   1      28.027  30.249  20.903  1.00  0.00    -0.224 OA
ENDBRANCH  10  15
ENDBRANCH   8   9
BRANCH   7  19
ATOM     19  C   UNL A   1      32.593  26.611  26.022  1.00  0.00    -0.013 A 
ATOM     20  C   UNL A   1      33.833  27.262  25.879  1.00  0.00     0.013 A 
ATOM     21  C   UNL A   1      31.622  27.180  26.857  1.00  0.00     0.013 A 
ATOM     22  C   UNL A   1      34.073  28.485  26.500  1.00  0.00     0.047 A 
ATOM     23  C   UNL A   1      31.855  28.423  27.460  1.00  0.00     0.047 A 
ATOM     24  C   UNL A   1      33.070  29.073  27.255  1.00  0.00     0.115 A 
BRANCH  24  25
ATOM     25  O   UNL A   1      33.312  30.315  27.762  1.00  0.00    -0.508 OA
ATOM     26  H   UNL A   1      33.180  31.073  27.229  1.00  0.00     0.293 HD
ENDBRANCH  24  25
ENDBRANCH   7  19
ENDBRANCH   4   7
ENDBRANCH   2   3
ENDBRANCH   1   2
BRANCH   1  27
ATOM     27  C   UNL A   1      36.338  22.586  24.794  1.00  0.00     0.023 C 
BRANCH  27  28
ATOM     28  C   UNL A   1      37.397  23.342  25.584  1.00  0.00     0.116 C 
BRANCH  28  29
ATOM     29  N   UNL A   1      38.672  22.642  25.648  1.00  0.00    -0.352 N 
ATOM     30  C   UNL A   1      39.854  23.093  26.187  1.00  0.00     0.251 C 
ATOM     31  H   UNL A   1      38.690  21.738  25.260  1.00  0.00     0.163 HD
ATOM     32  O   UNL A   1      40.890  22.450  26.072  1.00  0.00    -0.269 OA
BRANCH  30  33
ATOM     33  C   UNL A   1      39.850  24.394  26.881  1.00  0.00     0.039 A 
ATOM     34  C   UNL A   1      39.274  24.490  28.149  1.00  0.00     0.014 A 
ATOM     35  C   UNL A   1      40.507  25.484  26.307  1.00  0.00     0.014 A 
ATOM     36  C   UNL A   1      39.420  25.672  28.878  1.00  0.00     0.010 A 
ATOM     37  C   UNL A   1      40.718  26.627  27.064  1.00  0.00     0.010 A 
ATOM     38  C   UNL A   1      40.177  26.732  28.357  1.00  0.00    -0.014 A 
BRANCH  38  39
ATOM     39  C   UNL A   1      40.411  27.985  29.116  1.00  0.00     0.031 A 
ATOM     40  C   UNL A   1      41.637  28.098  29.977  1.00  0.00     0.074 A 
ATOM     41  C   UNL A   1      39.484  28.961  29.122  1.00  0.00     0.049 A 
ATOM     42  N   UNL A   1      41.947  29.007  30.865  1.00  0.00    -0.248 NA
ATOM     43  C   UNL A   1      42.633  27.021  29.845  1.00  0.00     0.031 C 
ATOM     44  C   UNL A   1      38.242  28.959  28.346  1.00  0.00     0.029 A 
ATOM     45  N   UNL A   1      39.430  30.137  29.829  1.00  0.00    -0.354 N 
ATOM     46  C   UNL A   1      43.153  28.596  31.417  1.00  0.00     0.074 A 
ATOM     47  C   UNL A   1      43.494  27.332  30.803  1.00  0.00     0.031 C 
ATOM     48  C   UNL A   1      37.554  30.081  28.615  1.00  0.00     0.029 A 
ATOM     49  C   UNL A   1      38.277  30.854  29.619  1.00  0.00     0.049 A 
ATOM     50  H   UNL A   1      40.151  30.437  30.430  1.00  0.00     0.167 HD
ATOM     51  C   UNL A   1      43.917  29.226  32.339  1.00  0.00     0.037 A 
ATOM     52  C   UNL A   1      37.842  31.995  30.192  1.00  0.00     0.037 A 
ATOM     53  C   UNL A   1      43.583  30.496  32.925  1.00  0.00     0.049 A 
ATOM     54  C   UNL A   1      38.695  32.662  31.238  1.00  0.00     0.074 A 
ATOM     55  C   UNL A   1      44.313  31.243  33.832  1.00  0.00     0.029 A 
ATOM     56  N   UNL A   1      42.419  31.204  32.664  1.00  0.00    -0.354 N 
ATOM     57  N   UNL A   1      39.857  32.289  31.718  1.00  0.00    -0.248 NA
ATOM     58  C   UNL A   1      38.179  33.908  31.824  1.00  0.00     0.031 C 
ATOM     59  C   UNL A   1      43.568  32.379  34.159  1.00  0.00     0.029 A 
ATOM     60  C   UNL A   1      42.404  32.371  33.407  1.00  0.00     0.049 A 
ATOM     61  H   UNL A   1      41.711  30.919  32.041  1.00  0.00     0.167 HD
ATOM     62  C   UNL A   1      40.231  33.275  32.624  1.00  0.00     0.074 A 
ATOM     63  C   UNL A   1      39.170  34.260  32.631  1.00  0.00     0.031 C 
ATOM     64  C   UNL A   1      41.355  33.359  33.375  1.00  0.00     0.037 A 
BRANCH  51  65
ATOM     65  C   UNL A   1      45.184  28.547  32.772  1.00  0.00     0.057 A 
ATOM     66  C   UNL A   1      45.216  27.659  33.856  1.00  0.00     0.134 A 
ATOM     67  C   UNL A   1      46.381  28.762  32.079  1.00  0.00     0.134 A 
ATOM     68  F   UNL A   1      44.105  27.418  34.571  1.00  0.00    -0.206 F 
ATOM     69  C   UNL A   1      46.398  27.033  34.253  1.00  0.00     0.040 A 
ATOM     70  C   UNL A   1      47.563  28.116  32.446  1.00  0.00     0.040 A 
ATOM     71  F   UNL A   1      46.421  29.594  31.028  1.00  0.00    -0.206 F 
ATOM     72  C   UNL A   1      47.575  27.255  33.541  1.00  0.00     0.006 A 
ENDBRANCH  51  65
BRANCH  52  73
ATOM     73  C   UNL A   1      36.539  32.585  29.788  1.00  0.00     0.057 A 
ATOM     74  C   UNL A   1      36.451  33.456  28.696  1.00  0.00     0.134 A 
ATOM     75  C   UNL A   1      35.358  32.309  30.487  1.00  0.00     0.134 A 
ATOM     76  F   UNL A   1      37.550  33.775  27.996  1.00  0.00    -0.206 F 
ATOM     77  C   UNL A   1      35.243  34.051  28.328  1.00  0.00     0.040 A 
ATOM     78  C   UNL A   1      34.137  32.875  30.114  1.00  0.00     0.040 A 
ATOM     79  F   UNL A   1      35.372  31.476  31.538  1.00  0.00    -0.206 F 
ATOM     80  C   UNL A   1      34.080  33.757  29.037  1.00  0.00     0.006 A 
ENDBRANCH  52  73
BRANCH  64  81
ATOM     81  C   UNL A   1      41.548  34.586  34.216  1.00  0.00     0.057 A 
ATOM     82  C   UNL A   1      41.098  34.662  35.539  1.00  0.00     0.134 A 
ATOM     83  C   UNL A   1      42.286  35.669  33.719  1.00  0.00     0.134 A 
ATOM     84  F   UNL A   1      40.377  33.664  36.071  1.00  0.00    -0.206 F 
ATOM     85  C   UNL A   1      41.371  35.775  36.337  1.00  0.00     0.040 A 
ATOM     86  C   UNL A   1      42.589  36.773  34.514  1.00  0.00     0.040 A 
ATOM     87  F   UNL A   1      42.754  35.653  32.461  1.00  0.00    -0.206 F 
ATOM     88  C   UNL A   1      42.130  36.828  35.828  1.00  0.00     0.006 A 
ENDBRANCH  64  81
ENDBRANCH  38  39
ENDBRANCH  30  33
ENDBRANCH  28  29
ENDBRANCH  27  28
ENDBRANCH   1  27
TORSDOF 15
ENDMDL
