MODEL 1
REMARK VINA RESULT:     -12.6      0.000      0.000
REMARK SMILES Cc1ccc(N2CC[C@H]([NH+]3CCOCC3)[C@H](CCC(=O)NCCCCNC(=O)c3ccc(-c4c5nc(c(-c6c(F)cccc6F)c6ccc([nH]6)c(-c6c(F)cccc6F)c6nc(c(-c7c(F)cccc7F)c7ccc4[nH]7)C=C6)C=C5)cc3)C2)nc1
REMARK SMILES IDX 23 1 22 2 21 3 19 4 20 5 18 7 17 8 16 9 6 10 7 11 83 12 8 13
REMARK SMILES IDX 9 14 5 15 1 16 2 17 3 18 85 19 4 20 84 21 10 22 11 23 15 24
REMARK SMILES IDX 12 26 14 27 13 28 24 29 25 30 26 31 27 32 28 34 29 35 30 36
REMARK SMILES IDX 82 37 31 38 81 39 32 40 33 41 34 42 75 43 35 44 80 45 74 46
REMARK SMILES IDX 76 47 36 48 79 49 73 50 72 51 37 53 63 54 46 55 62 56 47 57
REMARK SMILES IDX 50 58 61 59 77 60 48 61 49 62 60 64 78 65 51 66 38 67 39 68
REMARK SMILES IDX 44 69 40 70 41 71 43 72 45 73 42 74 64 75 65 76 70 77 66 78
REMARK SMILES IDX 67 79 69 80 71 81 68 82 52 83 53 84 58 85 54 86 55 87 57 88
REMARK SMILES IDX 59 89 56 90
REMARK H PARENT 21 6 10 25 26 33 76 52 50 63
REMARK Flexibility Score: inf
ROOT
ATOM      1  C   UNL A   1      40.943  20.812  27.010  1.00  0.00     0.023 C 
ENDROOT
BRANCH   1   2
ATOM      2  C   UNL A   1      39.718  21.037  26.111  1.00  0.00     0.116 C 
BRANCH   2   3
ATOM      3  N   UNL A   1      39.027  22.244  26.525  1.00  0.00    -0.356 N 
ATOM      4  C   UNL A   1      37.945  22.860  25.965  1.00  0.00     0.220 C 
ATOM      5  O   UNL A   1      37.671  24.002  26.337  1.00  0.00    -0.275 OA
ATOM      6  H   UNL A   1      39.393  22.683  27.327  1.00  0.00     0.163 HD
BRANCH   4   7
ATOM      7  C   UNL A   1      37.074  22.129  24.954  1.00  0.00     0.100 C 
BRANCH   7   8
ATOM      8  C   UNL A   1      35.675  21.702  25.446  1.00  0.00     0.021 C 
BRANCH   8   9
ATOM      9  C   UNL A   1      34.706  21.261  24.327  1.00  0.00     0.067 C 
ATOM     10  N   UNL A   1      32.934  22.992  24.069  1.00  0.00    -0.356 N 
ATOM     11  C   UNL A   1      31.861  22.057  24.343  1.00  0.00     0.124 C 
ATOM     12  C   UNL A   1      34.172  22.474  23.518  1.00  0.00     0.127 C 
ATOM     13  C   UNL A   1      32.345  20.947  25.268  1.00  0.00     0.087 C 
ATOM     14  C   UNL A   1      33.545  20.248  24.627  1.00  0.00     0.190 C 
BRANCH  10  15
ATOM     15  C   UNL A   1      32.951  24.162  24.802  1.00  0.00     0.128 A 
ATOM     16  C   UNL A   1      32.826  27.885  26.865  1.00  0.00     0.046 C 
ATOM     17  C   UNL A   1      32.912  26.590  26.127  1.00  0.00    -0.033 A 
ATOM     18  C   UNL A   1      34.054  26.210  25.431  1.00  0.00     0.009 A 
ATOM     19  C   UNL A   1      31.845  25.703  26.126  1.00  0.00     0.117 A 
ATOM     20  C   UNL A   1      34.076  24.981  24.773  1.00  0.00     0.047 A 
ATOM     21  N   UNL A   1      31.837  24.523  25.471  1.00  0.00    -0.239 NA
ENDBRANCH  10  15
BRANCH  14  22
ATOM     22  N   UNL A   1      33.941  18.945  25.204  1.00  0.00    -0.328 N 
ATOM     23  C   UNL A   1      34.764  18.108  24.293  1.00  0.00     0.291 C 
ATOM     24  C   UNL A   1      32.904  18.107  25.827  1.00  0.00     0.291 C 
ATOM     25  H   UNL A   1      34.503  19.285  25.983  1.00  0.00     0.348 HD
ATOM     26  C   UNL A   1      34.005  17.070  23.442  1.00  0.00     0.221 C 
ATOM     27  C   UNL A   1      32.199  17.089  24.926  1.00  0.00     0.221 C 
ATOM     28  O   UNL A   1      33.142  16.262  24.243  1.00  0.00    -0.370 OA
ENDBRANCH  14  22
ENDBRANCH   8   9
ENDBRANCH   7   8
ENDBRANCH   4   7
ENDBRANCH   2   3
ENDBRANCH   1   2
BRANCH   1  29
ATOM     29  C   UNL A   1      42.258  21.220  26.375  1.00  0.00     0.023 C 
BRANCH  29  30
ATOM     30  C   UNL A   1      42.088  22.370  25.397  1.00  0.00     0.116 C 
BRANCH  30  31
ATOM     31  N   UNL A   1      43.357  22.931  24.938  1.00  0.00    -0.352 N 
ATOM     32  C   UNL A   1      43.844  24.207  25.132  1.00  0.00     0.251 C 
ATOM     33  H   UNL A   1      43.937  22.321  24.426  1.00  0.00     0.163 HD
ATOM     34  O   UNL A   1      44.885  24.579  24.626  1.00  0.00    -0.269 OA
BRANCH  32  35
ATOM     35  C   UNL A   1      43.019  25.130  25.937  1.00  0.00     0.039 A 
ATOM     36  C   UNL A   1      42.152  24.596  26.891  1.00  0.00     0.014 A 
ATOM     37  C   UNL A   1      43.262  26.503  25.869  1.00  0.00     0.014 A 
ATOM     38  C   UNL A   1      41.615  25.438  27.863  1.00  0.00     0.010 A 
ATOM     39  C   UNL A   1      42.809  27.317  26.897  1.00  0.00     0.010 A 
ATOM     40  C   UNL A   1      41.996  26.789  27.914  1.00  0.00    -0.014 A 
BRANCH  40  41
ATOM     41  C   UNL A   1      41.589  27.673  29.034  1.00  0.00     0.031 A 
ATOM     42  C   UNL A   1      42.315  27.589  30.347  1.00  0.00     0.074 A 
ATOM     43  C   UNL A   1      40.505  28.464  28.907  1.00  0.00     0.049 A 
ATOM     44  N   UNL A   1      42.034  28.169  31.485  1.00  0.00    -0.248 NA
ATOM     45  C   UNL A   1      43.488  26.702  30.396  1.00  0.00     0.031 C 
ATOM     46  C   UNL A   1      39.675  28.587  27.706  1.00  0.00     0.029 A 
ATOM     47  N   UNL A   1      39.903  29.306  29.809  1.00  0.00    -0.354 N 
ATOM     48  C   UNL A   1      42.977  27.697  32.387  1.00  0.00     0.074 A 
ATOM     49  C   UNL A   1      43.802  26.741  31.681  1.00  0.00     0.031 C 
ATOM     50  C   UNL A   1      38.689  29.469  27.939  1.00  0.00     0.029 A 
ATOM     51  C   UNL A   1      38.790  29.941  29.314  1.00  0.00     0.049 A 
ATOM     52  H   UNL A   1      40.237  29.440  30.726  1.00  0.00     0.167 HD
ATOM     53  C   UNL A   1      43.157  28.047  33.681  1.00  0.00     0.037 A 
ATOM     54  C   UNL A   1      37.939  30.801  29.908  1.00  0.00     0.037 A 
ATOM     55  C   UNL A   1      42.365  29.033  34.366  1.00  0.00     0.049 A 
ATOM     56  C   UNL A   1      38.164  31.181  31.345  1.00  0.00     0.074 A 
ATOM     57  C   UNL A   1      42.526  29.528  35.647  1.00  0.00     0.029 A 
ATOM     58  N   UNL A   1      41.262  29.673  33.823  1.00  0.00    -0.354 N 
ATOM     59  N   UNL A   1      39.108  30.786  32.165  1.00  0.00    -0.248 NA
ATOM     60  C   UNL A   1      37.206  32.123  31.941  1.00  0.00     0.031 C 
ATOM     61  C   UNL A   1      41.497  30.442  35.893  1.00  0.00     0.029 A 
ATOM     62  C   UNL A   1      40.716  30.542  34.752  1.00  0.00     0.049 A 
ATOM     63  H   UNL A   1      40.918  29.531  32.911  1.00  0.00     0.167 HD
ATOM     64  C   UNL A   1      38.868  31.441  33.365  1.00  0.00     0.074 A 
ATOM     65  C   UNL A   1      37.699  32.272  33.162  1.00  0.00     0.031 C 
ATOM     66  C   UNL A   1      39.553  31.360  34.531  1.00  0.00     0.037 A 
BRANCH  53  67
ATOM     67  C   UNL A   1      44.262  27.369  34.431  1.00  0.00     0.057 A 
ATOM     68  C   UNL A   1      45.547  27.924  34.513  1.00  0.00     0.134 A 
ATOM     69  C   UNL A   1      44.037  26.157  35.095  1.00  0.00     0.134 A 
ATOM     70  F   UNL A   1      45.831  29.075  33.885  1.00  0.00    -0.206 F 
ATOM     71  C   UNL A   1      46.574  27.284  35.207  1.00  0.00     0.040 A 
ATOM     72  C   UNL A   1      45.049  25.521  35.814  1.00  0.00     0.040 A 
ATOM     73  F   UNL A   1      42.829  25.573  35.058  1.00  0.00    -0.206 F 
ATOM     74  C   UNL A   1      46.325  26.082  35.866  1.00  0.00     0.006 A 
ENDBRANCH  53  67
BRANCH  54  75
ATOM     75  C   UNL A   1      36.802  31.373  29.143  1.00  0.00     0.057 A 
ATOM     76  C   UNL A   1      35.666  30.606  28.864  1.00  0.00     0.134 A 
ATOM     77  C   UNL A   1      36.826  32.689  28.668  1.00  0.00     0.134 A 
ATOM     78  F   UNL A   1      35.595  29.331  29.275  1.00  0.00    -0.206 F 
ATOM     79  C   UNL A   1      34.598  31.121  28.127  1.00  0.00     0.040 A 
ATOM     80  C   UNL A   1      35.756  33.225  27.948  1.00  0.00     0.040 A 
ATOM     81  F   UNL A   1      37.884  33.478  28.907  1.00  0.00    -0.206 F 
ATOM     82  C   UNL A   1      34.640  32.437  27.671  1.00  0.00     0.006 A 
ENDBRANCH  54  75
BRANCH  66  83
ATOM     83  C   UNL A   1      39.066  32.198  35.674  1.00  0.00     0.057 A 
ATOM     84  C   UNL A   1      38.226  31.673  36.663  1.00  0.00     0.134 A 
ATOM     85  C   UNL A   1      39.489  33.526  35.817  1.00  0.00     0.134 A 
ATOM     86  F   UNL A   1      37.778  30.412  36.573  1.00  0.00    -0.206 F 
ATOM     87  C   UNL A   1      37.815  32.442  37.751  1.00  0.00     0.040 A 
ATOM     88  C   UNL A   1      39.102  34.298  36.913  1.00  0.00     0.040 A 
ATOM     89  F   UNL A   1      40.299  34.085  34.906  1.00  0.00    -0.206 F 
ATOM     90  C   UNL A   1      38.260  33.757  37.882  1.00  0.00     0.006 A 
ENDBRANCH  66  83
ENDBRANCH  40  41
ENDBRANCH  32  35
ENDBRANCH  30  31
ENDBRANCH  29  30
ENDBRANCH   1  29
TORSDOF 15
ENDMDL
MODEL 2
REMARK VINA RESULT:     -12.5      1.212      3.618
REMARK SMILES Cc1ccc(N2CC[C@H]([NH+]3CCOCC3)[C@H](CCC(=O)NCCCCNC(=O)c3ccc(-c4c5nc(c(-c6c(F)cccc6F)c6ccc([nH]6)c(-c6c(F)cccc6F)c6nc(c(-c7c(F)cccc7F)c7ccc4[nH]7)C=C6)C=C5)cc3)C2)nc1
REMARK SMILES IDX 23 1 22 2 21 3 19 4 20 5 18 7 17 8 16 9 6 10 7 11 83 12 8 13
REMARK SMILES IDX 9 14 5 15 1 16 2 17 3 18 85 19 4 20 84 21 10 22 11 23 15 24
REMARK SMILES IDX 12 26 14 27 13 28 24 29 25 30 26 31 27 32 28 34 29 35 30 36
REMARK SMILES IDX 82 37 31 38 81 39 32 40 33 41 34 42 75 43 35 44 80 45 74 46
REMARK SMILES IDX 76 47 36 48 79 49 73 50 72 51 37 53 63 54 46 55 62 56 47 57
REMARK SMILES IDX 50 58 61 59 77 60 48 61 49 62 60 64 78 65 51 66 38 67 39 68
REMARK SMILES IDX 44 69 40 70 41 71 43 72 45 73 42 74 64 75 65 76 70 77 66 78
REMARK SMILES IDX 67 79 69 80 71 81 68 82 52 83 53 84 58 85 54 86 55 87 57 88
REMARK SMILES IDX 59 89 56 90
REMARK H PARENT 21 6 10 25 26 33 76 52 50 63
REMARK Flexibility Score: inf
ROOT
ATOM      1  C   UNL A   1      40.729  21.363  27.342  1.00  0.00     0.023 C 
ENDROOT
BRANCH   1   2
ATOM      2  C   UNL A   1      39.666  22.370  26.874  1.00  0.00     0.116 C 
BRANCH   2   3
ATOM      3  N   UNL A   1      39.049  21.892  25.651  1.00  0.00    -0.356 N 
ATOM      4  C   UNL A   1      37.798  22.132  25.160  1.00  0.00     0.220 C 
ATOM      5  O   UNL A   1      37.399  21.435  24.226  1.00  0.00    -0.275 OA
ATOM      6  H   UNL A   1      39.615  21.311  25.095  1.00  0.00     0.163 HD
BRANCH   4   7
ATOM      7  C   UNL A   1      36.951  23.266  25.716  1.00  0.00     0.100 C 
BRANCH   7   8
ATOM      8  C   UNL A   1      35.567  23.465  25.061  1.00  0.00     0.021 C 
BRANCH   8   9
ATOM      9  C   UNL A   1      34.417  23.734  26.056  1.00  0.00     0.067 C 
ATOM     10  N   UNL A   1      32.916  21.748  26.108  1.00  0.00    -0.356 N 
ATOM     11  C   UNL A   1      31.751  22.511  25.705  1.00  0.00     0.124 C 
ATOM     12  C   UNL A   1      33.985  22.442  26.800  1.00  0.00     0.127 C 
ATOM     13  C   UNL A   1      32.163  23.695  24.841  1.00  0.00     0.087 C 
ATOM     14  C   UNL A   1      33.157  24.562  25.617  1.00  0.00     0.190 C 
BRANCH  10  15
ATOM     15  C   UNL A   1      33.200  20.605  25.387  1.00  0.00     0.128 A 
ATOM     16  C   UNL A   1      33.977  16.928  23.386  1.00  0.00     0.046 C 
ATOM     17  C   UNL A   1      33.749  18.222  24.095  1.00  0.00    -0.033 A 
ATOM     18  C   UNL A   1      34.798  18.987  24.593  1.00  0.00     0.009 A 
ATOM     19  C   UNL A   1      32.465  18.718  24.268  1.00  0.00     0.117 A 
ATOM     20  C   UNL A   1      34.520  20.193  25.233  1.00  0.00     0.047 A 
ATOM     21  N   UNL A   1      32.174  19.869  24.911  1.00  0.00    -0.239 NA
ENDBRANCH  10  15
BRANCH  14  22
ATOM     22  N   UNL A   1      33.412  25.918  25.086  1.00  0.00    -0.328 N 
ATOM     23  C   UNL A   1      33.720  26.926  26.133  1.00  0.00     0.291 C 
ATOM     24  C   UNL A   1      32.452  26.491  24.129  1.00  0.00     0.291 C 
ATOM     25  H   UNL A   1      34.241  25.714  24.530  1.00  0.00     0.348 HD
ATOM     26  C   UNL A   1      32.533  27.764  26.649  1.00  0.00     0.221 C 
ATOM     27  C   UNL A   1      31.304  27.322  24.710  1.00  0.00     0.221 C 
ATOM     28  O   UNL A   1      31.794  28.347  25.575  1.00  0.00    -0.370 OA
ENDBRANCH  14  22
ENDBRANCH   8   9
ENDBRANCH   7   8
ENDBRANCH   4   7
ENDBRANCH   2   3
ENDBRANCH   1   2
BRANCH   1  29
ATOM     29  C   UNL A   1      41.967  21.323  26.468  1.00  0.00     0.023 C 
BRANCH  29  30
ATOM     30  C   UNL A   1      43.000  22.353  26.892  1.00  0.00     0.116 C 
BRANCH  30  31
ATOM     31  N   UNL A   1      43.820  22.841  25.785  1.00  0.00    -0.352 N 
ATOM     32  C   UNL A   1      43.962  24.138  25.337  1.00  0.00     0.251 C 
ATOM     33  H   UNL A   1      44.336  22.157  25.298  1.00  0.00     0.163 HD
ATOM     34  O   UNL A   1      44.616  24.405  24.347  1.00  0.00    -0.269 OA
BRANCH  32  35
ATOM     35  C   UNL A   1      43.239  25.191  26.078  1.00  0.00     0.039 A 
ATOM     36  C   UNL A   1      42.029  24.868  26.694  1.00  0.00     0.014 A 
ATOM     37  C   UNL A   1      43.865  26.416  26.314  1.00  0.00     0.014 A 
ATOM     38  C   UNL A   1      41.502  25.737  27.647  1.00  0.00     0.010 A 
ATOM     39  C   UNL A   1      43.392  27.227  27.335  1.00  0.00     0.010 A 
ATOM     40  C   UNL A   1      42.217  26.886  28.024  1.00  0.00    -0.014 A 
BRANCH  40  41
ATOM     41  C   UNL A   1      41.780  27.739  29.157  1.00  0.00     0.031 A 
ATOM     42  C   UNL A   1      42.470  27.618  30.486  1.00  0.00     0.074 A 
ATOM     43  C   UNL A   1      40.700  28.535  29.023  1.00  0.00     0.049 A 
ATOM     44  N   UNL A   1      42.159  28.167  31.632  1.00  0.00    -0.248 NA
ATOM     45  C   UNL A   1      43.641  26.728  30.543  1.00  0.00     0.031 C 
ATOM     46  C   UNL A   1      39.903  28.692  27.804  1.00  0.00     0.029 A 
ATOM     47  N   UNL A   1      40.075  29.353  29.931  1.00  0.00    -0.354 N 
ATOM     48  C   UNL A   1      43.076  27.668  32.546  1.00  0.00     0.074 A 
ATOM     49  C   UNL A   1      43.920  26.731  31.836  1.00  0.00     0.031 C 
ATOM     50  C   UNL A   1      38.912  29.569  28.034  1.00  0.00     0.029 A 
ATOM     51  C   UNL A   1      38.976  30.003  29.424  1.00  0.00     0.049 A 
ATOM     52  H   UNL A   1      40.384  29.461  30.860  1.00  0.00     0.167 HD
ATOM     53  C   UNL A   1      43.221  27.982  33.854  1.00  0.00     0.037 A 
ATOM     54  C   UNL A   1      38.110  30.847  30.019  1.00  0.00     0.037 A 
ATOM     55  C   UNL A   1      42.412  28.949  34.544  1.00  0.00     0.049 A 
ATOM     56  C   UNL A   1      38.296  31.187  31.471  1.00  0.00     0.074 A 
ATOM     57  C   UNL A   1      42.539  29.409  35.842  1.00  0.00     0.029 A 
ATOM     58  N   UNL A   1      41.325  29.606  33.989  1.00  0.00    -0.354 N 
ATOM     59  N   UNL A   1      39.217  30.768  32.305  1.00  0.00    -0.248 NA
ATOM     60  C   UNL A   1      37.323  32.113  32.066  1.00  0.00     0.031 C 
ATOM     61  C   UNL A   1      41.504  30.317  36.085  1.00  0.00     0.029 A 
ATOM     62  C   UNL A   1      40.755  30.450  34.927  1.00  0.00     0.049 A 
ATOM     63  H   UNL A   1      41.005  29.490  33.064  1.00  0.00     0.167 HD
ATOM     64  C   UNL A   1      38.946  31.390  33.516  1.00  0.00     0.074 A 
ATOM     65  C   UNL A   1      37.783  32.228  33.305  1.00  0.00     0.031 C 
ATOM     66  C   UNL A   1      39.598  31.276  34.697  1.00  0.00     0.037 A 
BRANCH  53  67
ATOM     67  C   UNL A   1      44.306  27.282  34.614  1.00  0.00     0.057 A 
ATOM     68  C   UNL A   1      44.084  26.053  35.250  1.00  0.00     0.134 A 
ATOM     69  C   UNL A   1      45.591  27.831  34.696  1.00  0.00     0.134 A 
ATOM     70  F   UNL A   1      42.870  25.483  35.222  1.00  0.00    -0.206 F 
ATOM     71  C   UNL A   1      45.095  25.408  35.963  1.00  0.00     0.040 A 
ATOM     72  C   UNL A   1      46.618  27.183  35.384  1.00  0.00     0.040 A 
ATOM     73  F   UNL A   1      45.870  29.004  34.108  1.00  0.00    -0.206 F 
ATOM     74  C   UNL A   1      46.369  25.970  36.025  1.00  0.00     0.006 A 
ENDBRANCH  53  67
BRANCH  54  75
ATOM     75  C   UNL A   1      36.995  31.442  29.239  1.00  0.00     0.057 A 
ATOM     76  C   UNL A   1      35.860  30.688  28.918  1.00  0.00     0.134 A 
ATOM     77  C   UNL A   1      37.038  32.767  28.792  1.00  0.00     0.134 A 
ATOM     78  F   UNL A   1      35.773  29.406  29.302  1.00  0.00    -0.206 F 
ATOM     79  C   UNL A   1      34.813  31.225  28.168  1.00  0.00     0.040 A 
ATOM     80  C   UNL A   1      35.988  33.324  28.058  1.00  0.00     0.040 A 
ATOM     81  F   UNL A   1      38.095  33.544  29.071  1.00  0.00    -0.206 F 
ATOM     82  C   UNL A   1      34.874  32.550  27.740  1.00  0.00     0.006 A 
ENDBRANCH  54  75
BRANCH  66  83
ATOM     83  C   UNL A   1      39.082  32.083  35.849  1.00  0.00     0.057 A 
ATOM     84  C   UNL A   1      38.233  31.525  36.813  1.00  0.00     0.134 A 
ATOM     85  C   UNL A   1      39.483  33.413  36.027  1.00  0.00     0.134 A 
ATOM     86  F   UNL A   1      37.804  30.259  36.690  1.00  0.00    -0.206 F 
ATOM     87  C   UNL A   1      37.794  32.265  37.910  1.00  0.00     0.040 A 
ATOM     88  C   UNL A   1      39.068  34.156  37.132  1.00  0.00     0.040 A 
ATOM     89  F   UNL A   1      40.299  34.002  35.141  1.00  0.00    -0.206 F 
ATOM     90  C   UNL A   1      38.218  33.582  38.076  1.00  0.00     0.006 A 
ENDBRANCH  66  83
ENDBRANCH  40  41
ENDBRANCH  32  35
ENDBRANCH  30  31
ENDBRANCH  29  30
ENDBRANCH   1  29
TORSDOF 15
ENDMDL
MODEL 3
REMARK VINA RESULT:     -12.4      3.610      5.819
REMARK SMILES Cc1ccc(N2CC[C@H]([NH+]3CCOCC3)[C@H](CCC(=O)NCCCCNC(=O)c3ccc(-c4c5nc(c(-c6c(F)cccc6F)c6ccc([nH]6)c(-c6c(F)cccc6F)c6nc(c(-c7c(F)cccc7F)c7ccc4[nH]7)C=C6)C=C5)cc3)C2)nc1
REMARK SMILES IDX 23 1 22 2 21 3 19 4 20 5 18 7 17 8 16 9 6 10 7 11 83 12 8 13
REMARK SMILES IDX 9 14 5 15 1 16 2 17 3 18 85 19 4 20 84 21 10 22 11 23 15 24
REMARK SMILES IDX 12 26 14 27 13 28 24 29 25 30 26 31 27 32 28 34 29 35 30 36
REMARK SMILES IDX 82 37 31 38 81 39 32 40 33 41 34 42 75 43 35 44 80 45 74 46
REMARK SMILES IDX 76 47 36 48 79 49 73 50 72 51 37 53 63 54 46 55 62 56 47 57
REMARK SMILES IDX 50 58 61 59 77 60 48 61 49 62 60 64 78 65 51 66 38 67 39 68
REMARK SMILES IDX 44 69 40 70 41 71 43 72 45 73 42 74 64 75 65 76 70 77 66 78
REMARK SMILES IDX 67 79 69 80 71 81 68 82 52 83 53 84 58 85 54 86 55 87 57 88
REMARK SMILES IDX 59 89 56 90
REMARK H PARENT 21 6 10 25 26 33 76 52 50 63
REMARK Flexibility Score: inf
ROOT
ATOM      1  C   UNL A   1      37.055  22.537  24.655  1.00  0.00     0.023 C 
ENDROOT
BRANCH   1   2
ATOM      2  C   UNL A   1      36.584  23.354  25.869  1.00  0.00     0.116 C 
BRANCH   2   3
ATOM      3  N   UNL A   1      35.662  22.561  26.659  1.00  0.00    -0.356 N 
ATOM      4  C   UNL A   1      34.402  22.866  27.088  1.00  0.00     0.220 C 
ATOM      5  O   UNL A   1      33.891  22.146  27.947  1.00  0.00    -0.275 OA
ATOM      6  H   UNL A   1      35.993  21.673  26.926  1.00  0.00     0.163 HD
BRANCH   4   7
ATOM      7  C   UNL A   1      33.635  24.029  26.475  1.00  0.00     0.100 C 
BRANCH   7   8
ATOM      8  C   UNL A   1      32.150  23.765  26.146  1.00  0.00     0.021 C 
BRANCH   8   9
ATOM      9  C   UNL A   1      31.713  24.220  24.737  1.00  0.00     0.067 C 
ATOM     10  N   UNL A   1      32.160  22.377  23.122  1.00  0.00    -0.356 N 
ATOM     11  C   UNL A   1      33.034  23.192  22.302  1.00  0.00     0.124 C 
ATOM     12  C   UNL A   1      31.136  23.043  23.906  1.00  0.00     0.127 C 
ATOM     13  C   UNL A   1      33.723  24.253  23.151  1.00  0.00     0.087 C 
ATOM     14  C   UNL A   1      32.662  25.104  23.851  1.00  0.00     0.190 C 
BRANCH  10  15
ATOM     15  C   UNL A   1      32.646  21.153  23.536  1.00  0.00     0.128 A 
ATOM     16  C   UNL A   1      34.380  17.428  24.653  1.00  0.00     0.046 C 
ATOM     17  C   UNL A   1      33.744  18.712  24.234  1.00  0.00    -0.033 A 
ATOM     18  C   UNL A   1      32.671  18.751  23.350  1.00  0.00     0.009 A 
ATOM     19  C   UNL A   1      34.198  19.924  24.733  1.00  0.00     0.117 A 
ATOM     20  C   UNL A   1      32.112  19.981  23.008  1.00  0.00     0.047 A 
ATOM     21  N   UNL A   1      33.689  21.126  24.392  1.00  0.00    -0.239 NA
ENDBRANCH  10  15
BRANCH  14  22
ATOM     22  N   UNL A   1      33.118  26.379  24.444  1.00  0.00    -0.328 N 
ATOM     23  C   UNL A   1      32.043  27.143  25.128  1.00  0.00     0.291 C 
ATOM     24  C   UNL A   1      33.911  27.298  23.613  1.00  0.00     0.291 C 
ATOM     25  H   UNL A   1      33.780  26.007  25.123  1.00  0.00     0.348 HD
ATOM     26  C   UNL A   1      31.331  28.225  24.292  1.00  0.00     0.221 C 
ATOM     27  C   UNL A   1      33.141  28.356  22.817  1.00  0.00     0.221 C 
ATOM     28  O   UNL A   1      32.266  29.103  23.663  1.00  0.00    -0.370 OA
ENDBRANCH  14  22
ENDBRANCH   8   9
ENDBRANCH   7   8
ENDBRANCH   4   7
ENDBRANCH   2   3
ENDBRANCH   1   2
BRANCH   1  29
ATOM     29  C   UNL A   1      37.598  21.166  25.008  1.00  0.00     0.023 C 
BRANCH  29  30
ATOM     30  C   UNL A   1      38.927  21.249  25.739  1.00  0.00     0.116 C 
BRANCH  30  31
ATOM     31  N   UNL A   1      39.692  20.004  25.691  1.00  0.00    -0.352 N 
ATOM     32  C   UNL A   1      41.010  19.800  26.045  1.00  0.00     0.251 C 
ATOM     33  H   UNL A   1      39.205  19.212  25.366  1.00  0.00     0.163 HD
ATOM     34  O   UNL A   1      41.558  18.727  25.880  1.00  0.00    -0.269 OA
BRANCH  32  35
ATOM     35  C   UNL A   1      41.752  20.958  26.582  1.00  0.00     0.039 A 
ATOM     36  C   UNL A   1      42.322  21.864  25.686  1.00  0.00     0.014 A 
ATOM     37  C   UNL A   1      41.699  21.231  27.950  1.00  0.00     0.014 A 
ATOM     38  C   UNL A   1      42.739  23.108  26.156  1.00  0.00     0.010 A 
ATOM     39  C   UNL A   1      42.019  22.505  28.394  1.00  0.00     0.010 A 
ATOM     40  C   UNL A   1      42.525  23.462  27.499  1.00  0.00    -0.014 A 
BRANCH  40  41
ATOM     41  C   UNL A   1      42.789  24.835  27.994  1.00  0.00     0.031 A 
ATOM     42  C   UNL A   1      44.175  25.212  28.435  1.00  0.00     0.074 A 
ATOM     43  C   UNL A   1      41.767  25.702  28.151  1.00  0.00     0.049 A 
ATOM     44  N   UNL A   1      44.587  26.306  29.021  1.00  0.00    -0.248 NA
ATOM     45  C   UNL A   1      45.229  24.207  28.226  1.00  0.00     0.031 C 
ATOM     46  C   UNL A   1      40.365  25.435  27.822  1.00  0.00     0.029 A 
ATOM     47  N   UNL A   1      41.751  26.983  28.646  1.00  0.00    -0.354 N 
ATOM     48  C   UNL A   1      45.937  26.108  29.273  1.00  0.00     0.074 A 
ATOM     49  C   UNL A   1      46.263  24.771  28.829  1.00  0.00     0.031 C 
ATOM     50  C   UNL A   1      39.631  26.525  28.101  1.00  0.00     0.029 A 
ATOM     51  C   UNL A   1      40.500  27.550  28.667  1.00  0.00     0.049 A 
ATOM     52  H   UNL A   1      42.560  27.450  28.957  1.00  0.00     0.167 HD
ATOM     53  C   UNL A   1      46.832  26.973  29.803  1.00  0.00     0.037 A 
ATOM     54  C   UNL A   1      40.097  28.759  29.105  1.00  0.00     0.037 A 
ATOM     55  C   UNL A   1      46.515  28.318  30.200  1.00  0.00     0.049 A 
ATOM     56  C   UNL A   1      41.112  29.706  29.682  1.00  0.00     0.074 A 
ATOM     57  C   UNL A   1      47.369  29.305  30.659  1.00  0.00     0.029 A 
ATOM     58  N   UNL A   1      45.242  28.864  30.182  1.00  0.00    -0.354 N 
ATOM     59  N   UNL A   1      42.402  29.535  29.843  1.00  0.00    -0.248 NA
ATOM     60  C   UNL A   1      40.617  31.010  30.143  1.00  0.00     0.031 C 
ATOM     61  C   UNL A   1      46.606  30.438  30.955  1.00  0.00     0.029 A 
ATOM     62  C   UNL A   1      45.282  30.168  30.647  1.00  0.00     0.049 A 
ATOM     63  H   UNL A   1      44.428  28.396  29.884  1.00  0.00     0.167 HD
ATOM     64  C   UNL A   1      42.875  30.712  30.406  1.00  0.00     0.074 A 
ATOM     65  C   UNL A   1      41.736  31.596  30.545  1.00  0.00     0.031 C 
ATOM     66  C   UNL A   1      44.138  31.032  30.778  1.00  0.00     0.037 A 
BRANCH  53  67
ATOM     67  C   UNL A   1      48.242  26.490  29.969  1.00  0.00     0.057 A 
ATOM     68  C   UNL A   1      49.209  26.685  28.973  1.00  0.00     0.134 A 
ATOM     69  C   UNL A   1      48.641  25.841  31.143  1.00  0.00     0.134 A 
ATOM     70  F   UNL A   1      48.884  27.285  27.818  1.00  0.00    -0.206 F 
ATOM     71  C   UNL A   1      50.517  26.227  29.129  1.00  0.00     0.040 A 
ATOM     72  C   UNL A   1      49.954  25.402  31.322  1.00  0.00     0.040 A 
ATOM     73  F   UNL A   1      47.765  25.626  32.136  1.00  0.00    -0.206 F 
ATOM     74  C   UNL A   1      50.895  25.589  30.310  1.00  0.00     0.006 A 
ENDBRANCH  53  67
BRANCH  54  75
ATOM     75  C   UNL A   1      38.669  29.151  29.002  1.00  0.00     0.057 A 
ATOM     76  C   UNL A   1      37.818  29.063  30.110  1.00  0.00     0.134 A 
ATOM     77  C   UNL A   1      38.119  29.613  27.801  1.00  0.00     0.134 A 
ATOM     78  F   UNL A   1      38.284  28.607  31.282  1.00  0.00    -0.206 F 
ATOM     79  C   UNL A   1      36.468  29.407  30.025  1.00  0.00     0.040 A 
ATOM     80  C   UNL A   1      36.775  29.981  27.707  1.00  0.00     0.040 A 
ATOM     81  F   UNL A   1      38.883  29.726  26.704  1.00  0.00    -0.206 F 
ATOM     82  C   UNL A   1      35.944  29.872  28.821  1.00  0.00     0.006 A 
ENDBRANCH  54  75
BRANCH  66  83
ATOM     83  C   UNL A   1      44.359  32.396  31.357  1.00  0.00     0.057 A 
ATOM     84  C   UNL A   1      44.343  32.617  32.739  1.00  0.00     0.134 A 
ATOM     85  C   UNL A   1      44.650  33.486  30.527  1.00  0.00     0.134 A 
ATOM     86  F   UNL A   1      44.058  31.614  33.584  1.00  0.00    -0.206 F 
ATOM     87  C   UNL A   1      44.599  33.878  33.277  1.00  0.00     0.040 A 
ATOM     88  C   UNL A   1      44.929  34.747  31.054  1.00  0.00     0.040 A 
ATOM     89  F   UNL A   1      44.686  33.337  29.194  1.00  0.00    -0.206 F 
ATOM     90  C   UNL A   1      44.901  34.946  32.433  1.00  0.00     0.006 A 
ENDBRANCH  66  83
ENDBRANCH  40  41
ENDBRANCH  32  35
ENDBRANCH  30  31
ENDBRANCH  29  30
ENDBRANCH   1  29
TORSDOF 15
ENDMDL
