MODEL 1
REMARK VINA RESULT:     -12.2      0.000      0.000
REMARK SMILES O=C(NCCCCNC(=O)c1ccc(S(=O)(=O)Cc2ncccn2)c(F)c1)c1ccc(-c2c3nc(c(-c4c(F)cccc4F)c4ccc([nH]4)c(-c4c(F)cccc4F)c4nc(c(-c5c(F)cccc5F)c5ccc2[nH]5)C=C4)C=C3)cc1
REMARK SMILES IDX 6 1 5 2 4 3 3 4 1 5 2 6 28 8 29 9 81 10 30 11 80 12 31 13
REMARK SMILES IDX 32 14 33 15 74 16 34 17 79 18 73 19 75 20 35 21 78 22 72 23
REMARK SMILES IDX 71 24 36 26 62 27 45 28 61 29 46 30 49 31 60 32 76 33 47 34
REMARK SMILES IDX 48 35 59 37 77 38 50 39 37 40 38 41 43 42 39 43 40 44 42 45
REMARK SMILES IDX 44 46 41 47 63 48 64 49 69 50 65 51 66 52 68 53 70 54 67 55
REMARK SMILES IDX 51 56 52 57 57 58 53 59 54 60 56 61 58 62 55 63 7 64 8 65
REMARK SMILES IDX 9 66 10 68 11 69 12 70 27 71 13 72 25 73 14 74 26 75 15 76
REMARK SMILES IDX 16 77 17 78 18 79 19 80 20 81 24 82 21 83 23 84 22 85
REMARK H PARENT 3 7 75 25 49 36 8 67
REMARK Flexibility Score: inf
ROOT
ATOM      1  C   UNL A   1      31.419  30.636  25.827  1.00  0.00     0.023 C 
ENDROOT
BRANCH   1   2
ATOM      2  C   UNL A   1      31.293  32.002  26.506  1.00  0.00     0.023 C 
BRANCH   2   3
ATOM      3  C   UNL A   1      32.543  32.487  27.233  1.00  0.00     0.116 C 
BRANCH   3   4
ATOM      4  N   UNL A   1      32.462  33.887  27.616  1.00  0.00    -0.352 N 
ATOM      5  O   UNL A   1      32.907  35.744  28.810  1.00  0.00    -0.269 OA
ATOM      6  C   UNL A   1      33.226  34.597  28.507  1.00  0.00     0.251 C 
ATOM      7  H   UNL A   1      31.751  34.402  27.169  1.00  0.00     0.163 HD
BRANCH   6   8
ATOM      8  C   UNL A   1      34.419  33.979  29.124  1.00  0.00     0.039 A 
ATOM      9  C   UNL A   1      35.696  34.509  28.920  1.00  0.00     0.014 A 
ATOM     10  C   UNL A   1      34.244  32.864  29.947  1.00  0.00     0.014 A 
ATOM     11  C   UNL A   1      36.809  33.855  29.441  1.00  0.00     0.010 A 
ATOM     12  C   UNL A   1      35.355  32.246  30.522  1.00  0.00     0.010 A 
ATOM     13  C   UNL A   1      36.648  32.723  30.254  1.00  0.00    -0.014 A 
BRANCH  13  14
ATOM     14  C   UNL A   1      37.827  32.068  30.868  1.00  0.00     0.031 A 
ATOM     15  C   UNL A   1      38.562  30.977  30.147  1.00  0.00     0.074 A 
ATOM     16  C   UNL A   1      38.214  32.445  32.101  1.00  0.00     0.049 A 
ATOM     17  N   UNL A   1      39.557  30.238  30.567  1.00  0.00    -0.248 NA
ATOM     18  C   UNL A   1      38.118  30.668  28.779  1.00  0.00     0.031 C 
ATOM     19  C   UNL A   1      37.578  33.494  32.898  1.00  0.00     0.029 A 
ATOM     20  N   UNL A   1      39.228  31.983  32.901  1.00  0.00    -0.354 N 
ATOM     21  C   UNL A   1      39.842  29.361  29.528  1.00  0.00     0.074 A 
ATOM     22  C   UNL A   1      38.907  29.649  28.463  1.00  0.00     0.031 C 
ATOM     23  C   UNL A   1      38.223  33.606  34.068  1.00  0.00     0.029 A 
ATOM     24  C   UNL A   1      39.279  32.601  34.126  1.00  0.00     0.049 A 
ATOM     25  H   UNL A   1      39.856  31.277  32.625  1.00  0.00     0.167 HD
ATOM     26  C   UNL A   1      40.801  28.407  29.474  1.00  0.00     0.037 A 
ATOM     27  C   UNL A   1      40.066  32.366  35.192  1.00  0.00     0.037 A 
ATOM     28  C   UNL A   1      41.744  28.144  30.529  1.00  0.00     0.049 A 
ATOM     29  C   UNL A   1      41.093  31.276  35.125  1.00  0.00     0.074 A 
ATOM     30  C   UNL A   1      42.795  27.243  30.538  1.00  0.00     0.029 A 
ATOM     31  N   UNL A   1      41.745  28.772  31.766  1.00  0.00    -0.354 N 
ATOM     32  N   UNL A   1      41.375  30.475  34.126  1.00  0.00    -0.248 NA
ATOM     33  C   UNL A   1      41.902  31.046  36.330  1.00  0.00     0.031 C 
ATOM     34  C   UNL A   1      43.401  27.292  31.796  1.00  0.00     0.029 A 
ATOM     35  C   UNL A   1      42.757  28.254  32.556  1.00  0.00     0.049 A 
ATOM     36  H   UNL A   1      41.118  29.480  32.039  1.00  0.00     0.167 HD
ATOM     37  C   UNL A   1      42.400  29.655  34.574  1.00  0.00     0.074 A 
ATOM     38  C   UNL A   1      42.695  30.057  35.935  1.00  0.00     0.031 C 
ATOM     39  C   UNL A   1      43.038  28.661  33.910  1.00  0.00     0.037 A 
BRANCH  26  40
ATOM     40  C   UNL A   1      40.872  27.558  28.238  1.00  0.00     0.057 A 
ATOM     41  C   UNL A   1      41.623  27.976  27.133  1.00  0.00     0.134 A 
ATOM     42  C   UNL A   1      40.157  26.360  28.120  1.00  0.00     0.134 A 
ATOM     43  F   UNL A   1      42.324  29.118  27.177  1.00  0.00    -0.206 F 
ATOM     44  C   UNL A   1      41.656  27.234  25.951  1.00  0.00     0.040 A 
ATOM     45  C   UNL A   1      40.199  25.599  26.951  1.00  0.00     0.040 A 
ATOM     46  F   UNL A   1      39.426  25.900  29.148  1.00  0.00    -0.206 F 
ATOM     47  C   UNL A   1      40.945  26.039  25.859  1.00  0.00     0.006 A 
ENDBRANCH  26  40
BRANCH  27  48
ATOM     48  C   UNL A   1      39.886  33.194  36.407  1.00  0.00     0.057 A 
ATOM     49  C   UNL A   1      38.919  32.873  37.368  1.00  0.00     0.134 A 
ATOM     50  C   UNL A   1      40.611  34.376  36.585  1.00  0.00     0.134 A 
ATOM     51  F   UNL A   1      38.185  31.757  37.242  1.00  0.00    -0.206 F 
ATOM     52  C   UNL A   1      38.656  33.715  38.448  1.00  0.00     0.040 A 
ATOM     53  C   UNL A   1      40.371  35.219  37.672  1.00  0.00     0.040 A 
ATOM     54  F   UNL A   1      41.556  34.728  35.703  1.00  0.00    -0.206 F 
ATOM     55  C   UNL A   1      39.382  34.895  38.600  1.00  0.00     0.006 A 
ENDBRANCH  27  48
BRANCH  39  56
ATOM     56  C   UNL A   1      44.132  27.935  34.630  1.00  0.00     0.057 A 
ATOM     57  C   UNL A   1      45.453  28.397  34.572  1.00  0.00     0.134 A 
ATOM     58  C   UNL A   1      43.896  26.722  35.288  1.00  0.00     0.134 A 
ATOM     59  F   UNL A   1      45.744  29.549  33.948  1.00  0.00    -0.206 F 
ATOM     60  C   UNL A   1      46.505  27.666  35.123  1.00  0.00     0.040 A 
ATOM     61  C   UNL A   1      44.938  25.990  35.859  1.00  0.00     0.040 A 
ATOM     62  F   UNL A   1      42.650  26.233  35.384  1.00  0.00    -0.206 F 
ATOM     63  C   UNL A   1      46.249  26.457  35.767  1.00  0.00     0.006 A 
ENDBRANCH  39  56
ENDBRANCH  13  14
ENDBRANCH   6   8
ENDBRANCH   3   4
ENDBRANCH   2   3
ENDBRANCH   1   2
BRANCH   1  64
ATOM     64  C   UNL A   1      32.791  29.975  25.943  1.00  0.00     0.116 C 
BRANCH  64  65
ATOM     65  N   UNL A   1      33.355  29.649  24.642  1.00  0.00    -0.352 N 
ATOM     66  C   UNL A   1      33.498  28.419  24.058  1.00  0.00     0.251 C 
ATOM     67  H   UNL A   1      33.677  30.413  24.112  1.00  0.00     0.163 HD
ATOM     68  O   UNL A   1      34.090  28.280  22.995  1.00  0.00    -0.269 OA
BRANCH  66  69
ATOM     69  C   UNL A   1      32.933  27.243  24.735  1.00  0.00     0.042 A 
ATOM     70  C   UNL A   1      33.743  26.460  25.566  1.00  0.00     0.015 A 
ATOM     71  C   UNL A   1      31.597  26.911  24.509  1.00  0.00     0.054 A 
ATOM     72  C   UNL A   1      33.206  25.321  26.165  1.00  0.00     0.024 A 
ATOM     73  C   UNL A   1      31.082  25.755  25.085  1.00  0.00     0.142 A 
ATOM     74  C   UNL A   1      31.870  24.972  25.920  1.00  0.00     0.103 A 
ATOM     75  F   UNL A   1      29.830  25.395  24.778  1.00  0.00    -0.206 F 
BRANCH  74  76
ATOM     76  S   UNL A   1      31.238  23.478  26.617  1.00  0.00     0.188 S 
ATOM     77  O   UNL A   1      32.293  23.012  27.504  1.00  0.00    -0.223 OA
ATOM     78  O   UNL A   1      29.943  23.809  27.188  1.00  0.00    -0.223 OA
BRANCH  76  79
ATOM     79  C   UNL A   1      31.016  22.253  25.372  1.00  0.00     0.219 C 
BRANCH  79  80
ATOM     80  C   UNL A   1      32.242  21.418  25.253  1.00  0.00     0.143 A 
ATOM     81  N   UNL A   1      32.103  20.085  25.392  1.00  0.00    -0.240 NA
ATOM     82  N   UNL A   1      33.391  22.014  24.888  1.00  0.00    -0.240 NA
ATOM     83  C   UNL A   1      33.192  19.327  25.162  1.00  0.00     0.115 A 
ATOM     84  C   UNL A   1      34.455  21.213  24.680  1.00  0.00     0.115 A 
ATOM     85  C   UNL A   1      34.409  19.845  24.799  1.00  0.00     0.040 A 
ENDBRANCH  79  80
ENDBRANCH  76  79
ENDBRANCH  74  76
ENDBRANCH  66  69
ENDBRANCH  64  65
ENDBRANCH   1  64
TORSDOF 14
ENDMDL
MODEL 2
REMARK VINA RESULT:     -12.0      0.203      1.768
REMARK SMILES O=C(NCCCCNC(=O)c1ccc(S(=O)(=O)Cc2ncccn2)c(F)c1)c1ccc(-c2c3nc(c(-c4c(F)cccc4F)c4ccc([nH]4)c(-c4c(F)cccc4F)c4nc(c(-c5c(F)cccc5F)c5ccc2[nH]5)C=C4)C=C3)cc1
REMARK SMILES IDX 6 1 5 2 4 3 3 4 1 5 2 6 28 8 29 9 81 10 30 11 80 12 31 13
REMARK SMILES IDX 32 14 33 15 74 16 34 17 79 18 73 19 75 20 35 21 78 22 72 23
REMARK SMILES IDX 71 24 36 26 62 27 45 28 61 29 46 30 49 31 60 32 76 33 47 34
REMARK SMILES IDX 48 35 59 37 77 38 50 39 37 40 38 41 43 42 39 43 40 44 42 45
REMARK SMILES IDX 44 46 41 47 63 48 64 49 69 50 65 51 66 52 68 53 70 54 67 55
REMARK SMILES IDX 51 56 52 57 57 58 53 59 54 60 56 61 58 62 55 63 7 64 8 65
REMARK SMILES IDX 9 66 10 68 11 69 12 70 27 71 13 72 25 73 14 74 26 75 15 76
REMARK SMILES IDX 16 77 17 78 18 79 19 80 20 81 24 82 21 83 23 84 22 85
REMARK H PARENT 3 7 75 25 49 36 8 67
REMARK Flexibility Score: inf
ROOT
ATOM      1  C   UNL A   1      31.407  30.919  25.863  1.00  0.00     0.023 C 
ENDROOT
BRANCH   1   2
ATOM      2  C   UNL A   1      31.385  32.082  26.857  1.00  0.00     0.023 C 
BRANCH   2   3
ATOM      3  C   UNL A   1      32.686  32.868  26.971  1.00  0.00     0.116 C 
BRANCH   3   4
ATOM      4  N   UNL A   1      32.510  34.154  27.626  1.00  0.00    -0.352 N 
ATOM      5  O   UNL A   1      32.776  35.733  29.210  1.00  0.00    -0.269 OA
ATOM      6  C   UNL A   1      33.171  34.686  28.705  1.00  0.00     0.251 C 
ATOM      7  H   UNL A   1      31.811  34.729  27.238  1.00  0.00     0.163 HD
BRANCH   6   8
ATOM      8  C   UNL A   1      34.342  33.990  29.278  1.00  0.00     0.039 A 
ATOM      9  C   UNL A   1      34.188  32.966  30.216  1.00  0.00     0.014 A 
ATOM     10  C   UNL A   1      35.618  34.356  28.840  1.00  0.00     0.014 A 
ATOM     11  C   UNL A   1      35.311  32.389  30.803  1.00  0.00     0.010 A 
ATOM     12  C   UNL A   1      36.742  33.732  29.382  1.00  0.00     0.010 A 
ATOM     13  C   UNL A   1      36.597  32.760  30.386  1.00  0.00    -0.014 A 
BRANCH  13  14
ATOM     14  C   UNL A   1      37.792  32.097  30.959  1.00  0.00     0.031 A 
ATOM     15  C   UNL A   1      38.516  31.026  30.197  1.00  0.00     0.074 A 
ATOM     16  C   UNL A   1      38.203  32.446  32.192  1.00  0.00     0.049 A 
ATOM     17  N   UNL A   1      39.524  30.283  30.578  1.00  0.00    -0.248 NA
ATOM     18  C   UNL A   1      38.044  30.748  28.832  1.00  0.00     0.031 C 
ATOM     19  C   UNL A   1      37.579  33.472  33.027  1.00  0.00     0.029 A 
ATOM     20  N   UNL A   1      39.236  31.970  32.960  1.00  0.00    -0.354 N 
ATOM     21  C   UNL A   1      39.791  29.432  29.513  1.00  0.00     0.074 A 
ATOM     22  C   UNL A   1      38.831  29.741  28.475  1.00  0.00     0.031 C 
ATOM     23  C   UNL A   1      38.249  33.561  34.186  1.00  0.00     0.029 A 
ATOM     24  C   UNL A   1      39.310  32.559  34.198  1.00  0.00     0.049 A 
ATOM     25  H   UNL A   1      39.861  31.275  32.654  1.00  0.00     0.167 HD
ATOM     26  C   UNL A   1      40.752  28.485  29.416  1.00  0.00     0.037 A 
ATOM     27  C   UNL A   1      40.121  32.303  35.241  1.00  0.00     0.037 A 
ATOM     28  C   UNL A   1      41.718  28.201  30.444  1.00  0.00     0.049 A 
ATOM     29  C   UNL A   1      41.151  31.220  35.127  1.00  0.00     0.074 A 
ATOM     30  C   UNL A   1      42.774  27.305  30.410  1.00  0.00     0.029 A 
ATOM     31  N   UNL A   1      41.742  28.800  31.695  1.00  0.00    -0.354 N 
ATOM     32  N   UNL A   1      41.415  30.445  34.103  1.00  0.00    -0.248 NA
ATOM     33  C   UNL A   1      41.987  30.966  36.308  1.00  0.00     0.031 C 
ATOM     34  C   UNL A   1      43.406  27.328  31.656  1.00  0.00     0.029 A 
ATOM     35  C   UNL A   1      42.773  28.269  32.452  1.00  0.00     0.049 A 
ATOM     36  H   UNL A   1      41.119  29.498  31.999  1.00  0.00     0.167 HD
ATOM     37  C   UNL A   1      42.453  29.620  34.509  1.00  0.00     0.074 A 
ATOM     38  C   UNL A   1      42.776  29.990  35.873  1.00  0.00     0.031 C 
ATOM     39  C   UNL A   1      43.081  28.644  33.809  1.00  0.00     0.037 A 
BRANCH  26  40
ATOM     40  C   UNL A   1      40.800  27.665  28.159  1.00  0.00     0.057 A 
ATOM     41  C   UNL A   1      40.132  26.436  28.089  1.00  0.00     0.134 A 
ATOM     42  C   UNL A   1      41.548  28.060  27.045  1.00  0.00     0.134 A 
ATOM     43  F   UNL A   1      39.405  25.995  29.126  1.00  0.00    -0.206 F 
ATOM     44  C   UNL A   1      40.211  25.627  26.954  1.00  0.00     0.040 A 
ATOM     45  C   UNL A   1      41.617  27.270  25.896  1.00  0.00     0.040 A 
ATOM     46  F   UNL A   1      42.204  29.231  27.046  1.00  0.00    -0.206 F 
ATOM     47  C   UNL A   1      40.953  26.046  25.852  1.00  0.00     0.006 A 
ENDBRANCH  26  40
BRANCH  27  48
ATOM     48  C   UNL A   1      39.963  33.101  36.479  1.00  0.00     0.057 A 
ATOM     49  C   UNL A   1      40.774  34.214  36.734  1.00  0.00     0.134 A 
ATOM     50  C   UNL A   1      39.067  32.709  37.477  1.00  0.00     0.134 A 
ATOM     51  F   UNL A   1      41.662  34.629  35.818  1.00  0.00    -0.206 F 
ATOM     52  C   UNL A   1      40.720  34.892  37.952  1.00  0.00     0.040 A 
ATOM     53  C   UNL A   1      38.989  33.390  38.693  1.00  0.00     0.040 A 
ATOM     54  F   UNL A   1      38.259  31.656  37.284  1.00  0.00    -0.206 F 
ATOM     55  C   UNL A   1      39.827  34.477  38.938  1.00  0.00     0.006 A 
ENDBRANCH  27  48
BRANCH  39  56
ATOM     56  C   UNL A   1      44.194  27.907  34.487  1.00  0.00     0.057 A 
ATOM     57  C   UNL A   1      43.936  26.734  35.209  1.00  0.00     0.134 A 
ATOM     58  C   UNL A   1      45.498  28.415  34.516  1.00  0.00     0.134 A 
ATOM     59  F   UNL A   1      42.704  26.203  35.226  1.00  0.00    -0.206 F 
ATOM     60  C   UNL A   1      44.933  26.106  35.955  1.00  0.00     0.040 A 
ATOM     61  C   UNL A   1      46.507  27.785  35.245  1.00  0.00     0.040 A 
ATOM     62  F   UNL A   1      45.808  29.529  33.837  1.00  0.00    -0.206 F 
ATOM     63  C   UNL A   1      46.222  26.633  35.977  1.00  0.00     0.006 A 
ENDBRANCH  39  56
ENDBRANCH  13  14
ENDBRANCH   6   8
ENDBRANCH   3   4
ENDBRANCH   2   3
ENDBRANCH   1   2
BRANCH   1  64
ATOM     64  C   UNL A   1      32.599  29.973  25.993  1.00  0.00     0.116 C 
BRANCH  64  65
ATOM     65  N   UNL A   1      33.201  29.668  24.704  1.00  0.00    -0.352 N 
ATOM     66  C   UNL A   1      33.394  28.445  24.120  1.00  0.00     0.251 C 
ATOM     67  H   UNL A   1      33.512  30.443  24.184  1.00  0.00     0.163 HD
ATOM     68  O   UNL A   1      34.013  28.327  23.070  1.00  0.00    -0.269 OA
BRANCH  66  69
ATOM     69  C   UNL A   1      32.849  27.250  24.781  1.00  0.00     0.042 A 
ATOM     70  C   UNL A   1      33.676  26.463  25.590  1.00  0.00     0.015 A 
ATOM     71  C   UNL A   1      31.515  26.906  24.561  1.00  0.00     0.054 A 
ATOM     72  C   UNL A   1      33.158  25.307  26.175  1.00  0.00     0.024 A 
ATOM     73  C   UNL A   1      31.019  25.734  25.122  1.00  0.00     0.142 A 
ATOM     74  C   UNL A   1      31.824  24.946  25.936  1.00  0.00     0.103 A 
ATOM     75  F   UNL A   1      29.768  25.365  24.819  1.00  0.00    -0.206 F 
BRANCH  74  76
ATOM     76  S   UNL A   1      31.216  23.433  26.611  1.00  0.00     0.188 S 
ATOM     77  O   UNL A   1      32.322  22.912  27.401  1.00  0.00    -0.223 OA
ATOM     78  O   UNL A   1      29.971  23.757  27.287  1.00  0.00    -0.223 OA
BRANCH  76  79
ATOM     79  C   UNL A   1      30.885  22.266  25.334  1.00  0.00     0.219 C 
BRANCH  79  80
ATOM     80  C   UNL A   1      32.093  21.435  25.078  1.00  0.00     0.143 A 
ATOM     81  N   UNL A   1      33.213  22.071  24.684  1.00  0.00    -0.240 NA
ATOM     82  N   UNL A   1      32.044  20.124  25.374  1.00  0.00    -0.240 NA
ATOM     83  C   UNL A   1      34.333  21.331  24.573  1.00  0.00     0.115 A 
ATOM     84  C   UNL A   1      33.187  19.424  25.236  1.00  0.00     0.115 A 
ATOM     85  C   UNL A   1      34.377  19.985  24.839  1.00  0.00     0.040 A 
ENDBRANCH  79  80
ENDBRANCH  76  79
ENDBRANCH  74  76
ENDBRANCH  66  69
ENDBRANCH  64  65
ENDBRANCH   1  64
TORSDOF 14
ENDMDL
MODEL 3
REMARK VINA RESULT:     -11.9      0.477      6.129
REMARK SMILES O=C(NCCCCNC(=O)c1ccc(S(=O)(=O)Cc2ncccn2)c(F)c1)c1ccc(-c2c3nc(c(-c4c(F)cccc4F)c4ccc([nH]4)c(-c4c(F)cccc4F)c4nc(c(-c5c(F)cccc5F)c5ccc2[nH]5)C=C4)C=C3)cc1
REMARK SMILES IDX 6 1 5 2 4 3 3 4 1 5 2 6 28 8 29 9 81 10 30 11 80 12 31 13
REMARK SMILES IDX 32 14 33 15 74 16 34 17 79 18 73 19 75 20 35 21 78 22 72 23
REMARK SMILES IDX 71 24 36 26 62 27 45 28 61 29 46 30 49 31 60 32 76 33 47 34
REMARK SMILES IDX 48 35 59 37 77 38 50 39 37 40 38 41 43 42 39 43 40 44 42 45
REMARK SMILES IDX 44 46 41 47 63 48 64 49 69 50 65 51 66 52 68 53 70 54 67 55
REMARK SMILES IDX 51 56 52 57 57 58 53 59 54 60 56 61 58 62 55 63 7 64 8 65
REMARK SMILES IDX 9 66 10 68 11 69 12 70 27 71 13 72 25 73 14 74 26 75 15 76
REMARK SMILES IDX 16 77 17 78 18 79 19 80 20 81 24 82 21 83 23 84 22 85
REMARK H PARENT 3 7 75 25 49 36 8 67
REMARK Flexibility Score: inf
ROOT
ATOM      1  C   UNL A   1      31.214  30.873  26.075  1.00  0.00     0.023 C 
ENDROOT
BRANCH   1   2
ATOM      2  C   UNL A   1      31.289  32.343  26.494  1.00  0.00     0.023 C 
BRANCH   2   3
ATOM      3  C   UNL A   1      32.614  32.778  27.113  1.00  0.00     0.116 C 
BRANCH   3   4
ATOM      4  N   UNL A   1      32.565  34.127  27.651  1.00  0.00    -0.352 N 
ATOM      5  O   UNL A   1      33.030  35.818  29.064  1.00  0.00    -0.269 OA
ATOM      6  C   UNL A   1      33.321  34.703  28.641  1.00  0.00     0.251 C 
ATOM      7  H   UNL A   1      31.887  34.715  27.246  1.00  0.00     0.163 HD
BRANCH   6   8
ATOM      8  C   UNL A   1      34.471  33.976  29.218  1.00  0.00     0.039 A 
ATOM      9  C   UNL A   1      35.783  34.287  28.850  1.00  0.00     0.014 A 
ATOM     10  C   UNL A   1      34.225  32.983  30.170  1.00  0.00     0.014 A 
ATOM     11  C   UNL A   1      36.840  33.527  29.343  1.00  0.00     0.010 A 
ATOM     12  C   UNL A   1      35.291  32.264  30.713  1.00  0.00     0.010 A 
ATOM     13  C   UNL A   1      36.605  32.515  30.285  1.00  0.00    -0.014 A 
BRANCH  13  14
ATOM     14  C   UNL A   1      37.736  31.753  30.865  1.00  0.00     0.031 A 
ATOM     15  C   UNL A   1      38.257  32.073  32.235  1.00  0.00     0.074 A 
ATOM     16  C   UNL A   1      38.316  30.786  30.130  1.00  0.00     0.049 A 
ATOM     17  N   UNL A   1      39.288  31.568  32.863  1.00  0.00    -0.248 NA
ATOM     18  C   UNL A   1      37.529  33.099  32.999  1.00  0.00     0.031 C 
ATOM     19  C   UNL A   1      37.897  30.386  28.787  1.00  0.00     0.029 A 
ATOM     20  N   UNL A   1      39.384  29.970  30.405  1.00  0.00    -0.354 N 
ATOM     21  C   UNL A   1      39.351  32.230  34.082  1.00  0.00     0.074 A 
ATOM     22  C   UNL A   1      38.261  33.183  34.103  1.00  0.00     0.031 C 
ATOM     23  C   UNL A   1      38.689  29.392  28.359  1.00  0.00     0.029 A 
ATOM     24  C   UNL A   1      39.705  29.126  29.372  1.00  0.00     0.049 A 
ATOM     25  H   UNL A   1      39.873  29.990  31.259  1.00  0.00     0.167 HD
ATOM     26  C   UNL A   1      40.236  32.052  35.091  1.00  0.00     0.037 A 
ATOM     27  C   UNL A   1      40.722  28.255  29.237  1.00  0.00     0.037 A 
ATOM     28  C   UNL A   1      41.301  31.084  35.073  1.00  0.00     0.049 A 
ATOM     29  C   UNL A   1      41.716  28.104  30.349  1.00  0.00     0.074 A 
ATOM     30  C   UNL A   1      42.207  30.784  36.076  1.00  0.00     0.029 A 
ATOM     31  N   UNL A   1      41.611  30.268  33.995  1.00  0.00    -0.354 N 
ATOM     32  N   UNL A   1      41.746  28.712  31.510  1.00  0.00    -0.248 NA
ATOM     33  C   UNL A   1      42.822  27.161  30.133  1.00  0.00     0.031 C 
ATOM     34  C   UNL A   1      43.094  29.820  35.588  1.00  0.00     0.029 A 
ATOM     35  C   UNL A   1      42.715  29.488  34.297  1.00  0.00     0.049 A 
ATOM     36  H   UNL A   1      41.119  30.247  33.143  1.00  0.00     0.167 HD
ATOM     37  C   UNL A   1      42.862  28.218  32.170  1.00  0.00     0.074 A 
ATOM     38  C   UNL A   1      43.483  27.257  31.281  1.00  0.00     0.031 C 
ATOM     39  C   UNL A   1      43.324  28.536  33.403  1.00  0.00     0.037 A 
BRANCH  26  40
ATOM     40  C   UNL A   1      40.107  32.935  36.298  1.00  0.00     0.057 A 
ATOM     41  C   UNL A   1      40.937  34.053  36.449  1.00  0.00     0.134 A 
ATOM     42  C   UNL A   1      39.207  32.652  37.331  1.00  0.00     0.134 A 
ATOM     43  F   UNL A   1      41.827  34.375  35.500  1.00  0.00    -0.206 F 
ATOM     44  C   UNL A   1      40.879  34.855  37.590  1.00  0.00     0.040 A 
ATOM     45  C   UNL A   1      39.124  33.458  38.467  1.00  0.00     0.040 A 
ATOM     46  F   UNL A   1      38.378  31.600  37.242  1.00  0.00    -0.206 F 
ATOM     47  C   UNL A   1      39.968  34.559  38.602  1.00  0.00     0.006 A 
ENDBRANCH  26  40
BRANCH  27  48
ATOM     48  C   UNL A   1      40.831  27.473  27.984  1.00  0.00     0.057 A 
ATOM     49  C   UNL A   1      40.261  26.199  27.871  1.00  0.00     0.134 A 
ATOM     50  C   UNL A   1      41.589  27.943  26.908  1.00  0.00     0.134 A 
ATOM     51  F   UNL A   1      39.534  25.692  28.878  1.00  0.00    -0.206 F 
ATOM     52  C   UNL A   1      40.468  25.404  26.744  1.00  0.00     0.040 A 
ATOM     53  C   UNL A   1      41.789  27.166  25.765  1.00  0.00     0.040 A 
ATOM     54  F   UNL A   1      42.150  29.160  26.956  1.00  0.00    -0.206 F 
ATOM     55  C   UNL A   1      41.237  25.888  25.687  1.00  0.00     0.006 A 
ENDBRANCH  27  48
BRANCH  39  56
ATOM     56  C   UNL A   1      44.557  27.835  33.886  1.00  0.00     0.057 A 
ATOM     57  C   UNL A   1      45.826  28.377  33.645  1.00  0.00     0.134 A 
ATOM     58  C   UNL A   1      44.491  26.576  34.493  1.00  0.00     0.134 A 
ATOM     59  F   UNL A   1      45.953  29.577  33.059  1.00  0.00    -0.206 F 
ATOM     60  C   UNL A   1      46.989  27.678  33.969  1.00  0.00     0.040 A 
ATOM     61  C   UNL A   1      45.648  25.875  34.838  1.00  0.00     0.040 A 
ATOM     62  F   UNL A   1      43.304  26.010  34.758  1.00  0.00    -0.206 F 
ATOM     63  C   UNL A   1      46.901  26.422  34.565  1.00  0.00     0.006 A 
ENDBRANCH  39  56
ENDBRANCH  13  14
ENDBRANCH   6   8
ENDBRANCH   3   4
ENDBRANCH   2   3
ENDBRANCH   1   2
BRANCH   1  64
ATOM     64  C   UNL A   1      32.532  30.104  26.156  1.00  0.00     0.116 C 
BRANCH  64  65
ATOM     65  N   UNL A   1      33.094  29.840  24.840  1.00  0.00    -0.352 N 
ATOM     66  C   UNL A   1      33.269  28.635  24.213  1.00  0.00     0.251 C 
ATOM     67  H   UNL A   1      33.389  30.631  24.335  1.00  0.00     0.163 HD
ATOM     68  O   UNL A   1      33.856  28.551  23.141  1.00  0.00    -0.269 OA
BRANCH  66  69
ATOM     69  C   UNL A   1      32.744  27.420  24.853  1.00  0.00     0.042 A 
ATOM     70  C   UNL A   1      33.601  26.594  25.589  1.00  0.00     0.015 A 
ATOM     71  C   UNL A   1      31.397  27.097  24.686  1.00  0.00     0.054 A 
ATOM     72  C   UNL A   1      33.100  25.420  26.152  1.00  0.00     0.024 A 
ATOM     73  C   UNL A   1      30.917  25.908  25.224  1.00  0.00     0.142 A 
ATOM     74  C   UNL A   1      31.752  25.082  25.965  1.00  0.00     0.103 A 
ATOM     75  F   UNL A   1      29.649  25.562  24.969  1.00  0.00    -0.206 F 
BRANCH  74  76
ATOM     76  S   UNL A   1      31.162  23.548  26.610  1.00  0.00     0.188 S 
ATOM     77  O   UNL A   1      32.275  23.024  27.388  1.00  0.00    -0.223 OA
ATOM     78  O   UNL A   1      29.914  23.845  27.294  1.00  0.00    -0.223 OA
BRANCH  76  79
ATOM     79  C   UNL A   1      30.842  22.404  25.310  1.00  0.00     0.219 C 
BRANCH  79  80
ATOM     80  C   UNL A   1      32.045  21.564  25.063  1.00  0.00     0.143 A 
ATOM     81  N   UNL A   1      33.165  22.188  24.647  1.00  0.00    -0.240 NA
ATOM     82  N   UNL A   1      31.995  20.260  25.388  1.00  0.00    -0.240 NA
ATOM     83  C   UNL A   1      34.281  21.442  24.544  1.00  0.00     0.115 A 
ATOM     84  C   UNL A   1      33.135  19.554  25.257  1.00  0.00     0.115 A 
ATOM     85  C   UNL A   1      34.323  20.103  24.839  1.00  0.00     0.040 A 
ENDBRANCH  79  80
ENDBRANCH  76  79
ENDBRANCH  74  76
ENDBRANCH  66  69
ENDBRANCH  64  65
ENDBRANCH   1  64
TORSDOF 14
ENDMDL
