MODEL 1
REMARK VINA RESULT:     -11.6      0.000      0.000
REMARK SMILES C[C@H]1CC[C@@H]([C@@H](Cc2ccccc2)C(=O)NCCCCNC(=O)c2ccc(-c3c4nc(c(-c5c(F)cccc5F)c5ccc([nH]5)c(-c5c(F)cccc5F)c5nc(c(-c6c(F)cccc6F)c6ccc3[nH]6)C=C5)C=C4)cc2)C[C@@H]1C
REMARK SMILES IDX 18 1 17 2 16 3 14 4 15 5 6 7 5 8 1 9 2 10 3 11 79 12 4 13
REMARK SMILES IDX 78 14 80 15 7 16 8 17 9 18 13 19 10 20 12 21 11 22 19 23
REMARK SMILES IDX 20 24 21 25 22 26 23 28 24 29 25 30 77 31 26 32 76 33 27 34
REMARK SMILES IDX 28 35 29 36 70 37 30 38 75 39 69 40 71 41 31 42 74 43 68 44
REMARK SMILES IDX 67 45 32 47 58 48 41 49 57 50 42 51 45 52 56 53 72 54 43 55
REMARK SMILES IDX 44 56 55 58 73 59 46 60 33 61 34 62 39 63 35 64 36 65 38 66
REMARK SMILES IDX 40 67 37 68 59 69 60 70 65 71 61 72 62 73 64 74 66 75 63 76
REMARK SMILES IDX 47 77 48 78 53 79 49 80 50 81 52 82 54 83 51 84
REMARK H PARENT 16 6 21 27 71 46 45 57
REMARK Flexibility Score: inf
ROOT
ATOM      1  C   UNL A   1      35.953  21.190  25.299  1.00  0.00     0.023 C 
ENDROOT
BRANCH   1   2
ATOM      2  C   UNL A   1      34.781  21.884  24.604  1.00  0.00     0.116 C 
BRANCH   2   3
ATOM      3  N   UNL A   1      33.819  22.387  25.559  1.00  0.00    -0.356 N 
ATOM      4  C   UNL A   1      33.161  23.562  25.663  1.00  0.00     0.223 C 
ATOM      5  O   UNL A   1      32.296  23.616  26.546  1.00  0.00    -0.275 OA
ATOM      6  H   UNL A   1      33.602  21.748  26.275  1.00  0.00     0.163 HD
BRANCH   4   7
ATOM      7  C   UNL A   1      33.442  24.800  24.803  1.00  0.00     0.086 C 
BRANCH   7   8
ATOM      8  C   UNL A   1      32.525  24.933  23.539  1.00  0.00     0.002 C 
ATOM      9  C   UNL A   1      30.897  29.000  22.962  1.00  0.00     0.008 C 
ATOM     10  C   UNL A   1      31.167  27.505  22.708  1.00  0.00    -0.011 C 
ATOM     11  C   UNL A   1      32.671  27.277  22.470  1.00  0.00     0.004 C 
ATOM     12  C   UNL A   1      30.579  26.620  23.833  1.00  0.00    -0.011 C 
ATOM     13  C   UNL A   1      33.089  25.816  22.416  1.00  0.00     0.005 C 
ATOM     14  C   UNL A   1      31.018  25.163  23.676  1.00  0.00     0.008 C 
ATOM     15  C   UNL A   1      29.045  26.716  23.869  1.00  0.00     0.008 C 
ENDBRANCH   7   8
BRANCH   7  16
ATOM     16  C   UNL A   1      34.143  25.981  25.523  1.00  0.00     0.049 C 
BRANCH  16  17
ATOM     17  C   UNL A   1      33.433  27.214  26.023  1.00  0.00    -0.047 A 
ATOM     18  C   UNL A   1      33.819  28.494  25.597  1.00  0.00     0.004 A 
ATOM     19  C   UNL A   1      32.292  27.119  26.823  1.00  0.00     0.004 A 
ATOM     20  C   UNL A   1      33.106  29.631  26.000  1.00  0.00     0.000 A 
ATOM     21  C   UNL A   1      31.602  28.248  27.263  1.00  0.00     0.000 A 
ATOM     22  C   UNL A   1      32.009  29.509  26.850  1.00  0.00     0.000 A 
ENDBRANCH  16  17
ENDBRANCH   7  16
ENDBRANCH   4   7
ENDBRANCH   2   3
ENDBRANCH   1   2
BRANCH   1  23
ATOM     23  C   UNL A   1      37.338  21.520  24.767  1.00  0.00     0.023 C 
BRANCH  23  24
ATOM     24  C   UNL A   1      38.511  21.332  25.716  1.00  0.00     0.116 C 
BRANCH  24  25
ATOM     25  N   UNL A   1      39.282  20.111  25.539  1.00  0.00    -0.352 N 
ATOM     26  C   UNL A   1      40.590  19.875  25.922  1.00  0.00     0.251 C 
ATOM     27  H   UNL A   1      38.818  19.365  25.095  1.00  0.00     0.163 HD
ATOM     28  O   UNL A   1      41.123  18.787  25.720  1.00  0.00    -0.269 OA
BRANCH  26  29
ATOM     29  C   UNL A   1      41.371  20.985  26.518  1.00  0.00     0.039 A 
ATOM     30  C   UNL A   1      42.010  21.892  25.672  1.00  0.00     0.014 A 
ATOM     31  C   UNL A   1      41.325  21.218  27.894  1.00  0.00     0.014 A 
ATOM     32  C   UNL A   1      42.473  23.107  26.190  1.00  0.00     0.010 A 
ATOM     33  C   UNL A   1      41.673  22.474  28.380  1.00  0.00     0.010 A 
ATOM     34  C   UNL A   1      42.231  23.444  27.532  1.00  0.00    -0.014 A 
BRANCH  34  35
ATOM     35  C   UNL A   1      42.510  24.808  28.063  1.00  0.00     0.031 A 
ATOM     36  C   UNL A   1      43.897  25.171  28.524  1.00  0.00     0.074 A 
ATOM     37  C   UNL A   1      41.501  25.689  28.233  1.00  0.00     0.049 A 
ATOM     38  N   UNL A   1      44.312  26.254  29.133  1.00  0.00    -0.248 NA
ATOM     39  C   UNL A   1      44.948  24.162  28.316  1.00  0.00     0.031 C 
ATOM     40  C   UNL A   1      40.093  25.448  27.910  1.00  0.00     0.029 A 
ATOM     41  N   UNL A   1      41.505  26.968  28.737  1.00  0.00    -0.354 N 
ATOM     42  C   UNL A   1      45.654  26.037  29.413  1.00  0.00     0.074 A 
ATOM     43  C   UNL A   1      45.971  24.701  28.960  1.00  0.00     0.031 C 
ATOM     44  C   UNL A   1      39.379  26.552  28.184  1.00  0.00     0.029 A 
ATOM     45  C   UNL A   1      40.267  27.567  28.742  1.00  0.00     0.049 A 
ATOM     46  H   UNL A   1      42.319  27.415  29.063  1.00  0.00     0.167 HD
ATOM     47  C   UNL A   1      46.554  26.882  29.970  1.00  0.00     0.037 A 
ATOM     48  C   UNL A   1      39.888  28.794  29.149  1.00  0.00     0.037 A 
ATOM     49  C   UNL A   1      46.261  28.234  30.364  1.00  0.00     0.049 A 
ATOM     50  C   UNL A   1      40.916  29.736  29.708  1.00  0.00     0.074 A 
ATOM     51  C   UNL A   1      47.125  29.196  30.859  1.00  0.00     0.029 A 
ATOM     52  N   UNL A   1      45.006  28.820  30.294  1.00  0.00    -0.354 N 
ATOM     53  N   UNL A   1      42.196  29.539  29.905  1.00  0.00    -0.248 NA
ATOM     54  C   UNL A   1      40.446  31.074  30.100  1.00  0.00     0.031 C 
ATOM     55  C   UNL A   1      46.388  30.358  31.110  1.00  0.00     0.029 A 
ATOM     56  C   UNL A   1      45.072  30.129  30.741  1.00  0.00     0.049 A 
ATOM     57  H   UNL A   1      44.190  28.373  29.973  1.00  0.00     0.167 HD
ATOM     58  C   UNL A   1      42.691  30.732  30.417  1.00  0.00     0.074 A 
ATOM     59  C   UNL A   1      41.575  31.652  30.490  1.00  0.00     0.031 C 
ATOM     60  C   UNL A   1      43.956  31.035  30.795  1.00  0.00     0.037 A 
BRANCH  47  61
ATOM     61  C   UNL A   1      47.950  26.368  30.164  1.00  0.00     0.057 A 
ATOM     62  C   UNL A   1      48.918  26.464  29.155  1.00  0.00     0.134 A 
ATOM     63  C   UNL A   1      48.336  25.783  31.378  1.00  0.00     0.134 A 
ATOM     64  F   UNL A   1      48.608  27.000  27.966  1.00  0.00    -0.206 F 
ATOM     65  C   UNL A   1      50.209  25.966  29.332  1.00  0.00     0.040 A 
ATOM     66  C   UNL A   1      49.632  25.306  31.576  1.00  0.00     0.040 A 
ATOM     67  F   UNL A   1      47.460  25.666  32.387  1.00  0.00    -0.206 F 
ATOM     68  C   UNL A   1      50.570  25.389  30.548  1.00  0.00     0.006 A 
ENDBRANCH  47  61
BRANCH  48  69
ATOM     69  C   UNL A   1      38.473  29.223  29.006  1.00  0.00     0.057 A 
ATOM     70  C   UNL A   1      37.986  29.687  27.779  1.00  0.00     0.134 A 
ATOM     71  C   UNL A   1      37.582  29.192  30.084  1.00  0.00     0.134 A 
ATOM     72  F   UNL A   1      38.798  29.759  26.714  1.00  0.00    -0.206 F 
ATOM     73  C   UNL A   1      36.668  30.124  27.632  1.00  0.00     0.040 A 
ATOM     74  C   UNL A   1      36.255  29.606  29.946  1.00  0.00     0.040 A 
ATOM     75  F   UNL A   1      37.986  28.752  31.285  1.00  0.00    -0.206 F 
ATOM     76  C   UNL A   1      35.797  30.080  28.719  1.00  0.00     0.006 A 
ENDBRANCH  48  69
BRANCH  60  77
ATOM     77  C   UNL A   1      44.209  32.429  31.285  1.00  0.00     0.057 A 
ATOM     78  C   UNL A   1      44.128  32.759  32.643  1.00  0.00     0.134 A 
ATOM     79  C   UNL A   1      44.583  33.441  30.392  1.00  0.00     0.134 A 
ATOM     80  F   UNL A   1      43.761  31.836  33.545  1.00  0.00    -0.206 F 
ATOM     81  C   UNL A   1      44.392  34.052  33.095  1.00  0.00     0.040 A 
ATOM     82  C   UNL A   1      44.872  34.732  30.833  1.00  0.00     0.040 A 
ATOM     83  F   UNL A   1      44.686  33.187  29.078  1.00  0.00    -0.206 F 
ATOM     84  C   UNL A   1      44.773  35.041  32.189  1.00  0.00     0.006 A 
ENDBRANCH  60  77
ENDBRANCH  34  35
ENDBRANCH  26  29
ENDBRANCH  24  25
ENDBRANCH  23  24
ENDBRANCH   1  23
TORSDOF 14
ENDMDL
MODEL 2
REMARK VINA RESULT:     -11.5      0.608      6.289
REMARK SMILES C[C@H]1CC[C@@H]([C@@H](Cc2ccccc2)C(=O)NCCCCNC(=O)c2ccc(-c3c4nc(c(-c5c(F)cccc5F)c5ccc([nH]5)c(-c5c(F)cccc5F)c5nc(c(-c6c(F)cccc6F)c6ccc3[nH]6)C=C5)C=C4)cc2)C[C@@H]1C
REMARK SMILES IDX 18 1 17 2 16 3 14 4 15 5 6 7 5 8 1 9 2 10 3 11 79 12 4 13
REMARK SMILES IDX 78 14 80 15 7 16 8 17 9 18 13 19 10 20 12 21 11 22 19 23
REMARK SMILES IDX 20 24 21 25 22 26 23 28 24 29 25 30 77 31 26 32 76 33 27 34
REMARK SMILES IDX 28 35 29 36 70 37 30 38 75 39 69 40 71 41 31 42 74 43 68 44
REMARK SMILES IDX 67 45 32 47 58 48 41 49 57 50 42 51 45 52 56 53 72 54 43 55
REMARK SMILES IDX 44 56 55 58 73 59 46 60 33 61 34 62 39 63 35 64 36 65 38 66
REMARK SMILES IDX 40 67 37 68 59 69 60 70 65 71 61 72 62 73 64 74 66 75 63 76
REMARK SMILES IDX 47 77 48 78 53 79 49 80 50 81 52 82 54 83 51 84
REMARK H PARENT 16 6 21 27 71 46 45 57
REMARK Flexibility Score: inf
ROOT
ATOM      1  C   UNL A   1      36.887  22.795  24.073  1.00  0.00     0.023 C 
ENDROOT
BRANCH   1   2
ATOM      2  C   UNL A   1      35.526  22.783  23.377  1.00  0.00     0.116 C 
BRANCH   2   3
ATOM      3  N   UNL A   1      34.440  22.839  24.330  1.00  0.00    -0.356 N 
ATOM      4  C   UNL A   1      33.576  23.818  24.678  1.00  0.00     0.223 C 
ATOM      5  O   UNL A   1      32.671  23.483  25.453  1.00  0.00    -0.275 OA
ATOM      6  H   UNL A   1      34.304  21.999  24.825  1.00  0.00     0.163 HD
BRANCH   4   7
ATOM      7  C   UNL A   1      33.673  25.275  24.213  1.00  0.00     0.086 C 
BRANCH   7   8
ATOM      8  C   UNL A   1      32.703  25.647  23.040  1.00  0.00     0.002 C 
ATOM      9  C   UNL A   1      30.439  29.376  23.742  1.00  0.00     0.008 C 
ATOM     10  C   UNL A   1      30.930  28.098  23.037  1.00  0.00    -0.011 C 
ATOM     11  C   UNL A   1      32.441  28.200  22.762  1.00  0.00     0.004 C 
ATOM     12  C   UNL A   1      30.528  26.825  23.818  1.00  0.00    -0.011 C 
ATOM     13  C   UNL A   1      33.081  26.914  22.259  1.00  0.00     0.005 C 
ATOM     14  C   UNL A   1      31.184  25.579  23.219  1.00  0.00     0.008 C 
ATOM     15  C   UNL A   1      29.000  26.659  23.860  1.00  0.00     0.008 C 
ENDBRANCH   7   8
BRANCH   7  16
ATOM     16  C   UNL A   1      34.251  26.279  25.243  1.00  0.00     0.049 C 
BRANCH  16  17
ATOM     17  C   UNL A   1      33.432  27.311  25.977  1.00  0.00    -0.047 A 
ATOM     18  C   UNL A   1      33.759  28.674  25.912  1.00  0.00     0.004 A 
ATOM     19  C   UNL A   1      32.251  26.964  26.637  1.00  0.00     0.004 A 
ATOM     20  C   UNL A   1      32.949  29.637  26.526  1.00  0.00     0.000 A 
ATOM     21  C   UNL A   1      31.462  27.912  27.288  1.00  0.00     0.000 A 
ATOM     22  C   UNL A   1      31.811  29.253  27.232  1.00  0.00     0.000 A 
ENDBRANCH  16  17
ENDBRANCH   7  16
ENDBRANCH   4   7
ENDBRANCH   2   3
ENDBRANCH   1   2
BRANCH   1  23
ATOM     23  C   UNL A   1      37.089  21.755  25.164  1.00  0.00     0.023 C 
BRANCH  23  24
ATOM     24  C   UNL A   1      38.481  21.638  25.764  1.00  0.00     0.116 C 
BRANCH  24  25
ATOM     25  N   UNL A   1      39.142  20.354  25.591  1.00  0.00    -0.352 N 
ATOM     26  C   UNL A   1      40.422  20.003  25.982  1.00  0.00     0.251 C 
ATOM     27  H   UNL A   1      38.617  19.652  25.145  1.00  0.00     0.163 HD
ATOM     28  O   UNL A   1      40.858  18.872  25.782  1.00  0.00    -0.269 OA
BRANCH  26  29
ATOM     29  C   UNL A   1      41.295  21.039  26.581  1.00  0.00     0.039 A 
ATOM     30  C   UNL A   1      41.920  21.965  25.744  1.00  0.00     0.014 A 
ATOM     31  C   UNL A   1      41.353  21.194  27.968  1.00  0.00     0.014 A 
ATOM     32  C   UNL A   1      42.476  23.124  26.295  1.00  0.00     0.010 A 
ATOM     33  C   UNL A   1      41.794  22.402  28.498  1.00  0.00     0.010 A 
ATOM     34  C   UNL A   1      42.341  23.393  27.668  1.00  0.00    -0.014 A 
BRANCH  34  35
ATOM     35  C   UNL A   1      42.723  24.710  28.252  1.00  0.00     0.031 A 
ATOM     36  C   UNL A   1      41.678  25.771  28.474  1.00  0.00     0.074 A 
ATOM     37  C   UNL A   1      44.021  24.997  28.485  1.00  0.00     0.049 A 
ATOM     38  N   UNL A   1      41.828  27.018  28.847  1.00  0.00    -0.248 NA
ATOM     39  C   UNL A   1      40.283  25.394  28.194  1.00  0.00     0.031 C 
ATOM     40  C   UNL A   1      45.152  24.098  28.240  1.00  0.00     0.029 A 
ATOM     41  N   UNL A   1      44.613  26.139  28.971  1.00  0.00    -0.354 N 
ATOM     42  C   UNL A   1      40.558  27.578  28.806  1.00  0.00     0.074 A 
ATOM     43  C   UNL A   1      39.660  26.555  28.319  1.00  0.00     0.031 C 
ATOM     44  C   UNL A   1      46.291  24.706  28.613  1.00  0.00     0.029 A 
ATOM     45  C   UNL A   1      45.981  26.051  29.084  1.00  0.00     0.049 A 
ATOM     46  H   UNL A   1      44.104  26.945  29.215  1.00  0.00     0.167 HD
ATOM     47  C   UNL A   1      40.166  28.822  29.168  1.00  0.00     0.037 A 
ATOM     48  C   UNL A   1      46.884  26.951  29.518  1.00  0.00     0.037 A 
ATOM     49  C   UNL A   1      41.044  29.823  29.714  1.00  0.00     0.049 A 
ATOM     50  C   UNL A   1      46.418  28.306  29.971  1.00  0.00     0.074 A 
ATOM     51  C   UNL A   1      40.726  31.083  30.189  1.00  0.00     0.029 A 
ATOM     52  N   UNL A   1      42.412  29.669  29.869  1.00  0.00    -0.354 N 
ATOM     53  N   UNL A   1      45.204  28.797  29.989  1.00  0.00    -0.248 NA
ATOM     54  C   UNL A   1      47.448  29.230  30.469  1.00  0.00     0.031 C 
ATOM     55  C   UNL A   1      41.907  31.702  30.611  1.00  0.00     0.029 A 
ATOM     56  C   UNL A   1      42.955  30.814  30.428  1.00  0.00     0.049 A 
ATOM     57  H   UNL A   1      42.923  28.865  29.619  1.00  0.00     0.167 HD
ATOM     58  C   UNL A   1      45.318  30.075  30.522  1.00  0.00     0.074 A 
ATOM     59  C   UNL A   1      46.719  30.279  30.826  1.00  0.00     0.031 C 
ATOM     60  C   UNL A   1      44.348  30.996  30.737  1.00  0.00     0.037 A 
BRANCH  47  61
ATOM     61  C   UNL A   1      38.713  29.159  29.004  1.00  0.00     0.057 A 
ATOM     62  C   UNL A   1      37.811  29.073  30.073  1.00  0.00     0.134 A 
ATOM     63  C   UNL A   1      38.212  29.587  27.768  1.00  0.00     0.134 A 
ATOM     64  F   UNL A   1      38.225  28.656  31.279  1.00  0.00    -0.206 F 
ATOM     65  C   UNL A   1      36.456  29.366  29.912  1.00  0.00     0.040 A 
ATOM     66  C   UNL A   1      36.865  29.910  27.601  1.00  0.00     0.040 A 
ATOM     67  F   UNL A   1      39.023  29.697  26.705  1.00  0.00    -0.206 F 
ATOM     68  C   UNL A   1      35.981  29.791  28.672  1.00  0.00     0.006 A 
ENDBRANCH  47  61
BRANCH  48  69
ATOM     69  C   UNL A   1      48.324  26.590  29.584  1.00  0.00     0.057 A 
ATOM     70  C   UNL A   1      48.844  25.924  30.700  1.00  0.00     0.134 A 
ATOM     71  C   UNL A   1      49.212  26.909  28.552  1.00  0.00     0.134 A 
ATOM     72  F   UNL A   1      48.046  25.610  31.731  1.00  0.00    -0.206 F 
ATOM     73  C   UNL A   1      50.199  25.604  30.796  1.00  0.00     0.040 A 
ATOM     74  C   UNL A   1      50.566  26.576  28.624  1.00  0.00     0.040 A 
ATOM     75  F   UNL A   1      48.774  27.543  27.454  1.00  0.00    -0.206 F 
ATOM     76  C   UNL A   1      51.064  25.927  29.753  1.00  0.00     0.006 A 
ENDBRANCH  48  69
BRANCH  60  77
ATOM     77  C   UNL A   1      44.763  32.293  31.363  1.00  0.00     0.057 A 
ATOM     78  C   UNL A   1      44.800  32.462  32.753  1.00  0.00     0.134 A 
ATOM     79  C   UNL A   1      45.172  33.370  30.566  1.00  0.00     0.134 A 
ATOM     80  F   UNL A   1      44.407  31.472  33.568  1.00  0.00    -0.206 F 
ATOM     81  C   UNL A   1      45.214  33.664  33.329  1.00  0.00     0.040 A 
ATOM     82  C   UNL A   1      45.609  34.568  31.130  1.00  0.00     0.040 A 
ATOM     83  F   UNL A   1      45.167  33.268  29.229  1.00  0.00    -0.206 F 
ATOM     84  C   UNL A   1      45.627  34.719  32.516  1.00  0.00     0.006 A 
ENDBRANCH  60  77
ENDBRANCH  34  35
ENDBRANCH  26  29
ENDBRANCH  24  25
ENDBRANCH  23  24
ENDBRANCH   1  23
TORSDOF 14
ENDMDL
MODEL 3
REMARK VINA RESULT:     -11.4      2.250      7.607
REMARK SMILES C[C@H]1CC[C@@H]([C@@H](Cc2ccccc2)C(=O)NCCCCNC(=O)c2ccc(-c3c4nc(c(-c5c(F)cccc5F)c5ccc([nH]5)c(-c5c(F)cccc5F)c5nc(c(-c6c(F)cccc6F)c6ccc3[nH]6)C=C5)C=C4)cc2)C[C@@H]1C
REMARK SMILES IDX 18 1 17 2 16 3 14 4 15 5 6 7 5 8 1 9 2 10 3 11 79 12 4 13
REMARK SMILES IDX 78 14 80 15 7 16 8 17 9 18 13 19 10 20 12 21 11 22 19 23
REMARK SMILES IDX 20 24 21 25 22 26 23 28 24 29 25 30 77 31 26 32 76 33 27 34
REMARK SMILES IDX 28 35 29 36 70 37 30 38 75 39 69 40 71 41 31 42 74 43 68 44
REMARK SMILES IDX 67 45 32 47 58 48 41 49 57 50 42 51 45 52 56 53 72 54 43 55
REMARK SMILES IDX 44 56 55 58 73 59 46 60 33 61 34 62 39 63 35 64 36 65 38 66
REMARK SMILES IDX 40 67 37 68 59 69 60 70 65 71 61 72 62 73 64 74 66 75 63 76
REMARK SMILES IDX 47 77 48 78 53 79 49 80 50 81 52 82 54 83 51 84
REMARK H PARENT 16 6 21 27 71 46 45 57
REMARK Flexibility Score: inf
ROOT
ATOM      1  C   UNL A   1      31.818  28.238  27.223  1.00  0.00     0.023 C 
ENDROOT
BRANCH   1   2
ATOM      2  C   UNL A   1      31.349  27.140  26.269  1.00  0.00     0.116 C 
BRANCH   2   3
ATOM      3  N   UNL A   1      31.311  25.849  26.921  1.00  0.00    -0.356 N 
ATOM      4  C   UNL A   1      31.661  24.608  26.518  1.00  0.00     0.223 C 
ATOM      5  O   UNL A   1      31.618  23.730  27.388  1.00  0.00    -0.275 OA
ATOM      6  H   UNL A   1      30.958  25.881  27.839  1.00  0.00     0.163 HD
BRANCH   4   7
ATOM      7  C   UNL A   1      32.059  24.235  25.085  1.00  0.00     0.086 C 
BRANCH   7   8
ATOM      8  C   UNL A   1      33.384  24.907  24.585  1.00  0.00     0.002 C 
ATOM      9  C   UNL A   1      36.676  22.034  23.928  1.00  0.00     0.008 C 
ATOM     10  C   UNL A   1      35.926  23.377  23.993  1.00  0.00    -0.011 C 
ATOM     11  C   UNL A   1      34.732  23.358  23.021  1.00  0.00     0.004 C 
ATOM     12  C   UNL A   1      35.534  23.742  25.445  1.00  0.00    -0.011 C 
ATOM     13  C   UNL A   1      33.793  24.548  23.148  1.00  0.00     0.005 C 
ATOM     14  C   UNL A   1      34.624  24.971  25.480  1.00  0.00     0.008 C 
ATOM     15  C   UNL A   1      36.782  23.973  26.314  1.00  0.00     0.008 C 
ENDBRANCH   7   8
BRANCH   7  16
ATOM     16  C   UNL A   1      31.475  22.905  24.543  1.00  0.00     0.049 C 
BRANCH  16  17
ATOM     17  C   UNL A   1      32.190  21.578  24.597  1.00  0.00    -0.047 A 
ATOM     18  C   UNL A   1      32.129  20.680  23.521  1.00  0.00     0.004 A 
ATOM     19  C   UNL A   1      33.037  21.253  25.659  1.00  0.00     0.004 A 
ATOM     20  C   UNL A   1      32.859  19.485  23.540  1.00  0.00     0.000 A 
ATOM     21  C   UNL A   1      33.734  20.046  25.705  1.00  0.00     0.000 A 
ATOM     22  C   UNL A   1      33.647  19.159  24.643  1.00  0.00     0.000 A 
ENDBRANCH  16  17
ENDBRANCH   7  16
ENDBRANCH   4   7
ENDBRANCH   2   3
ENDBRANCH   1   2
BRANCH   1  23
ATOM     23  C   UNL A   1      33.316  28.489  27.270  1.00  0.00     0.023 C 
BRANCH  23  24
ATOM     24  C   UNL A   1      33.806  29.863  26.842  1.00  0.00     0.116 C 
BRANCH  24  25
ATOM     25  N   UNL A   1      33.872  30.870  27.891  1.00  0.00    -0.352 N 
ATOM     26  C   UNL A   1      34.923  31.123  28.755  1.00  0.00     0.251 C 
ATOM     27  H   UNL A   1      33.076  31.438  27.999  1.00  0.00     0.163 HD
ATOM     28  O   UNL A   1      34.852  32.015  29.595  1.00  0.00    -0.269 OA
BRANCH  26  29
ATOM     29  C   UNL A   1      36.117  30.246  28.701  1.00  0.00     0.039 A 
ATOM     30  C   UNL A   1      36.965  30.324  27.595  1.00  0.00     0.014 A 
ATOM     31  C   UNL A   1      36.480  29.483  29.813  1.00  0.00     0.014 A 
ATOM     32  C   UNL A   1      38.242  29.757  27.667  1.00  0.00     0.010 A 
ATOM     33  C   UNL A   1      37.790  29.030  29.927  1.00  0.00     0.010 A 
ATOM     34  C   UNL A   1      38.696  29.180  28.865  1.00  0.00    -0.014 A 
BRANCH  34  35
ATOM     35  C   UNL A   1      40.116  28.765  29.049  1.00  0.00     0.031 A 
ATOM     36  C   UNL A   1      41.119  29.731  29.619  1.00  0.00     0.074 A 
ATOM     37  C   UNL A   1      40.531  27.559  28.607  1.00  0.00     0.049 A 
ATOM     38  N   UNL A   1      42.418  29.607  29.736  1.00  0.00    -0.248 NA
ATOM     39  C   UNL A   1      40.600  31.031  30.076  1.00  0.00     0.031 C 
ATOM     40  C   UNL A   1      39.690  26.551  27.957  1.00  0.00     0.029 A 
ATOM     41  N   UNL A   1      41.779  26.980  28.624  1.00  0.00    -0.354 N 
ATOM     42  C   UNL A   1      42.869  30.820  30.238  1.00  0.00     0.074 A 
ATOM     43  C   UNL A   1      41.716  31.686  30.351  1.00  0.00     0.031 C 
ATOM     44  C   UNL A   1      40.433  25.467  27.677  1.00  0.00     0.029 A 
ATOM     45  C   UNL A   1      41.811  25.715  28.086  1.00  0.00     0.049 A 
ATOM     46  H   UNL A   1      42.575  27.430  28.989  1.00  0.00     0.167 HD
ATOM     47  C   UNL A   1      44.124  31.176  30.602  1.00  0.00     0.037 A 
ATOM     48  C   UNL A   1      42.834  24.852  27.938  1.00  0.00     0.037 A 
ATOM     49  C   UNL A   1      45.262  30.298  30.553  1.00  0.00     0.049 A 
ATOM     50  C   UNL A   1      44.207  25.246  28.404  1.00  0.00     0.074 A 
ATOM     51  C   UNL A   1      46.557  30.539  30.979  1.00  0.00     0.029 A 
ATOM     52  N   UNL A   1      45.237  29.004  30.058  1.00  0.00    -0.354 N 
ATOM     53  N   UNL A   1      44.604  26.374  28.940  1.00  0.00    -0.248 NA
ATOM     54  C   UNL A   1      45.274  24.246  28.249  1.00  0.00     0.031 C 
ATOM     55  C   UNL A   1      47.322  29.397  30.720  1.00  0.00     0.029 A 
ATOM     56  C   UNL A   1      46.495  28.435  30.163  1.00  0.00     0.049 A 
ATOM     57  H   UNL A   1      44.443  28.555  29.687  1.00  0.00     0.167 HD
ATOM     58  C   UNL A   1      45.957  26.212  29.209  1.00  0.00     0.074 A 
ATOM     59  C   UNL A   1      46.311  24.872  28.790  1.00  0.00     0.031 C 
ATOM     60  C   UNL A   1      46.828  27.096  29.753  1.00  0.00     0.037 A 
BRANCH  47  61
ATOM     61  C   UNL A   1      44.321  32.575  31.109  1.00  0.00     0.057 A 
ATOM     62  C   UNL A   1      44.642  33.632  30.247  1.00  0.00     0.134 A 
ATOM     63  C   UNL A   1      44.176  32.870  32.470  1.00  0.00     0.134 A 
ATOM     64  F   UNL A   1      44.809  33.412  28.934  1.00  0.00    -0.206 F 
ATOM     65  C   UNL A   1      44.845  34.927  30.724  1.00  0.00     0.040 A 
ATOM     66  C   UNL A   1      44.350  34.167  32.956  1.00  0.00     0.040 A 
ATOM     67  F   UNL A   1      43.864  31.906  33.348  1.00  0.00    -0.206 F 
ATOM     68  C   UNL A   1      44.694  35.198  32.084  1.00  0.00     0.006 A 
ENDBRANCH  47  61
BRANCH  48  69
ATOM     69  C   UNL A   1      42.596  23.506  27.355  1.00  0.00     0.057 A 
ATOM     70  C   UNL A   1      42.732  23.287  25.979  1.00  0.00     0.134 A 
ATOM     71  C   UNL A   1      42.218  22.417  28.147  1.00  0.00     0.134 A 
ATOM     72  F   UNL A   1      43.072  24.298  25.166  1.00  0.00    -0.206 F 
ATOM     73  C   UNL A   1      42.482  22.038  25.408  1.00  0.00     0.040 A 
ATOM     74  C   UNL A   1      41.985  21.157  27.593  1.00  0.00     0.040 A 
ATOM     75  F   UNL A   1      42.076  22.561  29.473  1.00  0.00    -0.206 F 
ATOM     76  C   UNL A   1      42.111  20.967  26.218  1.00  0.00     0.006 A 
ENDBRANCH  48  69
BRANCH  60  77
ATOM     77  C   UNL A   1      48.237  26.630  29.961  1.00  0.00     0.057 A 
ATOM     78  C   UNL A   1      49.246  26.896  29.029  1.00  0.00     0.134 A 
ATOM     79  C   UNL A   1      48.596  25.948  31.131  1.00  0.00     0.134 A 
ATOM     80  F   UNL A   1      48.961  27.534  27.883  1.00  0.00    -0.206 F 
ATOM     81  C   UNL A   1      50.562  26.484  29.243  1.00  0.00     0.040 A 
ATOM     82  C   UNL A   1      49.912  25.550  31.367  1.00  0.00     0.040 A 
ATOM     83  F   UNL A   1      47.676  25.670  32.067  1.00  0.00    -0.206 F 
ATOM     84  C   UNL A   1      50.899  25.815  30.419  1.00  0.00     0.006 A 
ENDBRANCH  60  77
ENDBRANCH  34  35
ENDBRANCH  26  29
ENDBRANCH  24  25
ENDBRANCH  23  24
ENDBRANCH   1  23
TORSDOF 14
ENDMDL
