MODEL 1
REMARK VINA RESULT:     -10.9      0.000      0.000
REMARK SMILES Cc1cc(-c2cc(C(=O)NCCCCNC(=O)c3ccc(-c4c5nc(c(-c6c(F)cccc6F)c6ccc([nH]6)c(-c6c(F)cccc6F)c6nc(c(-c7c(F)cccc7F)c7ccc4[nH]7)C=C6)C=C5)cc3)c[nH]c2=O)ccc1Cl
REMARK SMILES IDX 13 1 12 2 11 3 10 4 8 5 9 6 7 8 5 9 6 10 74 11 73 12 75 13
REMARK SMILES IDX 72 14 4 16 1 17 2 18 3 19 78 20 77 21 79 22 76 23 14 24
REMARK SMILES IDX 15 25 16 26 17 28 18 29 19 30 71 31 20 32 70 33 21 34 22 35
REMARK SMILES IDX 23 36 64 37 24 38 69 39 63 40 65 41 25 42 68 43 62 44 61 45
REMARK SMILES IDX 26 47 52 48 35 49 51 50 36 51 39 52 50 53 66 54 37 55 38 56
REMARK SMILES IDX 49 58 67 59 40 60 27 61 28 62 33 63 29 64 30 65 32 66 34 67
REMARK SMILES IDX 31 68 53 69 54 70 59 71 55 72 56 73 58 74 60 75 57 76 41 77
REMARK SMILES IDX 42 78 47 79 43 80 44 81 46 82 48 83 45 84
REMARK H PARENT 10 7 73 15 15 27 65 46 39 57
REMARK Flexibility Score: inf
ROOT
ATOM      1  C   UNL A   1      41.746  20.627  27.608  1.00  0.00     0.023 C 
ENDROOT
BRANCH   1   2
ATOM      2  C   UNL A   1      42.347  19.261  27.255  1.00  0.00     0.023 C 
BRANCH   2   3
ATOM      3  C   UNL A   1      42.483  19.007  25.751  1.00  0.00     0.116 C 
BRANCH   3   4
ATOM      4  N   UNL A   1      43.820  18.551  25.431  1.00  0.00    -0.352 N 
ATOM      5  C   UNL A   1      44.962  19.196  25.065  1.00  0.00     0.252 C 
ATOM      6  O   UNL A   1      45.943  18.485  24.831  1.00  0.00    -0.269 OA
ATOM      7  H   UNL A   1      43.926  17.573  25.491  1.00  0.00     0.163 HD
BRANCH   5   8
ATOM      8  C   UNL A   1      45.077  20.692  25.001  1.00  0.00     0.056 A 
ATOM      9  C   UNL A   1      45.440  22.907  25.980  1.00  0.00     0.048 A 
ATOM     10  C   UNL A   1      45.166  21.597  26.126  1.00  0.00     0.029 A 
ATOM     11  C   UNL A   1      45.483  23.481  24.598  1.00  0.00     0.255 A 
ATOM     12  N   UNL A   1      45.281  22.577  23.579  1.00  0.00    -0.328 N 
ATOM     13  O   UNL A   1      45.671  24.673  24.378  1.00  0.00    -0.269 OA
ATOM     14  C   UNL A   1      45.104  21.227  23.765  1.00  0.00     0.099 A 
ATOM     15  H   UNL A   1      45.262  22.920  22.656  1.00  0.00     0.169 HD
BRANCH   9  16
ATOM     16  C   UNL A   1      45.692  23.713  27.182  1.00  0.00    -0.012 A 
ATOM     17  C   UNL A   1      44.153  24.352  30.605  1.00  0.00     0.046 C 
ATOM     18  C   UNL A   1      45.109  24.408  29.448  1.00  0.00    -0.032 A 
ATOM     19  C   UNL A   1      44.813  23.694  28.271  1.00  0.00     0.014 A 
ATOM     20  C   UNL A   1      46.297  25.154  29.508  1.00  0.00     0.044 A 
ATOM     21  C   UNL A   1      47.170  25.189  28.420  1.00  0.00     0.021 A 
ATOM     22  Cl  UNL A   1      46.737  26.047  30.920  1.00  0.00    -0.084 Cl
ATOM     23  C   UNL A   1      46.869  24.472  27.263  1.00  0.00     0.010 A 
ENDBRANCH   9  16
ENDBRANCH   5   8
ENDBRANCH   3   4
ENDBRANCH   2   3
ENDBRANCH   1   2
BRANCH   1  24
ATOM     24  C   UNL A   1      41.417  21.509  26.409  1.00  0.00     0.116 C 
BRANCH  24  25
ATOM     25  N   UNL A   1      39.997  21.564  26.107  1.00  0.00    -0.352 N 
ATOM     26  C   UNL A   1      39.121  22.610  26.287  1.00  0.00     0.251 C 
ATOM     27  H   UNL A   1      39.609  20.744  25.723  1.00  0.00     0.163 HD
ATOM     28  O   UNL A   1      37.929  22.461  26.076  1.00  0.00    -0.269 OA
BRANCH  26  29
ATOM     29  C   UNL A   1      39.637  23.907  26.779  1.00  0.00     0.039 A 
ATOM     30  C   UNL A   1      39.983  24.885  25.844  1.00  0.00     0.014 A 
ATOM     31  C   UNL A   1      39.768  24.160  28.146  1.00  0.00     0.014 A 
ATOM     32  C   UNL A   1      40.414  26.136  26.283  1.00  0.00     0.010 A 
ATOM     33  C   UNL A   1      40.125  25.431  28.583  1.00  0.00     0.010 A 
ATOM     34  C   UNL A   1      40.464  26.428  27.656  1.00  0.00    -0.014 A 
BRANCH  34  35
ATOM     35  C   UNL A   1      40.899  27.762  28.139  1.00  0.00     0.031 A 
ATOM     36  C   UNL A   1      42.358  28.127  28.125  1.00  0.00     0.074 A 
ATOM     37  C   UNL A   1      39.989  28.626  28.626  1.00  0.00     0.049 A 
ATOM     38  N   UNL A   1      42.941  29.223  28.541  1.00  0.00    -0.248 NA
ATOM     39  C   UNL A   1      43.289  27.115  27.601  1.00  0.00     0.031 C 
ATOM     40  C   UNL A   1      38.553  28.368  28.746  1.00  0.00     0.029 A 
ATOM     41  N   UNL A   1      40.140  29.898  29.121  1.00  0.00    -0.354 N 
ATOM     42  C   UNL A   1      44.301  29.030  28.332  1.00  0.00     0.074 A 
ATOM     43  C   UNL A   1      44.463  27.687  27.818  1.00  0.00     0.031 C 
ATOM     44  C   UNL A   1      37.953  29.454  29.259  1.00  0.00     0.029 A 
ATOM     45  C   UNL A   1      38.962  30.473  29.530  1.00  0.00     0.049 A 
ATOM     46  H   UNL A   1      41.011  30.354  29.176  1.00  0.00     0.167 HD
ATOM     47  C   UNL A   1      45.320  29.902  28.517  1.00  0.00     0.037 A 
ATOM     48  C   UNL A   1      38.725  31.686  30.064  1.00  0.00     0.037 A 
ATOM     49  C   UNL A   1      45.154  31.243  29.012  1.00  0.00     0.049 A 
ATOM     50  C   UNL A   1      39.872  32.643  30.246  1.00  0.00     0.074 A 
ATOM     51  C   UNL A   1      46.120  32.213  29.217  1.00  0.00     0.029 A 
ATOM     52  N   UNL A   1      43.939  31.805  29.372  1.00  0.00    -0.354 N 
ATOM     53  N   UNL A   1      41.147  32.465  29.994  1.00  0.00    -0.248 NA
ATOM     54  C   UNL A   1      39.544  33.976  30.769  1.00  0.00     0.031 C 
ATOM     55  C   UNL A   1      45.492  33.354  29.729  1.00  0.00     0.029 A 
ATOM     56  C   UNL A   1      44.129  33.109  29.798  1.00  0.00     0.049 A 
ATOM     57  H   UNL A   1      43.069  31.345  29.331  1.00  0.00     0.167 HD
ATOM     58  C   UNL A   1      41.766  33.671  30.293  1.00  0.00     0.074 A 
ATOM     59  C   UNL A   1      40.724  34.578  30.730  1.00  0.00     0.031 C 
ATOM     60  C   UNL A   1      43.078  34.002  30.213  1.00  0.00     0.037 A 
BRANCH  47  61
ATOM     61  C   UNL A   1      46.700  29.432  28.161  1.00  0.00     0.057 A 
ATOM     62  C   UNL A   1      47.148  29.408  26.832  1.00  0.00     0.134 A 
ATOM     63  C   UNL A   1      47.600  29.019  29.152  1.00  0.00     0.134 A 
ATOM     64  F   UNL A   1      46.331  29.775  25.834  1.00  0.00    -0.206 F 
ATOM     65  C   UNL A   1      48.430  28.966  26.500  1.00  0.00     0.040 A 
ATOM     66  C   UNL A   1      48.894  28.602  28.834  1.00  0.00     0.040 A 
ATOM     67  F   UNL A   1      47.239  29.020  30.443  1.00  0.00    -0.206 F 
ATOM     68  C   UNL A   1      49.309  28.568  27.504  1.00  0.00     0.006 A 
ENDBRANCH  47  61
BRANCH  48  69
ATOM     69  C   UNL A   1      37.343  32.082  30.436  1.00  0.00     0.057 A 
ATOM     70  C   UNL A   1      36.519  32.772  29.539  1.00  0.00     0.134 A 
ATOM     71  C   UNL A   1      36.821  31.799  31.704  1.00  0.00     0.134 A 
ATOM     72  F   UNL A   1      36.969  33.085  28.315  1.00  0.00    -0.206 F 
ATOM     73  C   UNL A   1      35.239  33.195  29.898  1.00  0.00     0.040 A 
ATOM     74  C   UNL A   1      35.532  32.193  32.067  1.00  0.00     0.040 A 
ATOM     75  F   UNL A   1      37.554  31.131  32.605  1.00  0.00    -0.206 F 
ATOM     76  C   UNL A   1      34.741  32.903  31.166  1.00  0.00     0.006 A 
ENDBRANCH  48  69
BRANCH  60  77
ATOM     77  C   UNL A   1      43.449  35.415  30.554  1.00  0.00     0.057 A 
ATOM     78  C   UNL A   1      43.487  36.428  29.588  1.00  0.00     0.134 A 
ATOM     79  C   UNL A   1      43.754  35.768  31.874  1.00  0.00     0.134 A 
ATOM     80  F   UNL A   1      43.216  36.153  28.303  1.00  0.00    -0.206 F 
ATOM     81  C   UNL A   1      43.847  37.736  29.917  1.00  0.00     0.040 A 
ATOM     82  C   UNL A   1      44.088  37.078  32.222  1.00  0.00     0.040 A 
ATOM     83  F   UNL A   1      43.727  34.848  32.851  1.00  0.00    -0.206 F 
ATOM     84  C   UNL A   1      44.145  38.064  31.239  1.00  0.00     0.006 A 
ENDBRANCH  60  77
ENDBRANCH  34  35
ENDBRANCH  26  29
ENDBRANCH  24  25
ENDBRANCH   1  24
TORSDOF 12
ENDMDL
MODEL 2
REMARK VINA RESULT:     -10.8      3.912      7.133
REMARK SMILES Cc1cc(-c2cc(C(=O)NCCCCNC(=O)c3ccc(-c4c5nc(c(-c6c(F)cccc6F)c6ccc([nH]6)c(-c6c(F)cccc6F)c6nc(c(-c7c(F)cccc7F)c7ccc4[nH]7)C=C6)C=C5)cc3)c[nH]c2=O)ccc1Cl
REMARK SMILES IDX 13 1 12 2 11 3 10 4 8 5 9 6 7 8 5 9 6 10 74 11 73 12 75 13
REMARK SMILES IDX 72 14 4 16 1 17 2 18 3 19 78 20 77 21 79 22 76 23 14 24
REMARK SMILES IDX 15 25 16 26 17 28 18 29 19 30 71 31 20 32 70 33 21 34 22 35
REMARK SMILES IDX 23 36 64 37 24 38 69 39 63 40 65 41 25 42 68 43 62 44 61 45
REMARK SMILES IDX 26 47 52 48 35 49 51 50 36 51 39 52 50 53 66 54 37 55 38 56
REMARK SMILES IDX 49 58 67 59 40 60 27 61 28 62 33 63 29 64 30 65 32 66 34 67
REMARK SMILES IDX 31 68 53 69 54 70 59 71 55 72 56 73 58 74 60 75 57 76 41 77
REMARK SMILES IDX 42 78 47 79 43 80 44 81 46 82 48 83 45 84
REMARK H PARENT 10 7 73 15 15 27 65 46 39 57
REMARK Flexibility Score: inf
ROOT
ATOM      1  C   UNL A   1      39.044  21.018  25.427  1.00  0.00     0.023 C 
ENDROOT
BRANCH   1   2
ATOM      2  C   UNL A   1      39.043  22.396  26.098  1.00  0.00     0.023 C 
BRANCH   2   3
ATOM      3  C   UNL A   1      37.699  23.126  26.025  1.00  0.00     0.116 C 
BRANCH   3   4
ATOM      4  N   UNL A   1      37.209  23.155  24.662  1.00  0.00    -0.352 N 
ATOM      5  C   UNL A   1      35.992  23.425  24.115  1.00  0.00     0.252 C 
ATOM      6  O   UNL A   1      35.907  23.329  22.888  1.00  0.00    -0.269 OA
ATOM      7  H   UNL A   1      37.898  22.936  23.993  1.00  0.00     0.163 HD
BRANCH   5   8
ATOM      8  C   UNL A   1      34.810  23.880  24.922  1.00  0.00     0.056 A 
ATOM      9  C   UNL A   1      33.230  25.563  25.740  1.00  0.00     0.048 A 
ATOM     10  C   UNL A   1      34.398  25.249  25.149  1.00  0.00     0.029 A 
ATOM     11  C   UNL A   1      32.409  24.463  26.339  1.00  0.00     0.255 A 
ATOM     12  N   UNL A   1      32.921  23.194  26.178  1.00  0.00    -0.328 N 
ATOM     13  O   UNL A   1      31.362  24.668  26.942  1.00  0.00    -0.269 OA
ATOM     14  C   UNL A   1      34.068  22.904  25.479  1.00  0.00     0.099 A 
ATOM     15  H   UNL A   1      32.432  22.446  26.592  1.00  0.00     0.169 HD
BRANCH   9  16
ATOM     16  C   UNL A   1      32.809  26.971  25.765  1.00  0.00    -0.012 A 
ATOM     17  C   UNL A   1      30.491  29.327  23.876  1.00  0.00     0.046 C 
ATOM     18  C   UNL A   1      31.461  28.813  24.901  1.00  0.00    -0.032 A 
ATOM     19  C   UNL A   1      31.918  27.484  24.816  1.00  0.00     0.014 A 
ATOM     20  C   UNL A   1      31.926  29.624  25.948  1.00  0.00     0.044 A 
ATOM     21  C   UNL A   1      32.827  29.123  26.888  1.00  0.00     0.021 A 
ATOM     22  Cl  UNL A   1      31.405  31.262  26.127  1.00  0.00    -0.084 Cl
ATOM     23  C   UNL A   1      33.266  27.803  26.798  1.00  0.00     0.010 A 
ENDBRANCH   9  16
ENDBRANCH   5   8
ENDBRANCH   3   4
ENDBRANCH   2   3
ENDBRANCH   1   2
BRANCH   1  24
ATOM     24  C   UNL A   1      39.512  19.873  26.318  1.00  0.00     0.116 C 
BRANCH  24  25
ATOM     25  N   UNL A   1      40.695  19.196  25.813  1.00  0.00    -0.352 N 
ATOM     26  C   UNL A   1      41.989  19.660  25.752  1.00  0.00     0.251 C 
ATOM     27  H   UNL A   1      40.552  18.285  25.468  1.00  0.00     0.163 HD
ATOM     28  O   UNL A   1      42.856  19.002  25.201  1.00  0.00    -0.269 OA
BRANCH  26  29
ATOM     29  C   UNL A   1      42.309  20.986  26.327  1.00  0.00     0.039 A 
ATOM     30  C   UNL A   1      42.643  22.026  25.459  1.00  0.00     0.014 A 
ATOM     31  C   UNL A   1      42.271  21.201  27.707  1.00  0.00     0.014 A 
ATOM     32  C   UNL A   1      42.890  23.300  25.972  1.00  0.00     0.010 A 
ATOM     33  C   UNL A   1      42.443  22.487  28.210  1.00  0.00     0.010 A 
ATOM     34  C   UNL A   1      42.767  23.546  27.349  1.00  0.00    -0.014 A 
BRANCH  34  35
ATOM     35  C   UNL A   1      43.005  24.900  27.907  1.00  0.00     0.031 A 
ATOM     36  C   UNL A   1      44.397  25.323  28.286  1.00  0.00     0.074 A 
ATOM     37  C   UNL A   1      41.965  25.731  28.111  1.00  0.00     0.049 A 
ATOM     38  N   UNL A   1      44.804  26.445  28.825  1.00  0.00    -0.248 NA
ATOM     39  C   UNL A   1      45.473  24.345  28.055  1.00  0.00     0.031 C 
ATOM     40  C   UNL A   1      40.562  25.417  27.839  1.00  0.00     0.029 A 
ATOM     41  N   UNL A   1      41.929  27.011  28.605  1.00  0.00    -0.354 N 
ATOM     42  C   UNL A   1      46.175  26.304  28.999  1.00  0.00     0.074 A 
ATOM     43  C   UNL A   1      46.520  24.965  28.574  1.00  0.00     0.031 C 
ATOM     44  C   UNL A   1      39.805  26.482  28.149  1.00  0.00     0.029 A 
ATOM     45  C   UNL A   1      40.664  27.542  28.666  1.00  0.00     0.049 A 
ATOM     46  H   UNL A   1      42.734  27.502  28.888  1.00  0.00     0.167 HD
ATOM     47  C   UNL A   1      47.072  27.217  29.440  1.00  0.00     0.037 A 
ATOM     48  C   UNL A   1      40.246  28.749  29.093  1.00  0.00     0.037 A 
ATOM     49  C   UNL A   1      46.729  28.555  29.846  1.00  0.00     0.049 A 
ATOM     50  C   UNL A   1      41.264  29.752  29.564  1.00  0.00     0.074 A 
ATOM     51  C   UNL A   1      47.566  29.564  30.289  1.00  0.00     0.029 A 
ATOM     52  N   UNL A   1      45.442  29.070  29.850  1.00  0.00    -0.354 N 
ATOM     53  N   UNL A   1      42.564  29.623  29.672  1.00  0.00    -0.248 NA
ATOM     54  C   UNL A   1      40.757  31.076  29.952  1.00  0.00     0.031 C 
ATOM     55  C   UNL A   1      46.781  30.683  30.589  1.00  0.00     0.029 A 
ATOM     56  C   UNL A   1      45.461  30.384  30.287  1.00  0.00     0.049 A 
ATOM     57  H   UNL A   1      44.634  28.576  29.581  1.00  0.00     0.167 HD
ATOM     58  C   UNL A   1      43.034  30.856  30.107  1.00  0.00     0.074 A 
ATOM     59  C   UNL A   1      41.880  31.724  30.226  1.00  0.00     0.031 C 
ATOM     60  C   UNL A   1      44.305  31.238  30.383  1.00  0.00     0.037 A 
BRANCH  47  61
ATOM     61  C   UNL A   1      48.513  26.800  29.484  1.00  0.00     0.057 A 
ATOM     62  C   UNL A   1      49.399  27.108  28.441  1.00  0.00     0.134 A 
ATOM     63  C   UNL A   1      49.030  26.103  30.583  1.00  0.00     0.134 A 
ATOM     64  F   UNL A   1      48.965  27.759  27.351  1.00  0.00    -0.206 F 
ATOM     65  C   UNL A   1      50.738  26.716  28.478  1.00  0.00     0.040 A 
ATOM     66  C   UNL A   1      50.375  25.731  30.644  1.00  0.00     0.040 A 
ATOM     67  F   UNL A   1      48.241  25.779  31.617  1.00  0.00    -0.206 F 
ATOM     68  C   UNL A   1      51.231  26.031  29.586  1.00  0.00     0.006 A 
ENDBRANCH  47  61
BRANCH  48  69
ATOM     69  C   UNL A   1      38.801  29.092  29.066  1.00  0.00     0.057 A 
ATOM     70  C   UNL A   1      38.188  29.560  27.897  1.00  0.00     0.134 A 
ATOM     71  C   UNL A   1      38.005  28.982  30.211  1.00  0.00     0.134 A 
ATOM     72  F   UNL A   1      38.903  29.703  26.772  1.00  0.00    -0.206 F 
ATOM     73  C   UNL A   1      36.845  29.936  27.876  1.00  0.00     0.040 A 
ATOM     74  C   UNL A   1      36.653  29.328  30.197  1.00  0.00     0.040 A 
ATOM     75  F   UNL A   1      38.528  28.528  31.359  1.00  0.00    -0.206 F 
ATOM     76  C   UNL A   1      36.072  29.818  29.029  1.00  0.00     0.006 A 
ENDBRANCH  48  69
BRANCH  60  77
ATOM     77  C   UNL A   1      44.517  32.667  30.786  1.00  0.00     0.057 A 
ATOM     78  C   UNL A   1      44.503  33.073  32.126  1.00  0.00     0.134 A 
ATOM     79  C   UNL A   1      44.758  33.648  29.816  1.00  0.00     0.134 A 
ATOM     80  F   UNL A   1      44.268  32.184  33.104  1.00  0.00    -0.206 F 
ATOM     81  C   UNL A   1      44.689  34.409  32.486  1.00  0.00     0.040 A 
ATOM     82  C   UNL A   1      44.972  34.983  30.164  1.00  0.00     0.040 A 
ATOM     83  F   UNL A   1      44.794  33.326  28.514  1.00  0.00    -0.206 F 
ATOM     84  C   UNL A   1      44.928  35.367  31.502  1.00  0.00     0.006 A 
ENDBRANCH  60  77
ENDBRANCH  34  35
ENDBRANCH  26  29
ENDBRANCH  24  25
ENDBRANCH   1  24
TORSDOF 12
ENDMDL
MODEL 3
REMARK VINA RESULT:     -10.8      4.754     10.146
REMARK SMILES Cc1cc(-c2cc(C(=O)NCCCCNC(=O)c3ccc(-c4c5nc(c(-c6c(F)cccc6F)c6ccc([nH]6)c(-c6c(F)cccc6F)c6nc(c(-c7c(F)cccc7F)c7ccc4[nH]7)C=C6)C=C5)cc3)c[nH]c2=O)ccc1Cl
REMARK SMILES IDX 13 1 12 2 11 3 10 4 8 5 9 6 7 8 5 9 6 10 74 11 73 12 75 13
REMARK SMILES IDX 72 14 4 16 1 17 2 18 3 19 78 20 77 21 79 22 76 23 14 24
REMARK SMILES IDX 15 25 16 26 17 28 18 29 19 30 71 31 20 32 70 33 21 34 22 35
REMARK SMILES IDX 23 36 64 37 24 38 69 39 63 40 65 41 25 42 68 43 62 44 61 45
REMARK SMILES IDX 26 47 52 48 35 49 51 50 36 51 39 52 50 53 66 54 37 55 38 56
REMARK SMILES IDX 49 58 67 59 40 60 27 61 28 62 33 63 29 64 30 65 32 66 34 67
REMARK SMILES IDX 31 68 53 69 54 70 59 71 55 72 56 73 58 74 60 75 57 76 41 77
REMARK SMILES IDX 42 78 47 79 43 80 44 81 46 82 48 83 45 84
REMARK H PARENT 10 7 73 15 15 27 65 46 39 57
REMARK Flexibility Score: inf
ROOT
ATOM      1  C   UNL A   1      33.938  28.273  25.765  1.00  0.00     0.023 C 
ENDROOT
BRANCH   1   2
ATOM      2  C   UNL A   1      33.238  29.296  24.862  1.00  0.00     0.023 C 
BRANCH   2   3
ATOM      3  C   UNL A   1      33.306  28.961  23.369  1.00  0.00     0.116 C 
BRANCH   3   4
ATOM      4  N   UNL A   1      31.979  28.713  22.843  1.00  0.00    -0.352 N 
ATOM      5  C   UNL A   1      31.056  27.737  23.066  1.00  0.00     0.252 C 
ATOM      6  O   UNL A   1      30.012  27.810  22.413  1.00  0.00    -0.269 OA
ATOM      7  H   UNL A   1      31.683  29.389  22.191  1.00  0.00     0.163 HD
BRANCH   5   8
ATOM      8  C   UNL A   1      31.236  26.653  24.089  1.00  0.00     0.056 A 
ATOM      9  C   UNL A   1      32.427  24.766  25.097  1.00  0.00     0.048 A 
ATOM     10  C   UNL A   1      32.222  25.594  24.056  1.00  0.00     0.029 A 
ATOM     11  C   UNL A   1      31.488  24.830  26.261  1.00  0.00     0.255 A 
ATOM     12  N   UNL A   1      30.506  25.792  26.173  1.00  0.00    -0.328 N 
ATOM     13  O   UNL A   1      31.570  24.075  27.224  1.00  0.00    -0.269 OA
ATOM     14  C   UNL A   1      30.391  26.687  25.136  1.00  0.00     0.099 A 
ATOM     15  H   UNL A   1      29.844  25.841  26.899  1.00  0.00     0.169 HD
BRANCH   9  16
ATOM     16  C   UNL A   1      33.568  23.841  25.048  1.00  0.00    -0.012 A 
ATOM     17  C   UNL A   1      37.269  23.769  25.934  1.00  0.00     0.046 C 
ATOM     18  C   UNL A   1      35.913  23.316  25.477  1.00  0.00    -0.032 A 
ATOM     19  C   UNL A   1      34.848  24.236  25.453  1.00  0.00     0.014 A 
ATOM     20  C   UNL A   1      35.675  21.993  25.072  1.00  0.00     0.044 A 
ATOM     21  C   UNL A   1      34.405  21.596  24.653  1.00  0.00     0.021 A 
ATOM     22  Cl  UNL A   1      36.926  20.802  25.083  1.00  0.00    -0.084 Cl
ATOM     23  C   UNL A   1      33.356  22.515  24.641  1.00  0.00     0.010 A 
ENDBRANCH   9  16
ENDBRANCH   5   8
ENDBRANCH   3   4
ENDBRANCH   2   3
ENDBRANCH   1   2
BRANCH   1  24
ATOM     24  C   UNL A   1      33.693  28.464  27.257  1.00  0.00     0.116 C 
BRANCH  24  25
ATOM     25  N   UNL A   1      33.563  29.859  27.646  1.00  0.00    -0.352 N 
ATOM     26  C   UNL A   1      34.505  30.680  28.221  1.00  0.00     0.251 C 
ATOM     27  H   UNL A   1      32.684  30.270  27.477  1.00  0.00     0.163 HD
ATOM     28  O   UNL A   1      34.204  31.806  28.584  1.00  0.00    -0.269 OA
BRANCH  26  29
ATOM     29  C   UNL A   1      35.878  30.170  28.431  1.00  0.00     0.039 A 
ATOM     30  C   UNL A   1      36.794  30.268  27.381  1.00  0.00     0.014 A 
ATOM     31  C   UNL A   1      36.260  29.609  29.651  1.00  0.00     0.014 A 
ATOM     32  C   UNL A   1      38.110  29.849  27.574  1.00  0.00     0.010 A 
ATOM     33  C   UNL A   1      37.589  29.262  29.866  1.00  0.00     0.010 A 
ATOM     34  C   UNL A   1      38.525  29.367  28.826  1.00  0.00    -0.014 A 
BRANCH  34  35
ATOM     35  C   UNL A   1      39.927  28.938  29.054  1.00  0.00     0.031 A 
ATOM     36  C   UNL A   1      40.904  29.876  29.708  1.00  0.00     0.074 A 
ATOM     37  C   UNL A   1      40.330  27.722  28.636  1.00  0.00     0.049 A 
ATOM     38  N   UNL A   1      42.178  29.704  29.956  1.00  0.00    -0.248 NA
ATOM     39  C   UNL A   1      40.388  31.195  30.109  1.00  0.00     0.031 C 
ATOM     40  C   UNL A   1      39.494  26.744  27.939  1.00  0.00     0.029 A 
ATOM     41  N   UNL A   1      41.553  27.106  28.731  1.00  0.00    -0.354 N 
ATOM     42  C   UNL A   1      42.612  30.888  30.537  1.00  0.00     0.074 A 
ATOM     43  C   UNL A   1      41.485  31.796  30.541  1.00  0.00     0.031 C 
ATOM     44  C   UNL A   1      40.221  25.644  27.689  1.00  0.00     0.029 A 
ATOM     45  C   UNL A   1      41.580  25.848  28.181  1.00  0.00     0.049 A 
ATOM     46  H   UNL A   1      42.337  27.527  29.154  1.00  0.00     0.167 HD
ATOM     47  C   UNL A   1      43.829  31.184  31.053  1.00  0.00     0.037 A 
ATOM     48  C   UNL A   1      42.588  24.961  28.086  1.00  0.00     0.037 A 
ATOM     49  C   UNL A   1      44.943  30.273  31.064  1.00  0.00     0.049 A 
ATOM     50  C   UNL A   1      43.926  25.306  28.681  1.00  0.00     0.074 A 
ATOM     51  C   UNL A   1      46.212  30.468  31.580  1.00  0.00     0.029 A 
ATOM     52  N   UNL A   1      44.917  28.991  30.538  1.00  0.00    -0.354 N 
ATOM     53  N   UNL A   1      44.307  26.411  29.276  1.00  0.00    -0.248 NA
ATOM     54  C   UNL A   1      44.968  24.273  28.609  1.00  0.00     0.031 C 
ATOM     55  C   UNL A   1      46.964  29.312  31.342  1.00  0.00     0.029 A 
ATOM     56  C   UNL A   1      46.147  28.381  30.719  1.00  0.00     0.049 A 
ATOM     57  H   UNL A   1      44.139  28.574  30.102  1.00  0.00     0.167 HD
ATOM     58  C   UNL A   1      45.619  26.194  29.678  1.00  0.00     0.074 A 
ATOM     59  C   UNL A   1      45.961  24.845  29.274  1.00  0.00     0.031 C 
ATOM     60  C   UNL A   1      46.465  27.033  30.324  1.00  0.00     0.037 A 
BRANCH  47  61
ATOM     61  C   UNL A   1      44.004  32.542  31.666  1.00  0.00     0.057 A 
ATOM     62  C   UNL A   1      44.445  33.638  30.909  1.00  0.00     0.134 A 
ATOM     63  C   UNL A   1      43.711  32.769  33.016  1.00  0.00     0.134 A 
ATOM     64  F   UNL A   1      44.758  33.487  29.614  1.00  0.00    -0.206 F 
ATOM     65  C   UNL A   1      44.614  34.901  31.479  1.00  0.00     0.040 A 
ATOM     66  C   UNL A   1      43.848  34.034  33.591  1.00  0.00     0.040 A 
ATOM     67  F   UNL A   1      43.281  31.767  33.797  1.00  0.00    -0.206 F 
ATOM     68  C   UNL A   1      44.307  35.103  32.823  1.00  0.00     0.006 A 
ENDBRANCH  47  61
BRANCH  48  69
ATOM     69  C   UNL A   1      42.367  23.646  27.431  1.00  0.00     0.057 A 
ATOM     70  C   UNL A   1      42.030  22.511  28.178  1.00  0.00     0.134 A 
ATOM     71  C   UNL A   1      42.510  23.490  26.048  1.00  0.00     0.134 A 
ATOM     72  F   UNL A   1      41.896  22.595  29.509  1.00  0.00    -0.206 F 
ATOM     73  C   UNL A   1      41.874  21.261  27.578  1.00  0.00     0.040 A 
ATOM     74  C   UNL A   1      42.329  22.250  25.431  1.00  0.00     0.040 A 
ATOM     75  F   UNL A   1      42.819  24.540  25.274  1.00  0.00    -0.206 F 
ATOM     76  C   UNL A   1      42.021  21.129  26.199  1.00  0.00     0.006 A 
ENDBRANCH  48  69
BRANCH  60  77
ATOM     77  C   UNL A   1      47.820  26.496  30.681  1.00  0.00     0.057 A 
ATOM     78  C   UNL A   1      48.907  26.575  29.802  1.00  0.00     0.134 A 
ATOM     79  C   UNL A   1      48.041  25.908  31.933  1.00  0.00     0.134 A 
ATOM     80  F   UNL A   1      48.758  27.116  28.583  1.00  0.00    -0.206 F 
ATOM     81  C   UNL A   1      50.159  26.058  30.142  1.00  0.00     0.040 A 
ATOM     82  C   UNL A   1      49.295  25.413  32.296  1.00  0.00     0.040 A 
ATOM     83  F   UNL A   1      47.046  25.810  32.827  1.00  0.00    -0.206 F 
ATOM     84  C   UNL A   1      50.355  25.479  31.394  1.00  0.00     0.006 A 
ENDBRANCH  60  77
ENDBRANCH  34  35
ENDBRANCH  26  29
ENDBRANCH  24  25
ENDBRANCH   1  24
TORSDOF 12
ENDMDL
