MODEL 1
REMARK VINA RESULT:     -13.0      0.000      0.000
REMARK SMILES CC(=O)n1cc2c3c(cccc31)C(=O)C[C@@H]2C(=O)NCCCCNC(=O)c1ccc(-c2c3nc(c(-c4c(F)cccc4F)c4ccc([nH]4)c(-c4c(F)cccc4F)c4nc(c(-c5c(F)cccc5F)c5ccc2[nH]5)C=C4)C=C3)cc1
REMARK SMILES IDX 22 1 21 2 20 3 19 4 17 5 18 6 16 8 4 9 5 10 12 11 6 12 7 13
REMARK SMILES IDX 11 14 8 15 10 16 15 17 9 18 13 19 14 20 2 21 1 22 3 23 23 24
REMARK SMILES IDX 24 25 25 26 26 28 27 29 28 30 80 31 29 32 79 33 30 34 31 35
REMARK SMILES IDX 32 36 73 37 33 38 78 39 72 40 74 41 34 42 77 43 71 44 70 45
REMARK SMILES IDX 35 47 61 48 44 49 60 50 45 51 48 52 59 53 75 54 46 55 47 56
REMARK SMILES IDX 58 58 76 59 49 60 36 61 37 62 42 63 38 64 39 65 41 66 43 67
REMARK SMILES IDX 40 68 62 69 63 70 68 71 64 72 65 73 67 74 69 75 66 76 50 77
REMARK SMILES IDX 51 78 56 79 52 80 53 81 55 82 57 83 54 84
REMARK H PARENT 19 7 24 27 74 46 48 57
REMARK Flexibility Score: inf
ROOT
ATOM      1  C   UNL A   1      34.159  28.614  27.016  1.00  0.00     0.023 C 
ENDROOT
BRANCH   1   2
ATOM      2  C   UNL A   1      32.930  29.511  26.828  1.00  0.00     0.023 C 
BRANCH   2   3
ATOM      3  C   UNL A   1      32.276  29.467  25.445  1.00  0.00     0.116 C 
BRANCH   3   4
ATOM      4  N   UNL A   1      33.255  29.459  24.371  1.00  0.00    -0.356 N 
ATOM      5  C   UNL A   1      33.258  28.807  23.171  1.00  0.00     0.228 C 
ATOM      6  O   UNL A   1      34.227  28.990  22.429  1.00  0.00    -0.274 OA
ATOM      7  H   UNL A   1      34.050  30.017  24.535  1.00  0.00     0.163 HD
BRANCH   5   8
ATOM      8  C   UNL A   1      32.114  27.883  22.738  1.00  0.00     0.118 C 
ATOM      9  N   UNL A   1      29.230  30.159  22.020  1.00  0.00    -0.287 N 
ATOM     10  C   UNL A   1      30.579  29.839  21.847  1.00  0.00     0.100 A 
ATOM     11  C   UNL A   1      28.632  29.099  22.712  1.00  0.00     0.057 A 
ATOM     12  C   UNL A   1      30.852  28.654  22.492  1.00  0.00    -0.008 A 
ATOM     13  C   UNL A   1      29.628  28.170  22.971  1.00  0.00     0.015 A 
ATOM     14  C   UNL A   1      27.313  28.843  23.128  1.00  0.00     0.027 A 
ATOM     15  C   UNL A   1      29.361  26.980  23.645  1.00  0.00     0.027 A 
ATOM     16  C   UNL A   1      27.048  27.628  23.787  1.00  0.00     0.003 A 
ATOM     17  C   UNL A   1      31.934  26.717  23.745  1.00  0.00     0.099 C 
ATOM     18  C   UNL A   1      28.057  26.697  24.042  1.00  0.00     0.012 A 
ATOM     19  C   UNL A   1      30.532  26.111  23.898  1.00  0.00     0.164 C 
ATOM     20  O   UNL A   1      30.363  24.968  24.313  1.00  0.00    -0.294 OA
BRANCH   9  21
ATOM     21  C   UNL A   1      28.574  31.338  21.597  1.00  0.00     0.227 C 
ATOM     22  C   UNL A   1      28.721  32.518  22.515  1.00  0.00     0.115 C 
ATOM     23  O   UNL A   1      27.976  31.365  20.539  1.00  0.00    -0.274 OA
ENDBRANCH   9  21
ENDBRANCH   5   8
ENDBRANCH   3   4
ENDBRANCH   2   3
ENDBRANCH   1   2
BRANCH   1  24
ATOM     24  C   UNL A   1      35.421  29.366  27.406  1.00  0.00     0.116 C 
BRANCH  24  25
ATOM     25  N   UNL A   1      35.402  29.814  28.797  1.00  0.00    -0.352 N 
ATOM     26  C   UNL A   1      36.323  29.540  29.786  1.00  0.00     0.251 C 
ATOM     27  H   UNL A   1      34.640  30.379  29.059  1.00  0.00     0.163 HD
ATOM     28  O   UNL A   1      36.023  29.637  30.971  1.00  0.00    -0.269 OA
BRANCH  26  29
ATOM     29  C   UNL A   1      37.690  29.158  29.397  1.00  0.00     0.039 A 
ATOM     30  C   UNL A   1      38.328  29.748  28.302  1.00  0.00     0.014 A 
ATOM     31  C   UNL A   1      38.320  28.157  30.137  1.00  0.00     0.014 A 
ATOM     32  C   UNL A   1      39.617  29.335  27.979  1.00  0.00     0.010 A 
ATOM     33  C   UNL A   1      39.639  27.868  29.923  1.00  0.00     0.010 A 
ATOM     34  C   UNL A   1      40.256  28.390  28.799  1.00  0.00    -0.014 A 
BRANCH  34  35
ATOM     35  C   UNL A   1      41.630  27.989  28.562  1.00  0.00     0.031 A 
ATOM     36  C   UNL A   1      41.736  26.743  27.770  1.00  0.00     0.074 A 
ATOM     37  C   UNL A   1      42.678  28.791  28.846  1.00  0.00     0.049 A 
ATOM     38  N   UNL A   1      41.993  25.560  28.215  1.00  0.00    -0.248 NA
ATOM     39  C   UNL A   1      41.302  26.766  26.363  1.00  0.00     0.031 C 
ATOM     40  C   UNL A   1      42.656  30.179  29.328  1.00  0.00     0.029 A 
ATOM     41  N   UNL A   1      44.011  28.546  28.699  1.00  0.00    -0.354 N 
ATOM     42  C   UNL A   1      42.022  24.738  27.091  1.00  0.00     0.074 A 
ATOM     43  C   UNL A   1      41.354  25.469  26.050  1.00  0.00     0.031 C 
ATOM     44  C   UNL A   1      43.896  30.713  29.244  1.00  0.00     0.029 A 
ATOM     45  C   UNL A   1      44.826  29.665  28.869  1.00  0.00     0.049 A 
ATOM     46  H   UNL A   1      44.369  27.654  28.491  1.00  0.00     0.167 HD
ATOM     47  C   UNL A   1      42.892  23.690  27.040  1.00  0.00     0.037 A 
ATOM     48  C   UNL A   1      46.173  29.710  28.724  1.00  0.00     0.037 A 
ATOM     49  C   UNL A   1      43.458  23.458  28.350  1.00  0.00     0.049 A 
ATOM     50  C   UNL A   1      46.669  28.324  28.858  1.00  0.00     0.074 A 
ATOM     51  C   UNL A   1      43.020  22.972  29.562  1.00  0.00     0.029 A 
ATOM     52  N   UNL A   1      44.596  24.187  28.589  1.00  0.00    -0.354 N 
ATOM     53  N   UNL A   1      46.621  27.654  29.975  1.00  0.00    -0.248 NA
ATOM     54  C   UNL A   1      46.854  27.519  27.657  1.00  0.00     0.031 C 
ATOM     55  C   UNL A   1      43.801  23.640  30.555  1.00  0.00     0.029 A 
ATOM     56  C   UNL A   1      44.731  24.465  29.921  1.00  0.00     0.049 A 
ATOM     57  H   UNL A   1      45.231  24.471  27.893  1.00  0.00     0.167 HD
ATOM     58  C   UNL A   1      46.322  26.359  29.590  1.00  0.00     0.074 A 
ATOM     59  C   UNL A   1      46.650  26.301  28.169  1.00  0.00     0.031 C 
ATOM     60  C   UNL A   1      45.545  25.566  30.387  1.00  0.00     0.037 A 
BRANCH  47  61
ATOM     61  C   UNL A   1      43.645  23.242  25.799  1.00  0.00     0.057 A 
ATOM     62  C   UNL A   1      44.586  24.019  25.093  1.00  0.00     0.134 A 
ATOM     63  C   UNL A   1      43.677  21.863  25.501  1.00  0.00     0.134 A 
ATOM     64  F   UNL A   1      44.729  25.334  25.276  1.00  0.00    -0.206 F 
ATOM     65  C   UNL A   1      45.523  23.465  24.212  1.00  0.00     0.040 A 
ATOM     66  C   UNL A   1      44.640  21.296  24.657  1.00  0.00     0.040 A 
ATOM     67  F   UNL A   1      42.827  21.011  26.093  1.00  0.00    -0.206 F 
ATOM     68  C   UNL A   1      45.578  22.096  24.020  1.00  0.00     0.006 A 
ENDBRANCH  47  61
BRANCH  48  69
ATOM     69  C   UNL A   1      47.045  30.815  28.272  1.00  0.00     0.057 A 
ATOM     70  C   UNL A   1      47.774  31.571  29.205  1.00  0.00     0.134 A 
ATOM     71  C   UNL A   1      46.962  31.345  26.977  1.00  0.00     0.134 A 
ATOM     72  F   UNL A   1      47.851  31.186  30.487  1.00  0.00    -0.206 F 
ATOM     73  C   UNL A   1      48.364  32.798  28.877  1.00  0.00     0.040 A 
ATOM     74  C   UNL A   1      47.552  32.571  26.633  1.00  0.00     0.040 A 
ATOM     75  F   UNL A   1      46.251  30.718  26.028  1.00  0.00    -0.206 F 
ATOM     76  C   UNL A   1      48.244  33.308  27.590  1.00  0.00     0.006 A 
ENDBRANCH  48  69
BRANCH  60  77
ATOM     77  C   UNL A   1      45.415  25.973  31.826  1.00  0.00     0.057 A 
ATOM     78  C   UNL A   1      44.259  26.655  32.217  1.00  0.00     0.134 A 
ATOM     79  C   UNL A   1      46.402  25.780  32.804  1.00  0.00     0.134 A 
ATOM     80  F   UNL A   1      43.295  26.916  31.321  1.00  0.00    -0.206 F 
ATOM     81  C   UNL A   1      44.080  27.112  33.523  1.00  0.00     0.040 A 
ATOM     82  C   UNL A   1      46.222  26.204  34.124  1.00  0.00     0.040 A 
ATOM     83  F   UNL A   1      47.574  25.209  32.502  1.00  0.00    -0.206 F 
ATOM     84  C   UNL A   1      45.058  26.875  34.485  1.00  0.00     0.006 A 
ENDBRANCH  60  77
ENDBRANCH  34  35
ENDBRANCH  26  29
ENDBRANCH  24  25
ENDBRANCH   1  24
TORSDOF 12
ENDMDL
MODEL 2
REMARK VINA RESULT:     -12.8      1.935      6.183
REMARK SMILES CC(=O)n1cc2c3c(cccc31)C(=O)C[C@@H]2C(=O)NCCCCNC(=O)c1ccc(-c2c3nc(c(-c4c(F)cccc4F)c4ccc([nH]4)c(-c4c(F)cccc4F)c4nc(c(-c5c(F)cccc5F)c5ccc2[nH]5)C=C4)C=C3)cc1
REMARK SMILES IDX 22 1 21 2 20 3 19 4 17 5 18 6 16 8 4 9 5 10 12 11 6 12 7 13
REMARK SMILES IDX 11 14 8 15 10 16 15 17 9 18 13 19 14 20 2 21 1 22 3 23 23 24
REMARK SMILES IDX 24 25 25 26 26 28 27 29 28 30 80 31 29 32 79 33 30 34 31 35
REMARK SMILES IDX 32 36 73 37 33 38 78 39 72 40 74 41 34 42 77 43 71 44 70 45
REMARK SMILES IDX 35 47 61 48 44 49 60 50 45 51 48 52 59 53 75 54 46 55 47 56
REMARK SMILES IDX 58 58 76 59 49 60 36 61 37 62 42 63 38 64 39 65 41 66 43 67
REMARK SMILES IDX 40 68 62 69 63 70 68 71 64 72 65 73 67 74 69 75 66 76 50 77
REMARK SMILES IDX 51 78 56 79 52 80 53 81 55 82 57 83 54 84
REMARK H PARENT 19 7 24 27 74 46 48 57
REMARK Flexibility Score: inf
ROOT
ATOM      1  C   UNL A   1      33.461  30.311  27.465  1.00  0.00     0.023 C 
ENDROOT
BRANCH   1   2
ATOM      2  C   UNL A   1      32.263  30.709  26.596  1.00  0.00     0.023 C 
BRANCH   2   3
ATOM      3  C   UNL A   1      31.931  29.761  25.441  1.00  0.00     0.116 C 
BRANCH   3   4
ATOM      4  N   UNL A   1      33.024  29.644  24.491  1.00  0.00    -0.356 N 
ATOM      5  C   UNL A   1      33.143  28.892  23.356  1.00  0.00     0.228 C 
ATOM      6  O   UNL A   1      34.195  28.993  22.718  1.00  0.00    -0.274 OA
ATOM      7  H   UNL A   1      33.811  30.198  24.699  1.00  0.00     0.163 HD
BRANCH   5   8
ATOM      8  C   UNL A   1      32.030  27.957  22.873  1.00  0.00     0.118 C 
ATOM      9  N   UNL A   1      29.155  30.204  22.037  1.00  0.00    -0.287 N 
ATOM     10  C   UNL A   1      30.513  29.899  21.921  1.00  0.00     0.100 A 
ATOM     11  C   UNL A   1      28.539  29.135  22.700  1.00  0.00     0.057 A 
ATOM     12  C   UNL A   1      30.771  28.715  22.574  1.00  0.00    -0.008 A 
ATOM     13  C   UNL A   1      29.533  28.216  22.999  1.00  0.00     0.015 A 
ATOM     14  C   UNL A   1      27.206  28.864  23.058  1.00  0.00     0.027 A 
ATOM     15  C   UNL A   1      29.250  27.021  23.658  1.00  0.00     0.027 A 
ATOM     16  C   UNL A   1      26.927  27.643  23.701  1.00  0.00     0.003 A 
ATOM     17  C   UNL A   1      31.819  26.786  23.867  1.00  0.00     0.099 C 
ATOM     18  C   UNL A   1      27.934  26.722  23.997  1.00  0.00     0.012 A 
ATOM     19  C   UNL A   1      30.419  26.165  23.958  1.00  0.00     0.164 C 
ATOM     20  O   UNL A   1      30.245  25.019  24.363  1.00  0.00    -0.294 OA
BRANCH   9  21
ATOM     21  C   UNL A   1      28.504  31.376  21.589  1.00  0.00     0.227 C 
ATOM     22  C   UNL A   1      28.696  32.587  22.457  1.00  0.00     0.115 C 
ATOM     23  O   UNL A   1      27.876  31.375  20.548  1.00  0.00    -0.274 OA
ENDBRANCH   9  21
ENDBRANCH   5   8
ENDBRANCH   3   4
ENDBRANCH   2   3
ENDBRANCH   1   2
BRANCH   1  24
ATOM     24  C   UNL A   1      34.533  31.383  27.569  1.00  0.00     0.116 C 
BRANCH  24  25
ATOM     25  N   UNL A   1      34.422  32.174  28.791  1.00  0.00    -0.352 N 
ATOM     26  C   UNL A   1      35.129  32.021  29.965  1.00  0.00     0.251 C 
ATOM     27  H   UNL A   1      33.762  32.904  28.775  1.00  0.00     0.163 HD
ATOM     28  O   UNL A   1      34.702  32.471  31.023  1.00  0.00    -0.269 OA
BRANCH  26  29
ATOM     29  C   UNL A   1      36.430  31.334  29.926  1.00  0.00     0.039 A 
ATOM     30  C   UNL A   1      37.620  32.037  29.713  1.00  0.00     0.014 A 
ATOM     31  C   UNL A   1      36.436  29.946  30.071  1.00  0.00     0.014 A 
ATOM     32  C   UNL A   1      38.816  31.327  29.676  1.00  0.00     0.010 A 
ATOM     33  C   UNL A   1      37.619  29.271  30.196  1.00  0.00     0.010 A 
ATOM     34  C   UNL A   1      38.796  29.943  29.915  1.00  0.00    -0.014 A 
BRANCH  34  35
ATOM     35  C   UNL A   1      40.021  29.167  29.976  1.00  0.00     0.031 A 
ATOM     36  C   UNL A   1      40.547  29.033  31.353  1.00  0.00     0.074 A 
ATOM     37  C   UNL A   1      40.490  28.469  28.920  1.00  0.00     0.049 A 
ATOM     38  N   UNL A   1      41.526  29.688  31.878  1.00  0.00    -0.248 NA
ATOM     39  C   UNL A   1      39.774  28.242  32.326  1.00  0.00     0.031 C 
ATOM     40  C   UNL A   1      39.858  28.274  27.608  1.00  0.00     0.029 A 
ATOM     41  N   UNL A   1      41.623  27.718  28.823  1.00  0.00    -0.354 N 
ATOM     42  C   UNL A   1      41.662  29.185  33.168  1.00  0.00     0.074 A 
ATOM     43  C   UNL A   1      40.430  28.507  33.460  1.00  0.00     0.031 C 
ATOM     44  C   UNL A   1      40.513  27.308  26.923  1.00  0.00     0.029 A 
ATOM     45  C   UNL A   1      41.702  26.939  27.670  1.00  0.00     0.049 A 
ATOM     46  H   UNL A   1      42.328  27.725  29.509  1.00  0.00     0.167 HD
ATOM     47  C   UNL A   1      42.900  29.085  33.730  1.00  0.00     0.037 A 
ATOM     48  C   UNL A   1      42.688  26.065  27.353  1.00  0.00     0.037 A 
ATOM     49  C   UNL A   1      43.861  29.815  32.934  1.00  0.00     0.049 A 
ATOM     50  C   UNL A   1      43.874  26.443  28.152  1.00  0.00     0.074 A 
ATOM     51  C   UNL A   1      44.144  31.136  32.664  1.00  0.00     0.029 A 
ATOM     52  N   UNL A   1      44.426  29.064  31.936  1.00  0.00    -0.354 N 
ATOM     53  N   UNL A   1      44.534  27.551  27.968  1.00  0.00    -0.248 NA
ATOM     54  C   UNL A   1      44.099  25.791  29.435  1.00  0.00     0.031 C 
ATOM     55  C   UNL A   1      44.688  31.155  31.343  1.00  0.00     0.029 A 
ATOM     56  C   UNL A   1      44.777  29.845  30.870  1.00  0.00     0.049 A 
ATOM     57  H   UNL A   1      44.561  28.089  31.981  1.00  0.00     0.167 HD
ATOM     58  C   UNL A   1      44.892  27.958  29.241  1.00  0.00     0.074 A 
ATOM     59  C   UNL A   1      44.756  26.766  30.071  1.00  0.00     0.031 C 
ATOM     60  C   UNL A   1      44.954  29.288  29.547  1.00  0.00     0.037 A 
BRANCH  47  61
ATOM     61  C   UNL A   1      43.364  27.943  34.619  1.00  0.00     0.057 A 
ATOM     62  C   UNL A   1      43.529  28.016  36.018  1.00  0.00     0.134 A 
ATOM     63  C   UNL A   1      43.316  26.633  34.100  1.00  0.00     0.134 A 
ATOM     64  F   UNL A   1      43.553  29.171  36.688  1.00  0.00    -0.206 F 
ATOM     65  C   UNL A   1      43.579  26.884  36.839  1.00  0.00     0.040 A 
ATOM     66  C   UNL A   1      43.320  25.495  34.918  1.00  0.00     0.040 A 
ATOM     67  F   UNL A   1      43.174  26.418  32.783  1.00  0.00    -0.206 F 
ATOM     68  C   UNL A   1      43.436  25.619  36.295  1.00  0.00     0.006 A 
ENDBRANCH  47  61
BRANCH  48  69
ATOM     69  C   UNL A   1      42.634  24.807  26.578  1.00  0.00     0.057 A 
ATOM     70  C   UNL A   1      42.094  23.644  27.149  1.00  0.00     0.134 A 
ATOM     71  C   UNL A   1      43.364  24.633  25.393  1.00  0.00     0.134 A 
ATOM     72  F   UNL A   1      41.441  23.695  28.320  1.00  0.00    -0.206 F 
ATOM     73  C   UNL A   1      42.291  22.375  26.591  1.00  0.00     0.040 A 
ATOM     74  C   UNL A   1      43.565  23.368  24.821  1.00  0.00     0.040 A 
ATOM     75  F   UNL A   1      43.955  25.678  24.797  1.00  0.00    -0.206 F 
ATOM     76  C   UNL A   1      43.039  22.232  25.428  1.00  0.00     0.006 A 
ENDBRANCH  48  69
BRANCH  60  77
ATOM     77  C   UNL A   1      45.059  30.243  28.394  1.00  0.00     0.057 A 
ATOM     78  C   UNL A   1      46.334  30.582  27.932  1.00  0.00     0.134 A 
ATOM     79  C   UNL A   1      43.970  30.882  27.782  1.00  0.00     0.134 A 
ATOM     80  F   UNL A   1      47.423  30.046  28.504  1.00  0.00    -0.206 F 
ATOM     81  C   UNL A   1      46.523  31.500  26.898  1.00  0.00     0.040 A 
ATOM     82  C   UNL A   1      44.143  31.778  26.724  1.00  0.00     0.040 A 
ATOM     83  F   UNL A   1      42.718  30.681  28.212  1.00  0.00    -0.206 F 
ATOM     84  C   UNL A   1      45.425  32.092  26.281  1.00  0.00     0.006 A 
ENDBRANCH  60  77
ENDBRANCH  34  35
ENDBRANCH  26  29
ENDBRANCH  24  25
ENDBRANCH   1  24
TORSDOF 12
ENDMDL
MODEL 3
REMARK VINA RESULT:     -12.8      3.000      7.248
REMARK SMILES CC(=O)n1cc2c3c(cccc31)C(=O)C[C@@H]2C(=O)NCCCCNC(=O)c1ccc(-c2c3nc(c(-c4c(F)cccc4F)c4ccc([nH]4)c(-c4c(F)cccc4F)c4nc(c(-c5c(F)cccc5F)c5ccc2[nH]5)C=C4)C=C3)cc1
REMARK SMILES IDX 22 1 21 2 20 3 19 4 17 5 18 6 16 8 4 9 5 10 12 11 6 12 7 13
REMARK SMILES IDX 11 14 8 15 10 16 15 17 9 18 13 19 14 20 2 21 1 22 3 23 23 24
REMARK SMILES IDX 24 25 25 26 26 28 27 29 28 30 80 31 29 32 79 33 30 34 31 35
REMARK SMILES IDX 32 36 73 37 33 38 78 39 72 40 74 41 34 42 77 43 71 44 70 45
REMARK SMILES IDX 35 47 61 48 44 49 60 50 45 51 48 52 59 53 75 54 46 55 47 56
REMARK SMILES IDX 58 58 76 59 49 60 36 61 37 62 42 63 38 64 39 65 41 66 43 67
REMARK SMILES IDX 40 68 62 69 63 70 68 71 64 72 65 73 67 74 69 75 66 76 50 77
REMARK SMILES IDX 51 78 56 79 52 80 53 81 55 82 57 83 54 84
REMARK H PARENT 19 7 24 27 74 46 48 57
REMARK Flexibility Score: inf
ROOT
ATOM      1  C   UNL A   1      34.330  31.189  27.540  1.00  0.00     0.023 C 
ENDROOT
BRANCH   1   2
ATOM      2  C   UNL A   1      34.978  29.818  27.317  1.00  0.00     0.023 C 
BRANCH   2   3
ATOM      3  C   UNL A   1      34.013  28.638  27.174  1.00  0.00     0.116 C 
BRANCH   3   4
ATOM      4  N   UNL A   1      33.798  28.265  25.786  1.00  0.00    -0.356 N 
ATOM      5  C   UNL A   1      33.458  27.066  25.227  1.00  0.00     0.228 C 
ATOM      6  O   UNL A   1      33.327  27.031  24.000  1.00  0.00    -0.274 OA
ATOM      7  H   UNL A   1      33.917  28.999  25.140  1.00  0.00     0.163 HD
BRANCH   5   8
ATOM      8  C   UNL A   1      33.240  25.803  26.067  1.00  0.00     0.118 C 
ATOM      9  N   UNL A   1      35.317  23.158  24.421  1.00  0.00    -0.287 N 
ATOM     10  C   UNL A   1      35.210  24.450  24.941  1.00  0.00     0.100 A 
ATOM     11  C   UNL A   1      34.127  22.485  24.724  1.00  0.00     0.057 A 
ATOM     12  C   UNL A   1      33.954  24.624  25.476  1.00  0.00    -0.008 A 
ATOM     13  C   UNL A   1      33.311  23.383  25.395  1.00  0.00     0.015 A 
ATOM     14  C   UNL A   1      33.681  21.170  24.495  1.00  0.00     0.027 A 
ATOM     15  C   UNL A   1      32.044  23.021  25.849  1.00  0.00     0.027 A 
ATOM     16  C   UNL A   1      32.409  20.808  24.979  1.00  0.00     0.003 A 
ATOM     17  C   UNL A   1      31.729  25.550  26.303  1.00  0.00     0.099 C 
ATOM     18  C   UNL A   1      31.595  21.718  25.656  1.00  0.00     0.012 A 
ATOM     19  C   UNL A   1      31.267  24.099  26.499  1.00  0.00     0.164 C 
ATOM     20  O   UNL A   1      30.227  23.826  27.092  1.00  0.00    -0.294 OA
BRANCH   9  21
ATOM     21  C   UNL A   1      36.408  22.616  23.704  1.00  0.00     0.227 C 
ATOM     22  C   UNL A   1      37.285  21.678  24.483  1.00  0.00     0.115 C 
ATOM     23  O   UNL A   1      36.567  22.883  22.528  1.00  0.00    -0.274 OA
ENDBRANCH   9  21
ENDBRANCH   5   8
ENDBRANCH   3   4
ENDBRANCH   2   3
ENDBRANCH   1   2
BRANCH   1  24
ATOM     24  C   UNL A   1      35.301  32.264  27.999  1.00  0.00     0.116 C 
BRANCH  24  25
ATOM     25  N   UNL A   1      35.023  32.732  29.355  1.00  0.00    -0.352 N 
ATOM     26  C   UNL A   1      35.434  32.168  30.544  1.00  0.00     0.251 C 
ATOM     27  H   UNL A   1      34.476  33.546  29.427  1.00  0.00     0.163 HD
ATOM     28  O   UNL A   1      34.845  32.407  31.592  1.00  0.00    -0.269 OA
BRANCH  26  29
ATOM     29  C   UNL A   1      36.620  31.296  30.544  1.00  0.00     0.039 A 
ATOM     30  C   UNL A   1      36.501  29.905  30.625  1.00  0.00     0.014 A 
ATOM     31  C   UNL A   1      37.874  31.905  30.497  1.00  0.00     0.014 A 
ATOM     32  C   UNL A   1      37.661  29.137  30.631  1.00  0.00     0.010 A 
ATOM     33  C   UNL A   1      39.002  31.148  30.339  1.00  0.00     0.010 A 
ATOM     34  C   UNL A   1      38.904  29.776  30.492  1.00  0.00    -0.014 A 
BRANCH  34  35
ATOM     35  C   UNL A   1      40.139  29.019  30.402  1.00  0.00     0.031 A 
ATOM     36  C   UNL A   1      40.809  28.859  31.712  1.00  0.00     0.074 A 
ATOM     37  C   UNL A   1      40.503  28.355  29.285  1.00  0.00     0.049 A 
ATOM     38  N   UNL A   1      41.829  29.517  32.148  1.00  0.00    -0.248 NA
ATOM     39  C   UNL A   1      40.155  28.031  32.740  1.00  0.00     0.031 C 
ATOM     40  C   UNL A   1      39.740  28.183  28.042  1.00  0.00     0.029 A 
ATOM     41  N   UNL A   1      41.630  27.626  29.049  1.00  0.00    -0.354 N 
ATOM     42  C   UNL A   1      42.108  28.984  33.404  1.00  0.00     0.074 A 
ATOM     43  C   UNL A   1      40.922  28.278  33.805  1.00  0.00     0.031 C 
ATOM     44  C   UNL A   1      40.331  27.245  27.266  1.00  0.00     0.029 A 
ATOM     45  C   UNL A   1      41.597  26.877  27.873  1.00  0.00     0.049 A 
ATOM     46  H   UNL A   1      42.403  27.627  29.657  1.00  0.00     0.167 HD
ATOM     47  C   UNL A   1      43.399  28.890  33.829  1.00  0.00     0.037 A 
ATOM     48  C   UNL A   1      42.557  26.028  27.431  1.00  0.00     0.037 A 
ATOM     49  C   UNL A   1      44.260  29.656  32.957  1.00  0.00     0.049 A 
ATOM     50  C   UNL A   1      43.815  26.406  28.111  1.00  0.00     0.074 A 
ATOM     51  C   UNL A   1      44.496  30.987  32.693  1.00  0.00     0.029 A 
ATOM     52  N   UNL A   1      44.727  28.939  31.885  1.00  0.00    -0.354 N 
ATOM     53  N   UNL A   1      44.437  27.528  27.888  1.00  0.00    -0.248 NA
ATOM     54  C   UNL A   1      44.183  25.725  29.346  1.00  0.00     0.031 C 
ATOM     55  C   UNL A   1      44.896  31.048  31.323  1.00  0.00     0.029 A 
ATOM     56  C   UNL A   1      44.953  29.752  30.809  1.00  0.00     0.049 A 
ATOM     57  H   UNL A   1      44.880  27.966  31.889  1.00  0.00     0.167 HD
ATOM     58  C   UNL A   1      44.921  27.909  29.127  1.00  0.00     0.074 A 
ATOM     59  C   UNL A   1      44.890  26.694  29.935  1.00  0.00     0.031 C 
ATOM     60  C   UNL A   1      44.997  29.232  29.460  1.00  0.00     0.037 A 
BRANCH  47  61
ATOM     61  C   UNL A   1      43.970  27.734  34.634  1.00  0.00     0.057 A 
ATOM     62  C   UNL A   1      44.341  27.794  35.993  1.00  0.00     0.134 A 
ATOM     63  C   UNL A   1      43.824  26.428  34.120  1.00  0.00     0.134 A 
ATOM     64  F   UNL A   1      44.484  28.942  36.659  1.00  0.00    -0.206 F 
ATOM     65  C   UNL A   1      44.493  26.654  36.791  1.00  0.00     0.040 A 
ATOM     66  C   UNL A   1      43.929  25.285  34.923  1.00  0.00     0.040 A 
ATOM     67  F   UNL A   1      43.485  26.227  32.838  1.00  0.00    -0.206 F 
ATOM     68  C   UNL A   1      44.250  25.396  36.268  1.00  0.00     0.006 A 
ENDBRANCH  47  61
BRANCH  48  69
ATOM     69  C   UNL A   1      42.439  24.789  26.633  1.00  0.00     0.057 A 
ATOM     70  C   UNL A   1      41.840  23.644  27.183  1.00  0.00     0.134 A 
ATOM     71  C   UNL A   1      43.159  24.600  25.445  1.00  0.00     0.134 A 
ATOM     72  F   UNL A   1      41.190  23.708  28.355  1.00  0.00    -0.206 F 
ATOM     73  C   UNL A   1      41.971  22.378  26.602  1.00  0.00     0.040 A 
ATOM     74  C   UNL A   1      43.295  23.337  24.849  1.00  0.00     0.040 A 
ATOM     75  F   UNL A   1      43.803  25.625  24.868  1.00  0.00    -0.206 F 
ATOM     76  C   UNL A   1      42.711  22.219  25.435  1.00  0.00     0.006 A 
ENDBRANCH  48  69
BRANCH  60  77
ATOM     77  C   UNL A   1      44.966  30.218  28.329  1.00  0.00     0.057 A 
ATOM     78  C   UNL A   1      46.180  30.583  27.739  1.00  0.00     0.134 A 
ATOM     79  C   UNL A   1      43.812  30.858  27.856  1.00  0.00     0.134 A 
ATOM     80  F   UNL A   1      47.330  30.045  28.174  1.00  0.00    -0.206 F 
ATOM     81  C   UNL A   1      46.246  31.529  26.716  1.00  0.00     0.040 A 
ATOM     82  C   UNL A   1      43.859  31.784  26.810  1.00  0.00     0.040 A 
ATOM     83  F   UNL A   1      42.616  30.632  28.415  1.00  0.00    -0.206 F 
ATOM     84  C   UNL A   1      45.082  32.123  26.238  1.00  0.00     0.006 A 
ENDBRANCH  60  77
ENDBRANCH  34  35
ENDBRANCH  26  29
ENDBRANCH  24  25
ENDBRANCH   1  24
TORSDOF 12
ENDMDL
