MODEL 1
REMARK VINA RESULT:     -11.1      0.000      0.000
REMARK SMILES C[C@H]1CN(C(=O)NCCOCC(=O)NCCCCNC(=O)c2ccc(-c3c4nc(c(-c5c(F)cccc5F)c5ccc([nH]5)c(-c5c(F)cccc5F)c5nc(c(-c6c(F)cccc6F)c6ccc3[nH]6)C=C5)C=C4)cc2)CC[N@@H+]1C
REMARK SMILES IDX 15 1 14 2 12 3 13 4 11 6 10 7 9 8 8 9 7 10 5 11 6 12 4 14
REMARK SMILES IDX 1 15 2 16 3 17 78 18 77 19 79 20 76 22 16 23 17 24 18 25
REMARK SMILES IDX 19 26 20 27 21 29 22 30 23 31 75 32 24 33 74 34 25 35 26 36
REMARK SMILES IDX 27 37 68 38 28 39 73 40 67 41 69 42 29 43 72 44 66 45 65 46
REMARK SMILES IDX 30 48 56 49 39 50 55 51 40 52 43 53 54 54 70 55 41 56 42 57
REMARK SMILES IDX 53 59 71 60 44 61 31 62 32 63 37 64 33 65 34 66 36 67 38 68
REMARK SMILES IDX 35 69 57 70 58 71 63 72 59 73 60 74 62 75 64 76 61 77 45 78
REMARK SMILES IDX 46 79 51 80 47 81 48 82 50 83 52 84 49 85
REMARK H PARENT 14 5 7 13 78 21 19 28 69 47 43 58
REMARK Flexibility Score: inf
ROOT
ATOM      1  C   UNL A   1      36.859  22.283  25.526  1.00  0.00     0.116 C 
ENDROOT
BRANCH   1   2
ATOM      2  N   UNL A   1      35.888  21.831  26.501  1.00  0.00    -0.354 N 
ATOM      3  C   UNL A   1      34.552  22.111  26.546  1.00  0.00     0.245 C 
ATOM      4  O   UNL A   1      33.872  21.624  27.448  1.00  0.00    -0.272 OA
ATOM      5  H   UNL A   1      36.231  21.251  27.219  1.00  0.00     0.163 HD
BRANCH   3   6
ATOM      6  C   UNL A   1      33.947  23.004  25.460  1.00  0.00     0.260 C 
BRANCH   6   7
ATOM      7  O   UNL A   1      32.793  22.494  24.809  1.00  0.00    -0.370 OA
BRANCH   7   8
ATOM      8  C   UNL A   1      33.044  21.887  23.535  1.00  0.00     0.182 C 
BRANCH   8   9
ATOM      9  C   UNL A   1      31.786  21.250  22.927  1.00  0.00     0.146 C 
BRANCH   9  10
ATOM     10  N   UNL A   1      32.031  19.934  22.360  1.00  0.00    -0.336 N 
ATOM     11  C   UNL A   1      32.467  18.738  22.783  1.00  0.00     0.317 C 
ATOM     12  O   UNL A   1      32.529  17.878  21.898  1.00  0.00    -0.249 OA
ATOM     13  H   UNL A   1      31.820  19.917  21.399  1.00  0.00     0.165 HD
BRANCH  11  14
ATOM     14  N   UNL A   1      32.769  18.455  24.079  1.00  0.00    -0.313 N 
ATOM     15  C   UNL A   1      32.528  15.074  25.761  1.00  0.00     0.077 C 
ATOM     16  C   UNL A   1      33.172  16.195  24.942  1.00  0.00     0.200 C 
ATOM     17  C   UNL A   1      32.226  17.430  24.959  1.00  0.00     0.186 C 
ATOM     18  N   UNL A   1      34.525  16.590  25.442  1.00  0.00    -0.332 N 
ATOM     19  C   UNL A   1      35.048  17.747  24.657  1.00  0.00     0.284 C 
ATOM     20  C   UNL A   1      35.495  15.494  25.373  1.00  0.00     0.333 C 
ATOM     21  H   UNL A   1      34.409  16.845  26.423  1.00  0.00     0.348 HD
ATOM     22  C   UNL A   1      34.059  18.932  24.587  1.00  0.00     0.183 C 
ENDBRANCH  11  14
ENDBRANCH   9  10
ENDBRANCH   8   9
ENDBRANCH   7   8
ENDBRANCH   6   7
ENDBRANCH   3   6
ENDBRANCH   1   2
BRANCH   1  23
ATOM     23  C   UNL A   1      37.132  21.226  24.460  1.00  0.00     0.023 C 
BRANCH  23  24
ATOM     24  C   UNL A   1      37.912  20.003  24.950  1.00  0.00     0.023 C 
BRANCH  24  25
ATOM     25  C   UNL A   1      39.135  20.305  25.811  1.00  0.00     0.116 C 
BRANCH  25  26
ATOM     26  N   UNL A   1      40.085  19.205  25.864  1.00  0.00    -0.352 N 
ATOM     27  C   UNL A   1      41.441  19.238  26.095  1.00  0.00     0.251 C 
ATOM     28  H   UNL A   1      39.704  18.310  25.712  1.00  0.00     0.163 HD
ATOM     29  O   UNL A   1      42.108  18.221  25.996  1.00  0.00    -0.269 OA
BRANCH  27  30
ATOM     30  C   UNL A   1      42.093  20.525  26.426  1.00  0.00     0.039 A 
ATOM     31  C   UNL A   1      42.532  21.340  25.379  1.00  0.00     0.014 A 
ATOM     32  C   UNL A   1      42.254  20.934  27.751  1.00  0.00     0.014 A 
ATOM     33  C   UNL A   1      43.066  22.599  25.661  1.00  0.00     0.010 A 
ATOM     34  C   UNL A   1      42.721  22.216  28.028  1.00  0.00     0.010 A 
ATOM     35  C   UNL A   1      43.127  23.064  26.984  1.00  0.00    -0.014 A 
BRANCH  35  36
ATOM     36  C   UNL A   1      43.605  24.436  27.297  1.00  0.00     0.031 A 
ATOM     37  C   UNL A   1      42.630  25.497  27.729  1.00  0.00     0.074 A 
ATOM     38  C   UNL A   1      44.907  24.742  27.132  1.00  0.00     0.049 A 
ATOM     39  N   UNL A   1      42.842  26.765  27.972  1.00  0.00    -0.248 NA
ATOM     40  C   UNL A   1      41.226  25.081  27.888  1.00  0.00     0.031 C 
ATOM     41  C   UNL A   1      45.946  23.815  26.677  1.00  0.00     0.029 A 
ATOM     42  N   UNL A   1      45.578  25.924  27.320  1.00  0.00    -0.354 N 
ATOM     43  C   UNL A   1      41.604  27.299  28.302  1.00  0.00     0.074 A 
ATOM     44  C   UNL A   1      40.635  26.232  28.177  1.00  0.00     0.031 C 
ATOM     45  C   UNL A   1      47.123  24.460  26.639  1.00  0.00     0.029 A 
ATOM     46  C   UNL A   1      46.920  25.851  27.028  1.00  0.00     0.049 A 
ATOM     47  H   UNL A   1      45.140  26.749  27.634  1.00  0.00     0.167 HD
ATOM     48  C   UNL A   1      41.304  28.559  28.698  1.00  0.00     0.037 A 
ATOM     49  C   UNL A   1      47.873  26.800  27.061  1.00  0.00     0.037 A 
ATOM     50  C   UNL A   1      42.270  29.615  28.843  1.00  0.00     0.049 A 
ATOM     51  C   UNL A   1      47.509  28.196  27.487  1.00  0.00     0.074 A 
ATOM     52  C   UNL A   1      42.069  30.913  29.281  1.00  0.00     0.029 A 
ATOM     53  N   UNL A   1      43.622  29.495  28.556  1.00  0.00    -0.354 N 
ATOM     54  N   UNL A   1      46.343  28.670  27.855  1.00  0.00    -0.248 NA
ATOM     55  C   UNL A   1      48.593  29.187  27.509  1.00  0.00     0.031 C 
ATOM     56  C   UNL A   1      43.292  31.590  29.221  1.00  0.00     0.029 A 
ATOM     57  C   UNL A   1      44.262  30.699  28.792  1.00  0.00     0.049 A 
ATOM     58  H   UNL A   1      44.059  28.675  28.232  1.00  0.00     0.167 HD
ATOM     59  C   UNL A   1      46.561  30.002  28.183  1.00  0.00     0.074 A 
ATOM     60  C   UNL A   1      47.972  30.256  27.985  1.00  0.00     0.031 C 
ATOM     61  C   UNL A   1      45.672  30.932  28.607  1.00  0.00     0.037 A 
BRANCH  48  62
ATOM     62  C   UNL A   1      39.870  28.863  29.019  1.00  0.00     0.057 A 
ATOM     63  C   UNL A   1      38.957  29.234  28.023  1.00  0.00     0.134 A 
ATOM     64  C   UNL A   1      39.382  28.731  30.326  1.00  0.00     0.134 A 
ATOM     65  F   UNL A   1      39.362  29.389  26.753  1.00  0.00    -0.206 F 
ATOM     66  C   UNL A   1      37.615  29.479  28.317  1.00  0.00     0.040 A 
ATOM     67  C   UNL A   1      38.037  28.949  30.627  1.00  0.00     0.040 A 
ATOM     68  F   UNL A   1      40.202  28.373  31.326  1.00  0.00    -0.206 F 
ATOM     69  C   UNL A   1      37.150  29.328  29.622  1.00  0.00     0.006 A 
ENDBRANCH  48  62
BRANCH  49  70
ATOM     70  C   UNL A   1      49.274  26.471  26.688  1.00  0.00     0.057 A 
ATOM     71  C   UNL A   1      49.738  26.660  25.381  1.00  0.00     0.134 A 
ATOM     72  C   UNL A   1      50.169  25.926  27.617  1.00  0.00     0.134 A 
ATOM     73  F   UNL A   1      48.921  27.160  24.442  1.00  0.00    -0.206 F 
ATOM     74  C   UNL A   1      51.029  26.292  25.001  1.00  0.00     0.040 A 
ATOM     75  C   UNL A   1      51.473  25.579  27.258  1.00  0.00     0.040 A 
ATOM     76  F   UNL A   1      49.790  25.726  28.887  1.00  0.00    -0.206 F 
ATOM     77  C   UNL A   1      51.903  25.752  25.943  1.00  0.00     0.006 A 
ENDBRANCH  49  70
BRANCH  61  78
ATOM     78  C   UNL A   1      46.206  32.297  28.930  1.00  0.00     0.057 A 
ATOM     79  C   UNL A   1      46.192  33.338  27.993  1.00  0.00     0.134 A 
ATOM     80  C   UNL A   1      46.705  32.581  30.207  1.00  0.00     0.134 A 
ATOM     81  F   UNL A   1      45.738  33.127  26.748  1.00  0.00    -0.206 F 
ATOM     82  C   UNL A   1      46.678  34.608  28.309  1.00  0.00     0.040 A 
ATOM     83  C   UNL A   1      47.169  33.853  30.543  1.00  0.00     0.040 A 
ATOM     84  F   UNL A   1      46.739  31.630  31.153  1.00  0.00    -0.206 F 
ATOM     85  C   UNL A   1      47.162  34.870  29.590  1.00  0.00     0.006 A 
ENDBRANCH  61  78
ENDBRANCH  35  36
ENDBRANCH  27  30
ENDBRANCH  25  26
ENDBRANCH  24  25
ENDBRANCH  23  24
ENDBRANCH   1  23
TORSDOF 16
ENDMDL
MODEL 2
REMARK VINA RESULT:     -11.0      1.117      6.390
REMARK SMILES C[C@H]1CN(C(=O)NCCOCC(=O)NCCCCNC(=O)c2ccc(-c3c4nc(c(-c5c(F)cccc5F)c5ccc([nH]5)c(-c5c(F)cccc5F)c5nc(c(-c6c(F)cccc6F)c6ccc3[nH]6)C=C5)C=C4)cc2)CC[N@@H+]1C
REMARK SMILES IDX 15 1 14 2 12 3 13 4 11 6 10 7 9 8 8 9 7 10 5 11 6 12 4 14
REMARK SMILES IDX 1 15 2 16 3 17 78 18 77 19 79 20 76 22 16 23 17 24 18 25
REMARK SMILES IDX 19 26 20 27 21 29 22 30 23 31 75 32 24 33 74 34 25 35 26 36
REMARK SMILES IDX 27 37 68 38 28 39 73 40 67 41 69 42 29 43 72 44 66 45 65 46
REMARK SMILES IDX 30 48 56 49 39 50 55 51 40 52 43 53 54 54 70 55 41 56 42 57
REMARK SMILES IDX 53 59 71 60 44 61 31 62 32 63 37 64 33 65 34 66 36 67 38 68
REMARK SMILES IDX 35 69 57 70 58 71 63 72 59 73 60 74 62 75 64 76 61 77 45 78
REMARK SMILES IDX 46 79 51 80 47 81 48 82 50 83 52 84 49 85
REMARK H PARENT 14 5 7 13 78 21 19 28 69 47 43 58
REMARK Flexibility Score: inf
ROOT
ATOM      1  C   UNL A   1      36.753  22.207  25.404  1.00  0.00     0.116 C 
ENDROOT
BRANCH   1   2
ATOM      2  N   UNL A   1      35.866  21.742  26.451  1.00  0.00    -0.354 N 
ATOM      3  C   UNL A   1      34.536  22.012  26.604  1.00  0.00     0.245 C 
ATOM      4  O   UNL A   1      33.934  21.513  27.554  1.00  0.00    -0.272 OA
ATOM      5  H   UNL A   1      36.270  21.160  27.134  1.00  0.00     0.163 HD
BRANCH   3   6
ATOM      6  C   UNL A   1      33.841  22.907  25.576  1.00  0.00     0.260 C 
BRANCH   6   7
ATOM      7  O   UNL A   1      32.745  22.325  24.886  1.00  0.00    -0.370 OA
BRANCH   7   8
ATOM      8  C   UNL A   1      33.036  21.906  23.546  1.00  0.00     0.182 C 
BRANCH   8   9
ATOM      9  C   UNL A   1      31.799  21.365  22.816  1.00  0.00     0.146 C 
BRANCH   9  10
ATOM     10  N   UNL A   1      32.002  20.035  22.263  1.00  0.00    -0.336 N 
ATOM     11  C   UNL A   1      32.402  18.831  22.697  1.00  0.00     0.317 C 
ATOM     12  O   UNL A   1      32.434  17.959  21.822  1.00  0.00    -0.249 OA
ATOM     13  H   UNL A   1      31.786  20.014  21.302  1.00  0.00     0.165 HD
BRANCH  11  14
ATOM     14  N   UNL A   1      32.700  18.553  23.996  1.00  0.00    -0.313 N 
ATOM     15  C   UNL A   1      32.472  15.175  25.685  1.00  0.00     0.077 C 
ATOM     16  C   UNL A   1      33.113  16.298  24.866  1.00  0.00     0.200 C 
ATOM     17  C   UNL A   1      32.159  17.527  24.876  1.00  0.00     0.186 C 
ATOM     18  N   UNL A   1      34.461  16.703  25.372  1.00  0.00    -0.332 N 
ATOM     19  C   UNL A   1      34.980  17.861  24.586  1.00  0.00     0.284 C 
ATOM     20  C   UNL A   1      35.438  15.613  25.311  1.00  0.00     0.333 C 
ATOM     21  H   UNL A   1      34.339  16.960  26.352  1.00  0.00     0.348 HD
ATOM     22  C   UNL A   1      33.984  19.040  24.509  1.00  0.00     0.183 C 
ENDBRANCH  11  14
ENDBRANCH   9  10
ENDBRANCH   8   9
ENDBRANCH   7   8
ENDBRANCH   6   7
ENDBRANCH   3   6
ENDBRANCH   1   2
BRANCH   1  23
ATOM     23  C   UNL A   1      37.068  21.110  24.393  1.00  0.00     0.023 C 
BRANCH  23  24
ATOM     24  C   UNL A   1      37.901  19.948  24.941  1.00  0.00     0.023 C 
BRANCH  24  25
ATOM     25  C   UNL A   1      39.093  20.344  25.806  1.00  0.00     0.116 C 
BRANCH  25  26
ATOM     26  N   UNL A   1      40.150  19.346  25.818  1.00  0.00    -0.352 N 
ATOM     27  C   UNL A   1      41.487  19.498  26.108  1.00  0.00     0.251 C 
ATOM     28  H   UNL A   1      39.870  18.431  25.585  1.00  0.00     0.163 HD
ATOM     29  O   UNL A   1      42.260  18.565  25.963  1.00  0.00    -0.269 OA
BRANCH  27  30
ATOM     30  C   UNL A   1      41.989  20.816  26.560  1.00  0.00     0.039 A 
ATOM     31  C   UNL A   1      42.414  21.735  25.597  1.00  0.00     0.014 A 
ATOM     32  C   UNL A   1      42.023  21.150  27.915  1.00  0.00     0.014 A 
ATOM     33  C   UNL A   1      42.805  23.016  25.990  1.00  0.00     0.010 A 
ATOM     34  C   UNL A   1      42.346  22.449  28.299  1.00  0.00     0.010 A 
ATOM     35  C   UNL A   1      42.735  23.397  27.340  1.00  0.00    -0.014 A 
BRANCH  35  36
ATOM     36  C   UNL A   1      43.057  24.783  27.765  1.00  0.00     0.031 A 
ATOM     37  C   UNL A   1      44.489  25.208  27.940  1.00  0.00     0.074 A 
ATOM     38  C   UNL A   1      42.058  25.642  28.053  1.00  0.00     0.049 A 
ATOM     39  N   UNL A   1      44.967  26.346  28.375  1.00  0.00    -0.248 NA
ATOM     40  C   UNL A   1      45.521  24.214  27.603  1.00  0.00     0.031 C 
ATOM     41  C   UNL A   1      40.628  25.339  27.966  1.00  0.00     0.029 A 
ATOM     42  N   UNL A   1      42.095  26.943  28.488  1.00  0.00    -0.354 N 
ATOM     43  C   UNL A   1      46.347  26.203  28.373  1.00  0.00     0.074 A 
ATOM     44  C   UNL A   1      46.632  24.851  27.944  1.00  0.00     0.031 C 
ATOM     45  C   UNL A   1      39.926  26.428  28.318  1.00  0.00     0.029 A 
ATOM     46  C   UNL A   1      40.851  27.492  28.692  1.00  0.00     0.049 A 
ATOM     47  H   UNL A   1      42.933  27.436  28.641  1.00  0.00     0.167 HD
ATOM     48  C   UNL A   1      47.295  27.123  28.675  1.00  0.00     0.037 A 
ATOM     49  C   UNL A   1      40.499  28.712  29.140  1.00  0.00     0.037 A 
ATOM     50  C   UNL A   1      47.013  28.474  29.080  1.00  0.00     0.049 A 
ATOM     51  C   UNL A   1      41.572  29.708  29.486  1.00  0.00     0.074 A 
ATOM     52  C   UNL A   1      47.907  29.492  29.366  1.00  0.00     0.029 A 
ATOM     53  N   UNL A   1      45.741  28.997  29.256  1.00  0.00    -0.354 N 
ATOM     54  N   UNL A   1      42.875  29.576  29.419  1.00  0.00    -0.248 NA
ATOM     55  C   UNL A   1      41.126  31.024  29.963  1.00  0.00     0.031 C 
ATOM     56  C   UNL A   1      47.176  30.620  29.752  1.00  0.00     0.029 A 
ATOM     57  C   UNL A   1      45.827  30.318  29.661  1.00  0.00     0.049 A 
ATOM     58  H   UNL A   1      44.902  28.502  29.114  1.00  0.00     0.167 HD
ATOM     59  C   UNL A   1      43.401  30.799  29.813  1.00  0.00     0.074 A 
ATOM     60  C   UNL A   1      42.277  31.665  30.102  1.00  0.00     0.031 C 
ATOM     61  C   UNL A   1      44.698  31.172  29.928  1.00  0.00     0.037 A 
BRANCH  48  62
ATOM     62  C   UNL A   1      48.731  26.702  28.564  1.00  0.00     0.057 A 
ATOM     63  C   UNL A   1      49.423  26.156  29.653  1.00  0.00     0.134 A 
ATOM     64  C   UNL A   1      49.414  26.791  27.344  1.00  0.00     0.134 A 
ATOM     65  F   UNL A   1      48.830  26.054  30.853  1.00  0.00    -0.206 F 
ATOM     66  C   UNL A   1      50.747  25.730  29.538  1.00  0.00     0.040 A 
ATOM     67  C   UNL A   1      50.730  26.345  27.211  1.00  0.00     0.040 A 
ATOM     68  F   UNL A   1      48.809  27.298  26.260  1.00  0.00    -0.206 F 
ATOM     69  C   UNL A   1      51.401  25.816  28.312  1.00  0.00     0.006 A 
ENDBRANCH  48  62
BRANCH  49  70
ATOM     70  C   UNL A   1      39.065  29.074  29.282  1.00  0.00     0.057 A 
ATOM     71  C   UNL A   1      38.393  28.902  30.499  1.00  0.00     0.134 A 
ATOM     72  C   UNL A   1      38.322  29.564  28.201  1.00  0.00     0.134 A 
ATOM     73  F   UNL A   1      39.045  28.417  31.566  1.00  0.00    -0.206 F 
ATOM     74  C   UNL A   1      37.030  29.174  30.628  1.00  0.00     0.040 A 
ATOM     75  C   UNL A   1      36.965  29.867  28.322  1.00  0.00     0.040 A 
ATOM     76  F   UNL A   1      38.908  29.759  27.010  1.00  0.00    -0.206 F 
ATOM     77  C   UNL A   1      36.313  29.661  29.537  1.00  0.00     0.006 A 
ENDBRANCH  49  70
BRANCH  61  78
ATOM     78  C   UNL A   1      44.973  32.589  30.341  1.00  0.00     0.057 A 
ATOM     79  C   UNL A   1      45.061  33.628  29.406  1.00  0.00     0.134 A 
ATOM     80  C   UNL A   1      45.112  32.921  31.694  1.00  0.00     0.134 A 
ATOM     81  F   UNL A   1      44.949  33.374  28.094  1.00  0.00    -0.206 F 
ATOM     82  C   UNL A   1      45.303  34.945  29.802  1.00  0.00     0.040 A 
ATOM     83  C   UNL A   1      45.327  34.237  32.104  1.00  0.00     0.040 A 
ATOM     84  F   UNL A   1      45.029  31.974  32.641  1.00  0.00    -0.206 F 
ATOM     85  C   UNL A   1      45.430  35.253  31.156  1.00  0.00     0.006 A 
ENDBRANCH  61  78
ENDBRANCH  35  36
ENDBRANCH  27  30
ENDBRANCH  25  26
ENDBRANCH  24  25
ENDBRANCH  23  24
ENDBRANCH   1  23
TORSDOF 16
ENDMDL
MODEL 3
REMARK VINA RESULT:     -10.9      6.694     10.841
REMARK SMILES C[C@H]1CN(C(=O)NCCOCC(=O)NCCCCNC(=O)c2ccc(-c3c4nc(c(-c5c(F)cccc5F)c5ccc([nH]5)c(-c5c(F)cccc5F)c5nc(c(-c6c(F)cccc6F)c6ccc3[nH]6)C=C5)C=C4)cc2)CC[N@@H+]1C
REMARK SMILES IDX 15 1 14 2 12 3 13 4 11 6 10 7 9 8 8 9 7 10 5 11 6 12 4 14
REMARK SMILES IDX 1 15 2 16 3 17 78 18 77 19 79 20 76 22 16 23 17 24 18 25
REMARK SMILES IDX 19 26 20 27 21 29 22 30 23 31 75 32 24 33 74 34 25 35 26 36
REMARK SMILES IDX 27 37 68 38 28 39 73 40 67 41 69 42 29 43 72 44 66 45 65 46
REMARK SMILES IDX 30 48 56 49 39 50 55 51 40 52 43 53 54 54 70 55 41 56 42 57
REMARK SMILES IDX 53 59 71 60 44 61 31 62 32 63 37 64 33 65 34 66 36 67 38 68
REMARK SMILES IDX 35 69 57 70 58 71 63 72 59 73 60 74 62 75 64 76 61 77 45 78
REMARK SMILES IDX 46 79 51 80 47 81 48 82 50 83 52 84 49 85
REMARK H PARENT 14 5 7 13 78 21 19 28 69 47 43 58
REMARK Flexibility Score: inf
ROOT
ATOM      1  C   UNL A   1      33.197  30.090  26.497  1.00  0.00     0.116 C 
ENDROOT
BRANCH   1   2
ATOM      2  N   UNL A   1      33.720  29.481  25.291  1.00  0.00    -0.354 N 
ATOM      3  C   UNL A   1      33.357  28.291  24.728  1.00  0.00     0.245 C 
ATOM      4  O   UNL A   1      33.903  27.936  23.685  1.00  0.00    -0.272 OA
ATOM      5  H   UNL A   1      34.423  29.984  24.821  1.00  0.00     0.163 HD
BRANCH   3   6
ATOM      6  C   UNL A   1      32.267  27.456  25.404  1.00  0.00     0.260 C 
BRANCH   6   7
ATOM      7  O   UNL A   1      31.460  26.670  24.538  1.00  0.00    -0.370 OA
BRANCH   7   8
ATOM      8  C   UNL A   1      30.069  26.639  24.882  1.00  0.00     0.182 C 
BRANCH   8   9
ATOM      9  C   UNL A   1      29.170  26.345  23.674  1.00  0.00     0.146 C 
BRANCH   9  10
ATOM     10  N   UNL A   1      28.013  27.222  23.598  1.00  0.00    -0.336 N 
ATOM     11  C   UNL A   1      27.738  28.468  23.186  1.00  0.00     0.317 C 
ATOM     12  O   UNL A   1      26.560  28.807  23.338  1.00  0.00    -0.249 OA
ATOM     13  H   UNL A   1      27.207  26.777  23.948  1.00  0.00     0.165 HD
BRANCH  11  14
ATOM     14  N   UNL A   1      28.649  29.291  22.597  1.00  0.00    -0.313 N 
ATOM     15  C   UNL A   1      27.896  32.276  20.398  1.00  0.00     0.077 C 
ATOM     16  C   UNL A   1      28.128  31.515  21.705  1.00  0.00     0.200 C 
ATOM     17  C   UNL A   1      28.550  30.057  21.363  1.00  0.00     0.186 C 
ATOM     18  N   UNL A   1      29.163  32.146  22.581  1.00  0.00    -0.332 N 
ATOM     19  C   UNL A   1      29.403  31.301  23.788  1.00  0.00     0.284 C 
ATOM     20  C   UNL A   1      28.790  33.495  23.014  1.00  0.00     0.333 C 
ATOM     21  H   UNL A   1      30.012  32.220  22.020  1.00  0.00     0.348 HD
ATOM     22  C   UNL A   1      29.717  29.827  23.446  1.00  0.00     0.183 C 
ENDBRANCH  11  14
ENDBRANCH   9  10
ENDBRANCH   8   9
ENDBRANCH   7   8
ENDBRANCH   6   7
ENDBRANCH   3   6
ENDBRANCH   1   2
BRANCH   1  23
ATOM     23  C   UNL A   1      31.788  30.637  26.295  1.00  0.00     0.023 C 
BRANCH  23  24
ATOM     24  C   UNL A   1      31.535  32.014  26.916  1.00  0.00     0.023 C 
BRANCH  24  25
ATOM     25  C   UNL A   1      32.778  32.868  27.148  1.00  0.00     0.116 C 
BRANCH  25  26
ATOM     26  N   UNL A   1      32.475  34.194  27.662  1.00  0.00    -0.352 N 
ATOM     27  C   UNL A   1      33.068  34.882  28.695  1.00  0.00     0.251 C 
ATOM     28  H   UNL A   1      31.740  34.665  27.207  1.00  0.00     0.163 HD
ATOM     29  O   UNL A   1      32.612  35.952  29.066  1.00  0.00    -0.269 OA
BRANCH  27  30
ATOM     30  C   UNL A   1      34.242  34.297  29.382  1.00  0.00     0.039 A 
ATOM     31  C   UNL A   1      34.027  33.499  30.509  1.00  0.00     0.014 A 
ATOM     32  C   UNL A   1      35.538  34.516  28.911  1.00  0.00     0.014 A 
ATOM     33  C   UNL A   1      35.109  32.861  31.119  1.00  0.00     0.010 A 
ATOM     34  C   UNL A   1      36.606  33.824  29.476  1.00  0.00     0.010 A 
ATOM     35  C   UNL A   1      36.401  32.985  30.584  1.00  0.00    -0.014 A 
BRANCH  35  36
ATOM     36  C   UNL A   1      37.549  32.240  31.163  1.00  0.00     0.031 A 
ATOM     37  C   UNL A   1      38.088  32.613  32.517  1.00  0.00     0.074 A 
ATOM     38  C   UNL A   1      38.144  31.267  30.444  1.00  0.00     0.049 A 
ATOM     39  N   UNL A   1      39.125  32.133  33.154  1.00  0.00    -0.248 NA
ATOM     40  C   UNL A   1      37.381  33.683  33.239  1.00  0.00     0.031 C 
ATOM     41  C   UNL A   1      37.743  30.840  29.101  1.00  0.00     0.029 A 
ATOM     42  N   UNL A   1      39.220  30.468  30.738  1.00  0.00    -0.354 N 
ATOM     43  C   UNL A   1      39.200  32.845  34.343  1.00  0.00     0.074 A 
ATOM     44  C   UNL A   1      38.138  33.827  34.318  1.00  0.00     0.031 C 
ATOM     45  C   UNL A   1      38.552  29.846  28.698  1.00  0.00     0.029 A 
ATOM     46  C   UNL A   1      39.549  29.591  29.732  1.00  0.00     0.049 A 
ATOM     47  H   UNL A   1      39.711  30.519  31.591  1.00  0.00     0.167 HD
ATOM     48  C   UNL A   1      40.061  32.679  35.376  1.00  0.00     0.037 A 
ATOM     49  C   UNL A   1      40.547  28.692  29.649  1.00  0.00     0.037 A 
ATOM     50  C   UNL A   1      41.104  31.689  35.412  1.00  0.00     0.049 A 
ATOM     51  C   UNL A   1      41.499  28.542  30.804  1.00  0.00     0.074 A 
ATOM     52  C   UNL A   1      41.999  31.416  36.433  1.00  0.00     0.029 A 
ATOM     53  N   UNL A   1      41.392  30.808  34.381  1.00  0.00    -0.354 N 
ATOM     54  N   UNL A   1      41.519  29.182  31.948  1.00  0.00    -0.248 NA
ATOM     55  C   UNL A   1      42.564  27.540  30.659  1.00  0.00     0.031 C 
ATOM     56  C   UNL A   1      42.853  30.395  36.004  1.00  0.00     0.029 A 
ATOM     57  C   UNL A   1      42.460  30.001  34.735  1.00  0.00     0.049 A 
ATOM     58  H   UNL A   1      40.909  30.762  33.525  1.00  0.00     0.167 HD
ATOM     59  C   UNL A   1      42.575  28.638  32.669  1.00  0.00     0.074 A 
ATOM     60  C   UNL A   1      43.161  27.606  31.840  1.00  0.00     0.031 C 
ATOM     61  C   UNL A   1      43.021  28.965  33.906  1.00  0.00     0.037 A 
BRANCH  48  62
ATOM     62  C   UNL A   1      39.902  33.582  36.565  1.00  0.00     0.057 A 
ATOM     63  C   UNL A   1      39.067  33.244  37.637  1.00  0.00     0.134 A 
ATOM     64  C   UNL A   1      40.633  34.773  36.665  1.00  0.00     0.134 A 
ATOM     65  F   UNL A   1      38.331  32.123  37.599  1.00  0.00    -0.206 F 
ATOM     66  C   UNL A   1      38.950  34.067  38.759  1.00  0.00     0.040 A 
ATOM     67  C   UNL A   1      40.544  35.591  37.793  1.00  0.00     0.040 A 
ATOM     68  F   UNL A   1      41.456  35.153  35.676  1.00  0.00    -0.206 F 
ATOM     69  C   UNL A   1      39.697  35.240  38.842  1.00  0.00     0.006 A 
ENDBRANCH  48  62
BRANCH  49  70
ATOM     70  C   UNL A   1      40.701  27.850  28.435  1.00  0.00     0.057 A 
ATOM     71  C   UNL A   1      41.456  28.289  27.341  1.00  0.00     0.134 A 
ATOM     72  C   UNL A   1      40.069  26.605  28.322  1.00  0.00     0.134 A 
ATOM     73  F   UNL A   1      42.069  29.482  27.381  1.00  0.00    -0.206 F 
ATOM     74  C   UNL A   1      41.553  27.539  26.168  1.00  0.00     0.040 A 
ATOM     75  C   UNL A   1      40.179  25.831  27.166  1.00  0.00     0.040 A 
ATOM     76  F   UNL A   1      39.336  26.123  29.336  1.00  0.00    -0.206 F 
ATOM     77  C   UNL A   1      40.915  26.303  26.080  1.00  0.00     0.006 A 
ENDBRANCH  49  70
BRANCH  61  78
ATOM     78  C   UNL A   1      44.169  28.170  34.456  1.00  0.00     0.057 A 
ATOM     79  C   UNL A   1      43.971  26.977  35.161  1.00  0.00     0.134 A 
ATOM     80  C   UNL A   1      45.489  28.586  34.243  1.00  0.00     0.134 A 
ATOM     81  F   UNL A   1      42.731  26.530  35.410  1.00  0.00    -0.206 F 
ATOM     82  C   UNL A   1      45.047  26.237  35.657  1.00  0.00     0.040 A 
ATOM     83  C   UNL A   1      46.573  27.842  34.710  1.00  0.00     0.040 A 
ATOM     84  F   UNL A   1      45.747  29.716  33.567  1.00  0.00    -0.206 F 
ATOM     85  C   UNL A   1      46.353  26.666  35.425  1.00  0.00     0.006 A 
ENDBRANCH  61  78
ENDBRANCH  35  36
ENDBRANCH  27  30
ENDBRANCH  25  26
ENDBRANCH  24  25
ENDBRANCH  23  24
ENDBRANCH   1  23
TORSDOF 16
ENDMDL
