MODEL 1
REMARK VINA RESULT:     -13.8      0.000      0.000
REMARK SMILES Cc1oc2cc3c(cc2c1C)[C@H](C)[C@@H](CC(=O)N[C@H](CC1=c2ccccc2=NC1)C(=O)NCCCCNC(=O)c1ccc(-c2c4nc(c(-c5c(F)cccc5F)c5ccc([nH]5)c(-c5c(F)cccc5F)c5nc(c(-c6c(F)cccc6F)c6ccc2[nH]6)C=C5)C=C4)cc1)C(=O)O3
REMARK SMILES IDX 34 1 33 2 32 3 30 4 31 5 19 7 18 8 16 9 17 10 15 12 14 13
REMARK SMILES IDX 1 14 2 15 3 16 10 17 4 18 9 19 11 20 5 21 8 22 6 23 7 24
REMARK SMILES IDX 96 25 12 26 94 27 13 28 95 29 20 30 21 31 22 32 29 33 23 34
REMARK SMILES IDX 27 35 28 36 24 37 26 38 25 39 35 40 36 41 37 42 38 43 39 45
REMARK SMILES IDX 40 46 41 47 93 48 42 49 92 50 43 51 44 52 45 53 86 54 46 55
REMARK SMILES IDX 91 56 85 57 87 58 47 59 90 60 84 61 83 62 48 64 74 65 57 66
REMARK SMILES IDX 73 67 58 68 61 69 72 70 88 71 59 72 60 73 71 75 89 76 62 77
REMARK SMILES IDX 49 78 50 79 55 80 51 81 52 82 54 83 56 84 53 85 75 86 76 87
REMARK SMILES IDX 81 88 77 89 78 90 80 91 82 92 79 93 63 94 64 95 69 96 65 97
REMARK SMILES IDX 66 98 68 99 70 100 67 101
REMARK H PARENT 32 6 18 11 37 44 87 63 61 74
REMARK Flexibility Score: inf
ROOT
ATOM      1  C   UNL A   1      40.168  24.016  26.501  1.00  0.00     0.023 C 
ENDROOT
BRANCH   1   2
ATOM      2  C   UNL A   1      38.474  22.645  26.337  1.00  0.00     0.116 C 
BRANCH   2   3
ATOM      3  N   UNL A   1      38.161  21.490  25.349  1.00  0.00    -0.354 N 
ATOM      4  C   UNL A   1      36.935  20.965  25.021  1.00  0.00     0.242 C 
ATOM      5  O   UNL A   1      36.890  19.783  24.675  1.00  0.00    -0.273 OA
ATOM      6  H   UNL A   1      38.939  21.082  24.903  1.00  0.00     0.163 HD
BRANCH   4   7
ATOM      7  C   UNL A   1      35.630  21.764  25.276  1.00  0.00     0.175 C 
BRANCH   7   8
ATOM      8  N   UNL A   1      35.762  23.214  25.559  1.00  0.00    -0.344 N 
ATOM      9  C   UNL A   1      35.168  24.327  25.055  1.00  0.00     0.221 C 
ATOM     10  O   UNL A   1      35.461  25.404  25.582  1.00  0.00    -0.275 OA
ATOM     11  H   UNL A   1      36.421  23.412  26.263  1.00  0.00     0.164 HD
BRANCH   9  12
ATOM     12  C   UNL A   1      34.237  24.306  23.852  1.00  0.00     0.116 C 
BRANCH  12  13
ATOM     13  C   UNL A   1      33.482  25.638  23.774  1.00  0.00     0.116 C 
ATOM     14  C   UNL A   1      27.654  31.449  21.750  1.00  0.00     0.088 C 
ATOM     15  C   UNL A   1      28.516  30.323  22.165  1.00  0.00     0.105 A 
ATOM     16  O   UNL A   1      29.838  30.455  21.876  1.00  0.00    -0.461 OA
ATOM     17  C   UNL A   1      28.275  29.117  22.802  1.00  0.00    -0.002 A 
ATOM     18  C   UNL A   1      30.461  29.343  22.341  1.00  0.00     0.138 A 
ATOM     19  C   UNL A   1      29.553  28.500  22.968  1.00  0.00     0.024 A 
ATOM     20  C   UNL A   1      26.970  28.554  23.217  1.00  0.00     0.049 C 
ATOM     21  C   UNL A   1      31.807  29.066  22.179  1.00  0.00     0.095 A 
ATOM     22  C   UNL A   1      30.025  27.303  23.555  1.00  0.00     0.020 A 
ATOM     23  C   UNL A   1      32.226  27.843  22.701  1.00  0.00     0.138 A 
ATOM     24  C   UNL A   1      31.389  26.983  23.458  1.00  0.00    -0.001 A 
ATOM     25  O   UNL A   1      33.524  27.481  22.329  1.00  0.00    -0.426 OA
ATOM     26  C   UNL A   1      31.952  25.655  24.012  1.00  0.00     0.035 C 
ATOM     27  C   UNL A   1      33.515  26.114  22.358  1.00  0.00     0.315 C 
ATOM     28  C   UNL A   1      31.586  25.404  25.478  1.00  0.00     0.014 C 
ATOM     29  O   UNL A   1      33.325  25.397  21.388  1.00  0.00    -0.251 OA
ENDBRANCH  12  13
ENDBRANCH   9  12
ENDBRANCH   7   8
BRANCH   7  30
ATOM     30  C   UNL A   1      34.809  21.043  26.402  1.00  0.00     0.068 C 
BRANCH  30  31
ATOM     31  C   UNL A   1      33.363  20.673  26.095  1.00  0.00    -0.037 C 
ATOM     32  C   UNL A   1      32.895  19.587  25.455  1.00  0.00     0.001 A 
ATOM     33  C   UNL A   1      32.393  21.860  25.871  1.00  0.00     0.174 C 
ATOM     34  C   UNL A   1      33.363  17.839  24.968  1.00  0.00     0.010 A 
ATOM     35  C   UNL A   1      32.237  20.729  24.035  1.00  0.00     0.065 A 
ATOM     36  N   UNL A   1      31.963  21.926  24.437  1.00  0.00    -0.280 NA
ATOM     37  C   UNL A   1      33.165  17.316  23.481  1.00  0.00     0.001 A 
ATOM     38  C   UNL A   1      32.150  19.915  22.280  1.00  0.00     0.028 A 
ATOM     39  C   UNL A   1      32.596  18.436  22.063  1.00  0.00     0.002 A 
ENDBRANCH  30  31
ENDBRANCH   7  30
ENDBRANCH   4   7
ENDBRANCH   2   3
ENDBRANCH   1   2
BRANCH   1  40
ATOM     40  C   UNL A   1      40.671  25.450  25.751  1.00  0.00     0.023 C 
BRANCH  40  41
ATOM     41  C   UNL A   1      42.122  25.921  25.814  1.00  0.00     0.116 C 
BRANCH  41  42
ATOM     42  N   UNL A   1      42.435  27.237  25.281  1.00  0.00    -0.352 N 
ATOM     43  C   UNL A   1      42.294  28.422  25.990  1.00  0.00     0.251 C 
ATOM     44  H   UNL A   1      42.770  27.291  24.356  1.00  0.00     0.163 HD
ATOM     45  O   UNL A   1      42.773  29.484  25.628  1.00  0.00    -0.269 OA
BRANCH  43  46
ATOM     46  C   UNL A   1      41.465  28.319  27.208  1.00  0.00     0.039 A 
ATOM     47  C   UNL A   1      40.098  28.614  27.090  1.00  0.00     0.014 A 
ATOM     48  C   UNL A   1      42.162  28.503  28.409  1.00  0.00     0.014 A 
ATOM     49  C   UNL A   1      39.479  29.286  28.137  1.00  0.00     0.010 A 
ATOM     50  C   UNL A   1      41.526  29.151  29.457  1.00  0.00     0.010 A 
ATOM     51  C   UNL A   1      40.211  29.609  29.291  1.00  0.00    -0.014 A 
BRANCH  51  52
ATOM     52  C   UNL A   1      39.467  30.278  30.370  1.00  0.00     0.031 A 
ATOM     53  C   UNL A   1      39.781  29.566  31.649  1.00  0.00     0.074 A 
ATOM     54  C   UNL A   1      39.214  31.604  30.421  1.00  0.00     0.049 A 
ATOM     55  N   UNL A   1      40.907  29.748  32.276  1.00  0.00    -0.248 NA
ATOM     56  C   UNL A   1      39.082  28.337  32.026  1.00  0.00     0.031 C 
ATOM     57  C   UNL A   1      40.067  32.670  29.881  1.00  0.00     0.029 A 
ATOM     58  N   UNL A   1      38.236  32.282  31.118  1.00  0.00    -0.354 N 
ATOM     59  C   UNL A   1      41.112  28.637  33.069  1.00  0.00     0.074 A 
ATOM     60  C   UNL A   1      39.952  27.792  32.889  1.00  0.00     0.031 C 
ATOM     61  C   UNL A   1      39.707  33.840  30.450  1.00  0.00     0.029 A 
ATOM     62  C   UNL A   1      38.528  33.634  31.289  1.00  0.00     0.049 A 
ATOM     63  H   UNL A   1      37.416  31.856  31.459  1.00  0.00     0.167 HD
ATOM     64  C   UNL A   1      42.234  28.463  33.813  1.00  0.00     0.037 A 
ATOM     65  C   UNL A   1      38.240  34.329  32.426  1.00  0.00     0.037 A 
ATOM     66  C   UNL A   1      43.196  29.522  33.755  1.00  0.00     0.049 A 
ATOM     67  C   UNL A   1      39.351  33.847  33.336  1.00  0.00     0.074 A 
ATOM     68  C   UNL A   1      44.423  29.769  33.180  1.00  0.00     0.029 A 
ATOM     69  N   UNL A   1      42.889  30.680  34.429  1.00  0.00    -0.354 N 
ATOM     70  N   UNL A   1      40.600  34.237  33.318  1.00  0.00    -0.248 NA
ATOM     71  C   UNL A   1      39.120  32.593  34.057  1.00  0.00     0.031 C 
ATOM     72  C   UNL A   1      44.554  31.196  33.163  1.00  0.00     0.029 A 
ATOM     73  C   UNL A   1      43.378  31.726  33.693  1.00  0.00     0.049 A 
ATOM     74  H   UNL A   1      42.407  30.745  35.284  1.00  0.00     0.167 HD
ATOM     75  C   UNL A   1      41.340  33.140  33.777  1.00  0.00     0.074 A 
ATOM     76  C   UNL A   1      40.365  32.182  34.252  1.00  0.00     0.031 C 
ATOM     77  C   UNL A   1      42.682  32.988  33.575  1.00  0.00     0.037 A 
BRANCH  64  78
ATOM     78  C   UNL A   1      42.375  27.417  34.836  1.00  0.00     0.057 A 
ATOM     79  C   UNL A   1      42.953  26.207  34.432  1.00  0.00     0.134 A 
ATOM     80  C   UNL A   1      41.798  27.482  36.103  1.00  0.00     0.134 A 
ATOM     81  F   UNL A   1      43.517  26.105  33.216  1.00  0.00    -0.206 F 
ATOM     82  C   UNL A   1      42.916  25.075  35.237  1.00  0.00     0.040 A 
ATOM     83  C   UNL A   1      41.766  26.353  36.928  1.00  0.00     0.040 A 
ATOM     84  F   UNL A   1      41.226  28.612  36.541  1.00  0.00    -0.206 F 
ATOM     85  C   UNL A   1      42.309  25.144  36.487  1.00  0.00     0.006 A 
ENDBRANCH  64  78
BRANCH  65  86
ATOM     86  C   UNL A   1      36.792  34.343  32.819  1.00  0.00     0.057 A 
ATOM     87  C   UNL A   1      35.824  34.318  31.793  1.00  0.00     0.134 A 
ATOM     88  C   UNL A   1      36.284  34.352  34.124  1.00  0.00     0.134 A 
ATOM     89  F   UNL A   1      36.194  34.442  30.509  1.00  0.00    -0.206 F 
ATOM     90  C   UNL A   1      34.460  34.146  32.047  1.00  0.00     0.040 A 
ATOM     91  C   UNL A   1      34.924  34.151  34.394  1.00  0.00     0.040 A 
ATOM     92  F   UNL A   1      37.082  34.536  35.183  1.00  0.00    -0.206 F 
ATOM     93  C   UNL A   1      34.011  34.018  33.354  1.00  0.00     0.006 A 
ENDBRANCH  65  86
BRANCH  77  94
ATOM     94  C   UNL A   1      43.389  34.162  32.993  1.00  0.00     0.057 A 
ATOM     95  C   UNL A   1      43.934  35.140  33.831  1.00  0.00     0.134 A 
ATOM     96  C   UNL A   1      43.596  34.300  31.614  1.00  0.00     0.134 A 
ATOM     97  F   UNL A   1      43.784  35.058  35.163  1.00  0.00    -0.206 F 
ATOM     98  C   UNL A   1      44.677  36.204  33.318  1.00  0.00     0.040 A 
ATOM     99  C   UNL A   1      44.362  35.344  31.093  1.00  0.00     0.040 A 
ATOM    100  F   UNL A   1      43.085  33.411  30.746  1.00  0.00    -0.206 F 
ATOM    101  C   UNL A   1      44.906  36.300  31.947  1.00  0.00     0.006 A 
ENDBRANCH  77  94
ENDBRANCH  51  52
ENDBRANCH  43  46
ENDBRANCH  41  42
ENDBRANCH  40  41
ENDBRANCH   1  40
TORSDOF 16
ENDMDL
MODEL 2
REMARK VINA RESULT:     -13.7      6.447     12.992
REMARK SMILES Cc1oc2cc3c(cc2c1C)[C@H](C)[C@@H](CC(=O)N[C@H](CC1=c2ccccc2=NC1)C(=O)NCCCCNC(=O)c1ccc(-c2c4nc(c(-c5c(F)cccc5F)c5ccc([nH]5)c(-c5c(F)cccc5F)c5nc(c(-c6c(F)cccc6F)c6ccc2[nH]6)C=C5)C=C4)cc1)C(=O)O3
REMARK SMILES IDX 34 1 33 2 32 3 30 4 31 5 19 7 18 8 16 9 17 10 15 12 14 13
REMARK SMILES IDX 1 14 2 15 3 16 10 17 4 18 9 19 11 20 5 21 8 22 6 23 7 24
REMARK SMILES IDX 96 25 12 26 94 27 13 28 95 29 20 30 21 31 22 32 29 33 23 34
REMARK SMILES IDX 27 35 28 36 24 37 26 38 25 39 35 40 36 41 37 42 38 43 39 45
REMARK SMILES IDX 40 46 41 47 93 48 42 49 92 50 43 51 44 52 45 53 86 54 46 55
REMARK SMILES IDX 91 56 85 57 87 58 47 59 90 60 84 61 83 62 48 64 74 65 57 66
REMARK SMILES IDX 73 67 58 68 61 69 72 70 88 71 59 72 60 73 71 75 89 76 62 77
REMARK SMILES IDX 49 78 50 79 55 80 51 81 52 82 54 83 56 84 53 85 75 86 76 87
REMARK SMILES IDX 81 88 77 89 78 90 80 91 82 92 79 93 63 94 64 95 69 96 65 97
REMARK SMILES IDX 66 98 68 99 70 100 67 101
REMARK H PARENT 32 6 18 11 37 44 87 63 61 74
REMARK Flexibility Score: inf
ROOT
ATOM      1  C   UNL A   1      41.580  27.868  34.164  1.00  0.00     0.023 C 
ENDROOT
BRANCH   1   2
ATOM      2  C   UNL A   1      40.398  29.659  34.580  1.00  0.00     0.116 C 
BRANCH   2   3
ATOM      3  N   UNL A   1      38.953  30.066  34.189  1.00  0.00    -0.354 N 
ATOM      4  C   UNL A   1      38.467  31.327  33.941  1.00  0.00     0.242 C 
ATOM      5  O   UNL A   1      37.273  31.536  34.168  1.00  0.00    -0.273 OA
ATOM      6  H   UNL A   1      38.304  29.330  34.109  1.00  0.00     0.163 HD
BRANCH   4   7
ATOM      7  C   UNL A   1      39.423  32.498  33.591  1.00  0.00     0.175 C 
BRANCH   7   8
ATOM      8  N   UNL A   1      39.164  33.806  34.240  1.00  0.00    -0.344 N 
ATOM      9  C   UNL A   1      39.374  34.291  35.492  1.00  0.00     0.221 C 
ATOM     10  O   UNL A   1      39.107  35.480  35.682  1.00  0.00    -0.275 OA
ATOM     11  H   UNL A   1      38.753  34.464  33.634  1.00  0.00     0.164 HD
BRANCH   9  12
ATOM     12  C   UNL A   1      39.845  33.429  36.654  1.00  0.00     0.116 C 
BRANCH  12  13
ATOM     13  C   UNL A   1      38.763  33.409  37.740  1.00  0.00     0.116 C 
ATOM     14  C   UNL A   1      34.123  30.967  44.397  1.00  0.00     0.088 C 
ATOM     15  C   UNL A   1      35.091  31.376  43.359  1.00  0.00     0.105 A 
ATOM     16  O   UNL A   1      34.576  31.559  42.114  1.00  0.00    -0.461 OA
ATOM     17  C   UNL A   1      36.454  31.620  43.364  1.00  0.00    -0.002 A 
ATOM     18  C   UNL A   1      35.601  31.942  41.311  1.00  0.00     0.138 A 
ATOM     19  C   UNL A   1      36.780  32.045  42.039  1.00  0.00     0.024 A 
ATOM     20  C   UNL A   1      37.400  31.463  44.491  1.00  0.00     0.049 C 
ATOM     21  C   UNL A   1      35.498  32.160  39.949  1.00  0.00     0.095 A 
ATOM     22  C   UNL A   1      37.955  32.473  41.379  1.00  0.00     0.020 A 
ATOM     23  C   UNL A   1      36.690  32.505  39.314  1.00  0.00     0.138 A 
ATOM     24  C   UNL A   1      37.907  32.748  40.002  1.00  0.00    -0.001 A 
ATOM     25  O   UNL A   1      36.614  32.496  37.917  1.00  0.00    -0.426 OA
ATOM     26  C   UNL A   1      39.172  33.146  39.210  1.00  0.00     0.035 C 
ATOM     27  C   UNL A   1      37.890  32.220  37.511  1.00  0.00     0.315 C 
ATOM     28  C   UNL A   1      39.930  34.325  39.826  1.00  0.00     0.014 C 
ATOM     29  O   UNL A   1      38.306  31.107  37.228  1.00  0.00    -0.251 OA
ENDBRANCH  12  13
ENDBRANCH   9  12
ENDBRANCH   7   8
BRANCH   7  30
ATOM     30  C   UNL A   1      39.488  32.646  32.030  1.00  0.00     0.068 C 
BRANCH  30  31
ATOM     31  C   UNL A   1      38.682  33.770  31.393  1.00  0.00    -0.037 C 
ATOM     32  C   UNL A   1      37.356  33.831  31.178  1.00  0.00     0.001 A 
ATOM     33  C   UNL A   1      39.416  34.604  30.314  1.00  0.00     0.174 C 
ATOM     34  C   UNL A   1      35.729  33.090  31.739  1.00  0.00     0.010 A 
ATOM     35  C   UNL A   1      37.683  33.842  29.269  1.00  0.00     0.065 A 
ATOM     36  N   UNL A   1      38.834  34.340  28.958  1.00  0.00    -0.280 NA
ATOM     37  C   UNL A   1      34.659  32.560  30.691  1.00  0.00     0.001 A 
ATOM     38  C   UNL A   1      36.280  33.076  28.175  1.00  0.00     0.028 A 
ATOM     39  C   UNL A   1      34.990  32.491  28.827  1.00  0.00     0.002 A 
ENDBRANCH  30  31
ENDBRANCH   7  30
ENDBRANCH   4   7
ENDBRANCH   2   3
ENDBRANCH   1   2
BRANCH   1  40
ATOM     40  C   UNL A   1      41.850  26.369  34.906  1.00  0.00     0.023 C 
BRANCH  40  41
ATOM     41  C   UNL A   1      43.227  25.709  34.902  1.00  0.00     0.116 C 
BRANCH  41  42
ATOM     42  N   UNL A   1      43.323  24.329  35.348  1.00  0.00    -0.352 N 
ATOM     43  C   UNL A   1      44.265  23.421  34.883  1.00  0.00     0.251 C 
ATOM     44  H   UNL A   1      42.678  24.017  36.025  1.00  0.00     0.163 HD
ATOM     45  O   UNL A   1      44.491  22.350  35.423  1.00  0.00    -0.269 OA
BRANCH  43  46
ATOM     46  C   UNL A   1      44.951  23.823  33.639  1.00  0.00     0.039 A 
ATOM     47  C   UNL A   1      46.023  24.723  33.750  1.00  0.00     0.014 A 
ATOM     48  C   UNL A   1      44.163  23.748  32.484  1.00  0.00     0.014 A 
ATOM     49  C   UNL A   1      46.172  25.690  32.763  1.00  0.00     0.010 A 
ATOM     50  C   UNL A   1      44.339  24.702  31.493  1.00  0.00     0.010 A 
ATOM     51  C   UNL A   1      45.291  25.717  31.670  1.00  0.00    -0.014 A 
BRANCH  51  52
ATOM     52  C   UNL A   1      45.549  26.743  30.648  1.00  0.00     0.031 A 
ATOM     53  C   UNL A   1      45.492  26.075  29.309  1.00  0.00     0.074 A 
ATOM     54  C   UNL A   1      45.158  28.033  30.738  1.00  0.00     0.049 A 
ATOM     55  N   UNL A   1      44.360  25.763  28.747  1.00  0.00    -0.248 NA
ATOM     56  C   UNL A   1      46.644  25.352  28.770  1.00  0.00     0.031 C 
ATOM     57  C   UNL A   1      43.958  28.528  31.425  1.00  0.00     0.029 A 
ATOM     58  N   UNL A   1      45.651  29.144  30.088  1.00  0.00    -0.354 N 
ATOM     59  C   UNL A   1      44.624  24.755  27.841  1.00  0.00     0.074 A 
ATOM     60  C   UNL A   1      46.054  24.537  27.883  1.00  0.00     0.031 C 
ATOM     61  C   UNL A   1      43.690  29.773  30.980  1.00  0.00     0.029 A 
ATOM     62  C   UNL A   1      44.756  30.212  30.081  1.00  0.00     0.049 A 
ATOM     63  H   UNL A   1      46.543  29.180  29.672  1.00  0.00     0.167 HD
ATOM     64  C   UNL A   1      43.650  24.140  27.123  1.00  0.00     0.037 A 
ATOM     65  C   UNL A   1      44.594  31.053  29.020  1.00  0.00     0.037 A 
ATOM     66  C   UNL A   1      42.317  24.619  27.335  1.00  0.00     0.049 A 
ATOM     67  C   UNL A   1      43.758  30.186  28.103  1.00  0.00     0.074 A 
ATOM     68  C   UNL A   1      41.167  24.215  27.977  1.00  0.00     0.029 A 
ATOM     69  N   UNL A   1      41.998  25.838  26.786  1.00  0.00    -0.354 N 
ATOM     70  N   UNL A   1      42.477  29.945  28.209  1.00  0.00    -0.248 NA
ATOM     71  C   UNL A   1      44.479  29.250  27.237  1.00  0.00     0.031 C 
ATOM     72  C   UNL A   1      40.396  25.409  28.161  1.00  0.00     0.029 A 
ATOM     73  C   UNL A   1      41.147  26.469  27.652  1.00  0.00     0.049 A 
ATOM     74  H   UNL A   1      42.322  26.191  25.926  1.00  0.00     0.167 HD
ATOM     75  C   UNL A   1      42.289  28.672  27.656  1.00  0.00     0.074 A 
ATOM     76  C   UNL A   1      43.552  28.324  27.041  1.00  0.00     0.031 C 
ATOM     77  C   UNL A   1      41.190  27.895  27.887  1.00  0.00     0.037 A 
BRANCH  64  78
ATOM     78  C   UNL A   1      43.921  23.239  25.994  1.00  0.00     0.057 A 
ATOM     79  C   UNL A   1      43.678  21.875  26.197  1.00  0.00     0.134 A 
ATOM     80  C   UNL A   1      44.580  23.624  24.828  1.00  0.00     0.134 A 
ATOM     81  F   UNL A   1      43.047  21.464  27.311  1.00  0.00    -0.206 F 
ATOM     82  C   UNL A   1      44.121  20.911  25.299  1.00  0.00     0.040 A 
ATOM     83  C   UNL A   1      45.020  22.666  23.910  1.00  0.00     0.040 A 
ATOM     84  F   UNL A   1      44.844  24.916  24.583  1.00  0.00    -0.206 F 
ATOM     85  C   UNL A   1      44.807  21.308  24.155  1.00  0.00     0.006 A 
ENDBRANCH  64  78
BRANCH  65  86
ATOM     86  C   UNL A   1      45.835  31.774  28.581  1.00  0.00     0.057 A 
ATOM     87  C   UNL A   1      46.747  32.194  29.571  1.00  0.00     0.134 A 
ATOM     88  C   UNL A   1      46.206  32.060  27.261  1.00  0.00     0.134 A 
ATOM     89  F   UNL A   1      46.431  32.093  30.871  1.00  0.00    -0.206 F 
ATOM     90  C   UNL A   1      48.010  32.708  29.263  1.00  0.00     0.040 A 
ATOM     91  C   UNL A   1      47.479  32.547  26.936  1.00  0.00     0.040 A 
ATOM     92  F   UNL A   1      45.364  31.862  26.240  1.00  0.00    -0.206 F 
ATOM     93  C   UNL A   1      48.397  32.846  27.937  1.00  0.00     0.006 A 
ENDBRANCH  65  86
BRANCH  77  94
ATOM     94  C   UNL A   1      40.073  28.550  28.623  1.00  0.00     0.057 A 
ATOM     95  C   UNL A   1      39.993  28.447  30.015  1.00  0.00     0.134 A 
ATOM     96  C   UNL A   1      39.113  29.338  27.973  1.00  0.00     0.134 A 
ATOM     97  F   UNL A   1      40.891  27.720  30.698  1.00  0.00    -0.206 F 
ATOM     98  C   UNL A   1      39.009  29.122  30.737  1.00  0.00     0.040 A 
ATOM     99  C   UNL A   1      38.143  30.041  28.688  1.00  0.00     0.040 A 
ATOM    100  F   UNL A   1      39.115  29.467  26.636  1.00  0.00    -0.206 F 
ATOM    101  C   UNL A   1      38.089  29.934  30.076  1.00  0.00     0.006 A 
ENDBRANCH  77  94
ENDBRANCH  51  52
ENDBRANCH  43  46
ENDBRANCH  41  42
ENDBRANCH  40  41
ENDBRANCH   1  40
TORSDOF 16
ENDMDL
MODEL 3
REMARK VINA RESULT:     -13.6      6.040     11.894
REMARK SMILES Cc1oc2cc3c(cc2c1C)[C@H](C)[C@@H](CC(=O)N[C@H](CC1=c2ccccc2=NC1)C(=O)NCCCCNC(=O)c1ccc(-c2c4nc(c(-c5c(F)cccc5F)c5ccc([nH]5)c(-c5c(F)cccc5F)c5nc(c(-c6c(F)cccc6F)c6ccc2[nH]6)C=C5)C=C4)cc1)C(=O)O3
REMARK SMILES IDX 34 1 33 2 32 3 30 4 31 5 19 7 18 8 16 9 17 10 15 12 14 13
REMARK SMILES IDX 1 14 2 15 3 16 10 17 4 18 9 19 11 20 5 21 8 22 6 23 7 24
REMARK SMILES IDX 96 25 12 26 94 27 13 28 95 29 20 30 21 31 22 32 29 33 23 34
REMARK SMILES IDX 27 35 28 36 24 37 26 38 25 39 35 40 36 41 37 42 38 43 39 45
REMARK SMILES IDX 40 46 41 47 93 48 42 49 92 50 43 51 44 52 45 53 86 54 46 55
REMARK SMILES IDX 91 56 85 57 87 58 47 59 90 60 84 61 83 62 48 64 74 65 57 66
REMARK SMILES IDX 73 67 58 68 61 69 72 70 88 71 59 72 60 73 71 75 89 76 62 77
REMARK SMILES IDX 49 78 50 79 55 80 51 81 52 82 54 83 56 84 53 85 75 86 76 87
REMARK SMILES IDX 81 88 77 89 78 90 80 91 82 92 79 93 63 94 64 95 69 96 65 97
REMARK SMILES IDX 66 98 68 99 70 100 67 101
REMARK H PARENT 32 6 18 11 37 44 87 63 61 74
REMARK Flexibility Score: inf
ROOT
ATOM      1  C   UNL A   1      44.734  31.656  27.177  1.00  0.00     0.023 C 
ENDROOT
BRANCH   1   2
ATOM      2  C   UNL A   1      45.498  29.689  26.607  1.00  0.00     0.116 C 
BRANCH   2   3
ATOM      3  N   UNL A   1      44.849  28.499  25.851  1.00  0.00    -0.354 N 
ATOM      4  C   UNL A   1      45.081  27.157  26.028  1.00  0.00     0.242 C 
ATOM      5  O   UNL A   1      44.919  26.414  25.057  1.00  0.00    -0.273 OA
ATOM      6  H   UNL A   1      44.190  28.736  25.159  1.00  0.00     0.163 HD
BRANCH   4   7
ATOM      7  C   UNL A   1      45.722  26.621  27.335  1.00  0.00     0.175 C 
BRANCH   7   8
ATOM      8  N   UNL A   1      46.867  25.689  27.201  1.00  0.00    -0.344 N 
ATOM      9  C   UNL A   1      48.156  25.837  26.797  1.00  0.00     0.221 C 
ATOM     10  O   UNL A   1      48.885  24.845  26.881  1.00  0.00    -0.275 OA
ATOM     11  H   UNL A   1      46.647  24.765  27.460  1.00  0.00     0.164 HD
BRANCH   9  12
ATOM     12  C   UNL A   1      48.700  27.124  26.195  1.00  0.00     0.116 C 
BRANCH  12  13
ATOM     13  C   UNL A   1      49.201  26.844  24.772  1.00  0.00     0.116 C 
ATOM     14  C   UNL A   1      51.753  28.058  16.783  1.00  0.00     0.088 C 
ATOM     15  C   UNL A   1      51.450  27.980  18.227  1.00  0.00     0.105 A 
ATOM     16  O   UNL A   1      50.379  27.212  18.563  1.00  0.00    -0.461 OA
ATOM     17  C   UNL A   1      52.026  28.534  19.358  1.00  0.00    -0.002 A 
ATOM     18  C   UNL A   1      50.269  27.251  19.915  1.00  0.00     0.138 A 
ATOM     19  C   UNL A   1      51.290  28.014  20.467  1.00  0.00     0.024 A 
ATOM     20  C   UNL A   1      53.159  29.485  19.426  1.00  0.00     0.049 C 
ATOM     21  C   UNL A   1      49.258  26.649  20.642  1.00  0.00     0.095 A 
ATOM     22  C   UNL A   1      51.367  28.138  21.873  1.00  0.00     0.020 A 
ATOM     23  C   UNL A   1      49.318  26.855  22.020  1.00  0.00     0.138 A 
ATOM     24  C   UNL A   1      50.391  27.518  22.670  1.00  0.00    -0.001 A 
ATOM     25  O   UNL A   1      48.174  26.438  22.708  1.00  0.00    -0.426 OA
ATOM     26  C   UNL A   1      50.376  27.679  24.207  1.00  0.00     0.035 C 
ATOM     27  C   UNL A   1      48.131  27.244  23.811  1.00  0.00     0.315 C 
ATOM     28  C   UNL A   1      51.713  27.329  24.868  1.00  0.00     0.014 C 
ATOM     29  O   UNL A   1      47.480  28.274  23.897  1.00  0.00    -0.251 OA
ENDBRANCH  12  13
ENDBRANCH   9  12
ENDBRANCH   7   8
BRANCH   7  30
ATOM     30  C   UNL A   1      44.594  26.002  28.233  1.00  0.00     0.068 C 
BRANCH  30  31
ATOM     31  C   UNL A   1      44.609  24.494  28.448  1.00  0.00    -0.037 C 
ATOM     32  C   UNL A   1      44.204  23.526  27.607  1.00  0.00     0.001 A 
ATOM     33  C   UNL A   1      44.427  24.015  29.910  1.00  0.00     0.174 C 
ATOM     34  C   UNL A   1      43.856  23.185  25.798  1.00  0.00     0.010 A 
ATOM     35  C   UNL A   1      42.803  23.049  28.857  1.00  0.00     0.065 A 
ATOM     36  N   UNL A   1      43.101  23.339  30.082  1.00  0.00    -0.280 NA
ATOM     37  C   UNL A   1      42.506  22.486  25.335  1.00  0.00     0.001 A 
ATOM     38  C   UNL A   1      41.208  22.281  28.073  1.00  0.00     0.028 A 
ATOM     39  C   UNL A   1      41.093  22.082  26.531  1.00  0.00     0.002 A 
ENDBRANCH  30  31
ENDBRANCH   7  30
ENDBRANCH   4   7
ENDBRANCH   2   3
ENDBRANCH   1   2
BRANCH   1  40
ATOM     40  C   UNL A   1      44.163  33.036  26.378  1.00  0.00     0.023 C 
BRANCH  40  41
ATOM     41  C   UNL A   1      44.263  34.424  27.005  1.00  0.00     0.116 C 
BRANCH  41  42
ATOM     42  N   UNL A   1      43.600  35.527  26.329  1.00  0.00    -0.352 N 
ATOM     43  C   UNL A   1      42.823  36.483  26.971  1.00  0.00     0.251 C 
ATOM     44  H   UNL A   1      43.708  35.602  25.353  1.00  0.00     0.163 HD
ATOM     45  O   UNL A   1      42.468  37.525  26.444  1.00  0.00    -0.269 OA
BRANCH  43  46
ATOM     46  C   UNL A   1      42.405  36.124  28.341  1.00  0.00     0.039 A 
ATOM     47  C   UNL A   1      43.397  36.084  29.333  1.00  0.00     0.014 A 
ATOM     48  C   UNL A   1      41.252  35.333  28.413  1.00  0.00     0.014 A 
ATOM     49  C   UNL A   1      43.315  35.091  30.303  1.00  0.00     0.010 A 
ATOM     50  C   UNL A   1      41.168  34.364  29.402  1.00  0.00     0.010 A 
ATOM     51  C   UNL A   1      42.234  34.194  30.297  1.00  0.00    -0.014 A 
BRANCH  51  52
ATOM     52  C   UNL A   1      42.200  33.206  31.386  1.00  0.00     0.031 A 
ATOM     53  C   UNL A   1      40.797  33.150  31.906  1.00  0.00     0.074 A 
ATOM     54  C   UNL A   1      42.943  32.078  31.423  1.00  0.00     0.049 A 
ATOM     55  N   UNL A   1      39.855  32.518  31.267  1.00  0.00    -0.248 NA
ATOM     56  C   UNL A   1      40.306  34.129  32.876  1.00  0.00     0.031 C 
ATOM     57  C   UNL A   1      43.387  31.294  30.264  1.00  0.00     0.029 A 
ATOM     58  N   UNL A   1      43.303  31.303  32.506  1.00  0.00    -0.354 N 
ATOM     59  C   UNL A   1      38.654  33.058  31.683  1.00  0.00     0.074 A 
ATOM     60  C   UNL A   1      38.981  34.048  32.686  1.00  0.00     0.031 C 
ATOM     61  C   UNL A   1      43.749  30.065  30.688  1.00  0.00     0.029 A 
ATOM     62  C   UNL A   1      43.686  30.012  32.146  1.00  0.00     0.049 A 
ATOM     63  H   UNL A   1      43.290  31.627  33.435  1.00  0.00     0.167 HD
ATOM     64  C   UNL A   1      37.459  32.677  31.163  1.00  0.00     0.037 A 
ATOM     65  C   UNL A   1      43.383  28.904  32.881  1.00  0.00     0.037 A 
ATOM     66  C   UNL A   1      37.507  31.649  30.167  1.00  0.00     0.049 A 
ATOM     67  C   UNL A   1      41.929  28.710  32.505  1.00  0.00     0.074 A 
ATOM     68  C   UNL A   1      37.380  31.531  28.801  1.00  0.00     0.029 A 
ATOM     69  N   UNL A   1      37.762  30.371  30.604  1.00  0.00    -0.354 N 
ATOM     70  N   UNL A   1      41.473  28.195  31.393  1.00  0.00    -0.248 NA
ATOM     71  C   UNL A   1      40.940  29.473  33.269  1.00  0.00     0.031 C 
ATOM     72  C   UNL A   1      38.016  30.292  28.466  1.00  0.00     0.029 A 
ATOM     73  C   UNL A   1      38.525  29.755  29.648  1.00  0.00     0.049 A 
ATOM     74  H   UNL A   1      37.452  29.971  31.448  1.00  0.00     0.167 HD
ATOM     75  C   UNL A   1      40.229  28.804  31.183  1.00  0.00     0.074 A 
ATOM     76  C   UNL A   1      39.947  29.544  32.394  1.00  0.00     0.031 C 
ATOM     77  C   UNL A   1      39.588  28.831  29.977  1.00  0.00     0.037 A 
BRANCH  64  78
ATOM     78  C   UNL A   1      36.164  33.059  31.744  1.00  0.00     0.057 A 
ATOM     79  C   UNL A   1      35.394  33.983  31.027  1.00  0.00     0.134 A 
ATOM     80  C   UNL A   1      35.755  32.719  33.032  1.00  0.00     0.134 A 
ATOM     81  F   UNL A   1      35.757  34.338  29.782  1.00  0.00    -0.206 F 
ATOM     82  C   UNL A   1      34.279  34.596  31.586  1.00  0.00     0.040 A 
ATOM     83  C   UNL A   1      34.628  33.318  33.601  1.00  0.00     0.040 A 
ATOM     84  F   UNL A   1      36.455  31.843  33.767  1.00  0.00    -0.206 F 
ATOM     85  C   UNL A   1      33.900  34.272  32.885  1.00  0.00     0.006 A 
ENDBRANCH  64  78
BRANCH  65  86
ATOM     86  C   UNL A   1      43.881  28.920  34.297  1.00  0.00     0.057 A 
ATOM     87  C   UNL A   1      45.128  29.524  34.558  1.00  0.00     0.134 A 
ATOM     88  C   UNL A   1      43.214  28.410  35.418  1.00  0.00     0.134 A 
ATOM     89  F   UNL A   1      45.913  29.924  33.545  1.00  0.00    -0.206 F 
ATOM     90  C   UNL A   1      45.599  29.754  35.854  1.00  0.00     0.040 A 
ATOM     91  C   UNL A   1      43.658  28.658  36.724  1.00  0.00     0.040 A 
ATOM     92  F   UNL A   1      42.103  27.674  35.295  1.00  0.00    -0.206 F 
ATOM     93  C   UNL A   1      44.839  29.357  36.946  1.00  0.00     0.006 A 
ENDBRANCH  65  86
BRANCH  77  94
ATOM     94  C   UNL A   1      40.191  27.997  28.901  1.00  0.00     0.057 A 
ATOM     95  C   UNL A   1      39.821  26.656  28.761  1.00  0.00     0.134 A 
ATOM     96  C   UNL A   1      41.084  28.526  27.958  1.00  0.00     0.134 A 
ATOM     97  F   UNL A   1      38.957  26.093  29.621  1.00  0.00    -0.206 F 
ATOM     98  C   UNL A   1      40.302  25.875  27.709  1.00  0.00     0.040 A 
ATOM     99  C   UNL A   1      41.548  27.763  26.886  1.00  0.00     0.040 A 
ATOM    100  F   UNL A   1      41.500  29.800  28.041  1.00  0.00    -0.206 F 
ATOM    101  C   UNL A   1      41.156  26.432  26.759  1.00  0.00     0.006 A 
ENDBRANCH  77  94
ENDBRANCH  51  52
ENDBRANCH  43  46
ENDBRANCH  41  42
ENDBRANCH  40  41
ENDBRANCH   1  40
TORSDOF 16
ENDMDL
