MODEL 1
REMARK VINA RESULT:     -12.9      0.000      0.000
REMARK SMILES O=C(COc1ccccc1/C=N/N1[C@@H](S)N=N[C@H]1[C@@H]1C=C(c2ccccc2)N=N1)NCCCCNC(=O)c1ccc(-c2c3nc(c(-c4c(F)cccc4F)c4ccc([nH]4)c(-c4c(F)cccc4F)c4nc(c(-c5c(F)cccc5F)c5ccc2[nH]5)C=C4)C=C3)cc1
REMARK SMILES IDX 1 1 2 2 30 3 3 5 4 6 5 7 6 8 10 9 7 10 9 11 8 12 11 13 12 14
REMARK SMILES IDX 13 15 14 16 18 17 16 18 17 19 15 20 19 22 20 23 29 24 21 25
REMARK SMILES IDX 28 26 22 27 23 28 27 29 24 30 26 31 25 32 31 33 32 34 33 35
REMARK SMILES IDX 34 36 35 37 36 38 37 40 38 41 39 42 91 43 40 44 90 45 41 46
REMARK SMILES IDX 42 47 43 48 84 49 44 50 89 51 83 52 85 53 45 54 88 55 82 56
REMARK SMILES IDX 81 57 46 59 72 60 55 61 71 62 56 63 59 64 70 65 86 66 57 67
REMARK SMILES IDX 58 68 69 70 87 71 60 72 47 73 48 74 53 75 49 76 50 77 52 78
REMARK SMILES IDX 54 79 51 80 73 81 74 82 79 83 75 84 76 85 78 86 80 87 77 88
REMARK SMILES IDX 61 89 62 90 67 91 63 92 64 93 66 94 68 95 65 96
REMARK H PARENT 30 4 15 21 35 39 85 58 59 69
REMARK Flexibility Score: inf
ROOT
ATOM      1  O   UNL A   1      34.217  28.434  27.115  1.00  0.00    -0.271 OA
ATOM      2  C   UNL A   1      33.885  29.458  26.512  1.00  0.00     0.257 C 
ATOM      3  N   UNL A   1      34.068  30.856  26.873  1.00  0.00    -0.353 N 
ATOM      4  H   UNL A   1      33.601  31.378  26.181  1.00  0.00     0.163 HD
ENDROOT
BRANCH   2   5
ATOM      5  C   UNL A   1      33.126  28.998  25.248  1.00  0.00     0.329 C 
BRANCH   5   6
ATOM      6  O   UNL A   1      31.883  28.362  25.538  1.00  0.00    -0.483 OA
BRANCH   6   7
ATOM      7  C   UNL A   1      31.070  28.549  24.455  1.00  0.00     0.128 A 
ATOM      8  C   UNL A   1      30.639  29.868  24.253  1.00  0.00     0.047 A 
ATOM      9  C   UNL A   1      30.607  27.442  23.705  1.00  0.00     0.037 A 
ATOM     10  C   UNL A   1      29.689  30.118  23.284  1.00  0.00     0.004 A 
ATOM     11  C   UNL A   1      29.625  27.709  22.757  1.00  0.00     0.013 A 
ATOM     12  C   UNL A   1      29.186  29.043  22.541  1.00  0.00     0.001 A 
BRANCH   9  13
ATOM     13  C   UNL A   1      31.081  26.063  24.160  1.00  0.00     0.145 C 
ATOM     14  N   UNL A   1      30.433  24.934  23.953  1.00  0.00    -0.180 NA
BRANCH  14  15
ATOM     15  N   UNL A   1      30.661  23.968  24.996  1.00  0.00    -0.233 NA
ATOM     16  C   UNL A   1      30.603  24.447  26.388  1.00  0.00     0.298 C 
ATOM     17  C   UNL A   1      32.016  23.091  25.159  1.00  0.00     0.274 C 
ATOM     18  N   UNL A   1      31.223  23.401  27.251  1.00  0.00    -0.153 NA
ATOM     19  N   UNL A   1      31.966  22.625  26.581  1.00  0.00    -0.161 NA
BRANCH  16  20
ATOM     20  S   UNL A   1      28.912  24.956  26.840  1.00  0.00    -0.128 SA
ATOM     21  H   UNL A   1      28.096  23.868  26.840  1.00  0.00     0.106 HD
ENDBRANCH  16  20
BRANCH  17  22
ATOM     22  C   UNL A   1      33.125  21.906  24.246  1.00  0.00     0.202 C 
ATOM     23  C   UNL A   1      32.918  20.385  23.965  1.00  0.00     0.037 C 
ATOM     24  N   UNL A   1      34.562  21.769  24.759  1.00  0.00    -0.177 NA
ATOM     25  C   UNL A   1      33.915  19.660  24.479  1.00  0.00     0.091 C 
ATOM     26  N   UNL A   1      34.905  20.522  24.906  1.00  0.00    -0.155 NA
BRANCH  25  27
ATOM     27  C   UNL A   1      33.736  18.178  24.831  1.00  0.00     0.002 A 
ATOM     28  C   UNL A   1      34.764  17.221  24.626  1.00  0.00     0.010 A 
ATOM     29  C   UNL A   1      32.607  17.620  25.423  1.00  0.00     0.010 A 
ATOM     30  C   UNL A   1      34.693  15.837  24.830  1.00  0.00     0.001 A 
ATOM     31  C   UNL A   1      32.523  16.220  25.699  1.00  0.00     0.001 A 
ATOM     32  C   UNL A   1      33.548  15.327  25.376  1.00  0.00     0.000 A 
ENDBRANCH  25  27
ENDBRANCH  17  22
ENDBRANCH  14  15
ENDBRANCH   9  13
ENDBRANCH   6   7
ENDBRANCH   5   6
ENDBRANCH   2   5
BRANCH   3  33
ATOM     33  C   UNL A   1      34.711  31.972  27.931  1.00  0.00     0.116 C 
BRANCH  33  34
ATOM     34  C   UNL A   1      35.083  33.621  28.004  1.00  0.00     0.023 C 
BRANCH  34  35
ATOM     35  C   UNL A   1      34.502  34.818  28.850  1.00  0.00     0.023 C 
BRANCH  35  36
ATOM     36  C   UNL A   1      33.153  34.607  29.520  1.00  0.00     0.116 C 
BRANCH  36  37
ATOM     37  N   UNL A   1      32.987  35.499  30.669  1.00  0.00    -0.352 N 
ATOM     38  C   UNL A   1      33.439  35.341  31.965  1.00  0.00     0.251 C 
ATOM     39  H   UNL A   1      32.483  36.327  30.494  1.00  0.00     0.163 HD
ATOM     40  O   UNL A   1      32.935  35.925  32.896  1.00  0.00    -0.269 OA
BRANCH  38  41
ATOM     41  C   UNL A   1      34.576  34.432  32.168  1.00  0.00     0.039 A 
ATOM     42  C   UNL A   1      34.403  33.051  32.121  1.00  0.00     0.014 A 
ATOM     43  C   UNL A   1      35.836  35.008  32.308  1.00  0.00     0.014 A 
ATOM     44  C   UNL A   1      35.537  32.250  32.135  1.00  0.00     0.010 A 
ATOM     45  C   UNL A   1      36.949  34.233  32.137  1.00  0.00     0.010 A 
ATOM     46  C   UNL A   1      36.809  32.853  32.113  1.00  0.00    -0.014 A 
BRANCH  46  47
ATOM     47  C   UNL A   1      38.002  32.038  31.949  1.00  0.00     0.031 A 
ATOM     48  C   UNL A   1      38.714  31.770  33.222  1.00  0.00     0.074 A 
ATOM     49  C   UNL A   1      38.345  31.441  30.789  1.00  0.00     0.049 A 
ATOM     50  N   UNL A   1      39.780  32.358  33.648  1.00  0.00    -0.248 NA
ATOM     51  C   UNL A   1      38.079  30.896  34.223  1.00  0.00     0.031 C 
ATOM     52  C   UNL A   1      37.552  31.335  29.556  1.00  0.00     0.029 A 
ATOM     53  N   UNL A   1      39.465  30.725  30.486  1.00  0.00    -0.354 N 
ATOM     54  C   UNL A   1      40.108  31.716  34.839  1.00  0.00     0.074 A 
ATOM     55  C   UNL A   1      38.922  31.019  35.253  1.00  0.00     0.031 C 
ATOM     56  C   UNL A   1      38.100  30.411  28.738  1.00  0.00     0.029 A 
ATOM     57  C   UNL A   1      39.383  30.023  29.288  1.00  0.00     0.049 A 
ATOM     58  H   UNL A   1      40.262  30.704  31.065  1.00  0.00     0.167 HD
ATOM     59  C   UNL A   1      41.420  31.538  35.165  1.00  0.00     0.037 A 
ATOM     60  C   UNL A   1      40.320  29.199  28.764  1.00  0.00     0.037 A 
ATOM     61  C   UNL A   1      42.257  32.351  34.314  1.00  0.00     0.049 A 
ATOM     62  C   UNL A   1      41.621  29.573  29.361  1.00  0.00     0.074 A 
ATOM     63  C   UNL A   1      42.610  33.676  34.205  1.00  0.00     0.029 A 
ATOM     64  N   UNL A   1      42.544  31.753  33.114  1.00  0.00    -0.354 N 
ATOM     65  N   UNL A   1      42.210  30.714  29.136  1.00  0.00    -0.248 NA
ATOM     66  C   UNL A   1      42.124  28.821  30.505  1.00  0.00     0.031 C 
ATOM     67  C   UNL A   1      43.004  33.878  32.845  1.00  0.00     0.029 A 
ATOM     68  C   UNL A   1      42.924  32.663  32.169  1.00  0.00     0.049 A 
ATOM     69  H   UNL A   1      42.483  30.784  32.954  1.00  0.00     0.167 HD
ATOM     70  C   UNL A   1      42.835  31.013  30.329  1.00  0.00     0.074 A 
ATOM     71  C   UNL A   1      42.906  29.753  31.057  1.00  0.00     0.031 C 
ATOM     72  C   UNL A   1      42.923  32.300  30.769  1.00  0.00     0.037 A 
BRANCH  59  73
ATOM     73  C   UNL A   1      41.996  30.292  35.816  1.00  0.00     0.057 A 
ATOM     74  C   UNL A   1      43.001  30.452  36.794  1.00  0.00     0.134 A 
ATOM     75  C   UNL A   1      41.863  28.980  35.320  1.00  0.00     0.134 A 
ATOM     76  F   UNL A   1      43.235  31.650  37.354  1.00  0.00    -0.206 F 
ATOM     77  C   UNL A   1      43.860  29.412  37.174  1.00  0.00     0.040 A 
ATOM     78  C   UNL A   1      42.686  27.924  35.726  1.00  0.00     0.040 A 
ATOM     79  F   UNL A   1      41.006  28.655  34.348  1.00  0.00    -0.206 F 
ATOM     80  C   UNL A   1      43.712  28.144  36.630  1.00  0.00     0.006 A 
ENDBRANCH  59  73
BRANCH  60  81
ATOM     81  C   UNL A   1      40.146  27.977  27.958  1.00  0.00     0.057 A 
ATOM     82  C   UNL A   1      40.789  27.833  26.721  1.00  0.00     0.134 A 
ATOM     83  C   UNL A   1      39.607  26.806  28.521  1.00  0.00     0.134 A 
ATOM     84  F   UNL A   1      41.350  28.892  26.120  1.00  0.00    -0.206 F 
ATOM     85  C   UNL A   1      40.940  26.587  26.104  1.00  0.00     0.040 A 
ATOM     86  C   UNL A   1      39.751  25.555  27.914  1.00  0.00     0.040 A 
ATOM     87  F   UNL A   1      39.010  26.827  29.723  1.00  0.00    -0.206 F 
ATOM     88  C   UNL A   1      40.438  25.439  26.711  1.00  0.00     0.006 A 
ENDBRANCH  60  81
BRANCH  72  89
ATOM     89  C   UNL A   1      42.864  33.391  29.749  1.00  0.00     0.057 A 
ATOM     90  C   UNL A   1      41.748  34.202  29.503  1.00  0.00     0.134 A 
ATOM     91  C   UNL A   1      44.030  33.674  29.028  1.00  0.00     0.134 A 
ATOM     92  F   UNL A   1      40.610  34.045  30.192  1.00  0.00    -0.206 F 
ATOM     93  C   UNL A   1      41.789  35.232  28.557  1.00  0.00     0.040 A 
ATOM     94  C   UNL A   1      44.093  34.716  28.104  1.00  0.00     0.040 A 
ATOM     95  F   UNL A   1      45.144  32.954  29.237  1.00  0.00    -0.206 F 
ATOM     96  C   UNL A   1      42.965  35.494  27.858  1.00  0.00     0.006 A 
ENDBRANCH  72  89
ENDBRANCH  46  47
ENDBRANCH  38  41
ENDBRANCH  36  37
ENDBRANCH  35  36
ENDBRANCH  34  35
ENDBRANCH  33  34
ENDBRANCH   3  33
TORSDOF 18
ENDMDL
MODEL 2
REMARK VINA RESULT:     -12.8      1.516      2.264
REMARK SMILES O=C(COc1ccccc1/C=N/N1[C@@H](S)N=N[C@H]1[C@@H]1C=C(c2ccccc2)N=N1)NCCCCNC(=O)c1ccc(-c2c3nc(c(-c4c(F)cccc4F)c4ccc([nH]4)c(-c4c(F)cccc4F)c4nc(c(-c5c(F)cccc5F)c5ccc2[nH]5)C=C4)C=C3)cc1
REMARK SMILES IDX 1 1 2 2 30 3 3 5 4 6 5 7 6 8 10 9 7 10 9 11 8 12 11 13 12 14
REMARK SMILES IDX 13 15 14 16 18 17 16 18 17 19 15 20 19 22 20 23 29 24 21 25
REMARK SMILES IDX 28 26 22 27 23 28 27 29 24 30 26 31 25 32 31 33 32 34 33 35
REMARK SMILES IDX 34 36 35 37 36 38 37 40 38 41 39 42 91 43 40 44 90 45 41 46
REMARK SMILES IDX 42 47 43 48 84 49 44 50 89 51 83 52 85 53 45 54 88 55 82 56
REMARK SMILES IDX 81 57 46 59 72 60 55 61 71 62 56 63 59 64 70 65 86 66 57 67
REMARK SMILES IDX 58 68 69 70 87 71 60 72 47 73 48 74 53 75 49 76 50 77 52 78
REMARK SMILES IDX 54 79 51 80 73 81 74 82 79 83 75 84 76 85 78 86 80 87 77 88
REMARK SMILES IDX 61 89 62 90 67 91 63 92 64 93 66 94 68 95 65 96
REMARK H PARENT 30 4 15 21 35 39 85 58 59 69
REMARK Flexibility Score: inf
ROOT
ATOM      1  O   UNL A   1      33.676  28.559  27.648  1.00  0.00    -0.271 OA
ATOM      2  C   UNL A   1      33.889  29.441  26.812  1.00  0.00     0.257 C 
ATOM      3  N   UNL A   1      34.325  30.818  26.997  1.00  0.00    -0.353 N 
ATOM      4  H   UNL A   1      34.305  31.230  26.103  1.00  0.00     0.163 HD
ENDROOT
BRANCH   2   5
ATOM      5  C   UNL A   1      33.529  28.840  25.436  1.00  0.00     0.329 C 
BRANCH   5   6
ATOM      6  O   UNL A   1      32.600  27.760  25.519  1.00  0.00    -0.483 OA
BRANCH   6   7
ATOM      7  C   UNL A   1      31.683  27.939  24.522  1.00  0.00     0.128 A 
ATOM      8  C   UNL A   1      31.138  29.228  24.435  1.00  0.00     0.047 A 
ATOM      9  C   UNL A   1      31.238  26.839  23.750  1.00  0.00     0.037 A 
ATOM     10  C   UNL A   1      30.089  29.452  23.567  1.00  0.00     0.004 A 
ATOM     11  C   UNL A   1      30.158  27.077  22.906  1.00  0.00     0.013 A 
ATOM     12  C   UNL A   1      29.603  28.381  22.808  1.00  0.00     0.001 A 
BRANCH   9  13
ATOM     13  C   UNL A   1      31.852  25.479  24.081  1.00  0.00     0.145 C 
ATOM     14  N   UNL A   1      31.215  24.327  24.019  1.00  0.00    -0.180 NA
BRANCH  14  15
ATOM     15  N   UNL A   1      31.707  23.374  24.980  1.00  0.00    -0.233 NA
ATOM     16  C   UNL A   1      31.503  23.682  26.406  1.00  0.00     0.298 C 
ATOM     17  C   UNL A   1      33.257  22.915  25.110  1.00  0.00     0.274 C 
ATOM     18  N   UNL A   1      32.394  22.783  27.194  1.00  0.00    -0.153 NA
ATOM     19  N   UNL A   1      33.335  22.321  26.483  1.00  0.00    -0.161 NA
BRANCH  16  20
ATOM     20  S   UNL A   1      29.734  23.636  26.844  1.00  0.00    -0.128 SA
ATOM     21  H   UNL A   1      29.395  24.789  27.481  1.00  0.00     0.106 HD
ENDBRANCH  16  20
BRANCH  17  22
ATOM     22  C   UNL A   1      34.668  22.191  24.135  1.00  0.00     0.202 C 
ATOM     23  C   UNL A   1      35.797  21.223  24.609  1.00  0.00     0.037 C 
ATOM     24  N   UNL A   1      35.605  23.181  23.435  1.00  0.00    -0.177 NA
ATOM     25  C   UNL A   1      37.004  21.763  24.421  1.00  0.00     0.091 C 
ATOM     26  N   UNL A   1      36.856  22.914  23.675  1.00  0.00    -0.155 NA
BRANCH  25  27
ATOM     27  C   UNL A   1      38.222  21.319  25.242  1.00  0.00     0.002 A 
ATOM     28  C   UNL A   1      38.883  22.189  26.147  1.00  0.00     0.010 A 
ATOM     29  C   UNL A   1      38.773  20.041  25.240  1.00  0.00     0.010 A 
ATOM     30  C   UNL A   1      40.044  21.928  26.886  1.00  0.00     0.001 A 
ATOM     31  C   UNL A   1      39.923  19.723  26.027  1.00  0.00     0.001 A 
ATOM     32  C   UNL A   1      40.575  20.669  26.822  1.00  0.00     0.000 A 
ENDBRANCH  25  27
ENDBRANCH  17  22
ENDBRANCH  14  15
ENDBRANCH   9  13
ENDBRANCH   6   7
ENDBRANCH   5   6
ENDBRANCH   2   5
BRANCH   3  33
ATOM     33  C   UNL A   1      34.843  32.011  28.039  1.00  0.00     0.116 C 
BRANCH  33  34
ATOM     34  C   UNL A   1      35.151  33.674  28.050  1.00  0.00     0.023 C 
BRANCH  34  35
ATOM     35  C   UNL A   1      34.541  34.875  28.870  1.00  0.00     0.023 C 
BRANCH  35  36
ATOM     36  C   UNL A   1      33.226  34.628  29.591  1.00  0.00     0.116 C 
BRANCH  36  37
ATOM     37  N   UNL A   1      33.094  35.496  30.764  1.00  0.00    -0.352 N 
ATOM     38  C   UNL A   1      33.558  35.295  32.050  1.00  0.00     0.251 C 
ATOM     39  H   UNL A   1      32.608  36.339  30.616  1.00  0.00     0.163 HD
ATOM     40  O   UNL A   1      33.078  35.868  33.002  1.00  0.00    -0.269 OA
BRANCH  38  41
ATOM     41  C   UNL A   1      34.675  34.355  32.217  1.00  0.00     0.039 A 
ATOM     42  C   UNL A   1      34.489  32.986  32.041  1.00  0.00     0.014 A 
ATOM     43  C   UNL A   1      35.935  34.898  32.458  1.00  0.00     0.014 A 
ATOM     44  C   UNL A   1      35.613  32.171  32.029  1.00  0.00     0.010 A 
ATOM     45  C   UNL A   1      37.045  34.125  32.263  1.00  0.00     0.010 A 
ATOM     46  C   UNL A   1      36.891  32.755  32.111  1.00  0.00    -0.014 A 
BRANCH  46  47
ATOM     47  C   UNL A   1      38.080  31.940  31.924  1.00  0.00     0.031 A 
ATOM     48  C   UNL A   1      38.773  31.605  33.192  1.00  0.00     0.074 A 
ATOM     49  C   UNL A   1      38.436  31.398  30.740  1.00  0.00     0.049 A 
ATOM     50  N   UNL A   1      39.838  32.163  33.661  1.00  0.00    -0.248 NA
ATOM     51  C   UNL A   1      38.119  30.687  34.139  1.00  0.00     0.031 C 
ATOM     52  C   UNL A   1      37.660  31.359  29.493  1.00  0.00     0.029 A 
ATOM     53  N   UNL A   1      39.555  30.690  30.417  1.00  0.00    -0.354 N 
ATOM     54  C   UNL A   1      40.145  31.461  34.823  1.00  0.00     0.074 A 
ATOM     55  C   UNL A   1      38.948  30.754  35.185  1.00  0.00     0.031 C 
ATOM     56  C   UNL A   1      38.213  30.473  28.638  1.00  0.00     0.029 A 
ATOM     57  C   UNL A   1      39.485  30.049  29.185  1.00  0.00     0.049 A 
ATOM     58  H   UNL A   1      40.344  30.635  31.005  1.00  0.00     0.167 HD
ATOM     59  C   UNL A   1      41.450  31.258  35.156  1.00  0.00     0.037 A 
ATOM     60  C   UNL A   1      40.424  29.245  28.634  1.00  0.00     0.037 A 
ATOM     61  C   UNL A   1      42.304  32.105  34.358  1.00  0.00     0.049 A 
ATOM     62  C   UNL A   1      41.719  29.580  29.266  1.00  0.00     0.074 A 
ATOM     63  C   UNL A   1      42.668  33.432  34.319  1.00  0.00     0.029 A 
ATOM     64  N   UNL A   1      42.604  31.565  33.135  1.00  0.00    -0.354 N 
ATOM     65  N   UNL A   1      42.318  30.726  29.106  1.00  0.00    -0.248 NA
ATOM     66  C   UNL A   1      42.201  28.769  30.378  1.00  0.00     0.031 C 
ATOM     67  C   UNL A   1      43.082  33.697  32.977  1.00  0.00     0.029 A 
ATOM     68  C   UNL A   1      43.004  32.518  32.241  1.00  0.00     0.049 A 
ATOM     69  H   UNL A   1      42.539  30.606  32.926  1.00  0.00     0.167 HD
ATOM     70  C   UNL A   1      42.929  30.961  30.320  1.00  0.00     0.074 A 
ATOM     71  C   UNL A   1      42.982  29.667  30.987  1.00  0.00     0.031 C 
ATOM     72  C   UNL A   1      43.020  32.224  30.825  1.00  0.00     0.037 A 
BRANCH  59  73
ATOM     73  C   UNL A   1      42.010  29.977  35.753  1.00  0.00     0.057 A 
ATOM     74  C   UNL A   1      43.016  30.081  36.737  1.00  0.00     0.134 A 
ATOM     75  C   UNL A   1      41.859  28.690  35.201  1.00  0.00     0.134 A 
ATOM     76  F   UNL A   1      43.266  31.250  37.348  1.00  0.00    -0.206 F 
ATOM     77  C   UNL A   1      43.860  29.014  37.071  1.00  0.00     0.040 A 
ATOM     78  C   UNL A   1      42.667  27.606  35.561  1.00  0.00     0.040 A 
ATOM     79  F   UNL A   1      40.997  28.419  34.216  1.00  0.00    -0.206 F 
ATOM     80  C   UNL A   1      43.695  27.773  36.473  1.00  0.00     0.006 A 
ENDBRANCH  59  73
BRANCH  60  81
ATOM     81  C   UNL A   1      40.253  28.065  27.766  1.00  0.00     0.057 A 
ATOM     82  C   UNL A   1      40.944  27.960  26.551  1.00  0.00     0.134 A 
ATOM     83  C   UNL A   1      39.661  26.885  28.253  1.00  0.00     0.134 A 
ATOM     84  F   UNL A   1      41.556  29.028  26.023  1.00  0.00    -0.206 F 
ATOM     85  C   UNL A   1      41.089  26.738  25.884  1.00  0.00     0.040 A 
ATOM     86  C   UNL A   1      39.799  25.660  27.595  1.00  0.00     0.040 A 
ATOM     87  F   UNL A   1      39.015  26.869  29.429  1.00  0.00    -0.206 F 
ATOM     88  C   UNL A   1      40.533  25.579  26.417  1.00  0.00     0.006 A 
ENDBRANCH  60  81
BRANCH  72  89
ATOM     89  C   UNL A   1      42.982  33.365  29.859  1.00  0.00     0.057 A 
ATOM     90  C   UNL A   1      44.035  33.737  29.013  1.00  0.00     0.134 A 
ATOM     91  C   UNL A   1      41.784  34.079  29.738  1.00  0.00     0.134 A 
ATOM     92  F   UNL A   1      45.197  33.069  29.015  1.00  0.00    -0.206 F 
ATOM     93  C   UNL A   1      43.905  34.794  28.106  1.00  0.00     0.040 A 
ATOM     94  C   UNL A   1      41.631  35.115  28.818  1.00  0.00     0.040 A 
ATOM     95  F   UNL A   1      40.726  33.753  30.498  1.00  0.00    -0.206 F 
ATOM     96  C   UNL A   1      42.697  35.483  28.003  1.00  0.00     0.006 A 
ENDBRANCH  72  89
ENDBRANCH  46  47
ENDBRANCH  38  41
ENDBRANCH  36  37
ENDBRANCH  35  36
ENDBRANCH  34  35
ENDBRANCH  33  34
ENDBRANCH   3  33
TORSDOF 18
ENDMDL
MODEL 3
REMARK VINA RESULT:     -12.7      3.617      7.523
REMARK SMILES O=C(COc1ccccc1/C=N/N1[C@@H](S)N=N[C@H]1[C@@H]1C=C(c2ccccc2)N=N1)NCCCCNC(=O)c1ccc(-c2c3nc(c(-c4c(F)cccc4F)c4ccc([nH]4)c(-c4c(F)cccc4F)c4nc(c(-c5c(F)cccc5F)c5ccc2[nH]5)C=C4)C=C3)cc1
REMARK SMILES IDX 1 1 2 2 30 3 3 5 4 6 5 7 6 8 10 9 7 10 9 11 8 12 11 13 12 14
REMARK SMILES IDX 13 15 14 16 18 17 16 18 17 19 15 20 19 22 20 23 29 24 21 25
REMARK SMILES IDX 28 26 22 27 23 28 27 29 24 30 26 31 25 32 31 33 32 34 33 35
REMARK SMILES IDX 34 36 35 37 36 38 37 40 38 41 39 42 91 43 40 44 90 45 41 46
REMARK SMILES IDX 42 47 43 48 84 49 44 50 89 51 83 52 85 53 45 54 88 55 82 56
REMARK SMILES IDX 81 57 46 59 72 60 55 61 71 62 56 63 59 64 70 65 86 66 57 67
REMARK SMILES IDX 58 68 69 70 87 71 60 72 47 73 48 74 53 75 49 76 50 77 52 78
REMARK SMILES IDX 54 79 51 80 73 81 74 82 79 83 75 84 76 85 78 86 80 87 77 88
REMARK SMILES IDX 61 89 62 90 67 91 63 92 64 93 66 94 68 95 65 96
REMARK H PARENT 30 4 15 21 35 39 85 58 59 69
REMARK Flexibility Score: inf
ROOT
ATOM      1  O   UNL A   1      32.422  29.380  27.091  1.00  0.00    -0.271 OA
ATOM      2  C   UNL A   1      32.344  30.556  26.724  1.00  0.00     0.257 C 
ATOM      3  N   UNL A   1      33.099  31.723  27.155  1.00  0.00    -0.353 N 
ATOM      4  H   UNL A   1      32.696  32.492  26.693  1.00  0.00     0.163 HD
ENDROOT
BRANCH   2   5
ATOM      5  C   UNL A   1      31.183  30.622  25.706  1.00  0.00     0.329 C 
BRANCH   5   6
ATOM      6  O   UNL A   1      31.381  29.780  24.571  1.00  0.00    -0.483 OA
BRANCH   6   7
ATOM      7  C   UNL A   1      30.198  29.736  23.889  1.00  0.00     0.128 A 
ATOM      8  C   UNL A   1      29.419  30.900  23.968  1.00  0.00     0.047 A 
ATOM      9  C   UNL A   1      29.764  28.534  23.283  1.00  0.00     0.037 A 
ATOM     10  C   UNL A   1      28.141  30.884  23.448  1.00  0.00     0.004 A 
ATOM     11  C   UNL A   1      28.461  28.527  22.795  1.00  0.00     0.013 A 
ATOM     12  C   UNL A   1      27.666  29.703  22.865  1.00  0.00     0.001 A 
BRANCH   9  13
ATOM     13  C   UNL A   1      30.691  27.327  23.418  1.00  0.00     0.145 C 
ATOM     14  N   UNL A   1      31.607  27.178  24.353  1.00  0.00    -0.180 NA
BRANCH  14  15
ATOM     15  N   UNL A   1      32.736  26.407  23.899  1.00  0.00    -0.233 NA
ATOM     16  C   UNL A   1      33.144  26.565  22.493  1.00  0.00     0.298 C 
ATOM     17  C   UNL A   1      32.818  24.787  23.934  1.00  0.00     0.274 C 
ATOM     18  N   UNL A   1      34.054  25.433  22.156  1.00  0.00    -0.153 NA
ATOM     19  N   UNL A   1      33.916  24.469  22.966  1.00  0.00    -0.161 NA
BRANCH  16  20
ATOM     20  S   UNL A   1      33.800  28.236  22.181  1.00  0.00    -0.128 SA
ATOM     21  H   UNL A   1      34.742  28.536  23.115  1.00  0.00     0.106 HD
ENDBRANCH  16  20
BRANCH  17  22
ATOM     22  C   UNL A   1      32.678  23.327  25.081  1.00  0.00     0.202 C 
ATOM     23  C   UNL A   1      33.498  22.000  25.088  1.00  0.00     0.037 C 
ATOM     24  N   UNL A   1      31.305  22.654  25.179  1.00  0.00    -0.177 NA
ATOM     25  C   UNL A   1      32.699  20.939  24.944  1.00  0.00     0.091 C 
ATOM     26  N   UNL A   1      31.390  21.362  25.049  1.00  0.00    -0.155 NA
BRANCH  25  27
ATOM     27  C   UNL A   1      33.221  19.606  24.392  1.00  0.00     0.002 A 
ATOM     28  C   UNL A   1      32.490  18.841  23.446  1.00  0.00     0.010 A 
ATOM     29  C   UNL A   1      34.451  19.032  24.697  1.00  0.00     0.010 A 
ATOM     30  C   UNL A   1      32.821  17.581  22.932  1.00  0.00     0.001 A 
ATOM     31  C   UNL A   1      34.846  17.775  24.146  1.00  0.00     0.001 A 
ATOM     32  C   UNL A   1      34.023  17.036  23.292  1.00  0.00     0.000 A 
ENDBRANCH  25  27
ENDBRANCH  17  22
ENDBRANCH  14  15
ENDBRANCH   9  13
ENDBRANCH   6   7
ENDBRANCH   5   6
ENDBRANCH   2   5
BRANCH   3  33
ATOM     33  C   UNL A   1      34.339  32.343  28.080  1.00  0.00     0.116 C 
BRANCH  33  34
ATOM     34  C   UNL A   1      34.673  32.757  29.686  1.00  0.00     0.023 C 
BRANCH  34  35
ATOM     35  C   UNL A   1      35.242  31.942  30.910  1.00  0.00     0.023 C 
BRANCH  35  36
ATOM     36  C   UNL A   1      36.202  30.804  30.603  1.00  0.00     0.116 C 
BRANCH  36  37
ATOM     37  N   UNL A   1      35.663  29.921  29.567  1.00  0.00    -0.352 N 
ATOM     38  C   UNL A   1      36.318  29.320  28.509  1.00  0.00     0.251 C 
ATOM     39  H   UNL A   1      34.699  29.729  29.633  1.00  0.00     0.163 HD
ATOM     40  O   UNL A   1      35.730  28.940  27.523  1.00  0.00    -0.269 OA
BRANCH  38  41
ATOM     41  C   UNL A   1      37.773  29.153  28.634  1.00  0.00     0.039 A 
ATOM     42  C   UNL A   1      38.318  28.375  29.653  1.00  0.00     0.014 A 
ATOM     43  C   UNL A   1      38.568  29.719  27.640  1.00  0.00     0.014 A 
ATOM     44  C   UNL A   1      39.678  28.104  29.610  1.00  0.00     0.010 A 
ATOM     45  C   UNL A   1      39.862  29.302  27.499  1.00  0.00     0.010 A 
ATOM     46  C   UNL A   1      40.437  28.548  28.512  1.00  0.00    -0.014 A 
BRANCH  46  47
ATOM     47  C   UNL A   1      41.820  28.126  28.360  1.00  0.00     0.031 A 
ATOM     48  C   UNL A   1      41.972  26.859  27.603  1.00  0.00     0.074 A 
ATOM     49  C   UNL A   1      42.878  28.884  28.720  1.00  0.00     0.049 A 
ATOM     50  N   UNL A   1      42.192  25.687  28.095  1.00  0.00    -0.248 NA
ATOM     51  C   UNL A   1      41.660  26.849  26.164  1.00  0.00     0.031 C 
ATOM     52  C   UNL A   1      42.878  30.288  29.152  1.00  0.00     0.029 A 
ATOM     53  N   UNL A   1      44.205  28.576  28.704  1.00  0.00    -0.354 N 
ATOM     54  C   UNL A   1      42.334  24.843  26.997  1.00  0.00     0.074 A 
ATOM     55  C   UNL A   1      41.764  25.546  25.882  1.00  0.00     0.031 C 
ATOM     56  C   UNL A   1      44.137  30.775  29.125  1.00  0.00     0.029 A 
ATOM     57  C   UNL A   1      45.044  29.671  28.884  1.00  0.00     0.049 A 
ATOM     58  H   UNL A   1      44.542  27.660  28.574  1.00  0.00     0.167 HD
ATOM     59  C   UNL A   1      43.223  23.812  27.056  1.00  0.00     0.037 A 
ATOM     60  C   UNL A   1      46.396  29.668  28.867  1.00  0.00     0.037 A 
ATOM     61  C   UNL A   1      43.653  23.606  28.419  1.00  0.00     0.049 A 
ATOM     62  C   UNL A   1      46.840  28.289  29.168  1.00  0.00     0.074 A 
ATOM     63  C   UNL A   1      43.147  23.048  29.571  1.00  0.00     0.029 A 
ATOM     64  N   UNL A   1      44.687  24.428  28.786  1.00  0.00    -0.354 N 
ATOM     65  N   UNL A   1      46.653  27.713  30.322  1.00  0.00    -0.248 NA
ATOM     66  C   UNL A   1      47.188  27.396  28.068  1.00  0.00     0.031 C 
ATOM     67  C   UNL A   1      43.837  23.669  30.657  1.00  0.00     0.029 A 
ATOM     68  C   UNL A   1      44.779  24.557  30.143  1.00  0.00     0.049 A 
ATOM     69  H   UNL A   1      45.289  24.873  28.148  1.00  0.00     0.167 HD
ATOM     70  C   UNL A   1      46.436  26.388  30.007  1.00  0.00     0.074 A 
ATOM     71  C   UNL A   1      46.953  26.219  28.655  1.00  0.00     0.031 C 
ATOM     72  C   UNL A   1      45.551  25.635  30.720  1.00  0.00     0.037 A 
BRANCH  59  73
ATOM     73  C   UNL A   1      44.114  23.361  25.911  1.00  0.00     0.057 A 
ATOM     74  C   UNL A   1      44.163  21.985  25.604  1.00  0.00     0.134 A 
ATOM     75  C   UNL A   1      45.140  24.130  25.328  1.00  0.00     0.134 A 
ATOM     76  F   UNL A   1      43.244  21.136  26.091  1.00  0.00    -0.206 F 
ATOM     77  C   UNL A   1      45.203  21.413  24.857  1.00  0.00     0.040 A 
ATOM     78  C   UNL A   1      46.157  23.575  24.544  1.00  0.00     0.040 A 
ATOM     79  F   UNL A   1      45.286  25.439  25.557  1.00  0.00    -0.206 F 
ATOM     80  C   UNL A   1      46.212  22.208  24.334  1.00  0.00     0.006 A 
ENDBRANCH  59  73
BRANCH  60  81
ATOM     81  C   UNL A   1      47.329  30.710  28.398  1.00  0.00     0.057 A 
ATOM     82  C   UNL A   1      47.256  31.204  27.088  1.00  0.00     0.134 A 
ATOM     83  C   UNL A   1      48.096  31.461  29.307  1.00  0.00     0.134 A 
ATOM     84  F   UNL A   1      46.530  30.564  26.161  1.00  0.00    -0.206 F 
ATOM     85  C   UNL A   1      47.862  32.408  26.715  1.00  0.00     0.040 A 
ATOM     86  C   UNL A   1      48.706  32.666  28.945  1.00  0.00     0.040 A 
ATOM     87  F   UNL A   1      48.193  31.099  30.595  1.00  0.00    -0.206 F 
ATOM     88  C   UNL A   1      48.573  33.154  27.650  1.00  0.00     0.006 A 
ENDBRANCH  60  81
BRANCH  72  89
ATOM     89  C   UNL A   1      45.258  26.049  32.126  1.00  0.00     0.057 A 
ATOM     90  C   UNL A   1      44.157  26.818  32.526  1.00  0.00     0.134 A 
ATOM     91  C   UNL A   1      46.109  25.580  33.134  1.00  0.00     0.134 A 
ATOM     92  F   UNL A   1      43.256  27.256  31.636  1.00  0.00    -0.206 F 
ATOM     93  C   UNL A   1      43.933  27.128  33.871  1.00  0.00     0.040 A 
ATOM     94  C   UNL A   1      45.879  25.856  34.482  1.00  0.00     0.040 A 
ATOM     95  F   UNL A   1      47.165  24.812  32.823  1.00  0.00    -0.206 F 
ATOM     96  C   UNL A   1      44.793  26.641  34.854  1.00  0.00     0.006 A 
ENDBRANCH  72  89
ENDBRANCH  46  47
ENDBRANCH  38  41
ENDBRANCH  36  37
ENDBRANCH  35  36
ENDBRANCH  34  35
ENDBRANCH  33  34
ENDBRANCH   3  33
TORSDOF 18
ENDMDL
