MODEL 1
REMARK VINA RESULT:      -8.9      0.000      0.000
REMARK SMILES C[N@@H+]1CCC[C@@H](C[NH2+]CC(=O)NCCCCNC(=O)c2ccc(-c3c4nc(c(-c5c(F)cccc5F)c5ccc([nH]5)c(-c5c(F)cccc5F)c5nc(c(-c6c(F)cccc6F)c6ccc3[nH]6)C=C5)C=C4)cc2)C1
REMARK SMILES IDX 14 1 13 2 12 3 10 4 11 5 9 7 8 8 7 11 6 12 1 13 2 14 3 15
REMARK SMILES IDX 74 16 4 18 5 19 15 20 16 21 17 22 18 23 19 25 20 26 21 27
REMARK SMILES IDX 73 28 22 29 72 30 23 31 24 32 25 33 66 34 26 35 71 36 65 37
REMARK SMILES IDX 67 38 27 39 70 40 64 41 63 42 28 44 54 45 37 46 53 47 38 48
REMARK SMILES IDX 41 49 52 50 68 51 39 52 40 53 51 55 69 56 42 57 29 58 30 59
REMARK SMILES IDX 35 60 31 61 32 62 34 63 36 64 33 65 55 66 56 67 61 68 57 69
REMARK SMILES IDX 58 70 60 71 62 72 59 73 43 74 44 75 49 76 45 77 46 78 48 79
REMARK SMILES IDX 50 80 47 81
REMARK H PARENT 12 6 8 9 8 10 2 17 17 24 67 43 41 54
REMARK Flexibility Score: inf
ROOT
ATOM      1  C   UNL A   1      44.709  22.266  24.232  1.00  0.00     0.023 C 
ENDROOT
BRANCH   1   2
ATOM      2  C   UNL A   1      45.948  23.147  24.090  1.00  0.00     0.116 C 
BRANCH   2   3
ATOM      3  N   UNL A   1      46.438  23.537  25.396  1.00  0.00    -0.351 N 
ATOM      4  C   UNL A   1      47.242  24.589  25.736  1.00  0.00     0.275 C 
ATOM      5  O   UNL A   1      47.765  24.571  26.854  1.00  0.00    -0.269 OA
ATOM      6  H   UNL A   1      46.152  22.965  26.144  1.00  0.00     0.163 HD
BRANCH   4   7
ATOM      7  C   UNL A   1      47.482  25.763  24.769  1.00  0.00     0.361 C 
BRANCH   7   8
ATOM      8  N   UNL A   1      46.914  27.036  25.274  1.00  0.00    -0.338 N 
ATOM      9  H   UNL A   1      47.035  27.072  26.287  1.00  0.00     0.346 HD
ATOM     10  H   UNL A   1      47.406  27.804  24.817  1.00  0.00     0.346 HD
BRANCH   8  11
ATOM     11  C   UNL A   1      45.491  27.161  24.963  1.00  0.00     0.270 C 
BRANCH  11  12
ATOM     12  C   UNL A   1      44.506  26.966  26.136  1.00  0.00     0.099 C 
ATOM     13  C   UNL A   1      44.051  30.503  27.388  1.00  0.00     0.332 C 
ATOM     14  N   UNL A   1      43.899  29.348  26.503  1.00  0.00    -0.337 N 
ATOM     15  C   UNL A   1      42.482  29.127  26.186  1.00  0.00     0.262 C 
ATOM     16  C   UNL A   1      44.466  28.142  27.126  1.00  0.00     0.271 C 
ATOM     17  H   UNL A   1      44.404  29.539  25.637  1.00  0.00     0.347 HD
ATOM     18  C   UNL A   1      42.309  27.968  25.205  1.00  0.00     0.062 C 
ATOM     19  C   UNL A   1      43.075  26.702  25.606  1.00  0.00     0.021 C 
ENDBRANCH  11  12
ENDBRANCH   8  11
ENDBRANCH   7   8
ENDBRANCH   4   7
ENDBRANCH   2   3
ENDBRANCH   1   2
BRANCH   1  20
ATOM     20  C   UNL A   1      44.904  20.776  24.053  1.00  0.00     0.023 C 
BRANCH  20  21
ATOM     21  C   UNL A   1      44.576  19.955  25.284  1.00  0.00     0.116 C 
BRANCH  21  22
ATOM     22  N   UNL A   1      43.272  19.301  25.241  1.00  0.00    -0.352 N 
ATOM     23  C   UNL A   1      42.064  19.708  25.761  1.00  0.00     0.251 C 
ATOM     24  H   UNL A   1      43.253  18.437  24.768  1.00  0.00     0.163 HD
ATOM     25  O   UNL A   1      41.080  18.977  25.675  1.00  0.00    -0.269 OA
BRANCH  23  26
ATOM     26  C   UNL A   1      41.968  20.998  26.476  1.00  0.00     0.039 A 
ATOM     27  C   UNL A   1      42.155  21.023  27.860  1.00  0.00     0.014 A 
ATOM     28  C   UNL A   1      41.771  22.190  25.779  1.00  0.00     0.014 A 
ATOM     29  C   UNL A   1      42.252  22.249  28.520  1.00  0.00     0.010 A 
ATOM     30  C   UNL A   1      42.008  23.403  26.410  1.00  0.00     0.010 A 
ATOM     31  C   UNL A   1      42.242  23.449  27.790  1.00  0.00    -0.014 A 
BRANCH  31  32
ATOM     32  C   UNL A   1      42.473  24.759  28.448  1.00  0.00     0.031 A 
ATOM     33  C   UNL A   1      43.814  25.073  29.058  1.00  0.00     0.074 A 
ATOM     34  C   UNL A   1      41.455  25.636  28.563  1.00  0.00     0.049 A 
ATOM     35  N   UNL A   1      44.195  26.143  29.707  1.00  0.00    -0.248 NA
ATOM     36  C   UNL A   1      44.849  24.030  28.965  1.00  0.00     0.031 C 
ATOM     37  C   UNL A   1      40.084  25.412  28.099  1.00  0.00     0.029 A 
ATOM     38  N   UNL A   1      41.418  26.894  29.107  1.00  0.00    -0.354 N 
ATOM     39  C   UNL A   1      45.499  25.890  30.115  1.00  0.00     0.074 A 
ATOM     40  C   UNL A   1      45.818  24.541  29.709  1.00  0.00     0.031 C 
ATOM     41  C   UNL A   1      39.354  26.514  28.331  1.00  0.00     0.029 A 
ATOM     42  C   UNL A   1      40.194  27.509  28.990  1.00  0.00     0.049 A 
ATOM     43  H   UNL A   1      42.193  27.318  29.541  1.00  0.00     0.167 HD
ATOM     44  C   UNL A   1      46.368  26.719  30.740  1.00  0.00     0.037 A 
ATOM     45  C   UNL A   1      39.799  28.741  29.361  1.00  0.00     0.037 A 
ATOM     46  C   UNL A   1      46.064  28.078  31.098  1.00  0.00     0.049 A 
ATOM     47  C   UNL A   1      40.795  29.662  30.007  1.00  0.00     0.074 A 
ATOM     48  C   UNL A   1      46.897  29.031  31.657  1.00  0.00     0.029 A 
ATOM     49  N   UNL A   1      44.825  28.678  30.926  1.00  0.00    -0.354 N 
ATOM     50  N   UNL A   1      42.053  29.441  30.305  1.00  0.00    -0.248 NA
ATOM     51  C   UNL A   1      40.321  31.008  30.358  1.00  0.00     0.031 C 
ATOM     52  C   UNL A   1      46.151  30.197  31.855  1.00  0.00     0.029 A 
ATOM     53  C   UNL A   1      44.866  29.983  31.383  1.00  0.00     0.049 A 
ATOM     54  H   UNL A   1      44.034  28.239  30.538  1.00  0.00     0.167 HD
ATOM     55  C   UNL A   1      42.526  30.622  30.860  1.00  0.00     0.074 A 
ATOM     56  C   UNL A   1      41.425  31.564  30.835  1.00  0.00     0.031 C 
ATOM     57  C   UNL A   1      43.758  30.903  31.349  1.00  0.00     0.037 A 
BRANCH  44  58
ATOM     58  C   UNL A   1      47.734  26.181  31.048  1.00  0.00     0.057 A 
ATOM     59  C   UNL A   1      48.776  26.228  30.110  1.00  0.00     0.134 A 
ATOM     60  C   UNL A   1      48.020  25.621  32.299  1.00  0.00     0.134 A 
ATOM     61  F   UNL A   1      48.565  26.735  28.885  1.00  0.00    -0.206 F 
ATOM     62  C   UNL A   1      50.041  25.710  30.394  1.00  0.00     0.040 A 
ATOM     63  C   UNL A   1      49.289  25.127  32.605  1.00  0.00     0.040 A 
ATOM     64  F   UNL A   1      47.071  25.547  33.245  1.00  0.00    -0.206 F 
ATOM     65  C   UNL A   1      50.301  25.163  31.648  1.00  0.00     0.006 A 
ENDBRANCH  44  58
BRANCH  45  66
ATOM     66  C   UNL A   1      38.412  29.193  29.085  1.00  0.00     0.057 A 
ATOM     67  C   UNL A   1      38.041  29.636  27.810  1.00  0.00     0.134 A 
ATOM     68  C   UNL A   1      37.428  29.195  30.079  1.00  0.00     0.134 A 
ATOM     69  F   UNL A   1      38.945  29.673  26.818  1.00  0.00    -0.206 F 
ATOM     70  C   UNL A   1      36.747  30.083  27.537  1.00  0.00     0.040 A 
ATOM     71  C   UNL A   1      36.123  29.617  29.815  1.00  0.00     0.040 A 
ATOM     72  F   UNL A   1      37.717  28.773  31.319  1.00  0.00    -0.206 F 
ATOM     73  C   UNL A   1      35.782  30.069  28.541  1.00  0.00     0.006 A 
ENDBRANCH  45  66
BRANCH  57  74
ATOM     74  C   UNL A   1      43.980  32.288  31.878  1.00  0.00     0.057 A 
ATOM     75  C   UNL A   1      44.441  33.325  31.059  1.00  0.00     0.134 A 
ATOM     76  C   UNL A   1      43.703  32.592  33.218  1.00  0.00     0.134 A 
ATOM     77  F   UNL A   1      44.736  33.094  29.770  1.00  0.00    -0.206 F 
ATOM     78  C   UNL A   1      44.645  34.611  31.559  1.00  0.00     0.040 A 
ATOM     79  C   UNL A   1      43.878  33.880  33.722  1.00  0.00     0.040 A 
ATOM     80  F   UNL A   1      43.250  31.645  34.052  1.00  0.00    -0.206 F 
ATOM     81  C   UNL A   1      44.358  34.893  32.893  1.00  0.00     0.006 A 
ENDBRANCH  57  74
ENDBRANCH  31  32
ENDBRANCH  23  26
ENDBRANCH  21  22
ENDBRANCH  20  21
ENDBRANCH   1  20
TORSDOF 14
ENDMDL
MODEL 2
REMARK VINA RESULT:      -8.7      4.439     10.246
REMARK SMILES C[N@@H+]1CCC[C@@H](C[NH2+]CC(=O)NCCCCNC(=O)c2ccc(-c3c4nc(c(-c5c(F)cccc5F)c5ccc([nH]5)c(-c5c(F)cccc5F)c5nc(c(-c6c(F)cccc6F)c6ccc3[nH]6)C=C5)C=C4)cc2)C1
REMARK SMILES IDX 14 1 13 2 12 3 10 4 11 5 9 7 8 8 7 11 6 12 1 13 2 14 3 15
REMARK SMILES IDX 74 16 4 18 5 19 15 20 16 21 17 22 18 23 19 25 20 26 21 27
REMARK SMILES IDX 73 28 22 29 72 30 23 31 24 32 25 33 66 34 26 35 71 36 65 37
REMARK SMILES IDX 67 38 27 39 70 40 64 41 63 42 28 44 54 45 37 46 53 47 38 48
REMARK SMILES IDX 41 49 52 50 68 51 39 52 40 53 51 55 69 56 42 57 29 58 30 59
REMARK SMILES IDX 35 60 31 61 32 62 34 63 36 64 33 65 55 66 56 67 61 68 57 69
REMARK SMILES IDX 58 70 60 71 62 72 59 73 43 74 44 75 49 76 45 77 46 78 48 79
REMARK SMILES IDX 50 80 47 81
REMARK H PARENT 12 6 8 9 8 10 2 17 17 24 67 43 41 54
REMARK Flexibility Score: inf
ROOT
ATOM      1  C   UNL A   1      33.872  34.744  28.450  1.00  0.00     0.023 C 
ENDROOT
BRANCH   1   2
ATOM      2  C   UNL A   1      33.749  34.867  29.967  1.00  0.00     0.116 C 
BRANCH   2   3
ATOM      3  N   UNL A   1      33.682  36.262  30.352  1.00  0.00    -0.351 N 
ATOM      4  C   UNL A   1      33.161  36.818  31.487  1.00  0.00     0.275 C 
ATOM      5  O   UNL A   1      32.952  38.035  31.483  1.00  0.00    -0.269 OA
ATOM      6  H   UNL A   1      34.065  36.899  29.707  1.00  0.00     0.163 HD
BRANCH   4   7
ATOM      7  C   UNL A   1      32.854  35.966  32.733  1.00  0.00     0.361 C 
BRANCH   7   8
ATOM      8  N   UNL A   1      34.046  35.772  33.592  1.00  0.00    -0.338 N 
ATOM      9  H   UNL A   1      34.760  36.451  33.324  1.00  0.00     0.346 HD
ATOM     10  H   UNL A   1      33.760  35.902  34.562  1.00  0.00     0.346 HD
BRANCH   8  11
ATOM     11  C   UNL A   1      34.603  34.426  33.459  1.00  0.00     0.270 C 
BRANCH  11  12
ATOM     12  C   UNL A   1      36.069  34.327  32.985  1.00  0.00     0.099 C 
ATOM     13  C   UNL A   1      37.828  33.097  36.096  1.00  0.00     0.332 C 
ATOM     14  N   UNL A   1      36.985  33.036  34.901  1.00  0.00    -0.337 N 
ATOM     15  C   UNL A   1      37.364  31.891  34.064  1.00  0.00     0.262 C 
ATOM     16  C   UNL A   1      37.098  34.282  34.128  1.00  0.00     0.271 C 
ATOM     17  H   UNL A   1      36.017  32.920  35.199  1.00  0.00     0.347 HD
ATOM     18  C   UNL A   1      36.447  31.770  32.846  1.00  0.00     0.062 C 
ATOM     19  C   UNL A   1      36.264  33.086  32.080  1.00  0.00     0.021 C 
ENDBRANCH  11  12
ENDBRANCH   8  11
ENDBRANCH   7   8
ENDBRANCH   4   7
ENDBRANCH   2   3
ENDBRANCH   1   2
BRANCH   1  20
ATOM     20  C   UNL A   1      34.471  33.462  27.913  1.00  0.00     0.023 C 
BRANCH  20  21
ATOM     21  C   UNL A   1      34.491  32.321  28.910  1.00  0.00     0.116 C 
BRANCH  21  22
ATOM     22  N   UNL A   1      34.015  31.048  28.377  1.00  0.00    -0.352 N 
ATOM     23  C   UNL A   1      34.706  29.886  28.122  1.00  0.00     0.251 C 
ATOM     24  H   UNL A   1      33.053  31.016  28.167  1.00  0.00     0.163 HD
ATOM     25  O   UNL A   1      34.133  28.930  27.606  1.00  0.00    -0.269 OA
BRANCH  23  26
ATOM     26  C   UNL A   1      36.154  29.810  28.416  1.00  0.00     0.039 A 
ATOM     27  C   UNL A   1      36.568  29.346  29.666  1.00  0.00     0.014 A 
ATOM     28  C   UNL A   1      37.100  30.121  27.440  1.00  0.00     0.014 A 
ATOM     29  C   UNL A   1      37.922  29.093  29.893  1.00  0.00     0.010 A 
ATOM     30  C   UNL A   1      38.422  29.737  27.616  1.00  0.00     0.010 A 
ATOM     31  C   UNL A   1      38.852  29.227  28.848  1.00  0.00    -0.014 A 
BRANCH  31  32
ATOM     32  C   UNL A   1      40.275  28.841  29.022  1.00  0.00     0.031 A 
ATOM     33  C   UNL A   1      41.246  29.800  29.659  1.00  0.00     0.074 A 
ATOM     34  C   UNL A   1      40.708  27.659  28.541  1.00  0.00     0.049 A 
ATOM     35  N   UNL A   1      42.531  29.660  29.862  1.00  0.00    -0.248 NA
ATOM     36  C   UNL A   1      40.713  31.106  30.082  1.00  0.00     0.031 C 
ATOM     37  C   UNL A   1      39.887  26.682  27.820  1.00  0.00     0.029 A 
ATOM     38  N   UNL A   1      41.949  27.077  28.586  1.00  0.00    -0.354 N 
ATOM     39  C   UNL A   1      42.957  30.862  30.413  1.00  0.00     0.074 A 
ATOM     40  C   UNL A   1      41.815  31.746  30.442  1.00  0.00     0.031 C 
ATOM     41  C   UNL A   1      40.634  25.603  27.537  1.00  0.00     0.029 A 
ATOM     42  C   UNL A   1      41.991  25.823  28.025  1.00  0.00     0.049 A 
ATOM     43  H   UNL A   1      42.736  27.515  28.984  1.00  0.00     0.167 HD
ATOM     44  C   UNL A   1      44.181  31.190  30.887  1.00  0.00     0.037 A 
ATOM     45  C   UNL A   1      43.007  24.946  27.927  1.00  0.00     0.037 A 
ATOM     46  C   UNL A   1      45.304  30.291  30.903  1.00  0.00     0.049 A 
ATOM     47  C   UNL A   1      44.344  25.312  28.506  1.00  0.00     0.074 A 
ATOM     48  C   UNL A   1      46.564  30.493  31.436  1.00  0.00     0.029 A 
ATOM     49  N   UNL A   1      45.295  29.015  30.361  1.00  0.00    -0.354 N 
ATOM     50  N   UNL A   1      44.709  26.419  29.107  1.00  0.00    -0.248 NA
ATOM     51  C   UNL A   1      45.408  24.303  28.405  1.00  0.00     0.031 C 
ATOM     52  C   UNL A   1      47.329  29.349  31.185  1.00  0.00     0.029 A 
ATOM     53  C   UNL A   1      46.533  28.422  30.533  1.00  0.00     0.049 A 
ATOM     54  H   UNL A   1      44.522  28.593  29.919  1.00  0.00     0.167 HD
ATOM     55  C   UNL A   1      46.036  26.234  29.471  1.00  0.00     0.074 A 
ATOM     56  C   UNL A   1      46.403  24.899  29.045  1.00  0.00     0.031 C 
ATOM     57  C   UNL A   1      46.877  27.091  30.100  1.00  0.00     0.037 A 
BRANCH  44  58
ATOM     58  C   UNL A   1      44.356  32.570  31.450  1.00  0.00     0.057 A 
ATOM     59  C   UNL A   1      44.786  33.643  30.656  1.00  0.00     0.134 A 
ATOM     60  C   UNL A   1      44.080  32.836  32.797  1.00  0.00     0.134 A 
ATOM     61  F   UNL A   1      45.085  33.454  29.362  1.00  0.00    -0.206 F 
ATOM     62  C   UNL A   1      44.965  34.922  31.188  1.00  0.00     0.040 A 
ATOM     63  C   UNL A   1      44.226  34.117  33.333  1.00  0.00     0.040 A 
ATOM     64  F   UNL A   1      43.662  31.856  33.613  1.00  0.00    -0.206 F 
ATOM     65  C   UNL A   1      44.678  35.162  32.529  1.00  0.00     0.006 A 
ENDBRANCH  44  58
BRANCH  45  66
ATOM     66  C   UNL A   1      42.786  23.618  27.301  1.00  0.00     0.057 A 
ATOM     67  C   UNL A   1      42.400  22.515  28.071  1.00  0.00     0.134 A 
ATOM     68  C   UNL A   1      42.954  23.416  25.926  1.00  0.00     0.134 A 
ATOM     69  F   UNL A   1      42.239  22.642  29.398  1.00  0.00    -0.206 F 
ATOM     70  C   UNL A   1      42.207  21.255  27.503  1.00  0.00     0.040 A 
ATOM     71  C   UNL A   1      42.742  22.166  25.340  1.00  0.00     0.040 A 
ATOM     72  F   UNL A   1      43.314  24.434  25.132  1.00  0.00    -0.206 F 
ATOM     73  C   UNL A   1      42.374  21.080  26.131  1.00  0.00     0.006 A 
ENDBRANCH  45  66
BRANCH  57  74
ATOM     74  C   UNL A   1      48.266  26.601  30.375  1.00  0.00     0.057 A 
ATOM     75  C   UNL A   1      49.319  26.828  29.480  1.00  0.00     0.134 A 
ATOM     76  C   UNL A   1      48.559  25.917  31.563  1.00  0.00     0.134 A 
ATOM     77  F   UNL A   1      49.099  27.466  28.320  1.00  0.00    -0.206 F 
ATOM     78  C   UNL A   1      50.610  26.369  29.743  1.00  0.00     0.040 A 
ATOM     79  C   UNL A   1      49.851  25.477  31.849  1.00  0.00     0.040 A 
ATOM     80  F   UNL A   1      47.597  25.676  32.465  1.00  0.00    -0.206 F 
ATOM     81  C   UNL A   1      50.879  25.696  30.934  1.00  0.00     0.006 A 
ENDBRANCH  57  74
ENDBRANCH  31  32
ENDBRANCH  23  26
ENDBRANCH  21  22
ENDBRANCH  20  21
ENDBRANCH   1  20
TORSDOF 14
ENDMDL
MODEL 3
REMARK VINA RESULT:      -8.6      5.196     11.218
REMARK SMILES C[N@@H+]1CCC[C@@H](C[NH2+]CC(=O)NCCCCNC(=O)c2ccc(-c3c4nc(c(-c5c(F)cccc5F)c5ccc([nH]5)c(-c5c(F)cccc5F)c5nc(c(-c6c(F)cccc6F)c6ccc3[nH]6)C=C5)C=C4)cc2)C1
REMARK SMILES IDX 14 1 13 2 12 3 10 4 11 5 9 7 8 8 7 11 6 12 1 13 2 14 3 15
REMARK SMILES IDX 74 16 4 18 5 19 15 20 16 21 17 22 18 23 19 25 20 26 21 27
REMARK SMILES IDX 73 28 22 29 72 30 23 31 24 32 25 33 66 34 26 35 71 36 65 37
REMARK SMILES IDX 67 38 27 39 70 40 64 41 63 42 28 44 54 45 37 46 53 47 38 48
REMARK SMILES IDX 41 49 52 50 68 51 39 52 40 53 51 55 69 56 42 57 29 58 30 59
REMARK SMILES IDX 35 60 31 61 32 62 34 63 36 64 33 65 55 66 56 67 61 68 57 69
REMARK SMILES IDX 58 70 60 71 62 72 59 73 43 74 44 75 49 76 45 77 46 78 48 79
REMARK SMILES IDX 50 80 47 81
REMARK H PARENT 12 6 8 9 8 10 2 17 17 24 67 43 41 54
REMARK Flexibility Score: inf
ROOT
ATOM      1  C   UNL A   1      35.067  35.144  32.711  1.00  0.00     0.023 C 
ENDROOT
BRANCH   1   2
ATOM      2  C   UNL A   1      35.131  34.295  33.979  1.00  0.00     0.116 C 
BRANCH   2   3
ATOM      3  N   UNL A   1      35.499  32.933  33.650  1.00  0.00    -0.351 N 
ATOM      4  C   UNL A   1      36.649  32.256  33.946  1.00  0.00     0.275 C 
ATOM      5  O   UNL A   1      36.871  31.209  33.331  1.00  0.00    -0.269 OA
ATOM      6  H   UNL A   1      34.827  32.423  33.143  1.00  0.00     0.163 HD
BRANCH   4   7
ATOM      7  C   UNL A   1      37.631  32.768  35.016  1.00  0.00     0.361 C 
BRANCH   7   8
ATOM      8  N   UNL A   1      38.357  31.665  35.691  1.00  0.00    -0.338 N 
ATOM      9  H   UNL A   1      37.867  30.788  35.509  1.00  0.00     0.346 HD
ATOM     10  H   UNL A   1      39.307  31.640  35.320  1.00  0.00     0.346 HD
BRANCH   8  11
ATOM     11  C   UNL A   1      38.439  31.868  37.137  1.00  0.00     0.270 C 
BRANCH  11  12
ATOM     12  C   UNL A   1      37.616  33.037  37.719  1.00  0.00     0.099 C 
ATOM     13  C   UNL A   1      36.547  31.662  41.074  1.00  0.00     0.332 C 
ATOM     14  N   UNL A   1      37.441  32.228  40.063  1.00  0.00    -0.337 N 
ATOM     15  C   UNL A   1      38.169  33.380  40.609  1.00  0.00     0.262 C 
ATOM     16  C   UNL A   1      36.680  32.635  38.872  1.00  0.00     0.271 C 
ATOM     17  H   UNL A   1      38.115  31.511  39.794  1.00  0.00     0.347 HD
ATOM     18  C   UNL A   1      39.160  33.941  39.589  1.00  0.00     0.062 C 
ATOM     19  C   UNL A   1      38.552  34.173  38.201  1.00  0.00     0.021 C 
ENDBRANCH  11  12
ENDBRANCH   8  11
ENDBRANCH   7   8
ENDBRANCH   4   7
ENDBRANCH   2   3
ENDBRANCH   1   2
BRANCH   1  20
ATOM     20  C   UNL A   1      33.692  35.418  32.140  1.00  0.00     0.023 C 
BRANCH  20  21
ATOM     21  C   UNL A   1      33.701  36.253  30.874  1.00  0.00     0.116 C 
BRANCH  21  22
ATOM     22  N   UNL A   1      32.872  35.720  29.798  1.00  0.00    -0.352 N 
ATOM     23  C   UNL A   1      33.106  34.664  28.945  1.00  0.00     0.251 C 
ATOM     24  H   UNL A   1      32.017  36.187  29.659  1.00  0.00     0.163 HD
ATOM     25  O   UNL A   1      32.305  34.408  28.050  1.00  0.00    -0.269 OA
BRANCH  23  26
ATOM     26  C   UNL A   1      34.351  33.877  29.073  1.00  0.00     0.039 A 
ATOM     27  C   UNL A   1      35.518  34.351  28.469  1.00  0.00     0.014 A 
ATOM     28  C   UNL A   1      34.389  32.717  29.847  1.00  0.00     0.014 A 
ATOM     29  C   UNL A   1      36.735  33.721  28.733  1.00  0.00     0.010 A 
ATOM     30  C   UNL A   1      35.613  32.181  30.222  1.00  0.00     0.010 A 
ATOM     31  C   UNL A   1      36.800  32.669  29.662  1.00  0.00    -0.014 A 
BRANCH  31  32
ATOM     32  C   UNL A   1      38.097  32.067  30.061  1.00  0.00     0.031 A 
ATOM     33  C   UNL A   1      38.995  32.782  31.036  1.00  0.00     0.074 A 
ATOM     34  C   UNL A   1      38.500  30.913  29.491  1.00  0.00     0.049 A 
ATOM     35  N   UNL A   1      40.178  32.436  31.475  1.00  0.00    -0.248 NA
ATOM     36  C   UNL A   1      38.523  34.078  31.551  1.00  0.00     0.031 C 
ATOM     37  C   UNL A   1      37.765  30.171  28.463  1.00  0.00     0.029 A 
ATOM     38  N   UNL A   1      39.629  30.162  29.695  1.00  0.00    -0.354 N 
ATOM     39  C   UNL A   1      40.594  33.478  32.294  1.00  0.00     0.074 A 
ATOM     40  C   UNL A   1      39.576  34.501  32.233  1.00  0.00     0.031 C 
ATOM     41  C   UNL A   1      38.436  29.047  28.166  1.00  0.00     0.029 A 
ATOM     42  C   UNL A   1      39.663  29.005  28.954  1.00  0.00     0.049 A 
ATOM     43  H   UNL A   1      40.347  30.426  30.314  1.00  0.00     0.167 HD
ATOM     44  C   UNL A   1      41.707  33.562  33.060  1.00  0.00     0.037 A 
ATOM     45  C   UNL A   1      40.576  28.017  28.924  1.00  0.00     0.037 A 
ATOM     46  C   UNL A   1      42.694  32.521  33.158  1.00  0.00     0.049 A 
ATOM     47  C   UNL A   1      41.778  28.107  29.820  1.00  0.00     0.074 A 
ATOM     48  C   UNL A   1      43.815  32.468  33.967  1.00  0.00     0.029 A 
ATOM     49  N   UNL A   1      42.673  31.346  32.422  1.00  0.00    -0.354 N 
ATOM     50  N   UNL A   1      42.114  29.058  30.660  1.00  0.00    -0.248 NA
ATOM     51  C   UNL A   1      42.723  26.983  29.776  1.00  0.00     0.031 C 
ATOM     52  C   UNL A   1      44.491  31.274  33.694  1.00  0.00     0.029 A 
ATOM     53  C   UNL A   1      43.770  30.567  32.745  1.00  0.00     0.049 A 
ATOM     54  H   UNL A   1      41.980  31.103  31.765  1.00  0.00     0.167 HD
ATOM     55  C   UNL A   1      43.295  28.640  31.255  1.00  0.00     0.074 A 
ATOM     56  C   UNL A   1      43.606  27.339  30.698  1.00  0.00     0.031 C 
ATOM     57  C   UNL A   1      44.059  29.275  32.178  1.00  0.00     0.037 A 
BRANCH  44  58
ATOM     58  C   UNL A   1      41.895  34.812  33.868  1.00  0.00     0.057 A 
ATOM     59  C   UNL A   1      42.606  35.914  33.370  1.00  0.00     0.134 A 
ATOM     60  C   UNL A   1      41.351  34.925  35.154  1.00  0.00     0.134 A 
ATOM     61  F   UNL A   1      43.168  35.866  32.153  1.00  0.00    -0.206 F 
ATOM     62  C   UNL A   1      42.794  37.069  34.132  1.00  0.00     0.040 A 
ATOM     63  C   UNL A   1      41.508  36.085  35.914  1.00  0.00     0.040 A 
ATOM     64  F   UNL A   1      40.658  33.909  35.691  1.00  0.00    -0.206 F 
ATOM     65  C   UNL A   1      42.239  37.158  35.406  1.00  0.00     0.006 A 
ENDBRANCH  44  58
BRANCH  45  66
ATOM     66  C   UNL A   1      40.363  26.832  28.054  1.00  0.00     0.057 A 
ATOM     67  C   UNL A   1      39.543  25.775  28.467  1.00  0.00     0.134 A 
ATOM     68  C   UNL A   1      40.967  26.726  26.797  1.00  0.00     0.134 A 
ATOM     69  F   UNL A   1      38.948  25.812  29.669  1.00  0.00    -0.206 F 
ATOM     70  C   UNL A   1      39.347  24.646  27.670  1.00  0.00     0.040 A 
ATOM     71  C   UNL A   1      40.762  25.612  25.980  1.00  0.00     0.040 A 
ATOM     72  F   UNL A   1      41.757  27.709  26.340  1.00  0.00    -0.206 F 
ATOM     73  C   UNL A   1      39.954  24.565  26.420  1.00  0.00     0.006 A 
ENDBRANCH  45  66
BRANCH  57  74
ATOM     74  C   UNL A   1      45.289  28.561  32.650  1.00  0.00     0.057 A 
ATOM     75  C   UNL A   1      46.532  28.749  32.034  1.00  0.00     0.134 A 
ATOM     76  C   UNL A   1      45.234  27.697  33.751  1.00  0.00     0.134 A 
ATOM     77  F   UNL A   1      46.647  29.554  30.966  1.00  0.00    -0.206 F 
ATOM     78  C   UNL A   1      47.673  28.081  32.479  1.00  0.00     0.040 A 
ATOM     79  C   UNL A   1      46.373  27.044  34.222  1.00  0.00     0.040 A 
ATOM     80  F   UNL A   1      44.075  27.482  34.391  1.00  0.00    -0.206 F 
ATOM     81  C   UNL A   1      47.597  27.230  33.580  1.00  0.00     0.006 A 
ENDBRANCH  57  74
ENDBRANCH  31  32
ENDBRANCH  23  26
ENDBRANCH  21  22
ENDBRANCH  20  21
ENDBRANCH   1  20
TORSDOF 14
ENDMDL
