MODEL 1
REMARK VINA RESULT:     -12.2      0.000      0.000
REMARK SMILES CC1=C(CC(=O)NCCCCNC(=O)c2ccc(-c3c4nc(c(-c5c(F)cccc5F)c5ccc([nH]5)c(-c5c(F)cccc5F)c5nc(c(-c6c(F)cccc6F)c6ccc3[nH]6)C=C5)C=C4)cc2)c2cc(F)ccc2/C1=C\c1ccc([S@@+](C)[O-])cc1
REMARK SMILES IDX 9 1 8 2 7 3 5 4 6 5 4 7 3 8 1 9 2 10 76 11 69 12 75 13 77 14
REMARK SMILES IDX 70 15 74 16 71 17 73 18 72 19 78 20 79 21 86 22 80 23 85 24
REMARK SMILES IDX 81 25 82 26 83 27 84 28 10 29 11 30 12 31 13 32 14 34 15 35
REMARK SMILES IDX 16 36 68 37 17 38 67 39 18 40 19 41 20 42 61 43 21 44 66 45
REMARK SMILES IDX 60 46 62 47 22 48 65 49 59 50 58 51 23 53 49 54 32 55 48 56
REMARK SMILES IDX 33 57 36 58 47 59 63 60 34 61 35 62 46 64 64 65 37 66 24 67
REMARK SMILES IDX 25 68 30 69 26 70 27 71 29 72 31 73 28 74 50 75 51 76 56 77
REMARK SMILES IDX 52 78 53 79 55 80 57 81 54 82 38 83 39 84 44 85 40 86 41 87
REMARK SMILES IDX 43 88 45 89 42 90
REMARK H PARENT 7 6 12 33 62 52 36 63
REMARK Flexibility Score: inf
ROOT
ATOM      1  C   UNL A   1      32.903  29.672  25.036  1.00  0.00     0.023 C 
ENDROOT
BRANCH   1   2
ATOM      2  C   UNL A   1      31.380  29.603  24.921  1.00  0.00     0.116 C 
BRANCH   2   3
ATOM      3  N   UNL A   1      30.930  29.700  23.548  1.00  0.00    -0.356 N 
ATOM      4  C   UNL A   1      30.166  28.823  22.836  1.00  0.00     0.224 C 
ATOM      5  O   UNL A   1      29.919  29.090  21.658  1.00  0.00    -0.275 OA
ATOM      6  H   UNL A   1      31.212  30.510  23.064  1.00  0.00     0.163 HD
BRANCH   4   7
ATOM      7  C   UNL A   1      29.606  27.564  23.498  1.00  0.00     0.136 C 
BRANCH   7   8
ATOM      8  C   UNL A   1      30.660  26.593  23.921  1.00  0.00    -0.027 C 
ATOM      9  C   UNL A   1      30.289  26.460  26.453  1.00  0.00     0.045 C 
ATOM     10  C   UNL A   1      30.966  26.138  25.161  1.00  0.00    -0.039 C 
ATOM     11  C   UNL A   1      32.130  25.239  25.084  1.00  0.00    -0.014 C 
ATOM     12  C   UNL A   1      31.564  25.930  22.963  1.00  0.00    -0.011 A 
ATOM     13  C   UNL A   1      32.434  25.063  23.650  1.00  0.00    -0.010 A 
ATOM     14  C   UNL A   1      32.796  24.761  26.155  1.00  0.00     0.017 C 
ATOM     15  C   UNL A   1      31.624  26.045  21.580  1.00  0.00     0.048 A 
ATOM     16  C   UNL A   1      33.325  24.261  22.947  1.00  0.00     0.012 A 
ATOM     17  C   UNL A   1      32.560  25.276  20.894  1.00  0.00     0.123 A 
ATOM     18  C   UNL A   1      33.397  24.383  21.559  1.00  0.00     0.040 A 
ATOM     19  F   UNL A   1      32.648  25.382  19.561  1.00  0.00    -0.207 F 
BRANCH  14  20
ATOM     20  C   UNL A   1      33.984  23.907  26.088  1.00  0.00    -0.025 A 
ATOM     21  C   UNL A   1      35.253  24.455  25.859  1.00  0.00     0.013 A 
ATOM     22  C   UNL A   1      33.824  22.521  26.107  1.00  0.00     0.013 A 
ATOM     23  C   UNL A   1      36.323  23.623  25.512  1.00  0.00     0.061 A 
ATOM     24  C   UNL A   1      34.898  21.690  25.780  1.00  0.00     0.061 A 
ATOM     25  C   UNL A   1      36.142  22.236  25.435  1.00  0.00     0.152 A 
BRANCH  25  26
ATOM     26  S   UNL A   1      37.404  21.164  24.702  1.00  0.00    -0.018 S 
ATOM     27  C   UNL A   1      38.809  21.564  25.756  1.00  0.00     0.346 C 
ATOM     28  O   UNL A   1      36.979  19.682  25.002  1.00  0.00    -0.612 OA
ENDBRANCH  25  26
ENDBRANCH  14  20
ENDBRANCH   7   8
ENDBRANCH   4   7
ENDBRANCH   2   3
ENDBRANCH   1   2
BRANCH   1  29
ATOM     29  C   UNL A   1      33.548  28.492  25.765  1.00  0.00     0.023 C 
BRANCH  29  30
ATOM     30  C   UNL A   1      33.593  28.612  27.282  1.00  0.00     0.116 C 
BRANCH  30  31
ATOM     31  N   UNL A   1      33.653  29.986  27.761  1.00  0.00    -0.352 N 
ATOM     32  C   UNL A   1      34.739  30.662  28.269  1.00  0.00     0.251 C 
ATOM     33  H   UNL A   1      32.812  30.494  27.715  1.00  0.00     0.163 HD
ATOM     34  O   UNL A   1      34.616  31.798  28.715  1.00  0.00    -0.269 OA
BRANCH  32  35
ATOM     35  C   UNL A   1      36.047  29.975  28.324  1.00  0.00     0.039 A 
ATOM     36  C   UNL A   1      36.468  29.350  29.499  1.00  0.00     0.014 A 
ATOM     37  C   UNL A   1      36.892  30.037  27.212  1.00  0.00     0.014 A 
ATOM     38  C   UNL A   1      37.793  28.951  29.624  1.00  0.00     0.010 A 
ATOM     39  C   UNL A   1      38.202  29.564  27.316  1.00  0.00     0.010 A 
ATOM     40  C   UNL A   1      38.680  29.075  28.542  1.00  0.00    -0.014 A 
BRANCH  40  41
ATOM     41  C   UNL A   1      40.113  28.735  28.732  1.00  0.00     0.031 A 
ATOM     42  C   UNL A   1      41.042  29.698  29.423  1.00  0.00     0.074 A 
ATOM     43  C   UNL A   1      40.564  27.528  28.342  1.00  0.00     0.049 A 
ATOM     44  N   UNL A   1      42.320  29.571  29.684  1.00  0.00    -0.248 NA
ATOM     45  C   UNL A   1      40.463  30.972  29.878  1.00  0.00     0.031 C 
ATOM     46  C   UNL A   1      39.761  26.501  27.679  1.00  0.00     0.029 A 
ATOM     47  N   UNL A   1      41.804  26.955  28.467  1.00  0.00    -0.354 N 
ATOM     48  C   UNL A   1      42.699  30.750  30.315  1.00  0.00     0.074 A 
ATOM     49  C   UNL A   1      41.525  31.593  30.373  1.00  0.00     0.031 C 
ATOM     50  C   UNL A   1      40.516  25.407  27.492  1.00  0.00     0.029 A 
ATOM     51  C   UNL A   1      41.867  25.675  27.974  1.00  0.00     0.049 A 
ATOM     52  H   UNL A   1      42.573  27.416  28.873  1.00  0.00     0.167 HD
ATOM     53  C   UNL A   1      43.911  31.094  30.813  1.00  0.00     0.037 A 
ATOM     54  C   UNL A   1      42.902  24.819  27.903  1.00  0.00     0.037 A 
ATOM     55  C   UNL A   1      45.076  30.249  30.777  1.00  0.00     0.049 A 
ATOM     56  C   UNL A   1      44.243  25.240  28.429  1.00  0.00     0.074 A 
ATOM     57  C   UNL A   1      46.347  30.506  31.261  1.00  0.00     0.029 A 
ATOM     58  N   UNL A   1      45.109  28.977  30.227  1.00  0.00    -0.354 N 
ATOM     59  N   UNL A   1      44.586  26.360  29.015  1.00  0.00    -0.248 NA
ATOM     60  C   UNL A   1      45.343  24.277  28.275  1.00  0.00     0.031 C 
ATOM     61  C   UNL A   1      47.157  29.400  30.979  1.00  0.00     0.029 A 
ATOM     62  C   UNL A   1      46.381  28.441  30.349  1.00  0.00     0.049 A 
ATOM     63  H   UNL A   1      44.342  28.520  29.812  1.00  0.00     0.167 HD
ATOM     64  C   UNL A   1      45.937  26.236  29.306  1.00  0.00     0.074 A 
ATOM     65  C   UNL A   1      46.345  24.921  28.855  1.00  0.00     0.031 C 
ATOM     66  C   UNL A   1      46.769  27.133  29.889  1.00  0.00     0.037 A 
BRANCH  53  67
ATOM     67  C   UNL A   1      44.040  32.454  31.434  1.00  0.00     0.057 A 
ATOM     68  C   UNL A   1      44.470  33.549  30.674  1.00  0.00     0.134 A 
ATOM     69  C   UNL A   1      43.766  32.675  32.790  1.00  0.00     0.134 A 
ATOM     70  F   UNL A   1      44.752  33.404  29.370  1.00  0.00    -0.206 F 
ATOM     71  C   UNL A   1      44.623  34.816  31.240  1.00  0.00     0.040 A 
ATOM     72  C   UNL A   1      43.896  33.942  33.363  1.00  0.00     0.040 A 
ATOM     73  F   UNL A   1      43.337  31.671  33.569  1.00  0.00    -0.206 F 
ATOM     74  C   UNL A   1      44.331  35.016  32.588  1.00  0.00     0.006 A 
ENDBRANCH  53  67
BRANCH  54  75
ATOM     75  C   UNL A   1      42.711  23.480  27.294  1.00  0.00     0.057 A 
ATOM     76  C   UNL A   1      42.902  23.272  25.923  1.00  0.00     0.134 A 
ATOM     77  C   UNL A   1      42.337  22.379  28.071  1.00  0.00     0.134 A 
ATOM     78  F   UNL A   1      43.257  24.291  25.127  1.00  0.00    -0.206 F 
ATOM     79  C   UNL A   1      42.719  22.018  25.344  1.00  0.00     0.040 A 
ATOM     80  C   UNL A   1      42.173  21.112  27.509  1.00  0.00     0.040 A 
ATOM     81  F   UNL A   1      42.159  22.515  29.394  1.00  0.00    -0.206 F 
ATOM     82  C   UNL A   1      42.360  20.931  26.139  1.00  0.00     0.006 A 
ENDBRANCH  54  75
BRANCH  66  83
ATOM     83  C   UNL A   1      48.193  26.709  30.079  1.00  0.00     0.057 A 
ATOM     84  C   UNL A   1      48.583  25.999  31.222  1.00  0.00     0.134 A 
ATOM     85  C   UNL A   1      49.181  27.012  29.133  1.00  0.00     0.134 A 
ATOM     86  F   UNL A   1      47.685  25.683  32.166  1.00  0.00    -0.206 F 
ATOM     87  C   UNL A   1      49.906  25.603  31.416  1.00  0.00     0.040 A 
ATOM     88  C   UNL A   1      50.504  26.602  29.306  1.00  0.00     0.040 A 
ATOM     89  F   UNL A   1      48.867  27.675  28.010  1.00  0.00    -0.206 F 
ATOM     90  C   UNL A   1      50.869  25.898  30.452  1.00  0.00     0.006 A 
ENDBRANCH  66  83
ENDBRANCH  40  41
ENDBRANCH  32  35
ENDBRANCH  30  31
ENDBRANCH  29  30
ENDBRANCH   1  29
TORSDOF 14
ENDMDL
MODEL 2
REMARK VINA RESULT:     -12.0      3.535      4.825
REMARK SMILES CC1=C(CC(=O)NCCCCNC(=O)c2ccc(-c3c4nc(c(-c5c(F)cccc5F)c5ccc([nH]5)c(-c5c(F)cccc5F)c5nc(c(-c6c(F)cccc6F)c6ccc3[nH]6)C=C5)C=C4)cc2)c2cc(F)ccc2/C1=C\c1ccc([S@@+](C)[O-])cc1
REMARK SMILES IDX 9 1 8 2 7 3 5 4 6 5 4 7 3 8 1 9 2 10 76 11 69 12 75 13 77 14
REMARK SMILES IDX 70 15 74 16 71 17 73 18 72 19 78 20 79 21 86 22 80 23 85 24
REMARK SMILES IDX 81 25 82 26 83 27 84 28 10 29 11 30 12 31 13 32 14 34 15 35
REMARK SMILES IDX 16 36 68 37 17 38 67 39 18 40 19 41 20 42 61 43 21 44 66 45
REMARK SMILES IDX 60 46 62 47 22 48 65 49 59 50 58 51 23 53 49 54 32 55 48 56
REMARK SMILES IDX 33 57 36 58 47 59 63 60 34 61 35 62 46 64 64 65 37 66 24 67
REMARK SMILES IDX 25 68 30 69 26 70 27 71 29 72 31 73 28 74 50 75 51 76 56 77
REMARK SMILES IDX 52 78 53 79 55 80 57 81 54 82 38 83 39 84 44 85 40 86 41 87
REMARK SMILES IDX 43 88 45 89 42 90
REMARK H PARENT 7 6 12 33 62 52 36 63
REMARK Flexibility Score: inf
ROOT
ATOM      1  C   UNL A   1      31.776  30.630  26.929  1.00  0.00     0.023 C 
ENDROOT
BRANCH   1   2
ATOM      2  C   UNL A   1      32.687  30.182  25.786  1.00  0.00     0.116 C 
BRANCH   2   3
ATOM      3  N   UNL A   1      31.945  29.878  24.581  1.00  0.00    -0.356 N 
ATOM      4  C   UNL A   1      32.338  29.152  23.495  1.00  0.00     0.224 C 
ATOM      5  O   UNL A   1      31.549  29.038  22.555  1.00  0.00    -0.275 OA
ATOM      6  H   UNL A   1      31.032  30.246  24.539  1.00  0.00     0.163 HD
BRANCH   4   7
ATOM      7  C   UNL A   1      33.706  28.470  23.470  1.00  0.00     0.136 C 
BRANCH   7   8
ATOM      8  C   UNL A   1      33.660  27.026  23.854  1.00  0.00    -0.027 C 
ATOM      9  C   UNL A   1      33.977  27.131  26.395  1.00  0.00     0.045 C 
ATOM     10  C   UNL A   1      33.791  26.454  25.076  1.00  0.00    -0.039 C 
ATOM     11  C   UNL A   1      33.739  24.988  24.944  1.00  0.00    -0.014 C 
ATOM     12  C   UNL A   1      33.422  25.948  22.877  1.00  0.00    -0.011 A 
ATOM     13  C   UNL A   1      33.417  24.703  23.531  1.00  0.00    -0.010 A 
ATOM     14  C   UNL A   1      34.017  24.122  25.940  1.00  0.00     0.017 C 
ATOM     15  C   UNL A   1      33.199  26.030  21.508  1.00  0.00     0.048 A 
ATOM     16  C   UNL A   1      33.128  23.540  22.827  1.00  0.00     0.012 A 
ATOM     17  C   UNL A   1      32.965  24.851  20.805  1.00  0.00     0.123 A 
ATOM     18  C   UNL A   1      32.917  23.617  21.450  1.00  0.00     0.040 A 
ATOM     19  F   UNL A   1      32.765  24.903  19.481  1.00  0.00    -0.207 F 
BRANCH  14  20
ATOM     20  C   UNL A   1      34.017  22.664  25.805  1.00  0.00    -0.025 A 
ATOM     21  C   UNL A   1      35.151  21.983  25.346  1.00  0.00     0.013 A 
ATOM     22  C   UNL A   1      32.823  21.967  25.997  1.00  0.00     0.013 A 
ATOM     23  C   UNL A   1      35.052  20.645  24.948  1.00  0.00     0.061 A 
ATOM     24  C   UNL A   1      32.731  20.625  25.619  1.00  0.00     0.061 A 
ATOM     25  C   UNL A   1      33.829  19.968  25.049  1.00  0.00     0.152 A 
BRANCH  25  26
ATOM     26  S   UNL A   1      33.586  18.351  24.272  1.00  0.00    -0.018 S 
ATOM     27  C   UNL A   1      32.734  17.486  25.603  1.00  0.00     0.346 C 
ATOM     28  O   UNL A   1      32.566  18.555  23.095  1.00  0.00    -0.612 OA
ENDBRANCH  25  26
ENDBRANCH  14  20
ENDBRANCH   7   8
ENDBRANCH   4   7
ENDBRANCH   2   3
ENDBRANCH   1   2
BRANCH   1  29
ATOM     29  C   UNL A   1      31.330  32.091  26.863  1.00  0.00     0.023 C 
BRANCH  29  30
ATOM     30  C   UNL A   1      32.456  33.110  26.758  1.00  0.00     0.116 C 
BRANCH  30  31
ATOM     31  N   UNL A   1      32.328  34.225  27.685  1.00  0.00    -0.352 N 
ATOM     32  C   UNL A   1      33.148  34.550  28.742  1.00  0.00     0.251 C 
ATOM     33  H   UNL A   1      31.559  34.821  27.538  1.00  0.00     0.163 HD
ATOM     34  O   UNL A   1      32.863  35.477  29.493  1.00  0.00    -0.269 OA
BRANCH  32  35
ATOM     35  C   UNL A   1      34.348  33.726  28.995  1.00  0.00     0.039 A 
ATOM     36  C   UNL A   1      34.224  32.433  29.507  1.00  0.00     0.014 A 
ATOM     37  C   UNL A   1      35.611  34.291  28.798  1.00  0.00     0.014 A 
ATOM     38  C   UNL A   1      35.349  31.779  29.992  1.00  0.00     0.010 A 
ATOM     39  C   UNL A   1      36.749  33.596  29.216  1.00  0.00     0.010 A 
ATOM     40  C   UNL A   1      36.620  32.363  29.873  1.00  0.00    -0.014 A 
BRANCH  40  41
ATOM     41  C   UNL A   1      37.793  31.688  30.487  1.00  0.00     0.031 A 
ATOM     42  C   UNL A   1      38.164  31.957  31.922  1.00  0.00     0.074 A 
ATOM     43  C   UNL A   1      38.484  30.781  29.773  1.00  0.00     0.049 A 
ATOM     44  N   UNL A   1      39.147  31.458  32.629  1.00  0.00    -0.248 NA
ATOM     45  C   UNL A   1      37.324  32.915  32.659  1.00  0.00     0.031 C 
ATOM     46  C   UNL A   1      38.213  30.418  28.381  1.00  0.00     0.029 A 
ATOM     47  N   UNL A   1      39.542  29.984  30.127  1.00  0.00    -0.354 N 
ATOM     48  C   UNL A   1      39.055  32.051  33.883  1.00  0.00     0.074 A 
ATOM     49  C   UNL A   1      37.938  32.969  33.833  1.00  0.00     0.031 C 
ATOM     50  C   UNL A   1      39.055  29.441  28.012  1.00  0.00     0.029 A 
ATOM     51  C   UNL A   1      39.957  29.146  29.121  1.00  0.00     0.049 A 
ATOM     52  H   UNL A   1      39.963  30.008  31.016  1.00  0.00     0.167 HD
ATOM     53  C   UNL A   1      39.822  31.840  34.979  1.00  0.00     0.037 A 
ATOM     54  C   UNL A   1      40.961  28.252  29.089  1.00  0.00     0.037 A 
ATOM     55  C   UNL A   1      40.920  30.912  35.039  1.00  0.00     0.049 A 
ATOM     56  C   UNL A   1      41.818  28.066  30.307  1.00  0.00     0.074 A 
ATOM     57  C   UNL A   1      41.753  30.624  36.107  1.00  0.00     0.029 A 
ATOM     58  N   UNL A   1      41.336  30.115  33.983  1.00  0.00    -0.354 N 
ATOM     59  N   UNL A   1      41.723  28.640  31.481  1.00  0.00    -0.248 NA
ATOM     60  C   UNL A   1      42.930  27.111  30.190  1.00  0.00     0.031 C 
ATOM     61  C   UNL A   1      42.691  29.673  35.689  1.00  0.00     0.029 A 
ATOM     62  C   UNL A   1      42.421  29.345  34.370  1.00  0.00     0.049 A 
ATOM     63  H   UNL A   1      40.922  30.099  33.090  1.00  0.00     0.167 HD
ATOM     64  C   UNL A   1      42.754  28.113  32.245  1.00  0.00     0.074 A 
ATOM     65  C   UNL A   1      43.449  27.154  31.409  1.00  0.00     0.031 C 
ATOM     66  C   UNL A   1      43.101  28.401  33.523  1.00  0.00     0.037 A 
BRANCH  53  67
ATOM     67  C   UNL A   1      39.503  32.642  36.207  1.00  0.00     0.057 A 
ATOM     68  C   UNL A   1      38.524  32.208  37.110  1.00  0.00     0.134 A 
ATOM     69  C   UNL A   1      40.145  33.856  36.482  1.00  0.00     0.134 A 
ATOM     70  F   UNL A   1      37.869  31.056  36.903  1.00  0.00    -0.206 F 
ATOM     71  C   UNL A   1      38.195  32.954  38.244  1.00  0.00     0.040 A 
ATOM     72  C   UNL A   1      39.839  34.601  37.623  1.00  0.00     0.040 A 
ATOM     73  F   UNL A   1      41.103  34.319  35.665  1.00  0.00    -0.206 F 
ATOM     74  C   UNL A   1      38.857  34.153  38.505  1.00  0.00     0.006 A 
ENDBRANCH  53  67
BRANCH  54  75
ATOM     75  C   UNL A   1      41.219  27.476  27.853  1.00  0.00     0.057 A 
ATOM     76  C   UNL A   1      40.657  26.208  27.661  1.00  0.00     0.134 A 
ATOM     77  C   UNL A   1      42.030  27.986  26.834  1.00  0.00     0.134 A 
ATOM     78  F   UNL A   1      39.874  25.665  28.605  1.00  0.00    -0.206 F 
ATOM     79  C   UNL A   1      40.900  25.470  26.504  1.00  0.00     0.040 A 
ATOM     80  C   UNL A   1      42.263  27.269  25.660  1.00  0.00     0.040 A 
ATOM     81  F   UNL A   1      42.580  29.204  26.955  1.00  0.00    -0.206 F 
ATOM     82  C   UNL A   1      41.701  26.004  25.495  1.00  0.00     0.006 A 
ENDBRANCH  54  75
BRANCH  66  83
ATOM     83  C   UNL A   1      44.273  27.658  34.088  1.00  0.00     0.057 A 
ATOM     84  C   UNL A   1      44.099  26.425  34.728  1.00  0.00     0.134 A 
ATOM     85  C   UNL A   1      45.575  28.169  34.006  1.00  0.00     0.134 A 
ATOM     86  F   UNL A   1      42.877  25.884  34.842  1.00  0.00    -0.206 F 
ATOM     87  C   UNL A   1      45.179  25.724  35.264  1.00  0.00     0.040 A 
ATOM     88  C   UNL A   1      46.666  27.468  34.520  1.00  0.00     0.040 A 
ATOM     89  F   UNL A   1      45.808  29.338  33.390  1.00  0.00    -0.206 F 
ATOM     90  C   UNL A   1      46.468  26.243  35.154  1.00  0.00     0.006 A 
ENDBRANCH  66  83
ENDBRANCH  40  41
ENDBRANCH  32  35
ENDBRANCH  30  31
ENDBRANCH  29  30
ENDBRANCH   1  29
TORSDOF 14
ENDMDL
MODEL 3
REMARK VINA RESULT:     -12.0      3.702      5.133
REMARK SMILES CC1=C(CC(=O)NCCCCNC(=O)c2ccc(-c3c4nc(c(-c5c(F)cccc5F)c5ccc([nH]5)c(-c5c(F)cccc5F)c5nc(c(-c6c(F)cccc6F)c6ccc3[nH]6)C=C5)C=C4)cc2)c2cc(F)ccc2/C1=C\c1ccc([S@@+](C)[O-])cc1
REMARK SMILES IDX 9 1 8 2 7 3 5 4 6 5 4 7 3 8 1 9 2 10 76 11 69 12 75 13 77 14
REMARK SMILES IDX 70 15 74 16 71 17 73 18 72 19 78 20 79 21 86 22 80 23 85 24
REMARK SMILES IDX 81 25 82 26 83 27 84 28 10 29 11 30 12 31 13 32 14 34 15 35
REMARK SMILES IDX 16 36 68 37 17 38 67 39 18 40 19 41 20 42 61 43 21 44 66 45
REMARK SMILES IDX 60 46 62 47 22 48 65 49 59 50 58 51 23 53 49 54 32 55 48 56
REMARK SMILES IDX 33 57 36 58 47 59 63 60 34 61 35 62 46 64 64 65 37 66 24 67
REMARK SMILES IDX 25 68 30 69 26 70 27 71 29 72 31 73 28 74 50 75 51 76 56 77
REMARK SMILES IDX 52 78 53 79 55 80 57 81 54 82 38 83 39 84 44 85 40 86 41 87
REMARK SMILES IDX 43 88 45 89 42 90
REMARK H PARENT 7 6 12 33 62 52 36 63
REMARK Flexibility Score: inf
ROOT
ATOM      1  C   UNL A   1      31.375  30.469  25.687  1.00  0.00     0.023 C 
ENDROOT
BRANCH   1   2
ATOM      2  C   UNL A   1      32.384  29.352  25.954  1.00  0.00     0.116 C 
BRANCH   2   3
ATOM      3  N   UNL A   1      32.916  28.790  24.730  1.00  0.00    -0.356 N 
ATOM      4  C   UNL A   1      33.621  27.636  24.555  1.00  0.00     0.224 C 
ATOM      5  O   UNL A   1      34.007  27.356  23.418  1.00  0.00    -0.275 OA
ATOM      6  H   UNL A   1      32.746  29.313  23.912  1.00  0.00     0.163 HD
BRANCH   4   7
ATOM      7  C   UNL A   1      33.888  26.702  25.736  1.00  0.00     0.136 C 
BRANCH   7   8
ATOM      8  C   UNL A   1      33.685  25.257  25.411  1.00  0.00    -0.027 C 
ATOM      9  C   UNL A   1      31.178  25.166  24.890  1.00  0.00     0.045 C 
ATOM     10  C   UNL A   1      32.548  24.600  25.073  1.00  0.00    -0.039 C 
ATOM     11  C   UNL A   1      32.836  23.165  24.909  1.00  0.00    -0.014 C 
ATOM     12  C   UNL A   1      34.790  24.281  25.391  1.00  0.00    -0.011 A 
ATOM     13  C   UNL A   1      34.300  23.011  25.039  1.00  0.00    -0.010 A 
ATOM     14  C   UNL A   1      31.896  22.212  24.752  1.00  0.00     0.017 C 
ATOM     15  C   UNL A   1      36.144  24.474  25.639  1.00  0.00     0.048 A 
ATOM     16  C   UNL A   1      35.172  21.942  24.871  1.00  0.00     0.012 A 
ATOM     17  C   UNL A   1      36.999  23.382  25.521  1.00  0.00     0.123 A 
ATOM     18  C   UNL A   1      36.530  22.129  25.132  1.00  0.00     0.040 A 
ATOM     19  F   UNL A   1      38.305  23.540  25.772  1.00  0.00    -0.207 F 
BRANCH  14  20
ATOM     20  C   UNL A   1      32.169  20.778  24.638  1.00  0.00    -0.025 A 
ATOM     21  C   UNL A   1      32.411  19.999  25.776  1.00  0.00     0.013 A 
ATOM     22  C   UNL A   1      32.334  20.218  23.370  1.00  0.00     0.013 A 
ATOM     23  C   UNL A   1      32.950  18.714  25.644  1.00  0.00     0.061 A 
ATOM     24  C   UNL A   1      32.853  18.927  23.240  1.00  0.00     0.061 A 
ATOM     25  C   UNL A   1      33.209  18.184  24.373  1.00  0.00     0.152 A 
BRANCH  25  26
ATOM     26  S   UNL A   1      34.176  16.668  24.167  1.00  0.00    -0.018 S 
ATOM     27  C   UNL A   1      33.176  15.522  25.132  1.00  0.00     0.346 C 
ATOM     28  O   UNL A   1      34.066  16.254  22.656  1.00  0.00    -0.612 OA
ENDBRANCH  25  26
ENDBRANCH  14  20
ENDBRANCH   7   8
ENDBRANCH   4   7
ENDBRANCH   2   3
ENDBRANCH   1   2
BRANCH   1  29
ATOM     29  C   UNL A   1      31.376  31.599  26.718  1.00  0.00     0.023 C 
BRANCH  29  30
ATOM     30  C   UNL A   1      32.439  32.668  26.510  1.00  0.00     0.116 C 
BRANCH  30  31
ATOM     31  N   UNL A   1      32.291  33.822  27.386  1.00  0.00    -0.352 N 
ATOM     32  C   UNL A   1      33.116  34.219  28.414  1.00  0.00     0.251 C 
ATOM     33  H   UNL A   1      31.504  34.388  27.222  1.00  0.00     0.163 HD
ATOM     34  O   UNL A   1      32.814  35.172  29.125  1.00  0.00    -0.269 OA
BRANCH  32  35
ATOM     35  C   UNL A   1      34.342  33.442  28.688  1.00  0.00     0.039 A 
ATOM     36  C   UNL A   1      34.259  32.111  29.102  1.00  0.00     0.014 A 
ATOM     37  C   UNL A   1      35.582  34.083  28.612  1.00  0.00     0.014 A 
ATOM     38  C   UNL A   1      35.387  31.482  29.614  1.00  0.00     0.010 A 
ATOM     39  C   UNL A   1      36.729  33.420  29.055  1.00  0.00     0.010 A 
ATOM     40  C   UNL A   1      36.629  32.138  29.617  1.00  0.00    -0.014 A 
BRANCH  40  41
ATOM     41  C   UNL A   1      37.798  31.483  30.259  1.00  0.00     0.031 A 
ATOM     42  C   UNL A   1      38.125  31.750  31.704  1.00  0.00     0.074 A 
ATOM     43  C   UNL A   1      38.526  30.594  29.558  1.00  0.00     0.049 A 
ATOM     44  N   UNL A   1      39.098  31.265  32.435  1.00  0.00    -0.248 NA
ATOM     45  C   UNL A   1      37.246  32.686  32.424  1.00  0.00     0.031 C 
ATOM     46  C   UNL A   1      38.300  30.235  28.157  1.00  0.00     0.029 A 
ATOM     47  N   UNL A   1      39.589  29.815  29.936  1.00  0.00    -0.354 N 
ATOM     48  C   UNL A   1      38.961  31.848  33.689  1.00  0.00     0.074 A 
ATOM     49  C   UNL A   1      37.827  32.744  33.614  1.00  0.00     0.031 C 
ATOM     50  C   UNL A   1      39.170  29.277  27.805  1.00  0.00     0.029 A 
ATOM     51  C   UNL A   1      40.048  28.993  28.936  1.00  0.00     0.049 A 
ATOM     52  H   UNL A   1      39.986  29.842  30.836  1.00  0.00     0.167 HD
ATOM     53  C   UNL A   1      39.701  31.645  34.805  1.00  0.00     0.037 A 
ATOM     54  C   UNL A   1      41.070  28.119  28.926  1.00  0.00     0.037 A 
ATOM     55  C   UNL A   1      40.816  30.738  34.889  1.00  0.00     0.049 A 
ATOM     56  C   UNL A   1      41.898  27.942  30.166  1.00  0.00     0.074 A 
ATOM     57  C   UNL A   1      41.625  30.460  35.977  1.00  0.00     0.029 A 
ATOM     58  N   UNL A   1      41.276  29.957  33.840  1.00  0.00    -0.354 N 
ATOM     59  N   UNL A   1      41.759  28.506  31.340  1.00  0.00    -0.248 NA
ATOM     60  C   UNL A   1      43.031  27.010  30.074  1.00  0.00     0.031 C 
ATOM     61  C   UNL A   1      42.593  29.530  35.579  1.00  0.00     0.029 A 
ATOM     62  C   UNL A   1      42.365  29.206  34.252  1.00  0.00     0.049 A 
ATOM     63  H   UNL A   1      40.887  29.939  32.936  1.00  0.00     0.167 HD
ATOM     64  C   UNL A   1      42.780  27.994  32.129  1.00  0.00     0.074 A 
ATOM     65  C   UNL A   1      43.515  27.055  31.306  1.00  0.00     0.031 C 
ATOM     66  C   UNL A   1      43.087  28.281  33.417  1.00  0.00     0.037 A 
BRANCH  53  67
ATOM     67  C   UNL A   1      39.334  32.432  36.029  1.00  0.00     0.057 A 
ATOM     68  C   UNL A   1      39.913  33.683  36.276  1.00  0.00     0.134 A 
ATOM     69  C   UNL A   1      38.427  31.940  36.977  1.00  0.00     0.134 A 
ATOM     70  F   UNL A   1      40.791  34.210  35.409  1.00  0.00    -0.206 F 
ATOM     71  C   UNL A   1      39.604  34.417  37.422  1.00  0.00     0.040 A 
ATOM     72  C   UNL A   1      38.095  32.674  38.118  1.00  0.00     0.040 A 
ATOM     73  F   UNL A   1      37.826  30.756  36.792  1.00  0.00    -0.206 F 
ATOM     74  C   UNL A   1      38.689  33.915  38.345  1.00  0.00     0.006 A 
ENDBRANCH  53  67
BRANCH  54  75
ATOM     75  C   UNL A   1      41.377  27.356  27.693  1.00  0.00     0.057 A 
ATOM     76  C   UNL A   1      42.226  27.876  26.710  1.00  0.00     0.134 A 
ATOM     77  C   UNL A   1      40.830  26.087  27.473  1.00  0.00     0.134 A 
ATOM     78  F   UNL A   1      42.777  29.088  26.864  1.00  0.00    -0.206 F 
ATOM     79  C   UNL A   1      42.514  27.166  25.545  1.00  0.00     0.040 A 
ATOM     80  C   UNL A   1      41.128  25.355  26.322  1.00  0.00     0.040 A 
ATOM     81  F   UNL A   1      40.024  25.531  28.389  1.00  0.00    -0.206 F 
ATOM     82  C   UNL A   1      41.969  25.898  25.352  1.00  0.00     0.006 A 
ENDBRANCH  54  75
BRANCH  66  83
ATOM     83  C   UNL A   1      44.257  27.557  34.009  1.00  0.00     0.057 A 
ATOM     84  C   UNL A   1      45.559  28.050  33.852  1.00  0.00     0.134 A 
ATOM     85  C   UNL A   1      44.096  26.365  34.728  1.00  0.00     0.134 A 
ATOM     86  F   UNL A   1      45.779  29.184  33.171  1.00  0.00    -0.206 F 
ATOM     87  C   UNL A   1      46.659  27.385  34.392  1.00  0.00     0.040 A 
ATOM     88  C   UNL A   1      45.187  25.702  35.291  1.00  0.00     0.040 A 
ATOM     89  F   UNL A   1      42.873  25.852  34.926  1.00  0.00    -0.206 F 
ATOM     90  C   UNL A   1      46.473  26.210  35.120  1.00  0.00     0.006 A 
ENDBRANCH  66  83
ENDBRANCH  40  41
ENDBRANCH  32  35
ENDBRANCH  30  31
ENDBRANCH  29  30
ENDBRANCH   1  29
TORSDOF 14
ENDMDL
