MODEL 1
REMARK VINA RESULT:     -11.7      0.000      0.000
REMARK SMILES CC(C)(C)[NH2+]Cc1ccn(CC(C)(C)C(=O)NCCCCNC(=O)c2ccc(-c3c4nc(c(-c5c(F)cccc5F)c5ccc([nH]5)c(-c5c(F)cccc5F)c5nc(c(-c6c(F)cccc6F)c6ccc3[nH]6)C=C5)C=C4)cc2)c1
REMARK SMILES IDX 18 1 17 2 15 3 16 4 12 6 13 7 14 8 11 9 10 10 7 11 8 12
REMARK SMILES IDX 79 13 9 14 6 15 5 16 2 19 1 20 3 21 4 22 19 23 20 24 21 25
REMARK SMILES IDX 22 26 23 27 24 29 25 30 26 31 78 32 27 33 77 34 28 35 29 36
REMARK SMILES IDX 30 37 71 38 31 39 76 40 70 41 72 42 32 43 75 44 69 45 68 46
REMARK SMILES IDX 33 48 59 49 42 50 58 51 43 52 46 53 57 54 73 55 44 56 45 57
REMARK SMILES IDX 56 59 74 60 47 61 34 62 35 63 40 64 36 65 37 66 39 67 41 68
REMARK SMILES IDX 38 69 60 70 61 71 66 72 62 73 63 74 65 75 67 76 64 77 48 78
REMARK SMILES IDX 49 79 54 80 50 81 51 82 53 83 55 84 52 85
REMARK H PARENT 17 5 5 17 5 18 22 28 72 47 46 58
REMARK Flexibility Score: inf
ROOT
ATOM      1  C   UNL A   1      32.905  29.964  26.036  1.00  0.00     0.116 C 
ENDROOT
BRANCH   1   2
ATOM      2  N   UNL A   1      33.402  29.656  24.711  1.00  0.00    -0.356 N 
ATOM      3  C   UNL A   1      33.652  28.484  24.071  1.00  0.00     0.227 C 
ATOM      4  O   UNL A   1      34.395  28.583  23.095  1.00  0.00    -0.274 OA
ATOM      5  H   UNL A   1      33.599  30.453  24.168  1.00  0.00     0.163 HD
BRANCH   3   6
ATOM      6  C   UNL A   1      33.148  27.115  24.556  1.00  0.00     0.061 C 
ATOM      7  C   UNL A   1      33.966  26.574  25.735  1.00  0.00     0.023 C 
ATOM      8  C   UNL A   1      33.218  26.144  23.360  1.00  0.00     0.023 C 
BRANCH   6   9
ATOM      9  C   UNL A   1      31.630  27.196  24.959  1.00  0.00     0.137 C 
BRANCH   9  10
ATOM     10  N   UNL A   1      30.632  27.542  23.957  1.00  0.00    -0.353 N 
ATOM     11  C   UNL A   1      29.655  28.860  22.454  1.00  0.00     0.024 A 
ATOM     12  C   UNL A   1      28.702  27.927  22.948  1.00  0.00     0.029 A 
ATOM     13  C   UNL A   1      30.876  28.409  22.920  1.00  0.00     0.095 A 
ATOM     14  C   UNL A   1      29.359  27.070  23.808  1.00  0.00     0.086 A 
BRANCH  11  15
ATOM     15  C   UNL A   1      29.401  30.047  21.581  1.00  0.00     0.299 C 
BRANCH  15  16
ATOM     16  N   UNL A   1      29.690  31.297  22.293  1.00  0.00    -0.338 N 
ATOM     17  H   UNL A   1      30.018  31.036  23.224  1.00  0.00     0.347 HD
ATOM     18  H   UNL A   1      30.353  31.769  21.678  1.00  0.00     0.347 HD
BRANCH  16  19
ATOM     19  C   UNL A   1      28.626  32.302  22.483  1.00  0.00     0.088 C 
ATOM     20  C   UNL A   1      27.883  32.696  21.197  1.00  0.00     0.078 C 
ATOM     21  C   UNL A   1      29.123  33.561  23.205  1.00  0.00     0.078 C 
ATOM     22  C   UNL A   1      27.610  31.664  23.452  1.00  0.00     0.078 C 
ENDBRANCH  16  19
ENDBRANCH  15  16
ENDBRANCH  11  15
ENDBRANCH   9  10
ENDBRANCH   6   9
ENDBRANCH   3   6
ENDBRANCH   1   2
BRANCH   1  23
ATOM     23  C   UNL A   1      31.505  30.577  25.970  1.00  0.00     0.023 C 
BRANCH  23  24
ATOM     24  C   UNL A   1      31.394  32.014  26.502  1.00  0.00     0.023 C 
BRANCH  24  25
ATOM     25  C   UNL A   1      32.648  32.528  27.213  1.00  0.00     0.116 C 
BRANCH  25  26
ATOM     26  N   UNL A   1      32.528  33.941  27.530  1.00  0.00    -0.352 N 
ATOM     27  C   UNL A   1      33.118  34.675  28.527  1.00  0.00     0.251 C 
ATOM     28  H   UNL A   1      31.932  34.451  26.938  1.00  0.00     0.163 HD
ATOM     29  O   UNL A   1      32.626  35.752  28.844  1.00  0.00    -0.269 OA
BRANCH  27  30
ATOM     30  C   UNL A   1      34.323  34.196  29.235  1.00  0.00     0.039 A 
ATOM     31  C   UNL A   1      34.151  33.635  30.508  1.00  0.00     0.014 A 
ATOM     32  C   UNL A   1      35.608  34.386  28.716  1.00  0.00     0.014 A 
ATOM     33  C   UNL A   1      35.257  33.208  31.233  1.00  0.00     0.010 A 
ATOM     34  C   UNL A   1      36.717  33.946  29.432  1.00  0.00     0.010 A 
ATOM     35  C   UNL A   1      36.537  33.339  30.680  1.00  0.00    -0.014 A 
BRANCH  35  36
ATOM     36  C   UNL A   1      37.661  32.625  31.329  1.00  0.00     0.031 A 
ATOM     37  C   UNL A   1      37.959  31.289  30.601  1.00  0.00     0.074 A 
ATOM     38  C   UNL A   1      38.225  33.226  32.424  1.00  0.00     0.049 A 
ATOM     39  N   UNL A   1      38.526  30.205  31.031  1.00  0.00    -0.248 NA
ATOM     40  C   UNL A   1      37.504  31.113  29.189  1.00  0.00     0.031 C 
ATOM     41  C   UNL A   1      37.828  34.553  32.950  1.00  0.00     0.029 A 
ATOM     42  N   UNL A   1      39.226  32.879  33.315  1.00  0.00    -0.354 N 
ATOM     43  C   UNL A   1      38.707  29.340  29.919  1.00  0.00     0.074 A 
ATOM     44  C   UNL A   1      37.942  29.898  28.851  1.00  0.00     0.031 C 
ATOM     45  C   UNL A   1      38.500  34.851  34.084  1.00  0.00     0.029 A 
ATOM     46  C   UNL A   1      39.411  33.772  34.411  1.00  0.00     0.049 A 
ATOM     47  H   UNL A   1      39.773  32.069  33.199  1.00  0.00     0.167 HD
ATOM     48  C   UNL A   1      39.612  28.313  29.916  1.00  0.00     0.037 A 
ATOM     49  C   UNL A   1      40.210  33.634  35.520  1.00  0.00     0.037 A 
ATOM     50  C   UNL A   1      40.225  28.226  31.195  1.00  0.00     0.049 A 
ATOM     51  C   UNL A   1      41.030  32.452  35.247  1.00  0.00     0.074 A 
ATOM     52  C   UNL A   1      39.750  27.837  32.419  1.00  0.00     0.029 A 
ATOM     53  N   UNL A   1      41.389  28.936  31.357  1.00  0.00    -0.354 N 
ATOM     54  N   UNL A   1      42.022  32.428  34.408  1.00  0.00    -0.248 NA
ATOM     55  C   UNL A   1      40.678  31.180  35.887  1.00  0.00     0.031 C 
ATOM     56  C   UNL A   1      40.361  28.756  33.294  1.00  0.00     0.029 A 
ATOM     57  C   UNL A   1      41.361  29.467  32.617  1.00  0.00     0.049 A 
ATOM     58  H   UNL A   1      42.108  29.042  30.692  1.00  0.00     0.167 HD
ATOM     59  C   UNL A   1      42.149  31.085  34.163  1.00  0.00     0.074 A 
ATOM     60  C   UNL A   1      41.581  30.397  35.303  1.00  0.00     0.031 C 
ATOM     61  C   UNL A   1      42.146  30.648  32.877  1.00  0.00     0.037 A 
BRANCH  48  62
ATOM     62  C   UNL A   1      40.260  27.510  28.815  1.00  0.00     0.057 A 
ATOM     63  C   UNL A   1      41.092  28.200  27.894  1.00  0.00     0.134 A 
ATOM     64  C   UNL A   1      39.812  26.255  28.395  1.00  0.00     0.134 A 
ATOM     65  F   UNL A   1      41.643  29.383  28.211  1.00  0.00    -0.206 F 
ATOM     66  C   UNL A   1      41.305  27.756  26.587  1.00  0.00     0.040 A 
ATOM     67  C   UNL A   1      40.068  25.774  27.101  1.00  0.00     0.040 A 
ATOM     68  F   UNL A   1      39.039  25.489  29.175  1.00  0.00    -0.206 F 
ATOM     69  C   UNL A   1      40.767  26.547  26.178  1.00  0.00     0.006 A 
ENDBRANCH  48  62
BRANCH  49  70
ATOM     70  C   UNL A   1      40.434  34.276  36.877  1.00  0.00     0.057 A 
ATOM     71  C   UNL A   1      41.640  34.776  37.371  1.00  0.00     0.134 A 
ATOM     72  C   UNL A   1      39.329  34.502  37.752  1.00  0.00     0.134 A 
ATOM     73  F   UNL A   1      42.799  34.542  36.748  1.00  0.00    -0.206 F 
ATOM     74  C   UNL A   1      41.713  35.540  38.559  1.00  0.00     0.040 A 
ATOM     75  C   UNL A   1      39.376  35.298  38.901  1.00  0.00     0.040 A 
ATOM     76  F   UNL A   1      38.123  33.958  37.535  1.00  0.00    -0.206 F 
ATOM     77  C   UNL A   1      40.576  35.842  39.301  1.00  0.00     0.006 A 
ENDBRANCH  49  70
BRANCH  61  78
ATOM     78  C   UNL A   1      42.609  31.682  31.861  1.00  0.00     0.057 A 
ATOM     79  C   UNL A   1      43.908  32.206  31.935  1.00  0.00     0.134 A 
ATOM     80  C   UNL A   1      41.783  32.273  30.892  1.00  0.00     0.134 A 
ATOM     81  F   UNL A   1      44.791  31.693  32.805  1.00  0.00    -0.206 F 
ATOM     82  C   UNL A   1      44.338  33.273  31.132  1.00  0.00     0.040 A 
ATOM     83  C   UNL A   1      42.197  33.335  30.074  1.00  0.00     0.040 A 
ATOM     84  F   UNL A   1      40.538  31.845  30.700  1.00  0.00    -0.206 F 
ATOM     85  C   UNL A   1      43.480  33.849  30.202  1.00  0.00     0.006 A 
ENDBRANCH  61  78
ENDBRANCH  35  36
ENDBRANCH  27  30
ENDBRANCH  25  26
ENDBRANCH  24  25
ENDBRANCH  23  24
ENDBRANCH   1  23
TORSDOF 16
ENDMDL
MODEL 2
REMARK VINA RESULT:     -11.6      2.650      6.826
REMARK SMILES CC(C)(C)[NH2+]Cc1ccn(CC(C)(C)C(=O)NCCCCNC(=O)c2ccc(-c3c4nc(c(-c5c(F)cccc5F)c5ccc([nH]5)c(-c5c(F)cccc5F)c5nc(c(-c6c(F)cccc6F)c6ccc3[nH]6)C=C5)C=C4)cc2)c1
REMARK SMILES IDX 18 1 17 2 15 3 16 4 12 6 13 7 14 8 11 9 10 10 7 11 8 12
REMARK SMILES IDX 79 13 9 14 6 15 5 16 2 19 1 20 3 21 4 22 19 23 20 24 21 25
REMARK SMILES IDX 22 26 23 27 24 29 25 30 26 31 78 32 27 33 77 34 28 35 29 36
REMARK SMILES IDX 30 37 71 38 31 39 76 40 70 41 72 42 32 43 75 44 69 45 68 46
REMARK SMILES IDX 33 48 59 49 42 50 58 51 43 52 46 53 57 54 73 55 44 56 45 57
REMARK SMILES IDX 56 59 74 60 47 61 34 62 35 63 40 64 36 65 37 66 39 67 41 68
REMARK SMILES IDX 38 69 60 70 61 71 66 72 62 73 63 74 65 75 67 76 64 77 48 78
REMARK SMILES IDX 49 79 54 80 50 81 51 82 53 83 55 84 52 85
REMARK H PARENT 17 5 5 17 5 18 22 28 72 47 46 58
REMARK Flexibility Score: inf
ROOT
ATOM      1  C   UNL A   1      34.777  25.162  25.315  1.00  0.00     0.116 C 
ENDROOT
BRANCH   1   2
ATOM      2  N   UNL A   1      33.431  25.242  25.845  1.00  0.00    -0.356 N 
ATOM      3  C   UNL A   1      32.677  26.283  26.287  1.00  0.00     0.227 C 
ATOM      4  O   UNL A   1      31.722  25.958  26.992  1.00  0.00    -0.274 OA
ATOM      5  H   UNL A   1      32.973  24.372  25.895  1.00  0.00     0.163 HD
BRANCH   3   6
ATOM      6  C   UNL A   1      33.016  27.760  26.032  1.00  0.00     0.061 C 
ATOM      7  C   UNL A   1      34.230  28.230  26.843  1.00  0.00     0.023 C 
ATOM      8  C   UNL A   1      31.770  28.592  26.396  1.00  0.00     0.023 C 
BRANCH   6   9
ATOM      9  C   UNL A   1      33.274  28.012  24.501  1.00  0.00     0.137 C 
BRANCH   9  10
ATOM     10  N   UNL A   1      32.164  27.947  23.560  1.00  0.00    -0.353 N 
ATOM     11  C   UNL A   1      30.473  28.777  22.376  1.00  0.00     0.024 A 
ATOM     12  C   UNL A   1      30.268  27.382  22.572  1.00  0.00     0.029 A 
ATOM     13  C   UNL A   1      31.773  29.011  22.784  1.00  0.00     0.095 A 
ATOM     14  C   UNL A   1      31.374  26.883  23.230  1.00  0.00     0.086 A 
BRANCH  11  15
ATOM     15  C   UNL A   1      29.508  29.769  21.810  1.00  0.00     0.299 C 
BRANCH  15  16
ATOM     16  N   UNL A   1      29.777  31.117  22.321  1.00  0.00    -0.338 N 
ATOM     17  H   UNL A   1      30.275  31.002  23.204  1.00  0.00     0.347 HD
ATOM     18  H   UNL A   1      30.279  31.563  21.555  1.00  0.00     0.347 HD
BRANCH  16  19
ATOM     19  C   UNL A   1      28.658  32.045  22.581  1.00  0.00     0.088 C 
ATOM     20  C   UNL A   1      29.082  33.423  23.112  1.00  0.00     0.078 C 
ATOM     21  C   UNL A   1      27.587  31.439  23.496  1.00  0.00     0.078 C 
ATOM     22  C   UNL A   1      27.953  32.247  21.223  1.00  0.00     0.078 C 
ENDBRANCH  16  19
ENDBRANCH  15  16
ENDBRANCH  11  15
ENDBRANCH   9  10
ENDBRANCH   6   9
ENDBRANCH   3   6
ENDBRANCH   1   2
BRANCH   1  23
ATOM     23  C   UNL A   1      35.142  23.720  24.959  1.00  0.00     0.023 C 
BRANCH  23  24
ATOM     24  C   UNL A   1      36.338  23.138  25.729  1.00  0.00     0.023 C 
BRANCH  24  25
ATOM     25  C   UNL A   1      37.310  24.183  26.279  1.00  0.00     0.116 C 
BRANCH  25  26
ATOM     26  N   UNL A   1      38.498  23.556  26.831  1.00  0.00    -0.352 N 
ATOM     27  C   UNL A   1      39.623  24.119  27.375  1.00  0.00     0.251 C 
ATOM     28  H   UNL A   1      38.495  22.572  26.813  1.00  0.00     0.163 HD
ATOM     29  O   UNL A   1      40.646  23.449  27.455  1.00  0.00    -0.269 OA
BRANCH  27  30
ATOM     30  C   UNL A   1      39.637  25.517  27.855  1.00  0.00     0.039 A 
ATOM     31  C   UNL A   1      39.094  25.776  29.121  1.00  0.00     0.014 A 
ATOM     32  C   UNL A   1      40.071  26.572  27.045  1.00  0.00     0.014 A 
ATOM     33  C   UNL A   1      39.044  27.079  29.601  1.00  0.00     0.010 A 
ATOM     34  C   UNL A   1      40.037  27.876  27.527  1.00  0.00     0.010 A 
ATOM     35  C   UNL A   1      39.543  28.124  28.813  1.00  0.00    -0.014 A 
BRANCH  35  36
ATOM     36  C   UNL A   1      39.747  29.448  29.446  1.00  0.00     0.031 A 
ATOM     37  C   UNL A   1      38.548  30.387  29.155  1.00  0.00     0.074 A 
ATOM     38  C   UNL A   1      40.911  29.626  30.147  1.00  0.00     0.049 A 
ATOM     39  N   UNL A   1      38.477  31.682  29.141  1.00  0.00    -0.248 NA
ATOM     40  C   UNL A   1      37.234  29.791  28.766  1.00  0.00     0.031 C 
ATOM     41  C   UNL A   1      41.931  28.572  30.359  1.00  0.00     0.029 A 
ATOM     42  N   UNL A   1      41.487  30.689  30.821  1.00  0.00    -0.354 N 
ATOM     43  C   UNL A   1      37.113  32.040  28.985  1.00  0.00     0.074 A 
ATOM     44  C   UNL A   1      36.423  30.842  28.628  1.00  0.00     0.031 C 
ATOM     45  C   UNL A   1      43.007  29.060  31.016  1.00  0.00     0.029 A 
ATOM     46  C   UNL A   1      42.804  30.463  31.317  1.00  0.00     0.049 A 
ATOM     47  H   UNL A   1      41.017  31.544  30.949  1.00  0.00     0.167 HD
ATOM     48  C   UNL A   1      36.624  33.273  29.325  1.00  0.00     0.037 A 
ATOM     49  C   UNL A   1      43.681  31.350  31.891  1.00  0.00     0.037 A 
ATOM     50  C   UNL A   1      37.700  34.103  29.746  1.00  0.00     0.049 A 
ATOM     51  C   UNL A   1      42.897  32.569  32.103  1.00  0.00     0.074 A 
ATOM     52  C   UNL A   1      38.741  34.674  29.066  1.00  0.00     0.029 A 
ATOM     53  N   UNL A   1      37.973  34.101  31.091  1.00  0.00    -0.354 N 
ATOM     54  N   UNL A   1      41.998  32.707  33.030  1.00  0.00    -0.248 NA
ATOM     55  C   UNL A   1      43.061  33.691  31.172  1.00  0.00     0.031 C 
ATOM     56  C   UNL A   1      39.814  34.532  29.967  1.00  0.00     0.029 A 
ATOM     57  C   UNL A   1      39.334  34.138  31.223  1.00  0.00     0.049 A 
ATOM     58  H   UNL A   1      37.314  34.080  31.823  1.00  0.00     0.167 HD
ATOM     59  C   UNL A   1      41.262  33.761  32.552  1.00  0.00     0.074 A 
ATOM     60  C   UNL A   1      42.127  34.503  31.660  1.00  0.00     0.031 C 
ATOM     61  C   UNL A   1      39.916  33.624  32.438  1.00  0.00     0.037 A 
BRANCH  48  62
ATOM     62  C   UNL A   1      35.237  33.793  29.612  1.00  0.00     0.057 A 
ATOM     63  C   UNL A   1      34.614  34.597  28.621  1.00  0.00     0.134 A 
ATOM     64  C   UNL A   1      34.684  33.882  30.892  1.00  0.00     0.134 A 
ATOM     65  F   UNL A   1      35.007  34.545  27.338  1.00  0.00    -0.206 F 
ATOM     66  C   UNL A   1      33.640  35.551  28.924  1.00  0.00     0.040 A 
ATOM     67  C   UNL A   1      33.667  34.800  31.195  1.00  0.00     0.040 A 
ATOM     68  F   UNL A   1      35.162  33.161  31.914  1.00  0.00    -0.206 F 
ATOM     69  C   UNL A   1      33.181  35.673  30.225  1.00  0.00     0.006 A 
ENDBRANCH  48  62
BRANCH  49  70
ATOM     70  C   UNL A   1      45.143  31.446  32.290  1.00  0.00     0.057 A 
ATOM     71  C   UNL A   1      45.680  31.174  33.549  1.00  0.00     0.134 A 
ATOM     72  C   UNL A   1      46.133  31.753  31.308  1.00  0.00     0.134 A 
ATOM     73  F   UNL A   1      44.897  30.994  34.617  1.00  0.00    -0.206 F 
ATOM     74  C   UNL A   1      47.074  31.090  33.776  1.00  0.00     0.040 A 
ATOM     75  C   UNL A   1      47.512  31.623  31.504  1.00  0.00     0.040 A 
ATOM     76  F   UNL A   1      45.812  32.198  30.085  1.00  0.00    -0.206 F 
ATOM     77  C   UNL A   1      47.991  31.268  32.745  1.00  0.00     0.006 A 
ENDBRANCH  49  70
BRANCH  61  78
ATOM     78  C   UNL A   1      39.305  32.602  33.385  1.00  0.00     0.057 A 
ATOM     79  C   UNL A   1      39.387  32.794  34.772  1.00  0.00     0.134 A 
ATOM     80  C   UNL A   1      38.752  31.375  32.985  1.00  0.00     0.134 A 
ATOM     81  F   UNL A   1      39.870  33.945  35.264  1.00  0.00    -0.206 F 
ATOM     82  C   UNL A   1      38.988  31.814  35.694  1.00  0.00     0.040 A 
ATOM     83  C   UNL A   1      38.340  30.386  33.891  1.00  0.00     0.040 A 
ATOM     84  F   UNL A   1      38.591  31.084  31.697  1.00  0.00    -0.206 F 
ATOM     85  C   UNL A   1      38.470  30.600  35.256  1.00  0.00     0.006 A 
ENDBRANCH  61  78
ENDBRANCH  35  36
ENDBRANCH  27  30
ENDBRANCH  25  26
ENDBRANCH  24  25
ENDBRANCH  23  24
ENDBRANCH   1  23
TORSDOF 16
ENDMDL
MODEL 3
REMARK VINA RESULT:     -11.4      2.744      7.153
REMARK SMILES CC(C)(C)[NH2+]Cc1ccn(CC(C)(C)C(=O)NCCCCNC(=O)c2ccc(-c3c4nc(c(-c5c(F)cccc5F)c5ccc([nH]5)c(-c5c(F)cccc5F)c5nc(c(-c6c(F)cccc6F)c6ccc3[nH]6)C=C5)C=C4)cc2)c1
REMARK SMILES IDX 18 1 17 2 15 3 16 4 12 6 13 7 14 8 11 9 10 10 7 11 8 12
REMARK SMILES IDX 79 13 9 14 6 15 5 16 2 19 1 20 3 21 4 22 19 23 20 24 21 25
REMARK SMILES IDX 22 26 23 27 24 29 25 30 26 31 78 32 27 33 77 34 28 35 29 36
REMARK SMILES IDX 30 37 71 38 31 39 76 40 70 41 72 42 32 43 75 44 69 45 68 46
REMARK SMILES IDX 33 48 59 49 42 50 58 51 43 52 46 53 57 54 73 55 44 56 45 57
REMARK SMILES IDX 56 59 74 60 47 61 34 62 35 63 40 64 36 65 37 66 39 67 41 68
REMARK SMILES IDX 38 69 60 70 61 71 66 72 62 73 63 74 65 75 67 76 64 77 48 78
REMARK SMILES IDX 49 79 54 80 50 81 51 82 53 83 55 84 52 85
REMARK H PARENT 17 5 5 17 5 18 22 28 72 47 46 58
REMARK Flexibility Score: inf
ROOT
ATOM      1  C   UNL A   1      34.673  24.951  25.531  1.00  0.00     0.116 C 
ENDROOT
BRANCH   1   2
ATOM      2  N   UNL A   1      33.286  25.013  25.946  1.00  0.00    -0.356 N 
ATOM      3  C   UNL A   1      32.452  26.051  26.219  1.00  0.00     0.227 C 
ATOM      4  O   UNL A   1      31.459  25.747  26.880  1.00  0.00    -0.274 OA
ATOM      5  H   UNL A   1      32.866  24.129  26.052  1.00  0.00     0.163 HD
BRANCH   3   6
ATOM      6  C   UNL A   1      32.744  27.511  25.839  1.00  0.00     0.061 C 
ATOM      7  C   UNL A   1      34.089  28.002  26.389  1.00  0.00     0.023 C 
ATOM      8  C   UNL A   1      31.590  28.373  26.388  1.00  0.00     0.023 C 
BRANCH   6   9
ATOM      9  C   UNL A   1      32.715  27.692  24.276  1.00  0.00     0.137 C 
BRANCH   9  10
ATOM     10  N   UNL A   1      31.439  27.838  23.589  1.00  0.00    -0.353 N 
ATOM     11  C   UNL A   1      29.882  28.934  22.438  1.00  0.00     0.024 A 
ATOM     12  C   UNL A   1      29.272  27.864  23.149  1.00  0.00     0.029 A 
ATOM     13  C   UNL A   1      31.242  28.710  22.546  1.00  0.00     0.095 A 
ATOM     14  C   UNL A   1      30.273  27.152  23.779  1.00  0.00     0.086 A 
BRANCH  11  15
ATOM     15  C   UNL A   1      29.203  30.039  21.695  1.00  0.00     0.299 C 
BRANCH  15  16
ATOM     16  N   UNL A   1      29.651  31.351  22.174  1.00  0.00    -0.338 N 
ATOM     17  H   UNL A   1      30.622  31.241  22.468  1.00  0.00     0.347 HD
ATOM     18  H   UNL A   1      29.469  31.966  21.381  1.00  0.00     0.347 HD
BRANCH  16  19
ATOM     19  C   UNL A   1      28.942  32.013  23.287  1.00  0.00     0.088 C 
ATOM     20  C   UNL A   1      27.515  31.496  23.532  1.00  0.00     0.078 C 
ATOM     21  C   UNL A   1      28.928  33.541  23.155  1.00  0.00     0.078 C 
ATOM     22  C   UNL A   1      29.781  31.731  24.550  1.00  0.00     0.078 C 
ENDBRANCH  16  19
ENDBRANCH  15  16
ENDBRANCH  11  15
ENDBRANCH   9  10
ENDBRANCH   6   9
ENDBRANCH   3   6
ENDBRANCH   1   2
BRANCH   1  23
ATOM     23  C   UNL A   1      35.030  23.558  25.013  1.00  0.00     0.023 C 
BRANCH  23  24
ATOM     24  C   UNL A   1      36.325  22.959  25.584  1.00  0.00     0.023 C 
BRANCH  24  25
ATOM     25  C   UNL A   1      37.314  23.988  26.135  1.00  0.00     0.116 C 
BRANCH  25  26
ATOM     26  N   UNL A   1      38.478  23.340  26.713  1.00  0.00    -0.352 N 
ATOM     27  C   UNL A   1      39.626  23.883  27.230  1.00  0.00     0.251 C 
ATOM     28  H   UNL A   1      38.437  22.357  26.738  1.00  0.00     0.163 HD
ATOM     29  O   UNL A   1      40.621  23.177  27.340  1.00  0.00    -0.269 OA
BRANCH  27  30
ATOM     30  C   UNL A   1      39.695  25.298  27.648  1.00  0.00     0.039 A 
ATOM     31  C   UNL A   1      39.276  25.615  28.948  1.00  0.00     0.014 A 
ATOM     32  C   UNL A   1      40.058  26.314  26.757  1.00  0.00     0.014 A 
ATOM     33  C   UNL A   1      39.281  26.938  29.375  1.00  0.00     0.010 A 
ATOM     34  C   UNL A   1      40.079  27.638  27.185  1.00  0.00     0.010 A 
ATOM     35  C   UNL A   1      39.711  27.944  28.500  1.00  0.00    -0.014 A 
BRANCH  35  36
ATOM     36  C   UNL A   1      39.983  29.290  29.055  1.00  0.00     0.031 A 
ATOM     37  C   UNL A   1      38.662  30.072  29.273  1.00  0.00     0.074 A 
ATOM     38  C   UNL A   1      41.296  29.618  29.268  1.00  0.00     0.049 A 
ATOM     39  N   UNL A   1      38.439  31.349  29.332  1.00  0.00    -0.248 NA
ATOM     40  C   UNL A   1      37.379  29.315  29.390  1.00  0.00     0.031 C 
ATOM     41  C   UNL A   1      42.437  28.700  29.040  1.00  0.00     0.029 A 
ATOM     42  N   UNL A   1      41.955  30.751  29.710  1.00  0.00    -0.354 N 
ATOM     43  C   UNL A   1      37.086  31.536  29.718  1.00  0.00     0.074 A 
ATOM     44  C   UNL A   1      36.459  30.258  29.607  1.00  0.00     0.031 C 
ATOM     45  C   UNL A   1      43.616  29.323  29.257  1.00  0.00     0.029 A 
ATOM     46  C   UNL A   1      43.379  30.695  29.661  1.00  0.00     0.049 A 
ATOM     47  H   UNL A   1      41.472  31.545  30.036  1.00  0.00     0.167 HD
ATOM     48  C   UNL A   1      36.622  32.704  30.261  1.00  0.00     0.037 A 
ATOM     49  C   UNL A   1      44.298  31.689  29.890  1.00  0.00     0.037 A 
ATOM     50  C   UNL A   1      37.672  33.664  30.271  1.00  0.00     0.049 A 
ATOM     51  C   UNL A   1      43.517  32.805  30.427  1.00  0.00     0.074 A 
ATOM     52  C   UNL A   1      38.301  34.350  29.268  1.00  0.00     0.029 A 
ATOM     53  N   UNL A   1      38.434  33.712  31.412  1.00  0.00    -0.354 N 
ATOM     54  N   UNL A   1      43.028  32.844  31.630  1.00  0.00    -0.248 NA
ATOM     55  C   UNL A   1      43.180  33.927  29.543  1.00  0.00     0.031 C 
ATOM     56  C   UNL A   1      39.644  34.350  29.689  1.00  0.00     0.029 A 
ATOM     57  C   UNL A   1      39.728  33.917  31.019  1.00  0.00     0.049 A 
ATOM     58  H   UNL A   1      38.110  33.619  32.338  1.00  0.00     0.167 HD
ATOM     59  C   UNL A   1      42.047  33.794  31.504  1.00  0.00     0.074 A 
ATOM     60  C   UNL A   1      42.414  34.626  30.377  1.00  0.00     0.031 C 
ATOM     61  C   UNL A   1      40.785  33.493  31.904  1.00  0.00     0.037 A 
BRANCH  48  62
ATOM     62  C   UNL A   1      35.398  33.054  31.070  1.00  0.00     0.057 A 
ATOM     63  C   UNL A   1      34.621  34.165  30.649  1.00  0.00     0.134 A 
ATOM     64  C   UNL A   1      35.187  32.640  32.388  1.00  0.00     0.134 A 
ATOM     65  F   UNL A   1      34.681  34.612  29.384  1.00  0.00    -0.206 F 
ATOM     66  C   UNL A   1      33.837  34.916  31.526  1.00  0.00     0.040 A 
ATOM     67  C   UNL A   1      34.357  33.357  33.264  1.00  0.00     0.040 A 
ATOM     68  F   UNL A   1      35.838  31.591  32.906  1.00  0.00    -0.206 F 
ATOM     69  C   UNL A   1      33.725  34.526  32.850  1.00  0.00     0.006 A 
ENDBRANCH  48  62
BRANCH  49  70
ATOM     70  C   UNL A   1      45.779  31.967  29.709  1.00  0.00     0.057 A 
ATOM     71  C   UNL A   1      46.675  32.381  30.696  1.00  0.00     0.134 A 
ATOM     72  C   UNL A   1      46.404  31.717  28.450  1.00  0.00     0.134 A 
ATOM     73  F   UNL A   1      46.250  32.784  31.898  1.00  0.00    -0.206 F 
ATOM     74  C   UNL A   1      48.072  32.417  30.484  1.00  0.00     0.040 A 
ATOM     75  C   UNL A   1      47.786  31.697  28.240  1.00  0.00     0.040 A 
ATOM     76  F   UNL A   1      45.697  31.468  27.339  1.00  0.00    -0.206 F 
ATOM     77  C   UNL A   1      48.635  32.031  29.272  1.00  0.00     0.006 A 
ENDBRANCH  49  70
BRANCH  61  78
ATOM     78  C   UNL A   1      40.705  32.415  32.975  1.00  0.00     0.057 A 
ATOM     79  C   UNL A   1      41.302  32.625  34.227  1.00  0.00     0.134 A 
ATOM     80  C   UNL A   1      40.174  31.131  32.777  1.00  0.00     0.134 A 
ATOM     81  F   UNL A   1      41.814  33.826  34.535  1.00  0.00    -0.206 F 
ATOM     82  C   UNL A   1      41.401  31.614  35.195  1.00  0.00     0.040 A 
ATOM     83  C   UNL A   1      40.256  30.109  33.734  1.00  0.00     0.040 A 
ATOM     84  F   UNL A   1      39.553  30.815  31.644  1.00  0.00    -0.206 F 
ATOM     85  C   UNL A   1      40.885  30.346  34.948  1.00  0.00     0.006 A 
ENDBRANCH  61  78
ENDBRANCH  35  36
ENDBRANCH  27  30
ENDBRANCH  25  26
ENDBRANCH  24  25
ENDBRANCH  23  24
ENDBRANCH   1  23
TORSDOF 16
ENDMDL
