MODEL 1
REMARK VINA RESULT:     -12.8      0.000      0.000
REMARK SMILES Cc1cccc(S(=O)(=O)Nc2cc(C(=O)NCCCCNC(=O)c3ccc(-c4c5nc(c(-c6c(F)cccc6F)c6ccc([nH]6)c(-c6c(F)cccc6F)c6nc(c(-c7c(F)cccc7F)c7ccc4[nH]7)C=C6)C=C5)cc3)cnc2N2CCC[C@H](C)C2)c1
REMARK SMILES IDX 18 1 17 2 16 3 14 4 15 5 13 7 11 8 12 9 80 10 79 11 78 12
REMARK SMILES IDX 10 13 7 15 8 16 9 17 6 18 1 19 2 20 3 21 88 22 4 23 5 24
REMARK SMILES IDX 81 25 82 26 87 27 83 28 85 29 84 30 86 31 19 32 20 33 21 34
REMARK SMILES IDX 22 35 23 37 24 38 25 39 77 40 26 41 76 42 27 43 28 44 29 45
REMARK SMILES IDX 70 46 30 47 75 48 69 49 71 50 31 51 74 52 68 53 67 54 32 56
REMARK SMILES IDX 58 57 41 58 57 59 42 60 45 61 56 62 72 63 43 64 44 65 55 67
REMARK SMILES IDX 73 68 46 69 33 70 34 71 39 72 35 73 36 74 38 75 40 76 37 77
REMARK SMILES IDX 59 78 60 79 65 80 61 81 62 82 64 83 66 84 63 85 47 86 48 87
REMARK SMILES IDX 53 88 49 89 50 90 52 91 54 92 51 93
REMARK H PARENT 16 6 10 14 21 36 71 55 45 66
REMARK Flexibility Score: inf
ROOT
ATOM      1  C   UNL A   1      37.309  21.349  24.743  1.00  0.00     0.023 C 
ENDROOT
BRANCH   1   2
ATOM      2  C   UNL A   1      36.158  21.449  25.756  1.00  0.00     0.116 C 
BRANCH   2   3
ATOM      3  N   UNL A   1      34.859  21.206  25.140  1.00  0.00    -0.352 N 
ATOM      4  C   UNL A   1      33.809  22.025  24.798  1.00  0.00     0.252 C 
ATOM      5  O   UNL A   1      32.858  21.518  24.202  1.00  0.00    -0.269 OA
ATOM      6  H   UNL A   1      34.701  20.259  24.922  1.00  0.00     0.163 HD
BRANCH   4   7
ATOM      7  C   UNL A   1      33.781  23.483  25.057  1.00  0.00     0.060 A 
ATOM      8  C   UNL A   1      34.021  25.785  24.440  1.00  0.00     0.092 A 
ATOM      9  C   UNL A   1      34.284  24.443  24.201  1.00  0.00     0.046 A 
ATOM     10  C   UNL A   1      33.412  26.189  25.642  1.00  0.00     0.153 A 
ATOM     11  N   UNL A   1      33.006  25.269  26.540  1.00  0.00    -0.236 NA
ATOM     12  C   UNL A   1      33.166  23.951  26.219  1.00  0.00     0.127 A 
BRANCH   8  13
ATOM     13  N   UNL A   1      34.356  26.720  23.413  1.00  0.00    -0.276 N 
ATOM     14  H   UNL A   1      35.178  27.255  23.485  1.00  0.00     0.180 HD
BRANCH  13  15
ATOM     15  S   UNL A   1      33.337  26.910  22.067  1.00  0.00     0.262 S 
ATOM     16  O   UNL A   1      33.472  25.654  21.343  1.00  0.00    -0.201 OA
ATOM     17  O   UNL A   1      33.708  28.151  21.430  1.00  0.00    -0.201 OA
BRANCH  15  18
ATOM     18  C   UNL A   1      31.614  27.055  22.507  1.00  0.00     0.088 A 
ATOM     19  C   UNL A   1      28.782  29.568  23.018  1.00  0.00     0.044 C 
ATOM     20  C   UNL A   1      29.552  28.282  22.935  1.00  0.00    -0.050 A 
ATOM     21  C   UNL A   1      28.994  27.135  23.498  1.00  0.00     0.003 A 
ATOM     22  C   UNL A   1      30.835  28.212  22.362  1.00  0.00     0.025 A 
ATOM     23  C   UNL A   1      29.726  25.958  23.524  1.00  0.00     0.002 A 
ATOM     24  C   UNL A   1      31.032  25.914  23.060  1.00  0.00     0.022 A 
ENDBRANCH  15  18
ENDBRANCH  13  15
ENDBRANCH   8  13
BRANCH  10  25
ATOM     25  N   UNL A   1      33.334  27.530  25.953  1.00  0.00    -0.355 N 
ATOM     26  C   UNL A   1      34.501  28.376  26.148  1.00  0.00     0.118 C 
ATOM     27  C   UNL A   1      32.096  28.228  25.645  1.00  0.00     0.121 C 
ATOM     28  C   UNL A   1      34.245  29.250  27.383  1.00  0.00     0.022 C 
ATOM     29  C   UNL A   1      31.716  29.065  26.880  1.00  0.00     0.005 C 
ATOM     30  C   UNL A   1      32.891  29.969  27.313  1.00  0.00     0.007 C 
ATOM     31  C   UNL A   1      31.236  28.161  28.024  1.00  0.00     0.009 C 
ENDBRANCH  10  25
ENDBRANCH   4   7
ENDBRANCH   2   3
ENDBRANCH   1   2
BRANCH   1  32
ATOM     32  C   UNL A   1      38.681  21.183  25.394  1.00  0.00     0.023 C 
BRANCH  32  33
ATOM     33  C   UNL A   1      39.067  22.356  26.283  1.00  0.00     0.116 C 
BRANCH  33  34
ATOM     34  N   UNL A   1      40.501  22.596  26.369  1.00  0.00    -0.352 N 
ATOM     35  C   UNL A   1      41.196  23.780  26.572  1.00  0.00     0.251 C 
ATOM     36  H   UNL A   1      41.064  21.795  26.265  1.00  0.00     0.163 HD
ATOM     37  O   UNL A   1      42.411  23.783  26.559  1.00  0.00    -0.269 OA
BRANCH  35  38
ATOM     38  C   UNL A   1      40.454  25.010  26.963  1.00  0.00     0.039 A 
ATOM     39  C   UNL A   1      40.641  26.150  26.169  1.00  0.00     0.014 A 
ATOM     40  C   UNL A   1      39.791  25.112  28.181  1.00  0.00     0.014 A 
ATOM     41  C   UNL A   1      40.425  27.410  26.722  1.00  0.00     0.010 A 
ATOM     42  C   UNL A   1      39.673  26.353  28.768  1.00  0.00     0.010 A 
ATOM     43  C   UNL A   1      40.070  27.494  28.065  1.00  0.00    -0.014 A 
BRANCH  43  44
ATOM     44  C   UNL A   1      40.269  28.693  28.866  1.00  0.00     0.031 A 
ATOM     45  C   UNL A   1      39.198  29.687  29.038  1.00  0.00     0.074 A 
ATOM     46  C   UNL A   1      41.420  28.820  29.559  1.00  0.00     0.049 A 
ATOM     47  N   UNL A   1      39.385  30.887  29.471  1.00  0.00    -0.248 NA
ATOM     48  C   UNL A   1      37.818  29.419  28.670  1.00  0.00     0.031 C 
ATOM     49  C   UNL A   1      41.699  29.731  30.661  1.00  0.00     0.029 A 
ATOM     50  N   UNL A   1      42.663  28.289  29.217  1.00  0.00    -0.354 N 
ATOM     51  C   UNL A   1      38.154  31.441  29.730  1.00  0.00     0.074 A 
ATOM     52  C   UNL A   1      37.218  30.525  29.121  1.00  0.00     0.031 C 
ATOM     53  C   UNL A   1      43.023  29.917  30.744  1.00  0.00     0.029 A 
ATOM     54  C   UNL A   1      43.629  29.221  29.619  1.00  0.00     0.049 A 
ATOM     55  H   UNL A   1      42.830  27.424  28.778  1.00  0.00     0.167 HD
ATOM     56  C   UNL A   1      38.088  32.528  30.556  1.00  0.00     0.037 A 
ATOM     57  C   UNL A   1      44.524  29.764  28.751  1.00  0.00     0.037 A 
ATOM     58  C   UNL A   1      39.435  33.029  30.870  1.00  0.00     0.049 A 
ATOM     59  C   UNL A   1      44.408  31.262  28.709  1.00  0.00     0.074 A 
ATOM     60  C   UNL A   1      40.251  32.907  31.984  1.00  0.00     0.029 A 
ATOM     61  N   UNL A   1      40.250  33.518  29.846  1.00  0.00    -0.354 N 
ATOM     62  N   UNL A   1      43.325  31.900  29.061  1.00  0.00    -0.248 NA
ATOM     63  C   UNL A   1      45.491  32.160  28.327  1.00  0.00     0.031 C 
ATOM     64  C   UNL A   1      41.571  33.269  31.609  1.00  0.00     0.029 A 
ATOM     65  C   UNL A   1      41.559  33.636  30.274  1.00  0.00     0.049 A 
ATOM     66  H   UNL A   1      39.934  33.748  28.942  1.00  0.00     0.167 HD
ATOM     67  C   UNL A   1      43.554  33.246  29.015  1.00  0.00     0.074 A 
ATOM     68  C   UNL A   1      44.919  33.361  28.531  1.00  0.00     0.031 C 
ATOM     69  C   UNL A   1      42.607  34.152  29.398  1.00  0.00     0.037 A 
BRANCH  56  70
ATOM     70  C   UNL A   1      36.837  32.937  31.324  1.00  0.00     0.057 A 
ATOM     71  C   UNL A   1      36.637  32.524  32.659  1.00  0.00     0.134 A 
ATOM     72  C   UNL A   1      35.753  33.664  30.798  1.00  0.00     0.134 A 
ATOM     73  F   UNL A   1      37.603  31.921  33.364  1.00  0.00    -0.206 F 
ATOM     74  C   UNL A   1      35.430  32.710  33.353  1.00  0.00     0.040 A 
ATOM     75  C   UNL A   1      34.524  33.816  31.460  1.00  0.00     0.040 A 
ATOM     76  F   UNL A   1      35.838  34.330  29.644  1.00  0.00    -0.206 F 
ATOM     77  C   UNL A   1      34.352  33.325  32.741  1.00  0.00     0.006 A 
ENDBRANCH  56  70
BRANCH  57  78
ATOM     78  C   UNL A   1      44.891  28.849  27.642  1.00  0.00     0.057 A 
ATOM     79  C   UNL A   1      45.874  27.876  27.904  1.00  0.00     0.134 A 
ATOM     80  C   UNL A   1      44.038  28.613  26.562  1.00  0.00     0.134 A 
ATOM     81  F   UNL A   1      46.725  28.047  28.927  1.00  0.00    -0.206 F 
ATOM     82  C   UNL A   1      45.920  26.662  27.215  1.00  0.00     0.040 A 
ATOM     83  C   UNL A   1      44.086  27.406  25.849  1.00  0.00     0.040 A 
ATOM     84  F   UNL A   1      43.059  29.480  26.264  1.00  0.00    -0.206 F 
ATOM     85  C   UNL A   1      44.997  26.411  26.205  1.00  0.00     0.006 A 
ENDBRANCH  57  78
BRANCH  69  86
ATOM     86  C   UNL A   1      42.647  35.624  29.085  1.00  0.00     0.057 A 
ATOM     87  C   UNL A   1      43.405  36.556  29.811  1.00  0.00     0.134 A 
ATOM     88  C   UNL A   1      42.044  36.128  27.911  1.00  0.00     0.134 A 
ATOM     89  F   UNL A   1      44.123  36.194  30.884  1.00  0.00    -0.206 F 
ATOM     90  C   UNL A   1      43.511  37.899  29.433  1.00  0.00     0.040 A 
ATOM     91  C   UNL A   1      42.188  37.454  27.494  1.00  0.00     0.040 A 
ATOM     92  F   UNL A   1      41.314  35.349  27.100  1.00  0.00    -0.206 F 
ATOM     93  C   UNL A   1      42.914  38.350  28.263  1.00  0.00     0.006 A 
ENDBRANCH  69  86
ENDBRANCH  43  44
ENDBRANCH  35  38
ENDBRANCH  33  34
ENDBRANCH  32  33
ENDBRANCH   1  32
TORSDOF 15
ENDMDL
MODEL 2
REMARK VINA RESULT:     -12.5      3.205      8.337
REMARK SMILES Cc1cccc(S(=O)(=O)Nc2cc(C(=O)NCCCCNC(=O)c3ccc(-c4c5nc(c(-c6c(F)cccc6F)c6ccc([nH]6)c(-c6c(F)cccc6F)c6nc(c(-c7c(F)cccc7F)c7ccc4[nH]7)C=C6)C=C5)cc3)cnc2N2CCC[C@H](C)C2)c1
REMARK SMILES IDX 18 1 17 2 16 3 14 4 15 5 13 7 11 8 12 9 80 10 79 11 78 12
REMARK SMILES IDX 10 13 7 15 8 16 9 17 6 18 1 19 2 20 3 21 88 22 4 23 5 24
REMARK SMILES IDX 81 25 82 26 87 27 83 28 85 29 84 30 86 31 19 32 20 33 21 34
REMARK SMILES IDX 22 35 23 37 24 38 25 39 77 40 26 41 76 42 27 43 28 44 29 45
REMARK SMILES IDX 70 46 30 47 75 48 69 49 71 50 31 51 74 52 68 53 67 54 32 56
REMARK SMILES IDX 58 57 41 58 57 59 42 60 45 61 56 62 72 63 43 64 44 65 55 67
REMARK SMILES IDX 73 68 46 69 33 70 34 71 39 72 35 73 36 74 38 75 40 76 37 77
REMARK SMILES IDX 59 78 60 79 65 80 61 81 62 82 64 83 66 84 63 85 47 86 48 87
REMARK SMILES IDX 53 88 49 89 50 90 52 91 54 92 51 93
REMARK H PARENT 16 6 10 14 21 36 71 55 45 66
REMARK Flexibility Score: inf
ROOT
ATOM      1  C   UNL A   1      32.574  28.282  26.719  1.00  0.00     0.023 C 
ENDROOT
BRANCH   1   2
ATOM      2  C   UNL A   1      32.282  26.855  26.226  1.00  0.00     0.116 C 
BRANCH   2   3
ATOM      3  N   UNL A   1      30.937  26.416  26.576  1.00  0.00    -0.352 N 
ATOM      4  C   UNL A   1      30.247  25.241  26.383  1.00  0.00     0.252 C 
ATOM      5  O   UNL A   1      29.125  25.149  26.879  1.00  0.00    -0.269 OA
ATOM      6  H   UNL A   1      30.412  27.102  27.049  1.00  0.00     0.163 HD
BRANCH   4   7
ATOM      7  C   UNL A   1      30.798  24.070  25.662  1.00  0.00     0.060 A 
ATOM      8  C   UNL A   1      31.725  22.957  23.755  1.00  0.00     0.092 A 
ATOM      9  C   UNL A   1      31.013  24.017  24.299  1.00  0.00     0.046 A 
ATOM     10  C   UNL A   1      32.065  21.845  24.548  1.00  0.00     0.153 A 
ATOM     11  N   UNL A   1      31.771  21.834  25.863  1.00  0.00    -0.236 NA
ATOM     12  C   UNL A   1      31.181  22.946  26.394  1.00  0.00     0.127 A 
BRANCH   8  13
ATOM     13  N   UNL A   1      32.125  23.058  22.387  1.00  0.00    -0.276 N 
ATOM     14  H   UNL A   1      31.725  22.463  21.714  1.00  0.00     0.180 HD
BRANCH  13  15
ATOM     15  S   UNL A   1      33.290  24.204  21.921  1.00  0.00     0.262 S 
ATOM     16  O   UNL A   1      33.270  24.154  20.466  1.00  0.00    -0.201 OA
ATOM     17  O   UNL A   1      34.503  23.885  22.635  1.00  0.00    -0.201 OA
BRANCH  15  18
ATOM     18  C   UNL A   1      32.852  25.873  22.372  1.00  0.00     0.088 A 
ATOM     19  C   UNL A   1      29.970  28.382  22.405  1.00  0.00     0.044 C 
ATOM     20  C   UNL A   1      31.325  27.762  22.584  1.00  0.00    -0.050 A 
ATOM     21  C   UNL A   1      32.407  28.596  22.861  1.00  0.00     0.003 A 
ATOM     22  C   UNL A   1      31.546  26.381  22.424  1.00  0.00     0.025 A 
ATOM     23  C   UNL A   1      33.685  28.063  22.932  1.00  0.00     0.002 A 
ATOM     24  C   UNL A   1      33.918  26.722  22.666  1.00  0.00     0.022 A 
ENDBRANCH  15  18
ENDBRANCH  13  15
ENDBRANCH   8  13
BRANCH  10  25
ATOM     25  N   UNL A   1      32.596  20.719  23.956  1.00  0.00    -0.355 N 
ATOM     26  C   UNL A   1      32.211  20.252  22.633  1.00  0.00     0.118 C 
ATOM     27  C   UNL A   1      33.878  20.235  24.444  1.00  0.00     0.121 C 
ATOM     28  C   UNL A   1      32.033  18.730  22.707  1.00  0.00     0.022 C 
ATOM     29  C   UNL A   1      33.755  18.712  24.635  1.00  0.00     0.005 C 
ATOM     30  C   UNL A   1      33.245  18.035  23.344  1.00  0.00     0.007 C 
ATOM     31  C   UNL A   1      32.867  18.385  25.844  1.00  0.00     0.009 C 
ENDBRANCH  10  25
ENDBRANCH   4   7
ENDBRANCH   2   3
ENDBRANCH   1   2
BRANCH   1  32
ATOM     32  C   UNL A   1      34.027  28.709  26.523  1.00  0.00     0.023 C 
BRANCH  32  33
ATOM     33  C   UNL A   1      34.489  29.741  27.542  1.00  0.00     0.116 C 
BRANCH  33  34
ATOM     34  N   UNL A   1      33.780  31.011  27.471  1.00  0.00    -0.352 N 
ATOM     35  C   UNL A   1      34.023  32.205  28.136  1.00  0.00     0.251 C 
ATOM     36  H   UNL A   1      33.008  31.025  26.859  1.00  0.00     0.163 HD
ATOM     37  O   UNL A   1      33.276  33.151  27.981  1.00  0.00    -0.269 OA
BRANCH  35  38
ATOM     38  C   UNL A   1      35.283  32.373  28.909  1.00  0.00     0.039 A 
ATOM     39  C   UNL A   1      36.335  33.054  28.281  1.00  0.00     0.014 A 
ATOM     40  C   UNL A   1      35.509  31.692  30.101  1.00  0.00     0.014 A 
ATOM     41  C   UNL A   1      37.645  32.812  28.688  1.00  0.00     0.010 A 
ATOM     42  C   UNL A   1      36.804  31.368  30.443  1.00  0.00     0.010 A 
ATOM     43  C   UNL A   1      37.867  31.864  29.682  1.00  0.00    -0.014 A 
BRANCH  43  44
ATOM     44  C   UNL A   1      39.144  31.190  29.867  1.00  0.00     0.031 A 
ATOM     45  C   UNL A   1      39.417  29.880  29.256  1.00  0.00     0.074 A 
ATOM     46  C   UNL A   1      40.131  31.848  30.511  1.00  0.00     0.049 A 
ATOM     47  N   UNL A   1      40.383  29.103  29.607  1.00  0.00    -0.248 NA
ATOM     48  C   UNL A   1      38.568  29.309  28.223  1.00  0.00     0.031 C 
ATOM     49  C   UNL A   1      41.553  31.533  30.518  1.00  0.00     0.029 A 
ATOM     50  N   UNL A   1      39.980  32.820  31.500  1.00  0.00    -0.354 N 
ATOM     51  C   UNL A   1      40.479  28.097  28.676  1.00  0.00     0.074 A 
ATOM     52  C   UNL A   1      39.268  28.218  27.898  1.00  0.00     0.031 C 
ATOM     53  C   UNL A   1      42.109  32.068  31.614  1.00  0.00     0.029 A 
ATOM     54  C   UNL A   1      41.035  32.645  32.406  1.00  0.00     0.049 A 
ATOM     55  H   UNL A   1      39.268  33.498  31.552  1.00  0.00     0.167 HD
ATOM     56  C   UNL A   1      41.645  27.390  28.595  1.00  0.00     0.037 A 
ATOM     57  C   UNL A   1      40.827  32.417  33.731  1.00  0.00     0.037 A 
ATOM     58  C   UNL A   1      42.546  27.738  29.706  1.00  0.00     0.049 A 
ATOM     59  C   UNL A   1      41.441  31.116  34.166  1.00  0.00     0.074 A 
ATOM     60  C   UNL A   1      43.669  28.546  29.792  1.00  0.00     0.029 A 
ATOM     61  N   UNL A   1      42.158  27.473  31.022  1.00  0.00    -0.354 N 
ATOM     62  N   UNL A   1      41.697  30.140  33.337  1.00  0.00    -0.248 NA
ATOM     63  C   UNL A   1      41.859  30.820  35.531  1.00  0.00     0.031 C 
ATOM     64  C   UNL A   1      43.921  28.811  31.163  1.00  0.00     0.029 A 
ATOM     65  C   UNL A   1      42.968  28.148  31.918  1.00  0.00     0.049 A 
ATOM     66  H   UNL A   1      41.412  26.885  31.277  1.00  0.00     0.167 HD
ATOM     67  C   UNL A   1      42.342  29.136  34.003  1.00  0.00     0.074 A 
ATOM     68  C   UNL A   1      42.404  29.599  35.378  1.00  0.00     0.031 C 
ATOM     69  C   UNL A   1      42.789  28.017  33.360  1.00  0.00     0.037 A 
BRANCH  56  70
ATOM     70  C   UNL A   1      42.095  26.629  27.354  1.00  0.00     0.057 A 
ATOM     71  C   UNL A   1      42.305  25.233  27.393  1.00  0.00     0.134 A 
ATOM     72  C   UNL A   1      42.417  27.206  26.111  1.00  0.00     0.134 A 
ATOM     73  F   UNL A   1      41.947  24.496  28.452  1.00  0.00    -0.206 F 
ATOM     74  C   UNL A   1      42.893  24.510  26.343  1.00  0.00     0.040 A 
ATOM     75  C   UNL A   1      43.050  26.506  25.070  1.00  0.00     0.040 A 
ATOM     76  F   UNL A   1      42.078  28.458  25.801  1.00  0.00    -0.206 F 
ATOM     77  C   UNL A   1      43.305  25.153  25.189  1.00  0.00     0.006 A 
ENDBRANCH  56  70
BRANCH  57  78
ATOM     78  C   UNL A   1      39.593  33.059  34.248  1.00  0.00     0.057 A 
ATOM     79  C   UNL A   1      38.448  32.251  34.377  1.00  0.00     0.134 A 
ATOM     80  C   UNL A   1      39.629  34.233  35.004  1.00  0.00     0.134 A 
ATOM     81  F   UNL A   1      38.354  31.112  33.675  1.00  0.00    -0.206 F 
ATOM     82  C   UNL A   1      37.449  32.523  35.314  1.00  0.00     0.040 A 
ATOM     83  C   UNL A   1      38.623  34.527  35.935  1.00  0.00     0.040 A 
ATOM     84  F   UNL A   1      40.697  35.043  34.956  1.00  0.00    -0.206 F 
ATOM     85  C   UNL A   1      37.556  33.649  36.124  1.00  0.00     0.006 A 
ENDBRANCH  57  78
BRANCH  69  86
ATOM     86  C   UNL A   1      43.210  26.743  34.043  1.00  0.00     0.057 A 
ATOM     87  C   UNL A   1      44.542  26.308  34.129  1.00  0.00     0.134 A 
ATOM     88  C   UNL A   1      42.284  25.988  34.796  1.00  0.00     0.134 A 
ATOM     89  F   UNL A   1      45.543  26.992  33.558  1.00  0.00    -0.206 F 
ATOM     90  C   UNL A   1      44.918  25.177  34.863  1.00  0.00     0.040 A 
ATOM     91  C   UNL A   1      42.657  24.890  35.576  1.00  0.00     0.040 A 
ATOM     92  F   UNL A   1      40.980  26.301  34.835  1.00  0.00    -0.206 F 
ATOM     93  C   UNL A   1      43.978  24.472  35.602  1.00  0.00     0.006 A 
ENDBRANCH  69  86
ENDBRANCH  43  44
ENDBRANCH  35  38
ENDBRANCH  33  34
ENDBRANCH  32  33
ENDBRANCH   1  32
TORSDOF 15
ENDMDL
MODEL 3
REMARK VINA RESULT:     -12.5      3.330      8.632
REMARK SMILES Cc1cccc(S(=O)(=O)Nc2cc(C(=O)NCCCCNC(=O)c3ccc(-c4c5nc(c(-c6c(F)cccc6F)c6ccc([nH]6)c(-c6c(F)cccc6F)c6nc(c(-c7c(F)cccc7F)c7ccc4[nH]7)C=C6)C=C5)cc3)cnc2N2CCC[C@H](C)C2)c1
REMARK SMILES IDX 18 1 17 2 16 3 14 4 15 5 13 7 11 8 12 9 80 10 79 11 78 12
REMARK SMILES IDX 10 13 7 15 8 16 9 17 6 18 1 19 2 20 3 21 88 22 4 23 5 24
REMARK SMILES IDX 81 25 82 26 87 27 83 28 85 29 84 30 86 31 19 32 20 33 21 34
REMARK SMILES IDX 22 35 23 37 24 38 25 39 77 40 26 41 76 42 27 43 28 44 29 45
REMARK SMILES IDX 70 46 30 47 75 48 69 49 71 50 31 51 74 52 68 53 67 54 32 56
REMARK SMILES IDX 58 57 41 58 57 59 42 60 45 61 56 62 72 63 43 64 44 65 55 67
REMARK SMILES IDX 73 68 46 69 33 70 34 71 39 72 35 73 36 74 38 75 40 76 37 77
REMARK SMILES IDX 59 78 60 79 65 80 61 81 62 82 64 83 66 84 63 85 47 86 48 87
REMARK SMILES IDX 53 88 49 89 50 90 52 91 54 92 51 93
REMARK H PARENT 16 6 10 14 21 36 71 55 45 66
REMARK Flexibility Score: inf
ROOT
ATOM      1  C   UNL A   1      32.658  27.766  26.993  1.00  0.00     0.023 C 
ENDROOT
BRANCH   1   2
ATOM      2  C   UNL A   1      31.945  26.889  25.951  1.00  0.00     0.116 C 
BRANCH   2   3
ATOM      3  N   UNL A   1      30.674  26.372  26.443  1.00  0.00    -0.352 N 
ATOM      4  C   UNL A   1      30.064  25.141  26.371  1.00  0.00     0.252 C 
ATOM      5  O   UNL A   1      29.000  24.994  26.971  1.00  0.00    -0.269 OA
ATOM      6  H   UNL A   1      30.140  27.042  26.928  1.00  0.00     0.163 HD
BRANCH   4   7
ATOM      7  C   UNL A   1      30.640  23.976  25.660  1.00  0.00     0.060 A 
ATOM      8  C   UNL A   1      31.581  22.863  23.759  1.00  0.00     0.092 A 
ATOM      9  C   UNL A   1      30.846  23.911  24.296  1.00  0.00     0.046 A 
ATOM     10  C   UNL A   1      31.956  21.770  24.563  1.00  0.00     0.153 A 
ATOM     11  N   UNL A   1      31.672  21.768  25.881  1.00  0.00    -0.236 NA
ATOM     12  C   UNL A   1      31.057  22.871  26.403  1.00  0.00     0.127 A 
BRANCH   8  13
ATOM     13  N   UNL A   1      31.968  22.957  22.388  1.00  0.00    -0.276 N 
ATOM     14  H   UNL A   1      31.417  22.534  21.692  1.00  0.00     0.180 HD
BRANCH  13  15
ATOM     15  S   UNL A   1      33.379  23.799  21.954  1.00  0.00     0.262 S 
ATOM     16  O   UNL A   1      32.936  25.179  21.812  1.00  0.00    -0.201 OA
ATOM     17  O   UNL A   1      33.952  23.107  20.825  1.00  0.00    -0.201 OA
BRANCH  15  18
ATOM     18  C   UNL A   1      34.618  23.799  23.239  1.00  0.00     0.088 A 
ATOM     19  C   UNL A   1      37.541  21.802  24.676  1.00  0.00     0.044 C 
ATOM     20  C   UNL A   1      36.511  22.873  24.463  1.00  0.00    -0.050 A 
ATOM     21  C   UNL A   1      36.300  23.805  25.479  1.00  0.00     0.003 A 
ATOM     22  C   UNL A   1      35.717  22.931  23.303  1.00  0.00     0.025 A 
ATOM     23  C   UNL A   1      35.287  24.743  25.352  1.00  0.00     0.002 A 
ATOM     24  C   UNL A   1      34.433  24.731  24.259  1.00  0.00     0.022 A 
ENDBRANCH  15  18
ENDBRANCH  13  15
ENDBRANCH   8  13
BRANCH  10  25
ATOM     25  N   UNL A   1      32.512  20.651  23.981  1.00  0.00    -0.355 N 
ATOM     26  C   UNL A   1      32.151  20.175  22.654  1.00  0.00     0.118 C 
ATOM     27  C   UNL A   1      33.794  20.186  24.488  1.00  0.00     0.121 C 
ATOM     28  C   UNL A   1      31.994  18.651  22.729  1.00  0.00     0.022 C 
ATOM     29  C   UNL A   1      33.690  18.662  24.681  1.00  0.00     0.005 C 
ATOM     30  C   UNL A   1      33.208  17.976  23.384  1.00  0.00     0.007 C 
ATOM     31  C   UNL A   1      32.791  18.325  25.878  1.00  0.00     0.009 C 
ENDBRANCH  10  25
ENDBRANCH   4   7
ENDBRANCH   2   3
ENDBRANCH   1   2
BRANCH   1  32
ATOM     32  C   UNL A   1      34.045  28.228  26.554  1.00  0.00     0.023 C 
BRANCH  32  33
ATOM     33  C   UNL A   1      34.598  29.359  27.411  1.00  0.00     0.116 C 
BRANCH  33  34
ATOM     34  N   UNL A   1      33.845  30.602  27.318  1.00  0.00    -0.352 N 
ATOM     35  C   UNL A   1      34.004  31.793  28.013  1.00  0.00     0.251 C 
ATOM     36  H   UNL A   1      33.109  30.597  26.664  1.00  0.00     0.163 HD
ATOM     37  O   UNL A   1      33.231  32.713  27.831  1.00  0.00    -0.269 OA
BRANCH  35  38
ATOM     38  C   UNL A   1      35.211  31.995  28.861  1.00  0.00     0.039 A 
ATOM     39  C   UNL A   1      36.260  32.746  28.313  1.00  0.00     0.014 A 
ATOM     40  C   UNL A   1      35.406  31.286  30.041  1.00  0.00     0.014 A 
ATOM     41  C   UNL A   1      37.556  32.554  28.783  1.00  0.00     0.010 A 
ATOM     42  C   UNL A   1      36.696  31.014  30.444  1.00  0.00     0.010 A 
ATOM     43  C   UNL A   1      37.771  31.585  29.759  1.00  0.00    -0.014 A 
BRANCH  43  44
ATOM     44  C   UNL A   1      39.069  30.968  29.993  1.00  0.00     0.031 A 
ATOM     45  C   UNL A   1      39.469  29.735  29.298  1.00  0.00     0.074 A 
ATOM     46  C   UNL A   1      39.959  31.618  30.771  1.00  0.00     0.049 A 
ATOM     47  N   UNL A   1      40.451  28.983  29.662  1.00  0.00    -0.248 NA
ATOM     48  C   UNL A   1      38.742  29.214  28.152  1.00  0.00     0.031 C 
ATOM     49  C   UNL A   1      41.393  31.381  30.872  1.00  0.00     0.029 A 
ATOM     50  N   UNL A   1      39.670  32.487  31.824  1.00  0.00    -0.354 N 
ATOM     51  C   UNL A   1      40.682  28.072  28.659  1.00  0.00     0.074 A 
ATOM     52  C   UNL A   1      39.531  28.196  27.795  1.00  0.00     0.031 C 
ATOM     53  C   UNL A   1      41.826  31.845  32.053  1.00  0.00     0.029 A 
ATOM     54  C   UNL A   1      40.658  32.289  32.798  1.00  0.00     0.049 A 
ATOM     55  H   UNL A   1      38.917  33.118  31.872  1.00  0.00     0.167 HD
ATOM     56  C   UNL A   1      41.892  27.439  28.618  1.00  0.00     0.037 A 
ATOM     57  C   UNL A   1      40.360  31.932  34.076  1.00  0.00     0.037 A 
ATOM     58  C   UNL A   1      42.678  27.735  29.827  1.00  0.00     0.049 A 
ATOM     59  C   UNL A   1      41.017  30.632  34.449  1.00  0.00     0.074 A 
ATOM     60  C   UNL A   1      43.740  28.591  30.076  1.00  0.00     0.029 A 
ATOM     61  N   UNL A   1      42.205  27.331  31.078  1.00  0.00    -0.354 N 
ATOM     62  N   UNL A   1      41.398  29.750  33.565  1.00  0.00    -0.248 NA
ATOM     63  C   UNL A   1      41.342  30.238  35.814  1.00  0.00     0.031 C 
ATOM     64  C   UNL A   1      43.865  28.745  31.481  1.00  0.00     0.029 A 
ATOM     65  C   UNL A   1      42.897  27.966  32.093  1.00  0.00     0.049 A 
ATOM     66  H   UNL A   1      41.478  26.683  31.218  1.00  0.00     0.167 HD
ATOM     67  C   UNL A   1      42.048  28.727  34.194  1.00  0.00     0.074 A 
ATOM     68  C   UNL A   1      41.972  29.067  35.604  1.00  0.00     0.031 C 
ATOM     69  C   UNL A   1      42.612  27.697  33.499  1.00  0.00     0.037 A 
BRANCH  56  70
ATOM     70  C   UNL A   1      42.485  26.819  27.359  1.00  0.00     0.057 A 
ATOM     71  C   UNL A   1      42.664  25.422  27.252  1.00  0.00     0.134 A 
ATOM     72  C   UNL A   1      42.975  27.529  26.247  1.00  0.00     0.134 A 
ATOM     73  F   UNL A   1      42.161  24.575  28.158  1.00  0.00    -0.206 F 
ATOM     74  C   UNL A   1      43.371  24.812  26.203  1.00  0.00     0.040 A 
ATOM     75  C   UNL A   1      43.724  26.940  25.216  1.00  0.00     0.040 A 
ATOM     76  F   UNL A   1      42.699  28.821  26.054  1.00  0.00    -0.206 F 
ATOM     77  C   UNL A   1      43.939  25.575  25.198  1.00  0.00     0.006 A 
ENDBRANCH  56  70
BRANCH  57  78
ATOM     78  C   UNL A   1      39.053  32.457  34.539  1.00  0.00     0.057 A 
ATOM     79  C   UNL A   1      39.007  33.798  34.966  1.00  0.00     0.134 A 
ATOM     80  C   UNL A   1      37.842  31.871  34.163  1.00  0.00     0.134 A 
ATOM     81  F   UNL A   1      40.137  34.416  35.343  1.00  0.00    -0.206 F 
ATOM     82  C   UNL A   1      37.841  34.563  34.891  1.00  0.00     0.040 A 
ATOM     83  C   UNL A   1      36.660  32.622  34.101  1.00  0.00     0.040 A 
ATOM     84  F   UNL A   1      37.806  30.606  33.721  1.00  0.00    -0.206 F 
ATOM     85  C   UNL A   1      36.668  33.981  34.420  1.00  0.00     0.006 A 
ENDBRANCH  57  78
BRANCH  69  86
ATOM     86  C   UNL A   1      43.055  26.391  34.104  1.00  0.00     0.057 A 
ATOM     87  C   UNL A   1      44.387  25.946  34.109  1.00  0.00     0.134 A 
ATOM     88  C   UNL A   1      42.160  25.608  34.865  1.00  0.00     0.134 A 
ATOM     89  F   UNL A   1      45.365  26.649  33.523  1.00  0.00    -0.206 F 
ATOM     90  C   UNL A   1      44.789  24.781  34.773  1.00  0.00     0.040 A 
ATOM     91  C   UNL A   1      42.561  24.474  35.576  1.00  0.00     0.040 A 
ATOM     92  F   UNL A   1      40.862  25.925  34.977  1.00  0.00    -0.206 F 
ATOM     93  C   UNL A   1      43.878  24.049  35.522  1.00  0.00     0.006 A 
ENDBRANCH  69  86
ENDBRANCH  43  44
ENDBRANCH  35  38
ENDBRANCH  33  34
ENDBRANCH  32  33
ENDBRANCH   1  32
TORSDOF 15
ENDMDL
