MODEL 1
REMARK VINA RESULT:     -11.4      0.000      0.000
REMARK SMILES Cc1cc(C)n2ncc(C(=O)N(C)CCCC(=O)NCCCCNC(=O)c3ccc(-c4c5nc(c(-c6c(F)cccc6F)c6ccc([nH]6)c(-c6c(F)cccc6F)c6nc(c(-c7c(F)cccc7F)c7ccc4[nH]7)C=C6)C=C5)cc3)c2n1
REMARK SMILES IDX 20 1 19 2 17 3 18 4 16 6 15 7 14 8 12 9 13 10 10 11 11 12
REMARK SMILES IDX 9 13 1 14 2 15 3 16 82 17 4 18 81 19 5 20 6 21 7 22 8 23
REMARK SMILES IDX 21 24 22 25 23 26 24 27 25 28 26 30 27 31 28 32 80 33 29 34
REMARK SMILES IDX 79 35 30 36 31 37 32 38 73 39 33 40 78 41 72 42 74 43 34 44
REMARK SMILES IDX 77 45 71 46 70 47 35 49 61 50 44 51 60 52 45 53 48 54 59 55
REMARK SMILES IDX 75 56 46 57 47 58 58 60 76 61 49 62 36 63 37 64 42 65 38 66
REMARK SMILES IDX 39 67 41 68 43 69 40 70 62 71 63 72 68 73 64 74 65 75 67 76
REMARK SMILES IDX 69 77 66 78 50 79 51 80 56 81 52 82 53 83 55 84 57 85 54 86
REMARK H PARENT 19 5 24 29 74 48 48 59
REMARK Flexibility Score: inf
ROOT
ATOM      1  C   UNL A   1      39.772  22.082  26.422  1.00  0.00     0.116 C 
ENDROOT
BRANCH   1   2
ATOM      2  N   UNL A   1      38.717  21.414  25.693  1.00  0.00    -0.356 N 
ATOM      3  C   UNL A   1      37.451  21.775  25.372  1.00  0.00     0.220 C 
ATOM      4  O   UNL A   1      36.814  20.947  24.709  1.00  0.00    -0.275 OA
ATOM      5  H   UNL A   1      38.969  20.522  25.363  1.00  0.00     0.163 HD
BRANCH   3   6
ATOM      6  C   UNL A   1      36.841  23.139  25.649  1.00  0.00     0.102 C 
BRANCH   6   7
ATOM      7  C   UNL A   1      35.409  23.357  26.159  1.00  0.00     0.031 C 
BRANCH   7   8
ATOM      8  C   UNL A   1      34.174  23.513  25.261  1.00  0.00     0.120 C 
BRANCH   8   9
ATOM      9  N   UNL A   1      32.788  23.128  25.613  1.00  0.00    -0.342 N 
ATOM     10  C   UNL A   1      32.457  21.778  25.170  1.00  0.00     0.147 C 
BRANCH   9  11
ATOM     11  C   UNL A   1      31.926  23.982  26.321  1.00  0.00     0.259 C 
ATOM     12  O   UNL A   1      31.699  23.761  27.506  1.00  0.00    -0.269 OA
BRANCH  11  13
ATOM     13  C   UNL A   1      31.274  25.148  25.719  1.00  0.00     0.104 A 
ATOM     14  C   UNL A   1      34.308  28.794  27.079  1.00  0.00     0.067 C 
ATOM     15  C   UNL A   1      33.118  28.211  26.357  1.00  0.00     0.042 A 
ATOM     16  C   UNL A   1      32.402  29.122  25.414  1.00  0.00     0.047 A 
ATOM     17  N   UNL A   1      32.784  26.977  26.595  1.00  0.00    -0.233 NA
ATOM     18  C   UNL A   1      31.341  28.600  24.773  1.00  0.00     0.043 A 
ATOM     19  C   UNL A   1      31.744  26.455  25.865  1.00  0.00     0.168 A 
ATOM     20  C   UNL A   1      30.532  29.387  23.789  1.00  0.00     0.067 C 
ATOM     21  N   UNL A   1      30.997  27.257  24.996  1.00  0.00    -0.219 N 
ATOM     22  N   UNL A   1      29.996  26.550  24.417  1.00  0.00    -0.174 NA
ATOM     23  C   UNL A   1      30.216  25.292  24.800  1.00  0.00     0.151 A 
ENDBRANCH  11  13
ENDBRANCH   9  11
ENDBRANCH   8   9
ENDBRANCH   7   8
ENDBRANCH   6   7
ENDBRANCH   3   6
ENDBRANCH   1   2
BRANCH   1  24
ATOM     24  C   UNL A   1      40.687  21.063  27.122  1.00  0.00     0.023 C 
BRANCH  24  25
ATOM     25  C   UNL A   1      41.430  20.088  26.199  1.00  0.00     0.023 C 
BRANCH  25  26
ATOM     26  C   UNL A   1      42.743  19.555  26.759  1.00  0.00     0.116 C 
BRANCH  26  27
ATOM     27  N   UNL A   1      43.700  19.169  25.724  1.00  0.00    -0.352 N 
ATOM     28  C   UNL A   1      44.317  19.996  24.797  1.00  0.00     0.251 C 
ATOM     29  H   UNL A   1      43.934  18.214  25.681  1.00  0.00     0.163 HD
ATOM     30  O   UNL A   1      44.789  19.563  23.768  1.00  0.00    -0.269 OA
BRANCH  28  31
ATOM     31  C   UNL A   1      44.364  21.437  25.105  1.00  0.00     0.039 A 
ATOM     32  C   UNL A   1      43.487  22.324  24.486  1.00  0.00     0.014 A 
ATOM     33  C   UNL A   1      45.213  21.857  26.128  1.00  0.00     0.014 A 
ATOM     34  C   UNL A   1      43.385  23.618  24.990  1.00  0.00     0.010 A 
ATOM     35  C   UNL A   1      45.022  23.100  26.698  1.00  0.00     0.010 A 
ATOM     36  C   UNL A   1      44.115  23.996  26.136  1.00  0.00    -0.014 A 
BRANCH  36  37
ATOM     37  C   UNL A   1      43.819  25.280  26.788  1.00  0.00     0.031 A 
ATOM     38  C   UNL A   1      44.789  26.380  26.509  1.00  0.00     0.074 A 
ATOM     39  C   UNL A   1      42.711  25.566  27.507  1.00  0.00     0.049 A 
ATOM     40  N   UNL A   1      45.662  26.869  27.327  1.00  0.00    -0.248 NA
ATOM     41  C   UNL A   1      44.881  26.931  25.148  1.00  0.00     0.031 C 
ATOM     42  C   UNL A   1      41.502  24.756  27.699  1.00  0.00     0.029 A 
ATOM     43  N   UNL A   1      42.418  26.712  28.197  1.00  0.00    -0.354 N 
ATOM     44  C   UNL A   1      46.292  27.915  26.656  1.00  0.00     0.074 A 
ATOM     45  C   UNL A   1      45.868  27.822  25.283  1.00  0.00     0.031 C 
ATOM     46  C   UNL A   1      40.533  25.508  28.267  1.00  0.00     0.029 A 
ATOM     47  C   UNL A   1      41.113  26.776  28.665  1.00  0.00     0.049 A 
ATOM     48  H   UNL A   1      43.076  27.429  28.346  1.00  0.00     0.167 HD
ATOM     49  C   UNL A   1      46.937  28.897  27.347  1.00  0.00     0.037 A 
ATOM     50  C   UNL A   1      40.548  27.768  29.388  1.00  0.00     0.037 A 
ATOM     51  C   UNL A   1      47.104  28.528  28.729  1.00  0.00     0.049 A 
ATOM     52  C   UNL A   1      41.629  28.461  30.114  1.00  0.00     0.074 A 
ATOM     53  C   UNL A   1      47.913  27.689  29.462  1.00  0.00     0.029 A 
ATOM     54  N   UNL A   1      46.044  28.869  29.523  1.00  0.00    -0.354 N 
ATOM     55  N   UNL A   1      42.313  27.918  31.080  1.00  0.00    -0.248 NA
ATOM     56  C   UNL A   1      42.160  29.715  29.594  1.00  0.00     0.031 C 
ATOM     57  C   UNL A   1      47.173  27.356  30.637  1.00  0.00     0.029 A 
ATOM     58  C   UNL A   1      45.950  28.023  30.594  1.00  0.00     0.049 A 
ATOM     59  H   UNL A   1      45.432  29.620  29.348  1.00  0.00     0.167 HD
ATOM     60  C   UNL A   1      43.554  28.510  30.984  1.00  0.00     0.074 A 
ATOM     61  C   UNL A   1      43.343  29.724  30.210  1.00  0.00     0.031 C 
ATOM     62  C   UNL A   1      44.686  27.802  31.258  1.00  0.00     0.037 A 
BRANCH  49  63
ATOM     63  C   UNL A   1      47.020  30.355  26.941  1.00  0.00     0.057 A 
ATOM     64  C   UNL A   1      48.253  31.030  27.052  1.00  0.00     0.134 A 
ATOM     65  C   UNL A   1      45.899  31.189  26.773  1.00  0.00     0.134 A 
ATOM     66  F   UNL A   1      49.397  30.351  27.229  1.00  0.00    -0.206 F 
ATOM     67  C   UNL A   1      48.351  32.428  27.069  1.00  0.00     0.040 A 
ATOM     68  C   UNL A   1      45.991  32.586  26.741  1.00  0.00     0.040 A 
ATOM     69  F   UNL A   1      44.650  30.710  26.738  1.00  0.00    -0.206 F 
ATOM     70  C   UNL A   1      47.215  33.212  26.922  1.00  0.00     0.006 A 
ENDBRANCH  49  63
BRANCH  50  71
ATOM     71  C   UNL A   1      39.158  28.260  29.424  1.00  0.00     0.057 A 
ATOM     72  C   UNL A   1      38.407  28.202  30.608  1.00  0.00     0.134 A 
ATOM     73  C   UNL A   1      38.666  29.097  28.412  1.00  0.00     0.134 A 
ATOM     74  F   UNL A   1      38.805  27.432  31.630  1.00  0.00    -0.206 F 
ATOM     75  C   UNL A   1      37.275  28.997  30.807  1.00  0.00     0.040 A 
ATOM     76  C   UNL A   1      37.533  29.895  28.597  1.00  0.00     0.040 A 
ATOM     77  F   UNL A   1      39.329  29.241  27.254  1.00  0.00    -0.206 F 
ATOM     78  C   UNL A   1      36.849  29.867  29.808  1.00  0.00     0.006 A 
ENDBRANCH  50  71
BRANCH  62  79
ATOM     79  C   UNL A   1      44.549  26.612  32.155  1.00  0.00     0.057 A 
ATOM     80  C   UNL A   1      44.426  26.671  33.550  1.00  0.00     0.134 A 
ATOM     81  C   UNL A   1      44.483  25.347  31.562  1.00  0.00     0.134 A 
ATOM     82  F   UNL A   1      44.411  27.844  34.198  1.00  0.00    -0.206 F 
ATOM     83  C   UNL A   1      44.285  25.514  34.321  1.00  0.00     0.040 A 
ATOM     84  C   UNL A   1      44.310  24.187  32.317  1.00  0.00     0.040 A 
ATOM     85  F   UNL A   1      44.558  25.222  30.227  1.00  0.00    -0.206 F 
ATOM     86  C   UNL A   1      44.222  24.267  33.704  1.00  0.00     0.006 A 
ENDBRANCH  62  79
ENDBRANCH  36  37
ENDBRANCH  28  31
ENDBRANCH  26  27
ENDBRANCH  25  26
ENDBRANCH  24  25
ENDBRANCH   1  24
TORSDOF 16
ENDMDL
MODEL 2
REMARK VINA RESULT:     -11.3      2.582      3.808
REMARK SMILES Cc1cc(C)n2ncc(C(=O)N(C)CCCC(=O)NCCCCNC(=O)c3ccc(-c4c5nc(c(-c6c(F)cccc6F)c6ccc([nH]6)c(-c6c(F)cccc6F)c6nc(c(-c7c(F)cccc7F)c7ccc4[nH]7)C=C6)C=C5)cc3)c2n1
REMARK SMILES IDX 20 1 19 2 17 3 18 4 16 6 15 7 14 8 12 9 13 10 10 11 11 12
REMARK SMILES IDX 9 13 1 14 2 15 3 16 82 17 4 18 81 19 5 20 6 21 7 22 8 23
REMARK SMILES IDX 21 24 22 25 23 26 24 27 25 28 26 30 27 31 28 32 80 33 29 34
REMARK SMILES IDX 79 35 30 36 31 37 32 38 73 39 33 40 78 41 72 42 74 43 34 44
REMARK SMILES IDX 77 45 71 46 70 47 35 49 61 50 44 51 60 52 45 53 48 54 59 55
REMARK SMILES IDX 75 56 46 57 47 58 58 60 76 61 49 62 36 63 37 64 42 65 38 66
REMARK SMILES IDX 39 67 41 68 43 69 40 70 62 71 63 72 68 73 64 74 65 75 67 76
REMARK SMILES IDX 69 77 66 78 50 79 51 80 56 81 52 82 53 83 55 84 57 85 54 86
REMARK H PARENT 19 5 24 29 74 48 48 59
REMARK Flexibility Score: inf
ROOT
ATOM      1  C   UNL A   1      37.619  21.769  25.602  1.00  0.00     0.116 C 
ENDROOT
BRANCH   1   2
ATOM      2  N   UNL A   1      37.388  22.320  24.286  1.00  0.00    -0.356 N 
ATOM      3  C   UNL A   1      36.259  22.655  23.615  1.00  0.00     0.220 C 
ATOM      4  O   UNL A   1      36.432  23.127  22.484  1.00  0.00    -0.275 OA
ATOM      5  H   UNL A   1      38.213  22.486  23.776  1.00  0.00     0.163 HD
BRANCH   3   6
ATOM      6  C   UNL A   1      34.857  22.616  24.201  1.00  0.00     0.102 C 
BRANCH   6   7
ATOM      7  C   UNL A   1      34.136  21.331  24.630  1.00  0.00     0.031 C 
BRANCH   7   8
ATOM      8  C   UNL A   1      33.074  21.249  25.735  1.00  0.00     0.120 C 
BRANCH   8   9
ATOM      9  N   UNL A   1      32.744  22.318  26.706  1.00  0.00    -0.342 N 
ATOM     10  C   UNL A   1      33.820  22.549  27.663  1.00  0.00     0.147 C 
BRANCH   9  11
ATOM     11  C   UNL A   1      31.533  23.028  26.662  1.00  0.00     0.259 C 
ATOM     12  O   UNL A   1      30.750  22.941  27.602  1.00  0.00    -0.269 OA
BRANCH  11  13
ATOM     13  C   UNL A   1      31.145  23.889  25.542  1.00  0.00     0.104 A 
ATOM     14  C   UNL A   1      31.671  28.382  27.512  1.00  0.00     0.067 C 
ATOM     15  C   UNL A   1      31.379  27.412  26.394  1.00  0.00     0.042 A 
ATOM     16  C   UNL A   1      31.217  27.999  25.030  1.00  0.00     0.047 A 
ATOM     17  N   UNL A   1      31.279  26.145  26.674  1.00  0.00    -0.233 NA
ATOM     18  C   UNL A   1      30.955  27.132  24.036  1.00  0.00     0.043 A 
ATOM     19  C   UNL A   1      31.088  25.282  25.623  1.00  0.00     0.168 A 
ATOM     20  C   UNL A   1      30.779  27.569  22.615  1.00  0.00     0.067 C 
ATOM     21  N   UNL A   1      30.883  25.759  24.324  1.00  0.00    -0.219 N 
ATOM     22  N   UNL A   1      30.671  24.739  23.457  1.00  0.00    -0.174 NA
ATOM     23  C   UNL A   1      30.897  23.640  24.177  1.00  0.00     0.151 A 
ENDBRANCH  11  13
ENDBRANCH   9  11
ENDBRANCH   8   9
ENDBRANCH   7   8
ENDBRANCH   6   7
ENDBRANCH   3   6
ENDBRANCH   1   2
BRANCH   1  24
ATOM     24  C   UNL A   1      38.982  22.218  26.155  1.00  0.00     0.023 C 
BRANCH  24  25
ATOM     25  C   UNL A   1      40.030  21.111  26.328  1.00  0.00     0.023 C 
BRANCH  25  26
ATOM     26  C   UNL A   1      41.290  21.537  27.071  1.00  0.00     0.116 C 
BRANCH  26  27
ATOM     27  N   UNL A   1      42.366  21.976  26.185  1.00  0.00    -0.352 N 
ATOM     28  C   UNL A   1      42.657  23.275  25.794  1.00  0.00     0.251 C 
ATOM     29  H   UNL A   1      42.950  21.271  25.824  1.00  0.00     0.163 HD
ATOM     30  O   UNL A   1      43.303  23.514  24.797  1.00  0.00    -0.269 OA
BRANCH  28  31
ATOM     31  C   UNL A   1      42.135  24.366  26.639  1.00  0.00     0.039 A 
ATOM     32  C   UNL A   1      42.735  24.668  27.858  1.00  0.00     0.014 A 
ATOM     33  C   UNL A   1      41.118  25.164  26.117  1.00  0.00     0.014 A 
ATOM     34  C   UNL A   1      42.385  25.857  28.494  1.00  0.00     0.010 A 
ATOM     35  C   UNL A   1      40.863  26.395  26.689  1.00  0.00     0.010 A 
ATOM     36  C   UNL A   1      41.485  26.754  27.883  1.00  0.00    -0.014 A 
BRANCH  36  37
ATOM     37  C   UNL A   1      41.310  28.098  28.452  1.00  0.00     0.031 A 
ATOM     38  C   UNL A   1      42.390  29.077  28.128  1.00  0.00     0.074 A 
ATOM     39  C   UNL A   1      40.226  28.536  29.131  1.00  0.00     0.049 A 
ATOM     40  N   UNL A   1      43.296  29.525  28.933  1.00  0.00    -0.248 NA
ATOM     41  C   UNL A   1      42.555  29.533  26.740  1.00  0.00     0.031 C 
ATOM     42  C   UNL A   1      38.940  27.863  29.347  1.00  0.00     0.029 A 
ATOM     43  N   UNL A   1      40.040  29.745  29.746  1.00  0.00    -0.354 N 
ATOM     44  C   UNL A   1      44.037  30.461  28.215  1.00  0.00     0.074 A 
ATOM     45  C   UNL A   1      43.624  30.328  26.841  1.00  0.00     0.031 C 
ATOM     46  C   UNL A   1      38.044  28.741  29.849  1.00  0.00     0.029 A 
ATOM     47  C   UNL A   1      38.742  29.966  30.184  1.00  0.00     0.049 A 
ATOM     48  H   UNL A   1      40.765  30.401  29.866  1.00  0.00     0.167 HD
ATOM     49  C   UNL A   1      44.767  31.414  28.858  1.00  0.00     0.037 A 
ATOM     50  C   UNL A   1      38.269  31.052  30.836  1.00  0.00     0.037 A 
ATOM     51  C   UNL A   1      44.877  31.115  30.263  1.00  0.00     0.049 A 
ATOM     52  C   UNL A   1      39.405  31.676  31.540  1.00  0.00     0.074 A 
ATOM     53  C   UNL A   1      45.587  30.246  31.060  1.00  0.00     0.029 A 
ATOM     54  N   UNL A   1      43.846  31.607  31.015  1.00  0.00    -0.354 N 
ATOM     55  N   UNL A   1      40.017  31.128  32.550  1.00  0.00    -0.248 NA
ATOM     56  C   UNL A   1      40.065  32.837  30.958  1.00  0.00     0.031 C 
ATOM     57  C   UNL A   1      44.802  30.060  32.238  1.00  0.00     0.029 A 
ATOM     58  C   UNL A   1      43.653  30.842  32.131  1.00  0.00     0.049 A 
ATOM     59  H   UNL A   1      43.315  32.403  30.783  1.00  0.00     0.167 HD
ATOM     60  C   UNL A   1      41.313  31.587  32.445  1.00  0.00     0.074 A 
ATOM     61  C   UNL A   1      41.235  32.767  31.596  1.00  0.00     0.031 C 
ATOM     62  C   UNL A   1      42.363  30.788  32.782  1.00  0.00     0.037 A 
BRANCH  49  63
ATOM     63  C   UNL A   1      45.001  32.829  28.370  1.00  0.00     0.057 A 
ATOM     64  C   UNL A   1      43.901  33.702  28.239  1.00  0.00     0.134 A 
ATOM     65  C   UNL A   1      46.177  33.253  27.721  1.00  0.00     0.134 A 
ATOM     66  F   UNL A   1      42.718  33.409  28.799  1.00  0.00    -0.206 F 
ATOM     67  C   UNL A   1      43.949  34.866  27.460  1.00  0.00     0.040 A 
ATOM     68  C   UNL A   1      46.248  34.439  26.979  1.00  0.00     0.040 A 
ATOM     69  F   UNL A   1      47.280  32.498  27.678  1.00  0.00    -0.206 F 
ATOM     70  C   UNL A   1      45.123  35.234  26.819  1.00  0.00     0.006 A 
ENDBRANCH  49  63
BRANCH  50  71
ATOM     71  C   UNL A   1      36.936  31.680  30.815  1.00  0.00     0.057 A 
ATOM     72  C   UNL A   1      36.097  31.620  31.938  1.00  0.00     0.134 A 
ATOM     73  C   UNL A   1      36.605  32.631  29.837  1.00  0.00     0.134 A 
ATOM     74  F   UNL A   1      36.340  30.746  32.924  1.00  0.00    -0.206 F 
ATOM     75  C   UNL A   1      35.036  32.512  32.119  1.00  0.00     0.040 A 
ATOM     76  C   UNL A   1      35.544  33.527  30.005  1.00  0.00     0.040 A 
ATOM     77  F   UNL A   1      37.363  32.784  28.741  1.00  0.00    -0.206 F 
ATOM     78  C   UNL A   1      34.773  33.487  31.162  1.00  0.00     0.006 A 
ENDBRANCH  50  71
BRANCH  62  79
ATOM     79  C   UNL A   1      42.095  29.674  33.745  1.00  0.00     0.057 A 
ATOM     80  C   UNL A   1      41.761  28.363  33.380  1.00  0.00     0.134 A 
ATOM     81  C   UNL A   1      42.240  29.938  35.111  1.00  0.00     0.134 A 
ATOM     82  F   UNL A   1      41.666  28.002  32.093  1.00  0.00    -0.206 F 
ATOM     83  C   UNL A   1      41.541  27.370  34.339  1.00  0.00     0.040 A 
ATOM     84  C   UNL A   1      42.054  28.950  36.077  1.00  0.00     0.040 A 
ATOM     85  F   UNL A   1      42.593  31.165  35.528  1.00  0.00    -0.206 F 
ATOM     86  C   UNL A   1      41.692  27.662  35.693  1.00  0.00     0.006 A 
ENDBRANCH  62  79
ENDBRANCH  36  37
ENDBRANCH  28  31
ENDBRANCH  26  27
ENDBRANCH  25  26
ENDBRANCH  24  25
ENDBRANCH   1  24
TORSDOF 16
ENDMDL
MODEL 3
REMARK VINA RESULT:     -11.3      4.156      9.870
REMARK SMILES Cc1cc(C)n2ncc(C(=O)N(C)CCCC(=O)NCCCCNC(=O)c3ccc(-c4c5nc(c(-c6c(F)cccc6F)c6ccc([nH]6)c(-c6c(F)cccc6F)c6nc(c(-c7c(F)cccc7F)c7ccc4[nH]7)C=C6)C=C5)cc3)c2n1
REMARK SMILES IDX 20 1 19 2 17 3 18 4 16 6 15 7 14 8 12 9 13 10 10 11 11 12
REMARK SMILES IDX 9 13 1 14 2 15 3 16 82 17 4 18 81 19 5 20 6 21 7 22 8 23
REMARK SMILES IDX 21 24 22 25 23 26 24 27 25 28 26 30 27 31 28 32 80 33 29 34
REMARK SMILES IDX 79 35 30 36 31 37 32 38 73 39 33 40 78 41 72 42 74 43 34 44
REMARK SMILES IDX 77 45 71 46 70 47 35 49 61 50 44 51 60 52 45 53 48 54 59 55
REMARK SMILES IDX 75 56 46 57 47 58 58 60 76 61 49 62 36 63 37 64 42 65 38 66
REMARK SMILES IDX 39 67 41 68 43 69 40 70 62 71 63 72 68 73 64 74 65 75 67 76
REMARK SMILES IDX 69 77 66 78 50 79 51 80 56 81 52 82 53 83 55 84 57 85 54 86
REMARK H PARENT 19 5 24 29 74 48 48 59
REMARK Flexibility Score: inf
ROOT
ATOM      1  C   UNL A   1      34.119  31.772  28.165  1.00  0.00     0.116 C 
ENDROOT
BRANCH   1   2
ATOM      2  N   UNL A   1      33.042  31.374  27.286  1.00  0.00    -0.356 N 
ATOM      3  C   UNL A   1      32.871  30.309  26.466  1.00  0.00     0.220 C 
ATOM      4  O   UNL A   1      31.795  30.274  25.856  1.00  0.00    -0.275 OA
ATOM      5  H   UNL A   1      32.283  31.999  27.284  1.00  0.00     0.163 HD
BRANCH   3   6
ATOM      6  C   UNL A   1      33.827  29.132  26.360  1.00  0.00     0.102 C 
BRANCH   6   7
ATOM      7  C   UNL A   1      33.542  27.858  25.553  1.00  0.00     0.031 C 
BRANCH   7   8
ATOM      8  C   UNL A   1      33.171  26.499  26.163  1.00  0.00     0.120 C 
BRANCH   8   9
ATOM      9  N   UNL A   1      32.247  25.504  25.574  1.00  0.00    -0.342 N 
ATOM     10  C   UNL A   1      31.787  25.892  24.245  1.00  0.00     0.147 C 
BRANCH   9  11
ATOM     11  C   UNL A   1      31.897  24.316  26.237  1.00  0.00     0.259 C 
ATOM     12  O   UNL A   1      31.352  24.377  27.334  1.00  0.00    -0.269 OA
BRANCH  11  13
ATOM     13  C   UNL A   1      32.142  22.981  25.682  1.00  0.00     0.104 A 
ATOM     14  C   UNL A   1      37.069  22.894  25.442  1.00  0.00     0.067 C 
ATOM     15  C   UNL A   1      35.689  22.300  25.305  1.00  0.00     0.042 A 
ATOM     16  C   UNL A   1      35.621  20.836  25.017  1.00  0.00     0.047 A 
ATOM     17  N   UNL A   1      34.656  23.079  25.436  1.00  0.00    -0.233 NA
ATOM     18  C   UNL A   1      34.390  20.309  24.894  1.00  0.00     0.043 A 
ATOM     19  C   UNL A   1      33.415  22.493  25.382  1.00  0.00     0.168 A 
ATOM     20  C   UNL A   1      34.163  18.856  24.618  1.00  0.00     0.067 C 
ATOM     21  N   UNL A   1      33.269  21.136  25.071  1.00  0.00    -0.219 N 
ATOM     22  N   UNL A   1      31.961  20.783  25.028  1.00  0.00    -0.174 NA
ATOM     23  C   UNL A   1      31.312  21.865  25.458  1.00  0.00     0.151 A 
ENDBRANCH  11  13
ENDBRANCH   9  11
ENDBRANCH   8   9
ENDBRANCH   7   8
ENDBRANCH   6   7
ENDBRANCH   3   6
ENDBRANCH   1   2
BRANCH   1  24
ATOM     24  C   UNL A   1      34.389  33.281  28.056  1.00  0.00     0.023 C 
BRANCH  24  25
ATOM     25  C   UNL A   1      33.299  34.198  28.627  1.00  0.00     0.023 C 
BRANCH  25  26
ATOM     26  C   UNL A   1      33.816  35.484  29.261  1.00  0.00     0.116 C 
BRANCH  26  27
ATOM     27  N   UNL A   1      33.069  35.884  30.452  1.00  0.00    -0.352 N 
ATOM     28  C   UNL A   1      33.089  35.280  31.700  1.00  0.00     0.251 C 
ATOM     29  H   UNL A   1      32.486  36.672  30.357  1.00  0.00     0.163 HD
ATOM     30  O   UNL A   1      32.191  35.434  32.499  1.00  0.00    -0.269 OA
BRANCH  28  31
ATOM     31  C   UNL A   1      34.248  34.424  32.017  1.00  0.00     0.039 A 
ATOM     32  C   UNL A   1      34.132  33.036  31.994  1.00  0.00     0.014 A 
ATOM     33  C   UNL A   1      35.483  35.042  32.202  1.00  0.00     0.014 A 
ATOM     34  C   UNL A   1      35.295  32.272  32.039  1.00  0.00     0.010 A 
ATOM     35  C   UNL A   1      36.636  34.287  32.126  1.00  0.00     0.010 A 
ATOM     36  C   UNL A   1      36.559  32.898  32.050  1.00  0.00    -0.014 A 
BRANCH  36  37
ATOM     37  C   UNL A   1      37.767  32.083  31.860  1.00  0.00     0.031 A 
ATOM     38  C   UNL A   1      38.551  31.800  33.100  1.00  0.00     0.074 A 
ATOM     39  C   UNL A   1      38.153  31.494  30.707  1.00  0.00     0.049 A 
ATOM     40  N   UNL A   1      39.693  32.310  33.428  1.00  0.00    -0.248 NA
ATOM     41  C   UNL A   1      37.966  30.942  34.141  1.00  0.00     0.031 C 
ATOM     42  C   UNL A   1      37.428  31.398  29.434  1.00  0.00     0.029 A 
ATOM     43  N   UNL A   1      39.300  30.791  30.453  1.00  0.00    -0.354 N 
ATOM     44  C   UNL A   1      40.068  31.705  34.625  1.00  0.00     0.074 A 
ATOM     45  C   UNL A   1      38.914  30.975  35.083  1.00  0.00     0.031 C 
ATOM     46  C   UNL A   1      38.045  30.511  28.622  1.00  0.00     0.029 A 
ATOM     47  C   UNL A   1      39.308  30.140  29.228  1.00  0.00     0.049 A 
ATOM     48  H   UNL A   1      40.054  30.752  31.085  1.00  0.00     0.167 HD
ATOM     49  C   UNL A   1      41.373  31.685  35.016  1.00  0.00     0.037 A 
ATOM     50  C   UNL A   1      40.304  29.392  28.702  1.00  0.00     0.037 A 
ATOM     51  C   UNL A   1      42.164  32.582  34.213  1.00  0.00     0.049 A 
ATOM     52  C   UNL A   1      41.570  29.851  29.305  1.00  0.00     0.074 A 
ATOM     53  C   UNL A   1      42.370  33.939  34.116  1.00  0.00     0.029 A 
ATOM     54  N   UNL A   1      42.651  32.013  33.068  1.00  0.00    -0.354 N 
ATOM     55  N   UNL A   1      42.098  31.019  29.074  1.00  0.00    -0.248 NA
ATOM     56  C   UNL A   1      42.159  29.100  30.407  1.00  0.00     0.031 C 
ATOM     57  C   UNL A   1      42.783  34.180  32.771  1.00  0.00     0.029 A 
ATOM     58  C   UNL A   1      42.840  32.960  32.100  1.00  0.00     0.049 A 
ATOM     59  H   UNL A   1      42.840  31.053  32.957  1.00  0.00     0.167 HD
ATOM     60  C   UNL A   1      42.760  31.323  30.244  1.00  0.00     0.074 A 
ATOM     61  C   UNL A   1      42.934  30.052  30.930  1.00  0.00     0.031 C 
ATOM     62  C   UNL A   1      42.814  32.607  30.699  1.00  0.00     0.037 A 
BRANCH  49  63
ATOM     63  C   UNL A   1      42.050  30.566  35.783  1.00  0.00     0.057 A 
ATOM     64  C   UNL A   1      42.963  30.891  36.808  1.00  0.00     0.134 A 
ATOM     65  C   UNL A   1      42.097  29.229  35.346  1.00  0.00     0.134 A 
ATOM     66  F   UNL A   1      43.028  32.135  37.305  1.00  0.00    -0.206 F 
ATOM     67  C   UNL A   1      43.900  29.973  37.303  1.00  0.00     0.040 A 
ATOM     68  C   UNL A   1      42.997  28.292  35.868  1.00  0.00     0.040 A 
ATOM     69  F   UNL A   1      41.356  28.786  34.324  1.00  0.00    -0.206 F 
ATOM     70  C   UNL A   1      43.925  28.670  36.826  1.00  0.00     0.006 A 
ENDBRANCH  49  63
BRANCH  50  71
ATOM     71  C   UNL A   1      40.258  28.223  27.804  1.00  0.00     0.057 A 
ATOM     72  C   UNL A   1      40.955  28.226  26.587  1.00  0.00     0.134 A 
ATOM     73  C   UNL A   1      39.822  26.975  28.273  1.00  0.00     0.134 A 
ATOM     74  F   UNL A   1      41.412  29.372  26.066  1.00  0.00    -0.206 F 
ATOM     75  C   UNL A   1      41.275  27.043  25.913  1.00  0.00     0.040 A 
ATOM     76  C   UNL A   1      40.133  25.785  27.608  1.00  0.00     0.040 A 
ATOM     77  F   UNL A   1      39.172  26.866  29.442  1.00  0.00    -0.206 F 
ATOM     78  C   UNL A   1      40.885  25.815  26.438  1.00  0.00     0.006 A 
ENDBRANCH  50  71
BRANCH  62  79
ATOM     79  C   UNL A   1      42.645  33.698  29.690  1.00  0.00     0.057 A 
ATOM     80  C   UNL A   1      41.468  34.432  29.494  1.00  0.00     0.134 A 
ATOM     81  C   UNL A   1      43.755  34.056  28.917  1.00  0.00     0.134 A 
ATOM     82  F   UNL A   1      40.375  34.205  30.235  1.00  0.00    -0.206 F 
ATOM     83  C   UNL A   1      41.391  35.452  28.540  1.00  0.00     0.040 A 
ATOM     84  C   UNL A   1      43.702  35.092  27.984  1.00  0.00     0.040 A 
ATOM     85  F   UNL A   1      44.925  33.417  29.079  1.00  0.00    -0.206 F 
ATOM     86  C   UNL A   1      42.513  35.787  27.785  1.00  0.00     0.006 A 
ENDBRANCH  62  79
ENDBRANCH  36  37
ENDBRANCH  28  31
ENDBRANCH  26  27
ENDBRANCH  25  26
ENDBRANCH  24  25
ENDBRANCH   1  24
TORSDOF 16
ENDMDL
