MODEL 1
REMARK VINA RESULT:     -12.0      0.000      0.000
REMARK SMILES O=C(Nc1nc(C2CC2)cs1)N[C@@H]1C=C[C@@H](C(=O)NCCCCNC(=O)c2ccc(-c3c4nc(c(-c5c(F)cccc5F)c5ccc([nH]5)c(-c5c(F)cccc5F)c5nc(c(-c6c(F)cccc6F)c6ccc3[nH]6)C=C5)C=C4)cc2)C1
REMARK SMILES IDX 21 1 20 2 19 3 17 4 18 5 16 7 13 8 14 9 81 10 15 11 12 12
REMARK SMILES IDX 1 13 2 14 3 15 4 18 5 19 11 20 6 21 10 22 7 23 8 24 9 25
REMARK SMILES IDX 22 26 23 27 24 28 25 29 26 31 27 32 28 33 80 34 29 35 79 36
REMARK SMILES IDX 30 37 31 38 32 39 73 40 33 41 78 42 72 43 74 44 34 45 77 46
REMARK SMILES IDX 71 47 70 48 35 50 61 51 44 52 60 53 45 54 48 55 59 56 75 57
REMARK SMILES IDX 46 58 47 59 58 61 76 62 49 63 36 64 37 65 42 66 38 67 39 68
REMARK SMILES IDX 41 69 43 70 40 71 62 72 63 73 68 74 64 75 65 76 67 77 69 78
REMARK SMILES IDX 66 79 50 80 51 81 56 82 52 83 53 84 55 85 57 86 54 87
REMARK H PARENT 19 6 3 16 12 17 24 30 74 49 48 60
REMARK Flexibility Score: inf
ROOT
ATOM      1  C   UNL A   1      37.123  20.848  24.611  1.00  0.00     0.023 C 
ENDROOT
BRANCH   1   2
ATOM      2  C   UNL A   1      35.985  21.116  25.589  1.00  0.00     0.116 C 
BRANCH   2   3
ATOM      3  N   UNL A   1      34.799  20.355  25.254  1.00  0.00    -0.356 N 
ATOM      4  C   UNL A   1      33.568  20.768  24.843  1.00  0.00     0.227 C 
ATOM      5  O   UNL A   1      32.731  19.889  24.612  1.00  0.00    -0.274 OA
ATOM      6  H   UNL A   1      34.900  19.380  25.336  1.00  0.00     0.163 HD
BRANCH   4   7
ATOM      7  C   UNL A   1      33.211  22.247  24.656  1.00  0.00     0.103 C 
ATOM      8  C   UNL A   1      32.418  23.596  22.740  1.00  0.00     0.107 C 
ATOM      9  C   UNL A   1      31.310  23.195  23.656  1.00  0.00    -0.006 C 
ATOM     10  C   UNL A   1      33.647  22.863  23.319  1.00  0.00     0.047 C 
ATOM     11  C   UNL A   1      31.735  22.484  24.707  1.00  0.00    -0.016 C 
BRANCH   8  12
ATOM     12  N   UNL A   1      32.626  25.033  22.659  1.00  0.00    -0.332 N 
ATOM     13  O   UNL A   1      33.126  25.348  20.434  1.00  0.00    -0.248 OA
ATOM     14  C   UNL A   1      32.850  25.787  21.549  1.00  0.00     0.321 C 
ATOM     15  N   UNL A   1      32.656  27.126  21.655  1.00  0.00    -0.284 N 
ATOM     16  H   UNL A   1      32.665  27.634  20.811  1.00  0.00     0.174 HD
ATOM     17  H   UNL A   1      32.602  25.520  23.515  1.00  0.00     0.165 HD
BRANCH  15  18
ATOM     18  C   UNL A   1      32.452  27.848  22.788  1.00  0.00     0.191 A 
ATOM     19  N   UNL A   1      33.263  28.050  23.798  1.00  0.00    -0.225 NA
ATOM     20  S   UNL A   1      30.914  28.581  22.862  1.00  0.00    -0.105 S 
ATOM     21  C   UNL A   1      32.628  28.896  24.694  1.00  0.00     0.057 A 
ATOM     22  C   UNL A   1      31.311  29.196  24.411  1.00  0.00     0.092 A 
BRANCH  21  23
ATOM     23  C   UNL A   1      33.333  29.521  25.892  1.00  0.00     0.039 C 
ATOM     24  C   UNL A   1      32.647  29.582  27.236  1.00  0.00     0.011 C 
ATOM     25  C   UNL A   1      33.731  28.580  27.012  1.00  0.00     0.011 C 
ENDBRANCH  21  23
ENDBRANCH  15  18
ENDBRANCH   8  12
ENDBRANCH   4   7
ENDBRANCH   2   3
ENDBRANCH   1   2
BRANCH   1  26
ATOM     26  C   UNL A   1      38.044  19.699  25.014  1.00  0.00     0.023 C 
BRANCH  26  27
ATOM     27  C   UNL A   1      39.228  20.100  25.888  1.00  0.00     0.116 C 
BRANCH  27  28
ATOM     28  N   UNL A   1      40.278  19.091  25.925  1.00  0.00    -0.352 N 
ATOM     29  C   UNL A   1      41.619  19.249  26.170  1.00  0.00     0.251 C 
ATOM     30  H   UNL A   1      39.984  18.168  25.752  1.00  0.00     0.163 HD
ATOM     31  O   UNL A   1      42.392  18.305  26.031  1.00  0.00    -0.269 OA
BRANCH  29  32
ATOM     32  C   UNL A   1      42.135  20.575  26.566  1.00  0.00     0.039 A 
ATOM     33  C   UNL A   1      42.580  21.450  25.573  1.00  0.00     0.014 A 
ATOM     34  C   UNL A   1      42.147  20.965  27.908  1.00  0.00     0.014 A 
ATOM     35  C   UNL A   1      42.966  22.746  25.920  1.00  0.00     0.010 A 
ATOM     36  C   UNL A   1      42.454  22.278  28.242  1.00  0.00     0.010 A 
ATOM     37  C   UNL A   1      42.866  23.183  27.252  1.00  0.00    -0.014 A 
BRANCH  37  38
ATOM     38  C   UNL A   1      43.181  24.585  27.625  1.00  0.00     0.031 A 
ATOM     39  C   UNL A   1      44.610  25.040  27.720  1.00  0.00     0.074 A 
ATOM     40  C   UNL A   1      42.180  25.430  27.942  1.00  0.00     0.049 A 
ATOM     41  N   UNL A   1      45.084  26.203  28.087  1.00  0.00    -0.248 NA
ATOM     42  C   UNL A   1      45.644  24.048  27.385  1.00  0.00     0.031 C 
ATOM     43  C   UNL A   1      40.755  25.094  27.942  1.00  0.00     0.029 A 
ATOM     44  N   UNL A   1      42.211  26.744  28.337  1.00  0.00    -0.354 N 
ATOM     45  C   UNL A   1      46.467  26.079  28.039  1.00  0.00     0.074 A 
ATOM     46  C   UNL A   1      46.755  24.712  27.664  1.00  0.00     0.031 C 
ATOM     47  C   UNL A   1      40.047  26.180  28.291  1.00  0.00     0.029 A 
ATOM     48  C   UNL A   1      40.967  27.276  28.579  1.00  0.00     0.049 A 
ATOM     49  H   UNL A   1      43.044  27.258  28.438  1.00  0.00     0.167 HD
ATOM     50  C   UNL A   1      47.410  27.024  28.263  1.00  0.00     0.037 A 
ATOM     51  C   UNL A   1      40.609  28.507  28.990  1.00  0.00     0.037 A 
ATOM     52  C   UNL A   1      47.120  28.389  28.614  1.00  0.00     0.049 A 
ATOM     53  C   UNL A   1      41.676  29.537  29.238  1.00  0.00     0.074 A 
ATOM     54  C   UNL A   1      48.003  29.438  28.802  1.00  0.00     0.029 A 
ATOM     55  N   UNL A   1      45.847  28.894  28.833  1.00  0.00    -0.354 N 
ATOM     56  N   UNL A   1      42.977  29.425  29.118  1.00  0.00    -0.248 NA
ATOM     57  C   UNL A   1      41.225  30.866  29.673  1.00  0.00     0.031 C 
ATOM     58  C   UNL A   1      47.268  30.566  29.181  1.00  0.00     0.029 A 
ATOM     59  C   UNL A   1      45.923  30.234  29.178  1.00  0.00     0.049 A 
ATOM     60  H   UNL A   1      45.013  28.377  28.756  1.00  0.00     0.167 HD
ATOM     61  C   UNL A   1      43.497  30.675  29.434  1.00  0.00     0.074 A 
ATOM     62  C   UNL A   1      42.369  31.532  29.736  1.00  0.00     0.031 C 
ATOM     63  C   UNL A   1      44.791  31.075  29.470  1.00  0.00     0.037 A 
BRANCH  50  64
ATOM     64  C   UNL A   1      48.847  26.612  28.127  1.00  0.00     0.057 A 
ATOM     65  C   UNL A   1      49.598  26.178  29.228  1.00  0.00     0.134 A 
ATOM     66  C   UNL A   1      49.480  26.618  26.878  1.00  0.00     0.134 A 
ATOM     67  F   UNL A   1      49.057  26.159  30.456  1.00  0.00    -0.206 F 
ATOM     68  C   UNL A   1      50.933  25.792  29.097  1.00  0.00     0.040 A 
ATOM     69  C   UNL A   1      50.806  26.207  26.729  1.00  0.00     0.040 A 
ATOM     70  F   UNL A   1      48.818  27.015  25.781  1.00  0.00    -0.206 F 
ATOM     71  C   UNL A   1      51.538  25.798  27.842  1.00  0.00     0.006 A 
ENDBRANCH  50  64
BRANCH  51  72
ATOM     72  C   UNL A   1      39.174  28.844  29.172  1.00  0.00     0.057 A 
ATOM     73  C   UNL A   1      38.416  29.364  28.117  1.00  0.00     0.134 A 
ATOM     74  C   UNL A   1      38.530  28.665  30.402  1.00  0.00     0.134 A 
ATOM     75  F   UNL A   1      38.982  29.576  26.919  1.00  0.00    -0.206 F 
ATOM     76  C   UNL A   1      37.076  29.716  28.283  1.00  0.00     0.040 A 
ATOM     77  C   UNL A   1      37.183  28.988  30.575  1.00  0.00     0.040 A 
ATOM     78  F   UNL A   1      39.198  28.163  31.451  1.00  0.00    -0.206 F 
ATOM     79  C   UNL A   1      36.454  29.523  29.514  1.00  0.00     0.006 A 
ENDBRANCH  51  72
BRANCH  63  80
ATOM     80  C   UNL A   1      45.055  32.513  29.813  1.00  0.00     0.057 A 
ATOM     81  C   UNL A   1      45.323  32.924  31.125  1.00  0.00     0.134 A 
ATOM     82  C   UNL A   1      45.077  33.491  28.811  1.00  0.00     0.134 A 
ATOM     83  F   UNL A   1      45.303  32.038  32.133  1.00  0.00    -0.206 F 
ATOM     84  C   UNL A   1      45.578  34.262  31.432  1.00  0.00     0.040 A 
ATOM     85  C   UNL A   1      45.359  34.826  29.101  1.00  0.00     0.040 A 
ATOM     86  F   UNL A   1      44.838  33.163  27.533  1.00  0.00    -0.206 F 
ATOM     87  C   UNL A   1      45.605  35.216  30.416  1.00  0.00     0.006 A 
ENDBRANCH  63  80
ENDBRANCH  37  38
ENDBRANCH  29  32
ENDBRANCH  27  28
ENDBRANCH  26  27
ENDBRANCH   1  26
TORSDOF 14
ENDMDL
MODEL 2
REMARK VINA RESULT:     -11.9      4.709      9.929
REMARK SMILES O=C(Nc1nc(C2CC2)cs1)N[C@@H]1C=C[C@@H](C(=O)NCCCCNC(=O)c2ccc(-c3c4nc(c(-c5c(F)cccc5F)c5ccc([nH]5)c(-c5c(F)cccc5F)c5nc(c(-c6c(F)cccc6F)c6ccc3[nH]6)C=C5)C=C4)cc2)C1
REMARK SMILES IDX 21 1 20 2 19 3 17 4 18 5 16 7 13 8 14 9 81 10 15 11 12 12
REMARK SMILES IDX 1 13 2 14 3 15 4 18 5 19 11 20 6 21 10 22 7 23 8 24 9 25
REMARK SMILES IDX 22 26 23 27 24 28 25 29 26 31 27 32 28 33 80 34 29 35 79 36
REMARK SMILES IDX 30 37 31 38 32 39 73 40 33 41 78 42 72 43 74 44 34 45 77 46
REMARK SMILES IDX 71 47 70 48 35 50 61 51 44 52 60 53 45 54 48 55 59 56 75 57
REMARK SMILES IDX 46 58 47 59 58 61 76 62 49 63 36 64 37 65 42 66 38 67 39 68
REMARK SMILES IDX 41 69 43 70 40 71 62 72 63 73 68 74 64 75 65 76 67 77 69 78
REMARK SMILES IDX 66 79 50 80 51 81 56 82 52 83 53 84 55 85 57 86 54 87
REMARK H PARENT 19 6 3 16 12 17 24 30 74 49 48 60
REMARK Flexibility Score: inf
ROOT
ATOM      1  C   UNL A   1      31.776  30.505  26.831  1.00  0.00     0.023 C 
ENDROOT
BRANCH   1   2
ATOM      2  C   UNL A   1      32.229  29.976  25.475  1.00  0.00     0.116 C 
BRANCH   2   3
ATOM      3  N   UNL A   1      31.114  29.808  24.566  1.00  0.00    -0.356 N 
ATOM      4  C   UNL A   1      30.629  28.692  23.954  1.00  0.00     0.227 C 
ATOM      5  O   UNL A   1      29.642  28.837  23.225  1.00  0.00    -0.274 OA
ATOM      6  H   UNL A   1      30.625  30.637  24.356  1.00  0.00     0.163 HD
BRANCH   4   7
ATOM      7  C   UNL A   1      31.251  27.305  24.150  1.00  0.00     0.103 C 
ATOM      8  C   UNL A   1      30.432  25.171  25.096  1.00  0.00     0.107 C 
ATOM      9  C   UNL A   1      30.370  25.198  23.605  1.00  0.00    -0.006 C 
ATOM     10  C   UNL A   1      30.883  26.601  25.464  1.00  0.00     0.047 C 
ATOM     11  C   UNL A   1      30.833  26.341  23.086  1.00  0.00    -0.016 C 
BRANCH   8  12
ATOM     12  N   UNL A   1      31.331  24.160  25.631  1.00  0.00    -0.332 N 
ATOM     13  O   UNL A   1      30.162  23.351  27.442  1.00  0.00    -0.248 OA
ATOM     14  C   UNL A   1      31.102  23.289  26.651  1.00  0.00     0.321 C 
ATOM     15  N   UNL A   1      31.918  22.209  26.745  1.00  0.00    -0.284 N 
ATOM     16  H   UNL A   1      31.643  21.512  27.384  1.00  0.00     0.174 HD
ATOM     17  H   UNL A   1      32.215  24.098  25.201  1.00  0.00     0.165 HD
BRANCH  15  18
ATOM     18  C   UNL A   1      33.070  21.977  26.063  1.00  0.00     0.191 A 
ATOM     19  N   UNL A   1      34.014  22.821  25.724  1.00  0.00    -0.225 NA
ATOM     20  S   UNL A   1      33.278  20.347  25.608  1.00  0.00    -0.105 S 
ATOM     21  C   UNL A   1      35.015  22.108  25.082  1.00  0.00     0.057 A 
ATOM     22  C   UNL A   1      34.740  20.779  24.828  1.00  0.00     0.092 A 
BRANCH  21  23
ATOM     23  C   UNL A   1      36.368  22.710  24.723  1.00  0.00     0.039 C 
ATOM     24  C   UNL A   1      36.965  23.808  25.570  1.00  0.00     0.011 C 
ATOM     25  C   UNL A   1      37.511  22.423  25.677  1.00  0.00     0.011 C 
ENDBRANCH  21  23
ENDBRANCH  15  18
ENDBRANCH   8  12
ENDBRANCH   4   7
ENDBRANCH   2   3
ENDBRANCH   1   2
BRANCH   1  26
ATOM     26  C   UNL A   1      31.521  32.010  26.868  1.00  0.00     0.023 C 
BRANCH  26  27
ATOM     27  C   UNL A   1      32.754  32.865  27.141  1.00  0.00     0.116 C 
BRANCH  27  28
ATOM     28  N   UNL A   1      32.429  34.202  27.615  1.00  0.00    -0.352 N 
ATOM     29  C   UNL A   1      33.023  34.934  28.614  1.00  0.00     0.251 C 
ATOM     30  H   UNL A   1      31.678  34.644  27.155  1.00  0.00     0.163 HD
ATOM     31  O   UNL A   1      32.536  36.000  28.978  1.00  0.00    -0.269 OA
BRANCH  29  32
ATOM     32  C   UNL A   1      34.236  34.411  29.274  1.00  0.00     0.039 A 
ATOM     33  C   UNL A   1      34.101  33.699  30.469  1.00  0.00     0.014 A 
ATOM     34  C   UNL A   1      35.496  34.592  28.700  1.00  0.00     0.014 A 
ATOM     35  C   UNL A   1      35.223  33.104  31.046  1.00  0.00     0.010 A 
ATOM     36  C   UNL A   1      36.598  33.932  29.231  1.00  0.00     0.010 A 
ATOM     37  C   UNL A   1      36.474  33.181  30.410  1.00  0.00    -0.014 A 
BRANCH  37  38
ATOM     38  C   UNL A   1      37.659  32.476  30.958  1.00  0.00     0.031 A 
ATOM     39  C   UNL A   1      38.335  32.985  32.200  1.00  0.00     0.074 A 
ATOM     40  C   UNL A   1      38.164  31.413  30.301  1.00  0.00     0.049 A 
ATOM     41  N   UNL A   1      39.413  32.542  32.795  1.00  0.00    -0.248 NA
ATOM     42  C   UNL A   1      37.737  34.166  32.841  1.00  0.00     0.031 C 
ATOM     43  C   UNL A   1      37.632  30.855  29.056  1.00  0.00     0.029 A 
ATOM     44  N   UNL A   1      39.248  30.620  30.582  1.00  0.00    -0.354 N 
ATOM     45  C   UNL A   1      39.628  33.394  33.870  1.00  0.00     0.074 A 
ATOM     46  C   UNL A   1      38.604  34.414  33.812  1.00  0.00     0.031 C 
ATOM     47  C   UNL A   1      38.373  29.794  28.697  1.00  0.00     0.029 A 
ATOM     48  C   UNL A   1      39.455  29.621  29.662  1.00  0.00     0.049 A 
ATOM     49  H   UNL A   1      39.824  30.753  31.370  1.00  0.00     0.167 HD
ATOM     50  C   UNL A   1      40.578  33.320  34.832  1.00  0.00     0.037 A 
ATOM     51  C   UNL A   1      40.411  28.676  29.599  1.00  0.00     0.037 A 
ATOM     52  C   UNL A   1      41.582  32.291  34.901  1.00  0.00     0.049 A 
ATOM     53  C   UNL A   1      41.458  28.619  30.676  1.00  0.00     0.074 A 
ATOM     54  C   UNL A   1      42.551  32.094  35.869  1.00  0.00     0.029 A 
ATOM     55  N   UNL A   1      41.748  31.287  33.958  1.00  0.00    -0.354 N 
ATOM     56  N   UNL A   1      41.606  29.388  31.728  1.00  0.00    -0.248 NA
ATOM     57  C   UNL A   1      42.468  27.557  30.563  1.00  0.00     0.031 C 
ATOM     58  C   UNL A   1      43.332  30.999  35.489  1.00  0.00     0.029 A 
ATOM     59  C   UNL A   1      42.819  30.482  34.310  1.00  0.00     0.049 A 
ATOM     60  H   UNL A   1      41.189  31.166  33.157  1.00  0.00     0.167 HD
ATOM     61  C   UNL A   1      42.705  28.888  32.415  1.00  0.00     0.074 A 
ATOM     62  C   UNL A   1      43.176  27.740  31.668  1.00  0.00     0.031 C 
ATOM     63  C   UNL A   1      43.272  29.338  33.560  1.00  0.00     0.037 A 
BRANCH  50  64
ATOM     64  C   UNL A   1      40.569  34.381  35.895  1.00  0.00     0.057 A 
ATOM     65  C   UNL A   1      41.314  35.561  35.766  1.00  0.00     0.134 A 
ATOM     66  C   UNL A   1      39.783  34.237  37.046  1.00  0.00     0.134 A 
ATOM     67  F   UNL A   1      42.097  35.758  34.694  1.00  0.00    -0.206 F 
ATOM     68  C   UNL A   1      41.299  36.547  36.755  1.00  0.00     0.040 A 
ATOM     69  C   UNL A   1      39.739  35.228  38.028  1.00  0.00     0.040 A 
ATOM     70  F   UNL A   1      39.041  33.135  37.230  1.00  0.00    -0.206 F 
ATOM     71  C   UNL A   1      40.503  36.384  37.886  1.00  0.00     0.006 A 
ENDBRANCH  50  64
BRANCH  51  72
ATOM     72  C   UNL A   1      40.413  27.689  28.489  1.00  0.00     0.057 A 
ATOM     73  C   UNL A   1      41.127  27.931  27.310  1.00  0.00     0.134 A 
ATOM     74  C   UNL A   1      39.697  26.489  28.575  1.00  0.00     0.134 A 
ATOM     75  F   UNL A   1      41.817  29.071  27.161  1.00  0.00    -0.206 F 
ATOM     76  C   UNL A   1      41.111  27.027  26.247  1.00  0.00     0.040 A 
ATOM     77  C   UNL A   1      39.694  25.564  27.530  1.00  0.00     0.040 A 
ATOM     78  F   UNL A   1      38.999  26.193  29.682  1.00  0.00    -0.206 F 
ATOM     79  C   UNL A   1      40.397  25.836  26.358  1.00  0.00     0.006 A 
ENDBRANCH  51  72
BRANCH  63  80
ATOM     80  C   UNL A   1      44.443  28.567  34.096  1.00  0.00     0.057 A 
ATOM     81  C   UNL A   1      44.278  27.467  34.948  1.00  0.00     0.134 A 
ATOM     82  C   UNL A   1      45.750  28.908  33.725  1.00  0.00     0.134 A 
ATOM     83  F   UNL A   1      43.053  27.097  35.352  1.00  0.00    -0.206 F 
ATOM     84  C   UNL A   1      45.374  26.750  35.432  1.00  0.00     0.040 A 
ATOM     85  C   UNL A   1      46.850  28.181  34.180  1.00  0.00     0.040 A 
ATOM     86  F   UNL A   1      45.977  29.945  32.905  1.00  0.00    -0.206 F 
ATOM     87  C   UNL A   1      46.665  27.102  35.042  1.00  0.00     0.006 A 
ENDBRANCH  63  80
ENDBRANCH  37  38
ENDBRANCH  29  32
ENDBRANCH  27  28
ENDBRANCH  26  27
ENDBRANCH   1  26
TORSDOF 14
ENDMDL
MODEL 3
REMARK VINA RESULT:     -11.9      5.046      9.685
REMARK SMILES O=C(Nc1nc(C2CC2)cs1)N[C@@H]1C=C[C@@H](C(=O)NCCCCNC(=O)c2ccc(-c3c4nc(c(-c5c(F)cccc5F)c5ccc([nH]5)c(-c5c(F)cccc5F)c5nc(c(-c6c(F)cccc6F)c6ccc3[nH]6)C=C5)C=C4)cc2)C1
REMARK SMILES IDX 21 1 20 2 19 3 17 4 18 5 16 7 13 8 14 9 81 10 15 11 12 12
REMARK SMILES IDX 1 13 2 14 3 15 4 18 5 19 11 20 6 21 10 22 7 23 8 24 9 25
REMARK SMILES IDX 22 26 23 27 24 28 25 29 26 31 27 32 28 33 80 34 29 35 79 36
REMARK SMILES IDX 30 37 31 38 32 39 73 40 33 41 78 42 72 43 74 44 34 45 77 46
REMARK SMILES IDX 71 47 70 48 35 50 61 51 44 52 60 53 45 54 48 55 59 56 75 57
REMARK SMILES IDX 46 58 47 59 58 61 76 62 49 63 36 64 37 65 42 66 38 67 39 68
REMARK SMILES IDX 41 69 43 70 40 71 62 72 63 73 68 74 64 75 65 76 67 77 69 78
REMARK SMILES IDX 66 79 50 80 51 81 56 82 52 83 53 84 55 85 57 86 54 87
REMARK H PARENT 19 6 3 16 12 17 24 30 74 49 48 60
REMARK Flexibility Score: inf
ROOT
ATOM      1  C   UNL A   1      31.768  30.407  26.610  1.00  0.00     0.023 C 
ENDROOT
BRANCH   1   2
ATOM      2  C   UNL A   1      32.195  29.932  25.226  1.00  0.00     0.116 C 
BRANCH   2   3
ATOM      3  N   UNL A   1      31.055  29.704  24.362  1.00  0.00    -0.356 N 
ATOM      4  C   UNL A   1      30.575  28.554  23.812  1.00  0.00     0.227 C 
ATOM      5  O   UNL A   1      29.562  28.648  23.112  1.00  0.00    -0.274 OA
ATOM      6  H   UNL A   1      30.542  30.513  24.135  1.00  0.00     0.163 HD
BRANCH   4   7
ATOM      7  C   UNL A   1      31.233  27.188  24.044  1.00  0.00     0.103 C 
ATOM      8  C   UNL A   1      30.479  25.067  25.069  1.00  0.00     0.107 C 
ATOM      9  C   UNL A   1      30.396  25.045  23.579  1.00  0.00    -0.006 C 
ATOM     10  C   UNL A   1      30.900  26.519  25.385  1.00  0.00     0.047 C 
ATOM     11  C   UNL A   1      30.825  26.181  23.017  1.00  0.00    -0.016 C 
BRANCH   8  12
ATOM     12  N   UNL A   1      31.409  24.095  25.623  1.00  0.00    -0.332 N 
ATOM     13  O   UNL A   1      30.281  23.313  27.471  1.00  0.00    -0.248 OA
ATOM     14  C   UNL A   1      31.214  23.251  26.671  1.00  0.00     0.321 C 
ATOM     15  N   UNL A   1      32.058  22.194  26.788  1.00  0.00    -0.284 N 
ATOM     16  H   UNL A   1      31.808  21.510  27.450  1.00  0.00     0.174 HD
ATOM     17  H   UNL A   1      32.289  24.044  25.185  1.00  0.00     0.165 HD
BRANCH  15  18
ATOM     18  C   UNL A   1      33.208  21.972  26.099  1.00  0.00     0.191 A 
ATOM     19  N   UNL A   1      34.168  22.812  25.797  1.00  0.00    -0.225 NA
ATOM     20  S   UNL A   1      33.389  20.359  25.577  1.00  0.00    -0.105 S 
ATOM     21  C   UNL A   1      35.158  22.109  25.129  1.00  0.00     0.057 A 
ATOM     22  C   UNL A   1      34.861  20.797  24.819  1.00  0.00     0.092 A 
BRANCH  21  23
ATOM     23  C   UNL A   1      36.522  22.701  24.799  1.00  0.00     0.039 C 
ATOM     24  C   UNL A   1      37.118  23.782  25.669  1.00  0.00     0.011 C 
ATOM     25  C   UNL A   1      37.648  22.390  25.765  1.00  0.00     0.011 C 
ENDBRANCH  21  23
ENDBRANCH  15  18
ENDBRANCH   8  12
ENDBRANCH   4   7
ENDBRANCH   2   3
ENDBRANCH   1   2
BRANCH   1  26
ATOM     26  C   UNL A   1      31.550  31.914  26.720  1.00  0.00     0.023 C 
BRANCH  26  27
ATOM     27  C   UNL A   1      32.713  32.689  27.331  1.00  0.00     0.116 C 
BRANCH  27  28
ATOM     28  N   UNL A   1      32.384  34.078  27.620  1.00  0.00    -0.352 N 
ATOM     29  C   UNL A   1      32.957  34.929  28.532  1.00  0.00     0.251 C 
ATOM     30  H   UNL A   1      31.649  34.459  27.087  1.00  0.00     0.163 HD
ATOM     31  O   UNL A   1      32.468  36.035  28.743  1.00  0.00    -0.269 OA
BRANCH  29  32
ATOM     32  C   UNL A   1      34.149  34.491  29.287  1.00  0.00     0.039 A 
ATOM     33  C   UNL A   1      33.975  33.916  30.548  1.00  0.00     0.014 A 
ATOM     34  C   UNL A   1      35.427  34.616  28.738  1.00  0.00     0.014 A 
ATOM     35  C   UNL A   1      35.079  33.397  31.225  1.00  0.00     0.010 A 
ATOM     36  C   UNL A   1      36.513  34.027  29.377  1.00  0.00     0.010 A 
ATOM     37  C   UNL A   1      36.350  33.411  30.627  1.00  0.00    -0.014 A 
BRANCH  37  38
ATOM     38  C   UNL A   1      37.518  32.779  31.289  1.00  0.00     0.031 A 
ATOM     39  C   UNL A   1      38.177  31.575  30.675  1.00  0.00     0.074 A 
ATOM     40  C   UNL A   1      37.945  33.250  32.477  1.00  0.00     0.049 A 
ATOM     41  N   UNL A   1      39.166  30.851  31.132  1.00  0.00    -0.248 NA
ATOM     42  C   UNL A   1      37.632  31.107  29.391  1.00  0.00     0.031 C 
ATOM     43  C   UNL A   1      37.357  34.377  33.204  1.00  0.00     0.029 A 
ATOM     44  N   UNL A   1      38.969  32.831  33.290  1.00  0.00    -0.354 N 
ATOM     45  C   UNL A   1      39.355  29.838  30.200  1.00  0.00     0.074 A 
ATOM     46  C   UNL A   1      38.340  30.006  29.183  1.00  0.00     0.031 C 
ATOM     47  C   UNL A   1      38.045  34.577  34.339  1.00  0.00     0.029 A 
ATOM     48  C   UNL A   1      39.096  33.570  34.441  1.00  0.00     0.049 A 
ATOM     49  H   UNL A   1      39.556  32.072  33.070  1.00  0.00     0.167 HD
ATOM     50  C   UNL A   1      40.301  28.871  30.182  1.00  0.00     0.037 A 
ATOM     51  C   UNL A   1      39.960  33.447  35.466  1.00  0.00     0.037 A 
ATOM     52  C   UNL A   1      41.323  28.719  31.184  1.00  0.00     0.049 A 
ATOM     53  C   UNL A   1      40.998  32.360  35.425  1.00  0.00     0.074 A 
ATOM     54  C   UNL A   1      42.364  27.808  31.224  1.00  0.00     0.029 A 
ATOM     55  N   UNL A   1      41.429  29.498  32.327  1.00  0.00    -0.354 N 
ATOM     56  N   UNL A   1      41.210  31.453  34.502  1.00  0.00    -0.248 NA
ATOM     57  C   UNL A   1      41.922  32.282  36.565  1.00  0.00     0.031 C 
ATOM     58  C   UNL A   1      43.072  28.005  32.412  1.00  0.00     0.029 A 
ATOM     59  C   UNL A   1      42.505  29.072  33.090  1.00  0.00     0.049 A 
ATOM     60  H   UNL A   1      40.829  30.242  32.562  1.00  0.00     0.167 HD
ATOM     61  C   UNL A   1      42.306  30.717  34.934  1.00  0.00     0.074 A 
ATOM     62  C   UNL A   1      42.724  31.293  36.196  1.00  0.00     0.031 C 
ATOM     63  C   UNL A   1      42.912  29.661  34.340  1.00  0.00     0.037 A 
BRANCH  50  64
ATOM     64  C   UNL A   1      40.277  27.903  29.034  1.00  0.00     0.057 A 
ATOM     65  C   UNL A   1      39.520  26.724  29.078  1.00  0.00     0.134 A 
ATOM     66  C   UNL A   1      40.993  28.166  27.859  1.00  0.00     0.134 A 
ATOM     67  F   UNL A   1      38.821  26.405  30.178  1.00  0.00    -0.206 F 
ATOM     68  C   UNL A   1      39.498  25.829  28.007  1.00  0.00     0.040 A 
ATOM     69  C   UNL A   1      40.956  27.293  26.771  1.00  0.00     0.040 A 
ATOM     70  F   UNL A   1      41.733  29.279  27.748  1.00  0.00    -0.206 F 
ATOM     71  C   UNL A   1      40.212  26.117  26.846  1.00  0.00     0.006 A 
ENDBRANCH  50  64
BRANCH  51  72
ATOM     72  C   UNL A   1      39.899  34.391  36.611  1.00  0.00     0.057 A 
ATOM     73  C   UNL A   1      40.561  35.623  36.566  1.00  0.00     0.134 A 
ATOM     74  C   UNL A   1      39.187  34.084  37.777  1.00  0.00     0.134 A 
ATOM     75  F   UNL A   1      41.275  35.966  35.483  1.00  0.00    -0.206 F 
ATOM     76  C   UNL A   1      40.539  36.506  37.646  1.00  0.00     0.040 A 
ATOM     77  C   UNL A   1      39.135  34.969  38.855  1.00  0.00     0.040 A 
ATOM     78  F   UNL A   1      38.524  32.923  37.880  1.00  0.00    -0.206 F 
ATOM     79  C   UNL A   1      39.819  36.182  38.794  1.00  0.00     0.006 A 
ENDBRANCH  51  72
BRANCH  63  80
ATOM     80  C   UNL A   1      44.114  29.082  35.029  1.00  0.00     0.057 A 
ATOM     81  C   UNL A   1      44.002  28.055  35.975  1.00  0.00     0.134 A 
ATOM     82  C   UNL A   1      45.401  29.534  34.714  1.00  0.00     0.134 A 
ATOM     83  F   UNL A   1      42.796  27.587  36.332  1.00  0.00    -0.206 F 
ATOM     84  C   UNL A   1      45.127  27.517  36.602  1.00  0.00     0.040 A 
ATOM     85  C   UNL A   1      46.535  28.984  35.312  1.00  0.00     0.040 A 
ATOM     86  F   UNL A   1      45.579  30.509  33.810  1.00  0.00    -0.206 F 
ATOM     87  C   UNL A   1      46.399  27.976  36.265  1.00  0.00     0.006 A 
ENDBRANCH  63  80
ENDBRANCH  37  38
ENDBRANCH  29  32
ENDBRANCH  27  28
ENDBRANCH  26  27
ENDBRANCH   1  26
TORSDOF 14
ENDMDL
