MODEL 1
REMARK VINA RESULT:     -11.8      0.000      0.000
REMARK SMILES CCc1cc(C(=O)N[C@@H]2C=C[C@H](C(=O)NCCCCNC(=O)c3ccc(-c4c5nc(c(-c6c(F)cccc6F)c6ccc([nH]6)c(-c6c(F)cccc6F)c6nc(c(-c7c(F)cccc7F)c7ccc4[nH]7)C=C6)C=C5)cc3)C2)n(C)n1
REMARK SMILES IDX 17 1 16 2 15 3 13 4 14 5 12 7 9 8 10 9 77 10 11 11 8 12 6 13
REMARK SMILES IDX 7 14 5 16 3 17 4 18 80 19 78 20 79 21 2 22 1 23 18 24 19 25
REMARK SMILES IDX 20 26 21 27 22 29 23 30 24 31 76 32 25 33 75 34 26 35 27 36
REMARK SMILES IDX 28 37 69 38 29 39 74 40 68 41 70 42 30 43 73 44 67 45 66 46
REMARK SMILES IDX 31 48 57 49 40 50 56 51 41 52 44 53 55 54 71 55 42 56 43 57
REMARK SMILES IDX 54 59 72 60 45 61 32 62 33 63 38 64 34 65 35 66 37 67 39 68
REMARK SMILES IDX 36 69 58 70 59 71 64 72 60 73 61 74 63 75 65 76 62 77 46 78
REMARK SMILES IDX 47 79 52 80 48 81 49 82 51 83 53 84 50 85
REMARK H PARENT 15 6 8 15 20 28 70 47 44 58
REMARK Flexibility Score: inf
ROOT
ATOM      1  C   UNL A   1      31.764  30.156  26.707  1.00  0.00     0.023 C 
ENDROOT
BRANCH   1   2
ATOM      2  C   UNL A   1      32.375  29.690  25.383  1.00  0.00     0.116 C 
BRANCH   2   3
ATOM      3  N   UNL A   1      31.430  29.743  24.281  1.00  0.00    -0.356 N 
ATOM      4  C   UNL A   1      30.668  28.728  23.762  1.00  0.00     0.227 C 
ATOM      5  O   UNL A   1      29.873  28.981  22.859  1.00  0.00    -0.274 OA
ATOM      6  H   UNL A   1      31.322  30.621  23.850  1.00  0.00     0.163 HD
BRANCH   4   7
ATOM      7  C   UNL A   1      30.860  27.335  24.352  1.00  0.00     0.103 C 
ATOM      8  C   UNL A   1      31.769  25.225  23.558  1.00  0.00     0.106 C 
ATOM      9  C   UNL A   1      30.286  25.189  23.581  1.00  0.00    -0.006 C 
ATOM     10  C   UNL A   1      32.106  26.690  23.736  1.00  0.00     0.047 C 
ATOM     11  C   UNL A   1      29.781  26.349  24.012  1.00  0.00    -0.016 C 
BRANCH   8  12
ATOM     12  N   UNL A   1      32.257  24.668  22.346  1.00  0.00    -0.344 N 
ATOM     13  C   UNL A   1      33.182  23.705  22.080  1.00  0.00     0.270 C 
ATOM     14  O   UNL A   1      33.287  23.467  20.870  1.00  0.00    -0.268 OA
ATOM     15  H   UNL A   1      31.845  25.054  21.540  1.00  0.00     0.164 HD
BRANCH  13  16
ATOM     16  C   UNL A   1      33.974  22.957  23.048  1.00  0.00     0.126 A 
ATOM     17  C   UNL A   1      35.820  22.450  24.247  1.00  0.00     0.063 A 
ATOM     18  C   UNL A   1      35.309  23.309  23.267  1.00  0.00     0.059 A 
ATOM     19  N   UNL A   1      34.894  21.580  24.626  1.00  0.00    -0.178 NA
ATOM     20  N   UNL A   1      33.786  21.910  23.932  1.00  0.00    -0.263 N 
ATOM     21  C   UNL A   1      32.638  21.132  24.322  1.00  0.00     0.174 C 
BRANCH  17  22
ATOM     22  C   UNL A   1      37.163  22.385  24.879  1.00  0.00     0.055 C 
ATOM     23  C   UNL A   1      37.511  23.584  25.740  1.00  0.00     0.011 C 
ENDBRANCH  17  22
ENDBRANCH  13  16
ENDBRANCH   8  12
ENDBRANCH   4   7
ENDBRANCH   2   3
ENDBRANCH   1   2
BRANCH   1  24
ATOM     24  C   UNL A   1      31.512  31.657  26.790  1.00  0.00     0.023 C 
BRANCH  24  25
ATOM     25  C   UNL A   1      32.770  32.488  26.958  1.00  0.00     0.116 C 
BRANCH  25  26
ATOM     26  N   UNL A   1      32.492  33.837  27.427  1.00  0.00    -0.352 N 
ATOM     27  C   UNL A   1      33.091  34.522  28.453  1.00  0.00     0.251 C 
ATOM     28  H   UNL A   1      31.783  34.321  26.945  1.00  0.00     0.163 HD
ATOM     29  O   UNL A   1      32.640  35.599  28.830  1.00  0.00    -0.269 OA
BRANCH  27  30
ATOM     30  C   UNL A   1      34.265  33.928  29.118  1.00  0.00     0.039 A 
ATOM     31  C   UNL A   1      34.065  32.986  30.128  1.00  0.00     0.014 A 
ATOM     32  C   UNL A   1      35.558  34.269  28.709  1.00  0.00     0.014 A 
ATOM     33  C   UNL A   1      35.167  32.347  30.693  1.00  0.00     0.010 A 
ATOM     34  C   UNL A   1      36.645  33.561  29.205  1.00  0.00     0.010 A 
ATOM     35  C   UNL A   1      36.463  32.606  30.214  1.00  0.00    -0.014 A 
BRANCH  35  36
ATOM     36  C   UNL A   1      37.639  31.899  30.775  1.00  0.00     0.031 A 
ATOM     37  C   UNL A   1      38.136  32.242  32.152  1.00  0.00     0.074 A 
ATOM     38  C   UNL A   1      38.286  30.984  30.027  1.00  0.00     0.049 A 
ATOM     39  N   UNL A   1      39.157  31.754  32.807  1.00  0.00    -0.248 NA
ATOM     40  C   UNL A   1      37.405  33.294  32.880  1.00  0.00     0.031 C 
ATOM     41  C   UNL A   1      37.936  30.609  28.656  1.00  0.00     0.029 A 
ATOM     42  N   UNL A   1      39.376  30.204  30.318  1.00  0.00    -0.354 N 
ATOM     43  C   UNL A   1      39.196  32.444  34.012  1.00  0.00     0.074 A 
ATOM     44  C   UNL A   1      38.141  33.431  33.971  1.00  0.00     0.031 C 
ATOM     45  C   UNL A   1      38.773  29.646  28.237  1.00  0.00     0.029 A 
ATOM     46  C   UNL A   1      39.739  29.363  29.293  1.00  0.00     0.049 A 
ATOM     47  H   UNL A   1      39.853  30.242  31.178  1.00  0.00     0.167 HD
ATOM     48  C   UNL A   1      40.018  32.253  35.071  1.00  0.00     0.037 A 
ATOM     49  C   UNL A   1      40.740  28.466  29.217  1.00  0.00     0.037 A 
ATOM     50  C   UNL A   1      41.054  31.255  35.115  1.00  0.00     0.049 A 
ATOM     51  C   UNL A   1      41.640  28.274  30.406  1.00  0.00     0.074 A 
ATOM     52  C   UNL A   1      41.903  30.940  36.160  1.00  0.00     0.029 A 
ATOM     53  N   UNL A   1      41.383  30.412  34.063  1.00  0.00    -0.354 N 
ATOM     54  N   UNL A   1      41.617  28.878  31.570  1.00  0.00    -0.248 NA
ATOM     55  C   UNL A   1      42.701  27.266  30.274  1.00  0.00     0.031 C 
ATOM     56  C   UNL A   1      42.782  29.943  35.724  1.00  0.00     0.029 A 
ATOM     57  C   UNL A   1      42.440  29.594  34.427  1.00  0.00     0.049 A 
ATOM     58  H   UNL A   1      40.933  30.398  33.188  1.00  0.00     0.167 HD
ATOM     59  C   UNL A   1      42.636  28.303  32.317  1.00  0.00     0.074 A 
ATOM     60  C   UNL A   1      43.245  27.290  31.482  1.00  0.00     0.031 C 
ATOM     61  C   UNL A   1      43.032  28.587  33.583  1.00  0.00     0.037 A 
BRANCH  48  62
ATOM     62  C   UNL A   1      39.825  33.141  36.267  1.00  0.00     0.057 A 
ATOM     63  C   UNL A   1      40.530  34.343  36.418  1.00  0.00     0.134 A 
ATOM     64  C   UNL A   1      38.904  32.804  37.267  1.00  0.00     0.134 A 
ATOM     65  F   UNL A   1      41.438  34.719  35.506  1.00  0.00    -0.206 F 
ATOM     66  C   UNL A   1      40.346  35.164  37.534  1.00  0.00     0.040 A 
ATOM     67  C   UNL A   1      38.689  33.631  38.371  1.00  0.00     0.040 A 
ATOM     68  F   UNL A   1      38.192  31.671  37.184  1.00  0.00    -0.206 F 
ATOM     69  C   UNL A   1      39.417  34.812  38.510  1.00  0.00     0.006 A 
ENDBRANCH  48  62
BRANCH  49  70
ATOM     70  C   UNL A   1      40.927  27.662  27.983  1.00  0.00     0.057 A 
ATOM     71  C   UNL A   1      41.713  28.134  26.924  1.00  0.00     0.134 A 
ATOM     72  C   UNL A   1      40.317  26.412  27.823  1.00  0.00     0.134 A 
ATOM     73  F   UNL A   1      42.311  29.331  27.010  1.00  0.00    -0.206 F 
ATOM     74  C   UNL A   1      41.865  27.405  25.743  1.00  0.00     0.040 A 
ATOM     75  C   UNL A   1      40.483  25.659  26.659  1.00  0.00     0.040 A 
ATOM     76  F   UNL A   1      39.560  25.898  28.804  1.00  0.00    -0.206 F 
ATOM     77  C   UNL A   1      41.252  26.161  25.611  1.00  0.00     0.006 A 
ENDBRANCH  49  70
BRANCH  61  78
ATOM     78  C   UNL A   1      44.150  27.762  34.153  1.00  0.00     0.057 A 
ATOM     79  C   UNL A   1      45.490  28.158  34.059  1.00  0.00     0.134 A 
ATOM     80  C   UNL A   1      43.877  26.565  34.829  1.00  0.00     0.134 A 
ATOM     81  F   UNL A   1      45.822  29.288  33.414  1.00  0.00    -0.206 F 
ATOM     82  C   UNL A   1      46.521  27.379  34.586  1.00  0.00     0.040 A 
ATOM     83  C   UNL A   1      44.895  25.794  35.390  1.00  0.00     0.040 A 
ATOM     84  F   UNL A   1      42.614  26.133  34.967  1.00  0.00    -0.206 F 
ATOM     85  C   UNL A   1      46.223  26.195  35.260  1.00  0.00     0.006 A 
ENDBRANCH  61  78
ENDBRANCH  35  36
ENDBRANCH  27  30
ENDBRANCH  25  26
ENDBRANCH  24  25
ENDBRANCH   1  24
TORSDOF 14
ENDMDL
MODEL 2
REMARK VINA RESULT:     -11.7      4.570     10.057
REMARK SMILES CCc1cc(C(=O)N[C@@H]2C=C[C@H](C(=O)NCCCCNC(=O)c3ccc(-c4c5nc(c(-c6c(F)cccc6F)c6ccc([nH]6)c(-c6c(F)cccc6F)c6nc(c(-c7c(F)cccc7F)c7ccc4[nH]7)C=C6)C=C5)cc3)C2)n(C)n1
REMARK SMILES IDX 17 1 16 2 15 3 13 4 14 5 12 7 9 8 10 9 77 10 11 11 8 12 6 13
REMARK SMILES IDX 7 14 5 16 3 17 4 18 80 19 78 20 79 21 2 22 1 23 18 24 19 25
REMARK SMILES IDX 20 26 21 27 22 29 23 30 24 31 76 32 25 33 75 34 26 35 27 36
REMARK SMILES IDX 28 37 69 38 29 39 74 40 68 41 70 42 30 43 73 44 67 45 66 46
REMARK SMILES IDX 31 48 57 49 40 50 56 51 41 52 44 53 55 54 71 55 42 56 43 57
REMARK SMILES IDX 54 59 72 60 45 61 32 62 33 63 38 64 34 65 35 66 37 67 39 68
REMARK SMILES IDX 36 69 58 70 59 71 64 72 60 73 61 74 63 75 65 76 62 77 46 78
REMARK SMILES IDX 47 79 52 80 48 81 49 82 51 83 53 84 50 85
REMARK H PARENT 15 6 8 15 20 28 70 47 44 58
REMARK Flexibility Score: inf
ROOT
ATOM      1  C   UNL A   1      37.279  21.063  24.624  1.00  0.00     0.023 C 
ENDROOT
BRANCH   1   2
ATOM      2  C   UNL A   1      36.198  21.451  25.636  1.00  0.00     0.116 C 
BRANCH   2   3
ATOM      3  N   UNL A   1      35.073  20.532  25.635  1.00  0.00    -0.356 N 
ATOM      4  C   UNL A   1      33.840  20.695  25.059  1.00  0.00     0.227 C 
ATOM      5  O   UNL A   1      33.030  19.772  25.113  1.00  0.00    -0.274 OA
ATOM      6  H   UNL A   1      35.214  19.682  26.110  1.00  0.00     0.163 HD
BRANCH   4   7
ATOM      7  C   UNL A   1      33.554  22.030  24.378  1.00  0.00     0.103 C 
ATOM      8  C   UNL A   1      31.987  23.856  24.726  1.00  0.00     0.106 C 
ATOM      9  C   UNL A   1      31.576  23.015  23.575  1.00  0.00    -0.006 C 
ATOM     10  C   UNL A   1      33.054  23.035  25.420  1.00  0.00     0.047 C 
ATOM     11  C   UNL A   1      32.432  22.006  23.382  1.00  0.00    -0.016 C 
BRANCH   8  12
ATOM     12  N   UNL A   1      30.867  24.151  25.546  1.00  0.00    -0.344 N 
ATOM     13  C   UNL A   1      30.291  25.322  25.934  1.00  0.00     0.270 C 
ATOM     14  O   UNL A   1      29.278  25.149  26.625  1.00  0.00    -0.268 OA
ATOM     15  H   UNL A   1      30.418  23.352  25.905  1.00  0.00     0.164 HD
BRANCH  13  16
ATOM     16  C   UNL A   1      30.723  26.670  25.588  1.00  0.00     0.126 A 
ATOM     17  C   UNL A   1      31.764  28.647  25.917  1.00  0.00     0.063 A 
ATOM     18  C   UNL A   1      31.471  27.412  26.507  1.00  0.00     0.059 A 
ATOM     19  N   UNL A   1      31.225  28.721  24.708  1.00  0.00    -0.178 NA
ATOM     20  N   UNL A   1      30.634  27.526  24.505  1.00  0.00    -0.263 N 
ATOM     21  C   UNL A   1      30.101  27.392  23.173  1.00  0.00     0.174 C 
BRANCH  17  22
ATOM     22  C   UNL A   1      32.544  29.806  26.424  1.00  0.00     0.055 C 
ATOM     23  C   UNL A   1      31.739  31.081  26.592  1.00  0.00     0.011 C 
ENDBRANCH  17  22
ENDBRANCH  13  16
ENDBRANCH   8  12
ENDBRANCH   4   7
ENDBRANCH   2   3
ENDBRANCH   1   2
BRANCH   1  24
ATOM     24  C   UNL A   1      38.064  19.809  24.993  1.00  0.00     0.023 C 
BRANCH  24  25
ATOM     25  C   UNL A   1      39.153  20.042  26.023  1.00  0.00     0.116 C 
BRANCH  25  26
ATOM     26  N   UNL A   1      40.217  19.051  25.948  1.00  0.00    -0.352 N 
ATOM     27  C   UNL A   1      41.570  19.244  26.064  1.00  0.00     0.251 C 
ATOM     28  H   UNL A   1      39.928  18.123  25.792  1.00  0.00     0.163 HD
ATOM     29  O   UNL A   1      42.352  18.332  25.822  1.00  0.00    -0.269 OA
BRANCH  27  30
ATOM     30  C   UNL A   1      42.069  20.576  26.453  1.00  0.00     0.039 A 
ATOM     31  C   UNL A   1      42.360  21.507  25.455  1.00  0.00     0.014 A 
ATOM     32  C   UNL A   1      42.203  20.915  27.803  1.00  0.00     0.014 A 
ATOM     33  C   UNL A   1      42.738  22.799  25.816  1.00  0.00     0.010 A 
ATOM     34  C   UNL A   1      42.484  22.228  28.158  1.00  0.00     0.010 A 
ATOM     35  C   UNL A   1      42.772  23.179  27.169  1.00  0.00    -0.014 A 
BRANCH  35  36
ATOM     36  C   UNL A   1      43.128  24.562  27.564  1.00  0.00     0.031 A 
ATOM     37  C   UNL A   1      44.568  24.995  27.572  1.00  0.00     0.074 A 
ATOM     38  C   UNL A   1      42.160  25.412  27.960  1.00  0.00     0.049 A 
ATOM     39  N   UNL A   1      45.081  26.151  27.907  1.00  0.00    -0.248 NA
ATOM     40  C   UNL A   1      45.567  23.987  27.181  1.00  0.00     0.031 C 
ATOM     41  C   UNL A   1      40.735  25.091  28.052  1.00  0.00     0.029 A 
ATOM     42  N   UNL A   1      42.232  26.722  28.359  1.00  0.00    -0.354 N 
ATOM     43  C   UNL A   1      46.456  26.004  27.775  1.00  0.00     0.074 A 
ATOM     44  C   UNL A   1      46.703  24.631  27.399  1.00  0.00     0.031 C 
ATOM     45  C   UNL A   1      40.063  26.184  28.447  1.00  0.00     0.029 A 
ATOM     46  C   UNL A   1      41.011  27.270  28.672  1.00  0.00     0.049 A 
ATOM     47  H   UNL A   1      43.077  27.223  28.417  1.00  0.00     0.167 HD
ATOM     48  C   UNL A   1      47.425  26.938  27.926  1.00  0.00     0.037 A 
ATOM     49  C   UNL A   1      40.694  28.509  29.092  1.00  0.00     0.037 A 
ATOM     50  C   UNL A   1      47.173  28.309  28.280  1.00  0.00     0.049 A 
ATOM     51  C   UNL A   1      41.789  29.527  29.253  1.00  0.00     0.074 A 
ATOM     52  C   UNL A   1      48.077  29.349  28.401  1.00  0.00     0.029 A 
ATOM     53  N   UNL A   1      45.921  28.830  28.575  1.00  0.00    -0.354 N 
ATOM     54  N   UNL A   1      43.079  29.397  29.050  1.00  0.00    -0.248 NA
ATOM     55  C   UNL A   1      41.383  30.868  29.693  1.00  0.00     0.031 C 
ATOM     56  C   UNL A   1      47.381  30.486  28.822  1.00  0.00     0.029 A 
ATOM     57  C   UNL A   1      46.034  30.172  28.903  1.00  0.00     0.049 A 
ATOM     58  H   UNL A   1      45.078  28.322  28.556  1.00  0.00     0.167 HD
ATOM     59  C   UNL A   1      43.632  30.644  29.305  1.00  0.00     0.074 A 
ATOM     60  C   UNL A   1      42.536  31.521  29.661  1.00  0.00     0.031 C 
ATOM     61  C   UNL A   1      44.930  31.031  29.250  1.00  0.00     0.037 A 
BRANCH  48  62
ATOM     62  C   UNL A   1      48.846  26.504  27.703  1.00  0.00     0.057 A 
ATOM     63  C   UNL A   1      49.651  26.038  28.752  1.00  0.00     0.134 A 
ATOM     64  C   UNL A   1      49.408  26.524  26.420  1.00  0.00     0.134 A 
ATOM     65  F   UNL A   1      49.182  26.006  30.007  1.00  0.00    -0.206 F 
ATOM     66  C   UNL A   1      50.972  25.638  28.538  1.00  0.00     0.040 A 
ATOM     67  C   UNL A   1      50.716  26.097  26.188  1.00  0.00     0.040 A 
ATOM     68  F   UNL A   1      48.692  26.953  25.370  1.00  0.00    -0.206 F 
ATOM     69  C   UNL A   1      51.505  25.659  27.250  1.00  0.00     0.006 A 
ENDBRANCH  48  62
BRANCH  49  70
ATOM     70  C   UNL A   1      39.278  28.865  29.364  1.00  0.00     0.057 A 
ATOM     71  C   UNL A   1      38.711  28.661  30.628  1.00  0.00     0.134 A 
ATOM     72  C   UNL A   1      38.454  29.402  28.367  1.00  0.00     0.134 A 
ATOM     73  F   UNL A   1      39.444  28.135  31.619  1.00  0.00    -0.206 F 
ATOM     74  C   UNL A   1      37.371  28.955  30.885  1.00  0.00     0.040 A 
ATOM     75  C   UNL A   1      37.120  29.728  28.618  1.00  0.00     0.040 A 
ATOM     76  F   UNL A   1      38.940  29.632  27.138  1.00  0.00    -0.206 F 
ATOM     77  C   UNL A   1      36.573  29.495  29.878  1.00  0.00     0.006 A 
ENDBRANCH  49  70
BRANCH  61  78
ATOM     78  C   UNL A   1      45.229  32.474  29.542  1.00  0.00     0.057 A 
ATOM     79  C   UNL A   1      45.576  32.918  30.825  1.00  0.00     0.134 A 
ATOM     80  C   UNL A   1      45.195  33.428  28.517  1.00  0.00     0.134 A 
ATOM     81  F   UNL A   1      45.616  32.058  31.854  1.00  0.00    -0.206 F 
ATOM     82  C   UNL A   1      45.844  34.262  31.084  1.00  0.00     0.040 A 
ATOM     83  C   UNL A   1      45.493  34.769  28.756  1.00  0.00     0.040 A 
ATOM     84  F   UNL A   1      44.883  33.069  27.261  1.00  0.00    -0.206 F 
ATOM     85  C   UNL A   1      45.809  35.192  30.045  1.00  0.00     0.006 A 
ENDBRANCH  61  78
ENDBRANCH  35  36
ENDBRANCH  27  30
ENDBRANCH  25  26
ENDBRANCH  24  25
ENDBRANCH   1  24
TORSDOF 14
ENDMDL
MODEL 3
REMARK VINA RESULT:     -11.7      4.132      9.456
REMARK SMILES CCc1cc(C(=O)N[C@@H]2C=C[C@H](C(=O)NCCCCNC(=O)c3ccc(-c4c5nc(c(-c6c(F)cccc6F)c6ccc([nH]6)c(-c6c(F)cccc6F)c6nc(c(-c7c(F)cccc7F)c7ccc4[nH]7)C=C6)C=C5)cc3)C2)n(C)n1
REMARK SMILES IDX 17 1 16 2 15 3 13 4 14 5 12 7 9 8 10 9 77 10 11 11 8 12 6 13
REMARK SMILES IDX 7 14 5 16 3 17 4 18 80 19 78 20 79 21 2 22 1 23 18 24 19 25
REMARK SMILES IDX 20 26 21 27 22 29 23 30 24 31 76 32 25 33 75 34 26 35 27 36
REMARK SMILES IDX 28 37 69 38 29 39 74 40 68 41 70 42 30 43 73 44 67 45 66 46
REMARK SMILES IDX 31 48 57 49 40 50 56 51 41 52 44 53 55 54 71 55 42 56 43 57
REMARK SMILES IDX 54 59 72 60 45 61 32 62 33 63 38 64 34 65 35 66 37 67 39 68
REMARK SMILES IDX 36 69 58 70 59 71 64 72 60 73 61 74 63 75 65 76 62 77 46 78
REMARK SMILES IDX 47 79 52 80 48 81 49 82 51 83 53 84 50 85
REMARK H PARENT 15 6 8 15 20 28 70 47 44 58
REMARK Flexibility Score: inf
ROOT
ATOM      1  C   UNL A   1      36.870  21.031  24.645  1.00  0.00     0.023 C 
ENDROOT
BRANCH   1   2
ATOM      2  C   UNL A   1      35.468  20.802  25.214  1.00  0.00     0.116 C 
BRANCH   2   3
ATOM      3  N   UNL A   1      35.279  21.434  26.509  1.00  0.00    -0.356 N 
ATOM      4  C   UNL A   1      34.412  22.440  26.848  1.00  0.00     0.227 C 
ATOM      5  O   UNL A   1      34.353  22.807  28.019  1.00  0.00    -0.274 OA
ATOM      6  H   UNL A   1      35.848  21.097  27.238  1.00  0.00     0.163 HD
BRANCH   4   7
ATOM      7  C   UNL A   1      33.566  23.043  25.731  1.00  0.00     0.103 C 
ATOM      8  C   UNL A   1      33.282  25.259  24.772  1.00  0.00     0.106 C 
ATOM      9  C   UNL A   1      32.137  24.909  25.648  1.00  0.00    -0.006 C 
ATOM     10  C   UNL A   1      34.326  24.210  25.092  1.00  0.00     0.047 C 
ATOM     11  C   UNL A   1      32.291  23.693  26.182  1.00  0.00    -0.016 C 
BRANCH   8  12
ATOM     12  N   UNL A   1      33.710  26.589  25.027  1.00  0.00    -0.344 N 
ATOM     13  C   UNL A   1      33.211  27.804  24.668  1.00  0.00     0.270 C 
ATOM     14  O   UNL A   1      33.861  28.745  25.142  1.00  0.00    -0.268 OA
ATOM     15  H   UNL A   1      34.530  26.643  25.570  1.00  0.00     0.164 HD
BRANCH  13  16
ATOM     16  C   UNL A   1      32.028  28.061  23.857  1.00  0.00     0.126 A 
ATOM     17  C   UNL A   1      30.167  29.173  23.223  1.00  0.00     0.063 A 
ATOM     18  C   UNL A   1      31.207  29.151  24.160  1.00  0.00     0.059 A 
ATOM     19  N   UNL A   1      30.283  28.156  22.381  1.00  0.00    -0.178 NA
ATOM     20  N   UNL A   1      31.413  27.516  22.743  1.00  0.00    -0.263 N 
ATOM     21  C   UNL A   1      31.756  26.446  21.842  1.00  0.00     0.174 C 
BRANCH  17  22
ATOM     22  C   UNL A   1      29.032  30.116  23.053  1.00  0.00     0.055 C 
ATOM     23  C   UNL A   1      27.839  29.538  22.316  1.00  0.00     0.011 C 
ENDBRANCH  17  22
ENDBRANCH  13  16
ENDBRANCH   8  12
ENDBRANCH   4   7
ENDBRANCH   2   3
ENDBRANCH   1   2
BRANCH   1  24
ATOM     24  C   UNL A   1      37.856  19.902  24.926  1.00  0.00     0.023 C 
BRANCH  24  25
ATOM     25  C   UNL A   1      39.030  20.308  25.797  1.00  0.00     0.116 C 
BRANCH  25  26
ATOM     26  N   UNL A   1      40.120  19.345  25.752  1.00  0.00    -0.352 N 
ATOM     27  C   UNL A   1      41.448  19.550  26.023  1.00  0.00     0.251 C 
ATOM     28  H   UNL A   1      39.872  18.428  25.493  1.00  0.00     0.163 HD
ATOM     29  O   UNL A   1      42.274  18.674  25.790  1.00  0.00    -0.269 OA
BRANCH  27  30
ATOM     30  C   UNL A   1      41.872  20.853  26.568  1.00  0.00     0.039 A 
ATOM     31  C   UNL A   1      42.216  21.876  25.684  1.00  0.00     0.014 A 
ATOM     32  C   UNL A   1      41.884  21.073  27.949  1.00  0.00     0.014 A 
ATOM     33  C   UNL A   1      42.522  23.139  26.187  1.00  0.00     0.010 A 
ATOM     34  C   UNL A   1      42.093  22.354  28.440  1.00  0.00     0.010 A 
ATOM     35  C   UNL A   1      42.432  23.397  27.566  1.00  0.00    -0.014 A 
BRANCH  35  36
ATOM     36  C   UNL A   1      42.710  24.748  28.110  1.00  0.00     0.031 A 
ATOM     37  C   UNL A   1      44.108  25.118  28.523  1.00  0.00     0.074 A 
ATOM     38  C   UNL A   1      41.699  25.622  28.274  1.00  0.00     0.049 A 
ATOM     39  N   UNL A   1      44.547  26.237  29.039  1.00  0.00    -0.248 NA
ATOM     40  C   UNL A   1      45.145  24.084  28.364  1.00  0.00     0.031 C 
ATOM     41  C   UNL A   1      40.291  25.358  27.966  1.00  0.00     0.029 A 
ATOM     42  N   UNL A   1      41.700  26.911  28.742  1.00  0.00    -0.354 N 
ATOM     43  C   UNL A   1      45.902  26.037  29.273  1.00  0.00     0.074 A 
ATOM     44  C   UNL A   1      46.199  24.670  28.909  1.00  0.00     0.031 C 
ATOM     45  C   UNL A   1      39.572  26.462  28.221  1.00  0.00     0.029 A 
ATOM     46  C   UNL A   1      40.457  27.497  28.744  1.00  0.00     0.049 A 
ATOM     47  H   UNL A   1      42.514  27.372  29.048  1.00  0.00     0.167 HD
ATOM     48  C   UNL A   1      46.823  26.922  29.722  1.00  0.00     0.037 A 
ATOM     49  C   UNL A   1      40.078  28.731  29.125  1.00  0.00     0.037 A 
ATOM     50  C   UNL A   1      46.527  28.288  30.063  1.00  0.00     0.049 A 
ATOM     51  C   UNL A   1      41.120  29.695  29.622  1.00  0.00     0.074 A 
ATOM     52  C   UNL A   1      47.396  29.282  30.472  1.00  0.00     0.029 A 
ATOM     53  N   UNL A   1      45.259  28.850  30.039  1.00  0.00    -0.354 N 
ATOM     54  N   UNL A   1      42.412  29.518  29.764  1.00  0.00    -0.248 NA
ATOM     55  C   UNL A   1      40.652  31.034  30.003  1.00  0.00     0.031 C 
ATOM     56  C   UNL A   1      46.648  30.431  30.747  1.00  0.00     0.029 A 
ATOM     57  C   UNL A   1      45.320  30.171  30.450  1.00  0.00     0.049 A 
ATOM     58  H   UNL A   1      44.436  28.379  29.770  1.00  0.00     0.167 HD
ATOM     59  C   UNL A   1      42.913  30.730  30.219  1.00  0.00     0.074 A 
ATOM     60  C   UNL A   1      41.789  31.638  30.312  1.00  0.00     0.031 C 
ATOM     61  C   UNL A   1      44.190  31.063  30.532  1.00  0.00     0.037 A 
BRANCH  48  62
ATOM     62  C   UNL A   1      48.237  26.437  29.866  1.00  0.00     0.057 A 
ATOM     63  C   UNL A   1      49.177  26.577  28.835  1.00  0.00     0.134 A 
ATOM     64  C   UNL A   1      48.673  25.846  31.059  1.00  0.00     0.134 A 
ATOM     65  F   UNL A   1      48.824  27.121  27.661  1.00  0.00    -0.206 F 
ATOM     66  C   UNL A   1      50.490  26.122  28.975  1.00  0.00     0.040 A 
ATOM     67  C   UNL A   1      49.991  25.415  31.222  1.00  0.00     0.040 A 
ATOM     68  F   UNL A   1      47.828  25.684  32.087  1.00  0.00    -0.206 F 
ATOM     69  C   UNL A   1      50.902  25.546  30.175  1.00  0.00     0.006 A 
ENDBRANCH  48  62
BRANCH  49  70
ATOM     70  C   UNL A   1      38.652  29.136  29.026  1.00  0.00     0.057 A 
ATOM     71  C   UNL A   1      37.806  29.084  30.140  1.00  0.00     0.134 A 
ATOM     72  C   UNL A   1      38.097  29.571  27.816  1.00  0.00     0.134 A 
ATOM     73  F   UNL A   1      38.275  28.662  31.324  1.00  0.00    -0.206 F 
ATOM     74  C   UNL A   1      36.456  29.425  30.051  1.00  0.00     0.040 A 
ATOM     75  C   UNL A   1      36.755  29.942  27.718  1.00  0.00     0.040 A 
ATOM     76  F   UNL A   1      38.856  29.653  26.713  1.00  0.00    -0.206 F 
ATOM     77  C   UNL A   1      35.928  29.860  28.837  1.00  0.00     0.006 A 
ENDBRANCH  49  70
BRANCH  61  78
ATOM     78  C   UNL A   1      44.444  32.479  30.964  1.00  0.00     0.057 A 
ATOM     79  C   UNL A   1      44.726  33.498  30.045  1.00  0.00     0.134 A 
ATOM     80  C   UNL A   1      44.378  32.831  32.319  1.00  0.00     0.134 A 
ATOM     81  F   UNL A   1      44.815  33.226  28.734  1.00  0.00    -0.206 F 
ATOM     82  C   UNL A   1      44.966  34.809  30.460  1.00  0.00     0.040 A 
ATOM     83  C   UNL A   1      44.584  34.144  32.743  1.00  0.00     0.040 A 
ATOM     84  F   UNL A   1      44.100  31.907  33.251  1.00  0.00    -0.206 F 
ATOM     85  C   UNL A   1      44.889  35.135  31.814  1.00  0.00     0.006 A 
ENDBRANCH  61  78
ENDBRANCH  35  36
ENDBRANCH  27  30
ENDBRANCH  25  26
ENDBRANCH  24  25
ENDBRANCH   1  24
TORSDOF 14
ENDMDL
