MODEL 1
REMARK VINA RESULT:     -12.6      0.000      0.000
REMARK SMILES Cc1cccc(NC(=O)[C@H]2C=C[C@@H]([NH3+])C2)c1C(=O)NCCCCNC(=O)c1ccc(-c2c3nc(c(-c4c(F)cccc4F)c4ccc([nH]4)c(-c4c(F)cccc4F)c4nc(c(-c5c(F)cccc5F)c5ccc2[nH]5)C=C4)C=C3)cc1
REMARK SMILES IDX 21 1 20 2 19 3 17 4 18 5 16 7 1 8 2 9 3 10 4 11 6 12 5 13
REMARK SMILES IDX 7 14 8 15 9 17 10 18 11 19 15 20 12 21 13 22 14 23 22 27
REMARK SMILES IDX 23 28 24 29 25 30 26 32 27 33 28 34 80 35 29 36 79 37 30 38
REMARK SMILES IDX 31 39 32 40 73 41 33 42 78 43 72 44 74 45 34 46 77 47 71 48
REMARK SMILES IDX 70 49 35 51 61 52 44 53 60 54 45 55 48 56 59 57 75 58 46 59
REMARK SMILES IDX 47 60 58 62 76 63 49 64 36 65 37 66 42 67 38 68 39 69 41 70
REMARK SMILES IDX 43 71 40 72 62 73 63 74 68 75 64 76 65 77 67 78 69 79 66 80
REMARK SMILES IDX 50 81 51 82 56 83 52 84 53 85 55 86 57 87 54 88
REMARK H PARENT 19 6 7 16 14 24 14 25 14 26 24 31 74 50 48 61
REMARK Flexibility Score: inf
ROOT
ATOM      1  C   UNL A   1      31.792  29.546  26.662  1.00  0.00     0.023 C 
ENDROOT
BRANCH   1   2
ATOM      2  C   UNL A   1      32.376  28.290  27.318  1.00  0.00     0.116 C 
BRANCH   2   3
ATOM      3  N   UNL A   1      31.503  27.152  27.161  1.00  0.00    -0.352 N 
ATOM      4  C   UNL A   1      31.230  26.175  26.246  1.00  0.00     0.253 C 
ATOM      5  O   UNL A   1      30.308  25.454  26.662  1.00  0.00    -0.269 OA
ATOM      6  H   UNL A   1      30.930  27.048  27.953  1.00  0.00     0.163 HD
BRANCH   4   7
ATOM      7  C   UNL A   1      31.835  25.854  24.878  1.00  0.00     0.066 A 
ATOM      8  C   UNL A   1      34.376  25.398  25.436  1.00  0.00     0.045 C 
ATOM      9  C   UNL A   1      33.173  25.479  24.553  1.00  0.00    -0.036 A 
ATOM     10  C   UNL A   1      33.528  25.212  23.208  1.00  0.00     0.004 A 
ATOM     11  C   UNL A   1      32.683  25.510  22.171  1.00  0.00     0.002 A 
ATOM     12  C   UNL A   1      30.926  26.009  23.757  1.00  0.00     0.054 A 
ATOM     13  C   UNL A   1      31.427  25.989  22.465  1.00  0.00     0.027 A 
BRANCH  12  14
ATOM     14  N   UNL A   1      29.527  26.174  23.929  1.00  0.00    -0.325 N 
ATOM     15  C   UNL A   1      28.565  27.080  23.615  1.00  0.00     0.231 C 
ATOM     16  H   UNL A   1      29.143  25.411  24.417  1.00  0.00     0.169 HD
ATOM     17  O   UNL A   1      27.422  26.771  24.010  1.00  0.00    -0.274 OA
BRANCH  15  18
ATOM     18  C   UNL A   1      28.684  28.444  22.904  1.00  0.00     0.107 C 
ATOM     19  C   UNL A   1      27.440  29.269  23.059  1.00  0.00    -0.012 C 
ATOM     20  C   UNL A   1      29.833  29.437  23.126  1.00  0.00     0.087 C 
ATOM     21  C   UNL A   1      27.715  30.570  23.188  1.00  0.00     0.033 C 
ATOM     22  C   UNL A   1      29.184  30.846  23.153  1.00  0.00     0.205 C 
BRANCH  22  23
ATOM     23  N   UNL A   1      29.586  31.661  24.291  1.00  0.00    -0.352 N 
ATOM     24  H   UNL A   1      29.600  31.087  25.133  1.00  0.00     0.345 HD
ATOM     25  H   UNL A   1      28.921  32.426  24.413  1.00  0.00     0.345 HD
ATOM     26  H   UNL A   1      30.517  32.043  24.124  1.00  0.00     0.345 HD
ENDBRANCH  22  23
ENDBRANCH  15  18
ENDBRANCH  12  14
ENDBRANCH   4   7
ENDBRANCH   2   3
ENDBRANCH   1   2
BRANCH   1  27
ATOM     27  C   UNL A   1      32.421  30.865  27.101  1.00  0.00     0.023 C 
BRANCH  27  28
ATOM     28  C   UNL A   1      33.938  30.846  27.047  1.00  0.00     0.116 C 
BRANCH  28  29
ATOM     29  N   UNL A   1      34.609  31.706  28.016  1.00  0.00    -0.352 N 
ATOM     30  C   UNL A   1      35.695  31.430  28.832  1.00  0.00     0.251 C 
ATOM     31  H   UNL A   1      34.237  32.613  28.103  1.00  0.00     0.163 HD
ATOM     32  O   UNL A   1      36.077  32.272  29.645  1.00  0.00    -0.269 OA
BRANCH  30  33
ATOM     33  C   UNL A   1      36.502  30.201  28.609  1.00  0.00     0.039 A 
ATOM     34  C   UNL A   1      36.626  29.311  29.683  1.00  0.00     0.014 A 
ATOM     35  C   UNL A   1      37.365  30.100  27.527  1.00  0.00     0.014 A 
ATOM     36  C   UNL A   1      37.800  28.578  29.822  1.00  0.00     0.010 A 
ATOM     37  C   UNL A   1      38.590  29.502  27.733  1.00  0.00     0.010 A 
ATOM     38  C   UNL A   1      38.836  28.811  28.924  1.00  0.00    -0.014 A 
BRANCH  38  39
ATOM     39  C   UNL A   1      40.235  28.524  29.228  1.00  0.00     0.031 A 
ATOM     40  C   UNL A   1      40.884  27.312  28.694  1.00  0.00     0.074 A 
ATOM     41  C   UNL A   1      40.962  29.445  29.903  1.00  0.00     0.049 A 
ATOM     42  N   UNL A   1      41.966  26.792  29.165  1.00  0.00    -0.248 NA
ATOM     43  C   UNL A   1      40.312  26.541  27.600  1.00  0.00     0.031 C 
ATOM     44  C   UNL A   1      42.414  29.508  30.036  1.00  0.00     0.029 A 
ATOM     45  N   UNL A   1      40.490  30.424  30.791  1.00  0.00    -0.354 N 
ATOM     46  C   UNL A   1      42.390  25.824  28.281  1.00  0.00     0.074 A 
ATOM     47  C   UNL A   1      41.275  25.644  27.385  1.00  0.00     0.031 C 
ATOM     48  C   UNL A   1      42.720  30.243  31.116  1.00  0.00     0.029 A 
ATOM     49  C   UNL A   1      41.474  30.549  31.795  1.00  0.00     0.049 A 
ATOM     50  H   UNL A   1      39.645  30.924  30.726  1.00  0.00     0.167 HD
ATOM     51  C   UNL A   1      43.689  25.404  28.338  1.00  0.00     0.037 A 
ATOM     52  C   UNL A   1      41.199  30.234  33.095  1.00  0.00     0.037 A 
ATOM     53  C   UNL A   1      44.355  25.951  29.526  1.00  0.00     0.049 A 
ATOM     54  C   UNL A   1      42.039  29.100  33.643  1.00  0.00     0.074 A 
ATOM     55  C   UNL A   1      45.231  27.007  29.714  1.00  0.00     0.029 A 
ATOM     56  N   UNL A   1      43.908  25.585  30.793  1.00  0.00    -0.354 N 
ATOM     57  N   UNL A   1      42.732  28.284  32.899  1.00  0.00    -0.248 NA
ATOM     58  C   UNL A   1      42.134  28.773  35.064  1.00  0.00     0.031 C 
ATOM     59  C   UNL A   1      45.247  27.327  31.096  1.00  0.00     0.029 A 
ATOM     60  C   UNL A   1      44.402  26.449  31.752  1.00  0.00     0.049 A 
ATOM     61  H   UNL A   1      43.321  24.817  30.980  1.00  0.00     0.167 HD
ATOM     62  C   UNL A   1      43.312  27.324  33.686  1.00  0.00     0.074 A 
ATOM     63  C   UNL A   1      42.932  27.691  35.038  1.00  0.00     0.031 C 
ATOM     64  C   UNL A   1      44.036  26.296  33.154  1.00  0.00     0.037 A 
BRANCH  51  65
ATOM     65  C   UNL A   1      44.444  24.768  27.177  1.00  0.00     0.057 A 
ATOM     66  C   UNL A   1      44.794  23.400  27.216  1.00  0.00     0.134 A 
ATOM     67  C   UNL A   1      44.941  25.437  26.045  1.00  0.00     0.134 A 
ATOM     68  F   UNL A   1      44.309  22.574  28.152  1.00  0.00    -0.206 F 
ATOM     69  C   UNL A   1      45.664  22.799  26.292  1.00  0.00     0.040 A 
ATOM     70  C   UNL A   1      45.842  24.861  25.133  1.00  0.00     0.040 A 
ATOM     71  F   UNL A   1      44.542  26.665  25.708  1.00  0.00    -0.206 F 
ATOM     72  C   UNL A   1      46.224  23.541  25.267  1.00  0.00     0.006 A 
ENDBRANCH  51  65
BRANCH  52  73
ATOM     73  C   UNL A   1      39.797  30.528  33.487  1.00  0.00     0.057 A 
ATOM     74  C   UNL A   1      39.449  31.860  33.777  1.00  0.00     0.134 A 
ATOM     75  C   UNL A   1      38.751  29.644  33.212  1.00  0.00     0.134 A 
ATOM     76  F   UNL A   1      40.406  32.762  34.050  1.00  0.00    -0.206 F 
ATOM     77  C   UNL A   1      38.133  32.318  33.682  1.00  0.00     0.040 A 
ATOM     78  C   UNL A   1      37.427  30.089  33.124  1.00  0.00     0.040 A 
ATOM     79  F   UNL A   1      39.005  28.365  32.898  1.00  0.00    -0.206 F 
ATOM     80  C   UNL A   1      37.121  31.436  33.319  1.00  0.00     0.006 A 
ENDBRANCH  52  73
BRANCH  64  81
ATOM     81  C   UNL A   1      44.526  25.086  33.907  1.00  0.00     0.057 A 
ATOM     82  C   UNL A   1      43.686  24.145  34.518  1.00  0.00     0.134 A 
ATOM     83  C   UNL A   1      45.899  24.752  33.899  1.00  0.00     0.134 A 
ATOM     84  F   UNL A   1      42.353  24.285  34.509  1.00  0.00    -0.206 F 
ATOM     85  C   UNL A   1      44.178  22.979  35.121  1.00  0.00     0.040 A 
ATOM     86  C   UNL A   1      46.395  23.567  34.452  1.00  0.00     0.040 A 
ATOM     87  F   UNL A   1      46.814  25.553  33.333  1.00  0.00    -0.206 F 
ATOM     88  C   UNL A   1      45.534  22.680  35.078  1.00  0.00     0.006 A 
ENDBRANCH  64  81
ENDBRANCH  38  39
ENDBRANCH  30  33
ENDBRANCH  28  29
ENDBRANCH  27  28
ENDBRANCH   1  27
TORSDOF 14
ENDMDL
MODEL 2
REMARK VINA RESULT:     -12.6      0.881      1.583
REMARK SMILES Cc1cccc(NC(=O)[C@H]2C=C[C@@H]([NH3+])C2)c1C(=O)NCCCCNC(=O)c1ccc(-c2c3nc(c(-c4c(F)cccc4F)c4ccc([nH]4)c(-c4c(F)cccc4F)c4nc(c(-c5c(F)cccc5F)c5ccc2[nH]5)C=C4)C=C3)cc1
REMARK SMILES IDX 21 1 20 2 19 3 17 4 18 5 16 7 1 8 2 9 3 10 4 11 6 12 5 13
REMARK SMILES IDX 7 14 8 15 9 17 10 18 11 19 15 20 12 21 13 22 14 23 22 27
REMARK SMILES IDX 23 28 24 29 25 30 26 32 27 33 28 34 80 35 29 36 79 37 30 38
REMARK SMILES IDX 31 39 32 40 73 41 33 42 78 43 72 44 74 45 34 46 77 47 71 48
REMARK SMILES IDX 70 49 35 51 61 52 44 53 60 54 45 55 48 56 59 57 75 58 46 59
REMARK SMILES IDX 47 60 58 62 76 63 49 64 36 65 37 66 42 67 38 68 39 69 41 70
REMARK SMILES IDX 43 71 40 72 62 73 63 74 68 75 64 76 65 77 67 78 69 79 66 80
REMARK SMILES IDX 50 81 51 82 56 83 52 84 53 85 55 86 57 87 54 88
REMARK H PARENT 19 6 7 16 14 24 14 25 14 26 24 31 74 50 48 61
REMARK Flexibility Score: inf
ROOT
ATOM      1  C   UNL A   1      32.317  29.061  26.107  1.00  0.00     0.023 C 
ENDROOT
BRANCH   1   2
ATOM      2  C   UNL A   1      32.131  28.248  27.392  1.00  0.00     0.116 C 
BRANCH   2   3
ATOM      3  N   UNL A   1      31.378  27.040  27.155  1.00  0.00    -0.352 N 
ATOM      4  C   UNL A   1      31.205  26.104  26.176  1.00  0.00     0.253 C 
ATOM      5  O   UNL A   1      30.361  25.267  26.538  1.00  0.00    -0.269 OA
ATOM      6  H   UNL A   1      30.820  26.826  27.936  1.00  0.00     0.163 HD
BRANCH   4   7
ATOM      7  C   UNL A   1      31.837  25.938  24.793  1.00  0.00     0.066 A 
ATOM      8  C   UNL A   1      34.372  25.446  25.346  1.00  0.00     0.045 C 
ATOM      9  C   UNL A   1      33.184  25.612  24.454  1.00  0.00    -0.036 A 
ATOM     10  C   UNL A   1      33.566  25.495  23.096  1.00  0.00     0.004 A 
ATOM     11  C   UNL A   1      32.737  25.896  22.080  1.00  0.00     0.002 A 
ATOM     12  C   UNL A   1      30.947  26.205  23.679  1.00  0.00     0.054 A 
ATOM     13  C   UNL A   1      31.471  26.330  22.401  1.00  0.00     0.027 A 
BRANCH  12  14
ATOM     14  N   UNL A   1      29.543  26.339  23.840  1.00  0.00    -0.325 N 
ATOM     15  C   UNL A   1      28.566  27.235  23.542  1.00  0.00     0.231 C 
ATOM     16  H   UNL A   1      29.169  25.556  24.303  1.00  0.00     0.169 HD
ATOM     17  O   UNL A   1      27.427  26.894  23.917  1.00  0.00    -0.274 OA
BRANCH  15  18
ATOM     18  C   UNL A   1      28.667  28.621  22.870  1.00  0.00     0.107 C 
ATOM     19  C   UNL A   1      27.438  29.449  23.109  1.00  0.00    -0.012 C 
ATOM     20  C   UNL A   1      29.833  29.597  23.073  1.00  0.00     0.087 C 
ATOM     21  C   UNL A   1      27.731  30.743  23.267  1.00  0.00     0.033 C 
ATOM     22  C   UNL A   1      29.199  31.009  23.174  1.00  0.00     0.205 C 
BRANCH  22  23
ATOM     23  N   UNL A   1      29.659  31.784  24.318  1.00  0.00    -0.352 N 
ATOM     24  H   UNL A   1      28.983  32.519  24.525  1.00  0.00     0.345 HD
ATOM     25  H   UNL A   1      30.562  32.206  24.102  1.00  0.00     0.345 HD
ATOM     26  H   UNL A   1      29.754  31.172  25.128  1.00  0.00     0.345 HD
ENDBRANCH  22  23
ENDBRANCH  15  18
ENDBRANCH  12  14
ENDBRANCH   4   7
ENDBRANCH   2   3
ENDBRANCH   1   2
BRANCH   1  27
ATOM     27  C   UNL A   1      33.188  30.306  26.241  1.00  0.00     0.023 C 
BRANCH  27  28
ATOM     28  C   UNL A   1      33.163  30.899  27.638  1.00  0.00     0.116 C 
BRANCH  28  29
ATOM     29  N   UNL A   1      34.152  31.941  27.893  1.00  0.00    -0.352 N 
ATOM     30  C   UNL A   1      35.464  31.821  28.326  1.00  0.00     0.251 C 
ATOM     31  H   UNL A   1      33.845  32.862  27.734  1.00  0.00     0.163 HD
ATOM     32  O   UNL A   1      36.126  32.832  28.553  1.00  0.00    -0.269 OA
BRANCH  30  33
ATOM     33  C   UNL A   1      36.122  30.487  28.348  1.00  0.00     0.039 A 
ATOM     34  C   UNL A   1      36.344  29.902  29.601  1.00  0.00     0.014 A 
ATOM     35  C   UNL A   1      36.789  30.001  27.232  1.00  0.00     0.014 A 
ATOM     36  C   UNL A   1      37.462  29.094  29.781  1.00  0.00     0.010 A 
ATOM     37  C   UNL A   1      37.978  29.333  27.432  1.00  0.00     0.010 A 
ATOM     38  C   UNL A   1      38.355  28.955  28.725  1.00  0.00    -0.014 A 
BRANCH  38  39
ATOM     39  C   UNL A   1      39.757  28.590  28.908  1.00  0.00     0.031 A 
ATOM     40  C   UNL A   1      40.233  27.242  28.546  1.00  0.00     0.074 A 
ATOM     41  C   UNL A   1      40.638  29.541  29.298  1.00  0.00     0.049 A 
ATOM     42  N   UNL A   1      41.327  26.711  28.975  1.00  0.00    -0.248 NA
ATOM     43  C   UNL A   1      39.460  26.345  27.700  1.00  0.00     0.031 C 
ATOM     44  C   UNL A   1      42.095  29.481  29.240  1.00  0.00     0.029 A 
ATOM     45  N   UNL A   1      40.368  30.709  30.028  1.00  0.00    -0.354 N 
ATOM     46  C   UNL A   1      41.552  25.559  28.251  1.00  0.00     0.074 A 
ATOM     47  C   UNL A   1      40.314  25.331  27.549  1.00  0.00     0.031 C 
ATOM     48  C   UNL A   1      42.601  30.367  30.112  1.00  0.00     0.029 A 
ATOM     49  C   UNL A   1      41.487  30.916  30.863  1.00  0.00     0.049 A 
ATOM     50  H   UNL A   1      39.562  31.270  29.970  1.00  0.00     0.167 HD
ATOM     51  C   UNL A   1      42.811  25.029  28.233  1.00  0.00     0.037 A 
ATOM     52  C   UNL A   1      41.370  30.873  32.223  1.00  0.00     0.037 A 
ATOM     53  C   UNL A   1      43.673  25.715  29.202  1.00  0.00     0.049 A 
ATOM     54  C   UNL A   1      42.189  29.781  32.876  1.00  0.00     0.074 A 
ATOM     55  C   UNL A   1      44.644  26.694  29.074  1.00  0.00     0.029 A 
ATOM     56  N   UNL A   1      43.378  25.634  30.561  1.00  0.00    -0.354 N 
ATOM     57  N   UNL A   1      42.710  28.777  32.227  1.00  0.00    -0.248 NA
ATOM     58  C   UNL A   1      42.454  29.712  34.311  1.00  0.00     0.031 C 
ATOM     59  C   UNL A   1      44.874  27.258  30.355  1.00  0.00     0.029 A 
ATOM     60  C   UNL A   1      44.063  26.605  31.267  1.00  0.00     0.049 A 
ATOM     61  H   UNL A   1      42.766  24.976  30.963  1.00  0.00     0.167 HD
ATOM     62  C   UNL A   1      43.318  27.924  33.110  1.00  0.00     0.074 A 
ATOM     63  C   UNL A   1      43.156  28.568  34.400  1.00  0.00     0.031 C 
ATOM     64  C   UNL A   1      43.883  26.749  32.705  1.00  0.00     0.037 A 
BRANCH  51  65
ATOM     65  C   UNL A   1      43.348  24.118  27.135  1.00  0.00     0.057 A 
ATOM     66  C   UNL A   1      43.921  24.669  25.967  1.00  0.00     0.134 A 
ATOM     67  C   UNL A   1      43.258  22.715  27.103  1.00  0.00     0.134 A 
ATOM     68  F   UNL A   1      44.201  25.975  25.867  1.00  0.00    -0.206 F 
ATOM     69  C   UNL A   1      44.241  23.907  24.832  1.00  0.00     0.040 A 
ATOM     70  C   UNL A   1      43.538  21.944  25.962  1.00  0.00     0.040 A 
ATOM     71  F   UNL A   1      42.957  21.994  28.183  1.00  0.00    -0.206 F 
ATOM     72  C   UNL A   1      44.013  22.542  24.812  1.00  0.00     0.006 A 
ENDBRANCH  51  65
BRANCH  52  73
ATOM     73  C   UNL A   1      40.061  31.374  32.716  1.00  0.00     0.057 A 
ATOM     74  C   UNL A   1      39.073  30.434  33.062  1.00  0.00     0.134 A 
ATOM     75  C   UNL A   1      39.904  32.672  33.208  1.00  0.00     0.134 A 
ATOM     76  F   UNL A   1      39.164  29.168  32.623  1.00  0.00    -0.206 F 
ATOM     77  C   UNL A   1      38.040  30.741  33.951  1.00  0.00     0.040 A 
ATOM     78  C   UNL A   1      38.867  32.993  34.092  1.00  0.00     0.040 A 
ATOM     79  F   UNL A   1      40.820  33.615  32.945  1.00  0.00    -0.206 F 
ATOM     80  C   UNL A   1      37.957  32.017  34.497  1.00  0.00     0.006 A 
ENDBRANCH  52  73
BRANCH  64  81
ATOM     81  C   UNL A   1      44.378  25.654  33.614  1.00  0.00     0.057 A 
ATOM     82  C   UNL A   1      43.565  24.944  34.509  1.00  0.00     0.134 A 
ATOM     83  C   UNL A   1      45.701  25.172  33.492  1.00  0.00     0.134 A 
ATOM     84  F   UNL A   1      42.263  25.228  34.649  1.00  0.00    -0.206 F 
ATOM     85  C   UNL A   1      44.044  23.865  35.264  1.00  0.00     0.040 A 
ATOM     86  C   UNL A   1      46.175  24.065  34.201  1.00  0.00     0.040 A 
ATOM     87  F   UNL A   1      46.583  25.746  32.659  1.00  0.00    -0.206 F 
ATOM     88  C   UNL A   1      45.348  23.413  35.102  1.00  0.00     0.006 A 
ENDBRANCH  64  81
ENDBRANCH  38  39
ENDBRANCH  30  33
ENDBRANCH  28  29
ENDBRANCH  27  28
ENDBRANCH   1  27
TORSDOF 14
ENDMDL
MODEL 3
REMARK VINA RESULT:     -12.5      1.759      2.799
REMARK SMILES Cc1cccc(NC(=O)[C@H]2C=C[C@@H]([NH3+])C2)c1C(=O)NCCCCNC(=O)c1ccc(-c2c3nc(c(-c4c(F)cccc4F)c4ccc([nH]4)c(-c4c(F)cccc4F)c4nc(c(-c5c(F)cccc5F)c5ccc2[nH]5)C=C4)C=C3)cc1
REMARK SMILES IDX 21 1 20 2 19 3 17 4 18 5 16 7 1 8 2 9 3 10 4 11 6 12 5 13
REMARK SMILES IDX 7 14 8 15 9 17 10 18 11 19 15 20 12 21 13 22 14 23 22 27
REMARK SMILES IDX 23 28 24 29 25 30 26 32 27 33 28 34 80 35 29 36 79 37 30 38
REMARK SMILES IDX 31 39 32 40 73 41 33 42 78 43 72 44 74 45 34 46 77 47 71 48
REMARK SMILES IDX 70 49 35 51 61 52 44 53 60 54 45 55 48 56 59 57 75 58 46 59
REMARK SMILES IDX 47 60 58 62 76 63 49 64 36 65 37 66 42 67 38 68 39 69 41 70
REMARK SMILES IDX 43 71 40 72 62 73 63 74 68 75 64 76 65 77 67 78 69 79 66 80
REMARK SMILES IDX 50 81 51 82 56 83 52 84 53 85 55 86 57 87 54 88
REMARK H PARENT 19 6 7 16 14 24 14 25 14 26 24 31 74 50 48 61
REMARK Flexibility Score: inf
ROOT
ATOM      1  C   UNL A   1      33.124  28.698  26.350  1.00  0.00     0.023 C 
ENDROOT
BRANCH   1   2
ATOM      2  C   UNL A   1      31.776  28.495  27.051  1.00  0.00     0.116 C 
BRANCH   2   3
ATOM      3  N   UNL A   1      31.401  27.102  27.093  1.00  0.00    -0.352 N 
ATOM      4  C   UNL A   1      31.452  25.992  26.298  1.00  0.00     0.253 C 
ATOM      5  O   UNL A   1      30.918  25.033  26.879  1.00  0.00    -0.269 OA
ATOM      6  H   UNL A   1      30.982  26.886  27.956  1.00  0.00     0.163 HD
BRANCH   4   7
ATOM      7  C   UNL A   1      32.015  25.762  24.895  1.00  0.00     0.066 A 
ATOM      8  C   UNL A   1      34.576  25.295  25.345  1.00  0.00     0.045 C 
ATOM      9  C   UNL A   1      33.345  25.419  24.506  1.00  0.00    -0.036 A 
ATOM     10  C   UNL A   1      33.660  25.238  23.137  1.00  0.00     0.004 A 
ATOM     11  C   UNL A   1      32.781  25.591  22.146  1.00  0.00     0.002 A 
ATOM     12  C   UNL A   1      31.071  25.977  23.814  1.00  0.00     0.054 A 
ATOM     13  C   UNL A   1      31.531  26.041  22.508  1.00  0.00     0.027 A 
BRANCH  12  14
ATOM     14  N   UNL A   1      29.677  26.119  24.038  1.00  0.00    -0.325 N 
ATOM     15  C   UNL A   1      28.683  26.994  23.736  1.00  0.00     0.231 C 
ATOM     16  H   UNL A   1      29.329  25.364  24.565  1.00  0.00     0.169 HD
ATOM     17  O   UNL A   1      27.565  26.676  24.188  1.00  0.00    -0.274 OA
BRANCH  15  18
ATOM     18  C   UNL A   1      28.744  28.338  22.979  1.00  0.00     0.107 C 
ATOM     19  C   UNL A   1      27.470  29.118  23.118  1.00  0.00    -0.012 C 
ATOM     20  C   UNL A   1      29.855  29.381  23.158  1.00  0.00     0.087 C 
ATOM     21  C   UNL A   1      27.696  30.433  23.201  1.00  0.00     0.033 C 
ATOM     22  C   UNL A   1      29.152  30.764  23.143  1.00  0.00     0.205 C 
BRANCH  22  23
ATOM     23  N   UNL A   1      29.531  31.632  24.249  1.00  0.00    -0.352 N 
ATOM     24  H   UNL A   1      30.464  31.381  24.575  1.00  0.00     0.345 HD
ATOM     25  H   UNL A   1      28.864  31.521  25.014  1.00  0.00     0.345 HD
ATOM     26  H   UNL A   1      29.530  32.603  23.936  1.00  0.00     0.345 HD
ENDBRANCH  22  23
ENDBRANCH  15  18
ENDBRANCH  12  14
ENDBRANCH   4   7
ENDBRANCH   2   3
ENDBRANCH   1   2
BRANCH   1  27
ATOM     27  C   UNL A   1      34.350  28.607  27.253  1.00  0.00     0.023 C 
BRANCH  27  28
ATOM     28  C   UNL A   1      35.046  29.943  27.443  1.00  0.00     0.116 C 
BRANCH  28  29
ATOM     29  N   UNL A   1      34.178  31.115  27.381  1.00  0.00    -0.352 N 
ATOM     30  C   UNL A   1      34.189  32.259  28.164  1.00  0.00     0.251 C 
ATOM     31  H   UNL A   1      33.485  31.089  26.683  1.00  0.00     0.163 HD
ATOM     32  O   UNL A   1      33.321  33.116  28.004  1.00  0.00    -0.269 OA
BRANCH  30  33
ATOM     33  C   UNL A   1      35.338  32.532  29.068  1.00  0.00     0.039 A 
ATOM     34  C   UNL A   1      36.378  33.322  28.563  1.00  0.00     0.014 A 
ATOM     35  C   UNL A   1      35.540  31.775  30.214  1.00  0.00     0.014 A 
ATOM     36  C   UNL A   1      37.679  33.082  28.992  1.00  0.00     0.010 A 
ATOM     37  C   UNL A   1      36.834  31.422  30.532  1.00  0.00     0.010 A 
ATOM     38  C   UNL A   1      37.905  32.016  29.856  1.00  0.00    -0.014 A 
BRANCH  38  39
ATOM     39  C   UNL A   1      39.197  31.348  29.979  1.00  0.00     0.031 A 
ATOM     40  C   UNL A   1      39.423  30.034  29.347  1.00  0.00     0.074 A 
ATOM     41  C   UNL A   1      40.221  32.002  30.574  1.00  0.00     0.049 A 
ATOM     42  N   UNL A   1      40.368  29.218  29.671  1.00  0.00    -0.248 NA
ATOM     43  C   UNL A   1      38.539  29.502  28.320  1.00  0.00     0.031 C 
ATOM     44  C   UNL A   1      41.640  31.664  30.525  1.00  0.00     0.029 A 
ATOM     45  N   UNL A   1      40.142  33.027  31.530  1.00  0.00    -0.354 N 
ATOM     46  C   UNL A   1      40.406  28.217  28.724  1.00  0.00     0.074 A 
ATOM     47  C   UNL A   1      39.188  28.390  27.971  1.00  0.00     0.031 C 
ATOM     48  C   UNL A   1      42.258  32.233  31.572  1.00  0.00     0.029 A 
ATOM     49  C   UNL A   1      41.231  32.830  32.406  1.00  0.00     0.049 A 
ATOM     50  H   UNL A   1      39.464  33.738  31.580  1.00  0.00     0.167 HD
ATOM     51  C   UNL A   1      41.537  27.459  28.612  1.00  0.00     0.037 A 
ATOM     52  C   UNL A   1      41.032  32.535  33.724  1.00  0.00     0.037 A 
ATOM     53  C   UNL A   1      42.459  27.746  29.717  1.00  0.00     0.049 A 
ATOM     54  C   UNL A   1      41.586  31.191  34.144  1.00  0.00     0.074 A 
ATOM     55  C   UNL A   1      43.608  28.515  29.812  1.00  0.00     0.029 A 
ATOM     56  N   UNL A   1      42.079  27.451  31.023  1.00  0.00    -0.354 N 
ATOM     57  N   UNL A   1      41.938  30.257  33.305  1.00  0.00    -0.248 NA
ATOM     58  C   UNL A   1      41.751  30.779  35.536  1.00  0.00     0.031 C 
ATOM     59  C   UNL A   1      43.870  28.748  31.187  1.00  0.00     0.029 A 
ATOM     60  C   UNL A   1      42.898  28.099  31.928  1.00  0.00     0.049 A 
ATOM     61  H   UNL A   1      41.329  26.861  31.269  1.00  0.00     0.167 HD
ATOM     62  C   UNL A   1      42.319  29.137  33.997  1.00  0.00     0.074 A 
ATOM     63  C   UNL A   1      42.213  29.524  35.392  1.00  0.00     0.031 C 
ATOM     64  C   UNL A   1      42.668  27.980  33.361  1.00  0.00     0.037 A 
BRANCH  51  65
ATOM     65  C   UNL A   1      41.949  26.703  27.355  1.00  0.00     0.057 A 
ATOM     66  C   UNL A   1      42.212  25.316  27.410  1.00  0.00     0.134 A 
ATOM     67  C   UNL A   1      42.201  27.268  26.092  1.00  0.00     0.134 A 
ATOM     68  F   UNL A   1      41.915  24.584  28.491  1.00  0.00    -0.206 F 
ATOM     69  C   UNL A   1      42.796  24.599  26.353  1.00  0.00     0.040 A 
ATOM     70  C   UNL A   1      42.819  26.573  25.038  1.00  0.00     0.040 A 
ATOM     71  F   UNL A   1      41.811  28.502  25.770  1.00  0.00    -0.206 F 
ATOM     72  C   UNL A   1      43.138  25.236  25.173  1.00  0.00     0.006 A 
ENDBRANCH  51  65
BRANCH  52  73
ATOM     73  C   UNL A   1      39.819  33.177  34.293  1.00  0.00     0.057 A 
ATOM     74  C   UNL A   1      38.636  32.421  34.370  1.00  0.00     0.134 A 
ATOM     75  C   UNL A   1      39.893  34.325  35.086  1.00  0.00     0.134 A 
ATOM     76  F   UNL A   1      38.499  31.306  33.633  1.00  0.00    -0.206 F 
ATOM     77  C   UNL A   1      37.621  32.726  35.281  1.00  0.00     0.040 A 
ATOM     78  C   UNL A   1      38.878  34.646  35.996  1.00  0.00     0.040 A 
ATOM     79  F   UNL A   1      41.001  35.081  35.089  1.00  0.00    -0.206 F 
ATOM     80  C   UNL A   1      37.759  33.823  36.124  1.00  0.00     0.006 A 
ENDBRANCH  52  73
BRANCH  64  81
ATOM     81  C   UNL A   1      42.890  26.646  34.026  1.00  0.00     0.057 A 
ATOM     82  C   UNL A   1      44.135  26.010  34.121  1.00  0.00     0.134 A 
ATOM     83  C   UNL A   1      41.842  26.027  34.744  1.00  0.00     0.134 A 
ATOM     84  F   UNL A   1      45.237  26.542  33.573  1.00  0.00    -0.206 F 
ATOM     85  C   UNL A   1      44.317  24.818  34.836  1.00  0.00     0.040 A 
ATOM     86  C   UNL A   1      42.023  24.867  35.503  1.00  0.00     0.040 A 
ATOM     87  F   UNL A   1      40.601  26.537  34.756  1.00  0.00    -0.206 F 
ATOM     88  C   UNL A   1      43.264  24.250  35.541  1.00  0.00     0.006 A 
ENDBRANCH  64  81
ENDBRANCH  38  39
ENDBRANCH  30  33
ENDBRANCH  28  29
ENDBRANCH  27  28
ENDBRANCH   1  27
TORSDOF 14
ENDMDL
