MODEL 1
REMARK VINA RESULT:      -9.4      0.000      0.000
REMARK SMILES CC[C@@H](C(=O)NCCCCNC(=O)c1ccc(-c2c3nc(c(-c4c(F)cccc4F)c4ccc([nH]4)c(-c4c(F)cccc4F)c4nc(c(-c5c(F)cccc5F)c5ccc2[nH]5)C=C4)C=C3)cc1)c1cc(Br)ccc1F
REMARK SMILES IDX 9 1 8 2 7 3 6 4 4 5 5 6 3 8 2 9 1 10 68 11 69 12 74 13 70 14
REMARK SMILES IDX 73 15 75 16 71 17 72 18 10 19 11 20 12 21 13 23 14 24 15 25
REMARK SMILES IDX 67 26 16 27 66 28 17 29 18 30 19 31 60 32 20 33 65 34 59 35
REMARK SMILES IDX 61 36 21 37 64 38 58 39 57 40 22 42 48 43 31 44 47 45 32 46
REMARK SMILES IDX 35 47 46 48 62 49 33 50 34 51 45 53 63 54 36 55 23 56 24 57
REMARK SMILES IDX 29 58 25 59 26 60 28 61 30 62 27 63 49 64 50 65 55 66 51 67
REMARK SMILES IDX 52 68 54 69 56 70 53 71 37 72 38 73 43 74 39 75 40 76 42 77
REMARK SMILES IDX 44 78 41 79
REMARK H PARENT 6 7 11 22 61 41 35 52
REMARK Flexibility Score: inf
ROOT
ATOM      1  C   UNL A   1      44.804  20.371  24.315  1.00  0.00     0.023 C 
ENDROOT
BRANCH   1   2
ATOM      2  C   UNL A   1      46.072  21.165  24.611  1.00  0.00     0.023 C 
BRANCH   2   3
ATOM      3  C   UNL A   1      45.925  22.687  24.509  1.00  0.00     0.116 C 
BRANCH   3   4
ATOM      4  N   UNL A   1      46.508  23.306  25.682  1.00  0.00    -0.356 N 
ATOM      5  C   UNL A   1      47.289  24.426  25.772  1.00  0.00     0.227 C 
ATOM      6  O   UNL A   1      48.058  24.492  26.736  1.00  0.00    -0.274 OA
ATOM      7  H   UNL A   1      46.314  22.857  26.536  1.00  0.00     0.163 HD
BRANCH   5   8
ATOM      8  C   UNL A   1      47.149  25.577  24.748  1.00  0.00     0.111 C 
BRANCH   8   9
ATOM      9  C   UNL A   1      48.528  26.154  24.335  1.00  0.00     0.015 C 
ATOM     10  C   UNL A   1      48.653  26.911  23.032  1.00  0.00     0.005 C 
ENDBRANCH   8   9
BRANCH   8  11
ATOM     11  C   UNL A   1      46.249  26.695  25.334  1.00  0.00     0.001 A 
ATOM     12  C   UNL A   1      46.772  27.868  25.918  1.00  0.00     0.023 A 
ATOM     13  C   UNL A   1      44.852  26.553  25.342  1.00  0.00     0.127 A 
ATOM     14  C   UNL A   1      45.942  28.797  26.551  1.00  0.00     0.018 A 
ATOM     15  C   UNL A   1      44.023  27.474  25.987  1.00  0.00     0.041 A 
ATOM     16  F   UNL A   1      44.278  25.506  24.733  1.00  0.00    -0.207 F 
ATOM     17  Br  UNL A   1      46.709  30.326  27.359  1.00  0.00    -0.051 Br
ATOM     18  C   UNL A   1      44.570  28.595  26.609  1.00  0.00     0.019 A 
ENDBRANCH   8  11
ENDBRANCH   5   8
ENDBRANCH   3   4
ENDBRANCH   2   3
ENDBRANCH   1   2
BRANCH   1  19
ATOM     19  C   UNL A   1      44.360  19.463  25.445  1.00  0.00     0.116 C 
BRANCH  19  20
ATOM     20  N   UNL A   1      42.959  19.077  25.348  1.00  0.00    -0.352 N 
ATOM     21  C   UNL A   1      41.851  19.730  25.826  1.00  0.00     0.251 C 
ATOM     22  H   UNL A   1      42.782  18.232  24.875  1.00  0.00     0.163 HD
ATOM     23  O   UNL A   1      40.744  19.200  25.763  1.00  0.00    -0.269 OA
BRANCH  21  24
ATOM     24  C   UNL A   1      42.003  21.062  26.445  1.00  0.00     0.039 A 
ATOM     25  C   UNL A   1      41.978  21.170  27.837  1.00  0.00     0.014 A 
ATOM     26  C   UNL A   1      42.197  22.196  25.653  1.00  0.00     0.014 A 
ATOM     27  C   UNL A   1      42.192  22.414  28.432  1.00  0.00     0.010 A 
ATOM     28  C   UNL A   1      42.521  23.406  26.247  1.00  0.00     0.010 A 
ATOM     29  C   UNL A   1      42.490  23.536  27.643  1.00  0.00    -0.014 A 
BRANCH  29  30
ATOM     30  C   UNL A   1      42.699  24.872  28.249  1.00  0.00     0.031 A 
ATOM     31  C   UNL A   1      44.066  25.250  28.755  1.00  0.00     0.074 A 
ATOM     32  C   UNL A   1      41.662  25.718  28.390  1.00  0.00     0.049 A 
ATOM     33  N   UNL A   1      44.453  26.345  29.358  1.00  0.00    -0.248 NA
ATOM     34  C   UNL A   1      45.133  24.247  28.598  1.00  0.00     0.031 C 
ATOM     35  C   UNL A   1      40.278  25.441  27.998  1.00  0.00     0.029 A 
ATOM     36  N   UNL A   1      41.613  26.989  28.903  1.00  0.00    -0.354 N 
ATOM     37  C   UNL A   1      45.792  26.150  29.668  1.00  0.00     0.074 A 
ATOM     38  C   UNL A   1      46.134  24.808  29.256  1.00  0.00     0.031 C 
ATOM     39  C   UNL A   1      39.525  26.523  28.252  1.00  0.00     0.029 A 
ATOM     40  C   UNL A   1      40.364  27.557  28.848  1.00  0.00     0.049 A 
ATOM     41  H   UNL A   1      42.398  27.449  29.276  1.00  0.00     0.167 HD
ATOM     42  C   UNL A   1      46.673  27.022  30.212  1.00  0.00     0.037 A 
ATOM     43  C   UNL A   1      39.950  28.780  29.227  1.00  0.00     0.037 A 
ATOM     44  C   UNL A   1      46.341  28.372  30.578  1.00  0.00     0.049 A 
ATOM     45  C   UNL A   1      40.953  29.744  29.799  1.00  0.00     0.074 A 
ATOM     46  C   UNL A   1      47.168  29.361  31.076  1.00  0.00     0.029 A 
ATOM     47  N   UNL A   1      45.072  28.924  30.473  1.00  0.00    -0.354 N 
ATOM     48  N   UNL A   1      42.235  29.572  30.021  1.00  0.00    -0.248 NA
ATOM     49  C   UNL A   1      40.456  31.078  30.158  1.00  0.00     0.031 C 
ATOM     50  C   UNL A   1      46.392  30.503  31.305  1.00  0.00     0.029 A 
ATOM     51  C   UNL A   1      45.091  30.237  30.908  1.00  0.00     0.049 A 
ATOM     52  H   UNL A   1      44.276  28.451  30.138  1.00  0.00     0.167 HD
ATOM     53  C   UNL A   1      42.700  30.781  30.519  1.00  0.00     0.074 A 
ATOM     54  C   UNL A   1      41.568  31.684  30.547  1.00  0.00     0.031 C 
ATOM     55  C   UNL A   1      43.951  31.118  30.921  1.00  0.00     0.037 A 
BRANCH  42  56
ATOM     56  C   UNL A   1      48.079  26.540  30.422  1.00  0.00     0.057 A 
ATOM     57  C   UNL A   1      49.061  26.671  29.430  1.00  0.00     0.134 A 
ATOM     58  C   UNL A   1      48.459  25.941  31.629  1.00  0.00     0.134 A 
ATOM     59  F   UNL A   1      48.759  27.219  28.242  1.00  0.00    -0.206 F 
ATOM     60  C   UNL A   1      50.360  26.195  29.619  1.00  0.00     0.040 A 
ATOM     61  C   UNL A   1      49.763  25.489  31.841  1.00  0.00     0.040 A 
ATOM     62  F   UNL A   1      47.571  25.786  32.622  1.00  0.00    -0.206 F 
ATOM     63  C   UNL A   1      50.715  25.607  30.830  1.00  0.00     0.006 A 
ENDBRANCH  42  56
BRANCH  43  64
ATOM     64  C   UNL A   1      38.534  29.183  29.039  1.00  0.00     0.057 A 
ATOM     65  C   UNL A   1      37.622  29.126  30.100  1.00  0.00     0.134 A 
ATOM     66  C   UNL A   1      38.053  29.618  27.799  1.00  0.00     0.134 A 
ATOM     67  F   UNL A   1      38.020  28.702  31.309  1.00  0.00    -0.206 F 
ATOM     68  C   UNL A   1      36.278  29.462  29.931  1.00  0.00     0.040 A 
ATOM     69  C   UNL A   1      36.716  29.981  27.620  1.00  0.00     0.040 A 
ATOM     70  F   UNL A   1      38.877  29.704  26.745  1.00  0.00    -0.206 F 
ATOM     71  C   UNL A   1      35.823  29.895  28.686  1.00  0.00     0.006 A 
ENDBRANCH  43  64
BRANCH  55  72
ATOM     72  C   UNL A   1      44.158  32.527  31.391  1.00  0.00     0.057 A 
ATOM     73  C   UNL A   1      44.527  33.553  30.512  1.00  0.00     0.134 A 
ATOM     74  C   UNL A   1      43.968  32.863  32.737  1.00  0.00     0.134 A 
ATOM     75  F   UNL A   1      44.736  33.293  29.213  1.00  0.00    -0.206 F 
ATOM     76  C   UNL A   1      44.729  34.859  30.962  1.00  0.00     0.040 A 
ATOM     77  C   UNL A   1      44.140  34.170  33.194  1.00  0.00     0.040 A 
ATOM     78  F   UNL A   1      43.603  31.928  33.629  1.00  0.00    -0.206 F 
ATOM     79  C   UNL A   1      44.531  35.170  32.306  1.00  0.00     0.006 A 
ENDBRANCH  55  72
ENDBRANCH  29  30
ENDBRANCH  21  24
ENDBRANCH  19  20
ENDBRANCH   1  19
TORSDOF 13
ENDMDL
MODEL 2
REMARK VINA RESULT:      -9.0      4.618      7.126
REMARK SMILES CC[C@@H](C(=O)NCCCCNC(=O)c1ccc(-c2c3nc(c(-c4c(F)cccc4F)c4ccc([nH]4)c(-c4c(F)cccc4F)c4nc(c(-c5c(F)cccc5F)c5ccc2[nH]5)C=C4)C=C3)cc1)c1cc(Br)ccc1F
REMARK SMILES IDX 9 1 8 2 7 3 6 4 4 5 5 6 3 8 2 9 1 10 68 11 69 12 74 13 70 14
REMARK SMILES IDX 73 15 75 16 71 17 72 18 10 19 11 20 12 21 13 23 14 24 15 25
REMARK SMILES IDX 67 26 16 27 66 28 17 29 18 30 19 31 60 32 20 33 65 34 59 35
REMARK SMILES IDX 61 36 21 37 64 38 58 39 57 40 22 42 48 43 31 44 47 45 32 46
REMARK SMILES IDX 35 47 46 48 62 49 33 50 34 51 45 53 63 54 36 55 23 56 24 57
REMARK SMILES IDX 29 58 25 59 26 60 28 61 30 62 27 63 49 64 50 65 55 66 51 67
REMARK SMILES IDX 52 68 54 69 56 70 53 71 37 72 38 73 43 74 39 75 40 76 42 77
REMARK SMILES IDX 44 78 41 79
REMARK H PARENT 6 7 11 22 61 41 35 52
REMARK Flexibility Score: inf
ROOT
ATOM      1  C   UNL A   1      37.956  19.917  24.628  1.00  0.00     0.023 C 
ENDROOT
BRANCH   1   2
ATOM      2  C   UNL A   1      36.476  20.006  24.982  1.00  0.00     0.023 C 
BRANCH   2   3
ATOM      3  C   UNL A   1      36.011  21.372  25.499  1.00  0.00     0.116 C 
BRANCH   3   4
ATOM      4  N   UNL A   1      35.101  21.182  26.610  1.00  0.00    -0.356 N 
ATOM      5  C   UNL A   1      33.810  21.610  26.755  1.00  0.00     0.227 C 
ATOM      6  O   UNL A   1      33.405  21.777  27.909  1.00  0.00    -0.274 OA
ATOM      7  H   UNL A   1      35.464  20.671  27.369  1.00  0.00     0.163 HD
BRANCH   5   8
ATOM      8  C   UNL A   1      32.893  21.800  25.523  1.00  0.00     0.111 C 
BRANCH   8   9
ATOM      9  C   UNL A   1      31.524  22.415  25.911  1.00  0.00     0.015 C 
ATOM     10  C   UNL A   1      30.986  23.584  25.115  1.00  0.00     0.005 C 
ENDBRANCH   8   9
BRANCH   8  11
ATOM     11  C   UNL A   1      32.691  20.441  24.804  1.00  0.00     0.001 A 
ATOM     12  C   UNL A   1      32.849  19.202  25.458  1.00  0.00     0.023 A 
ATOM     13  C   UNL A   1      32.380  20.399  23.436  1.00  0.00     0.127 A 
ATOM     14  C   UNL A   1      32.786  17.995  24.755  1.00  0.00     0.018 A 
ATOM     15  C   UNL A   1      32.330  19.195  22.728  1.00  0.00     0.041 A 
ATOM     16  F   UNL A   1      32.134  21.535  22.766  1.00  0.00    -0.207 F 
ATOM     17  Br  UNL A   1      33.055  16.367  25.680  1.00  0.00    -0.051 Br
ATOM     18  C   UNL A   1      32.549  17.986  23.387  1.00  0.00     0.019 A 
ENDBRANCH   8  11
ENDBRANCH   5   8
ENDBRANCH   3   4
ENDBRANCH   2   3
ENDBRANCH   1   2
BRANCH   1  19
ATOM     19  C   UNL A   1      38.891  20.117  25.805  1.00  0.00     0.116 C 
BRANCH  19  20
ATOM     20  N   UNL A   1      40.046  19.231  25.771  1.00  0.00    -0.352 N 
ATOM     21  C   UNL A   1      41.356  19.513  26.066  1.00  0.00     0.251 C 
ATOM     22  H   UNL A   1      39.862  18.303  25.500  1.00  0.00     0.163 HD
ATOM     23  O   UNL A   1      42.230  18.673  25.867  1.00  0.00    -0.269 OA
BRANCH  21  24
ATOM     24  C   UNL A   1      41.712  20.845  26.595  1.00  0.00     0.039 A 
ATOM     25  C   UNL A   1      42.130  21.838  25.708  1.00  0.00     0.014 A 
ATOM     26  C   UNL A   1      41.606  21.118  27.961  1.00  0.00     0.014 A 
ATOM     27  C   UNL A   1      42.398  23.120  26.190  1.00  0.00     0.010 A 
ATOM     28  C   UNL A   1      41.765  22.417  28.420  1.00  0.00     0.010 A 
ATOM     29  C   UNL A   1      42.195  23.425  27.545  1.00  0.00    -0.014 A 
BRANCH  29  30
ATOM     30  C   UNL A   1      42.495  24.771  28.086  1.00  0.00     0.031 A 
ATOM     31  C   UNL A   1      43.913  25.123  28.452  1.00  0.00     0.074 A 
ATOM     32  C   UNL A   1      41.499  25.652  28.294  1.00  0.00     0.049 A 
ATOM     33  N   UNL A   1      44.383  26.224  28.981  1.00  0.00    -0.248 NA
ATOM     34  C   UNL A   1      44.933  24.085  28.231  1.00  0.00     0.031 C 
ATOM     35  C   UNL A   1      40.077  25.404  28.040  1.00  0.00     0.029 A 
ATOM     36  N   UNL A   1      41.531  26.938  28.767  1.00  0.00    -0.354 N 
ATOM     37  C   UNL A   1      45.740  25.998  29.172  1.00  0.00     0.074 A 
ATOM     38  C   UNL A   1      46.006  24.635  28.774  1.00  0.00     0.031 C 
ATOM     39  C   UNL A   1      39.380  26.515  28.327  1.00  0.00     0.029 A 
ATOM     40  C   UNL A   1      40.299  27.542  28.809  1.00  0.00     0.049 A 
ATOM     41  H   UNL A   1      42.361  27.386  29.052  1.00  0.00     0.167 HD
ATOM     42  C   UNL A   1      46.691  26.860  29.604  1.00  0.00     0.037 A 
ATOM     43  C   UNL A   1      39.955  28.787  29.185  1.00  0.00     0.037 A 
ATOM     44  C   UNL A   1      46.430  28.229  29.955  1.00  0.00     0.049 A 
ATOM     45  C   UNL A   1      41.033  29.738  29.630  1.00  0.00     0.074 A 
ATOM     46  C   UNL A   1      47.326  29.207  30.343  1.00  0.00     0.029 A 
ATOM     47  N   UNL A   1      45.173  28.816  29.949  1.00  0.00    -0.354 N 
ATOM     48  N   UNL A   1      42.325  29.534  29.739  1.00  0.00    -0.248 NA
ATOM     49  C   UNL A   1      40.607  31.096  29.990  1.00  0.00     0.031 C 
ATOM     50  C   UNL A   1      46.606  30.378  30.605  1.00  0.00     0.029 A 
ATOM     51  C   UNL A   1      45.267  30.140  30.337  1.00  0.00     0.049 A 
ATOM     52  H   UNL A   1      44.336  28.357  29.704  1.00  0.00     0.167 HD
ATOM     53  C   UNL A   1      42.866  30.743  30.152  1.00  0.00     0.074 A 
ATOM     54  C   UNL A   1      41.766  31.680  30.255  1.00  0.00     0.031 C 
ATOM     55  C   UNL A   1      44.157  31.054  30.426  1.00  0.00     0.037 A 
BRANCH  42  56
ATOM     56  C   UNL A   1      48.097  26.342  29.700  1.00  0.00     0.057 A 
ATOM     57  C   UNL A   1      48.993  26.436  28.626  1.00  0.00     0.134 A 
ATOM     58  C   UNL A   1      48.563  25.747  30.878  1.00  0.00     0.134 A 
ATOM     59  F   UNL A   1      48.604  26.978  27.461  1.00  0.00    -0.206 F 
ATOM     60  C   UNL A   1      50.291  25.927  28.709  1.00  0.00     0.040 A 
ATOM     61  C   UNL A   1      49.869  25.262  30.984  1.00  0.00     0.040 A 
ATOM     62  F   UNL A   1      47.760  25.627  31.945  1.00  0.00    -0.206 F 
ATOM     63  C   UNL A   1      50.733  25.344  29.893  1.00  0.00     0.006 A 
ENDBRANCH  42  56
BRANCH  43  64
ATOM     64  C   UNL A   1      38.539  29.226  29.114  1.00  0.00     0.057 A 
ATOM     65  C   UNL A   1      38.002  29.735  27.926  1.00  0.00     0.134 A 
ATOM     66  C   UNL A   1      37.694  29.161  30.228  1.00  0.00     0.134 A 
ATOM     67  F   UNL A   1      38.767  29.837  26.829  1.00  0.00    -0.206 F 
ATOM     68  C   UNL A   1      36.684  30.190  27.852  1.00  0.00     0.040 A 
ATOM     69  C   UNL A   1      36.366  29.590  30.162  1.00  0.00     0.040 A 
ATOM     70  F   UNL A   1      38.144  28.674  31.393  1.00  0.00    -0.206 F 
ATOM     71  C   UNL A   1      35.861  30.114  28.974  1.00  0.00     0.006 A 
ENDBRANCH  43  64
BRANCH  55  72
ATOM     72  C   UNL A   1      44.446  32.470  30.830  1.00  0.00     0.057 A 
ATOM     73  C   UNL A   1      44.718  33.467  29.885  1.00  0.00     0.134 A 
ATOM     74  C   UNL A   1      44.431  32.842  32.180  1.00  0.00     0.134 A 
ATOM     75  F   UNL A   1      44.758  33.171  28.577  1.00  0.00    -0.206 F 
ATOM     76  C   UNL A   1      44.997  34.779  30.271  1.00  0.00     0.040 A 
ATOM     77  C   UNL A   1      44.681  34.156  32.576  1.00  0.00     0.040 A 
ATOM     78  F   UNL A   1      44.166  31.937  33.134  1.00  0.00    -0.206 F 
ATOM     79  C   UNL A   1      44.973  35.127  31.620  1.00  0.00     0.006 A 
ENDBRANCH  55  72
ENDBRANCH  29  30
ENDBRANCH  21  24
ENDBRANCH  19  20
ENDBRANCH   1  19
TORSDOF 13
ENDMDL
MODEL 3
REMARK VINA RESULT:      -8.9      3.423      5.770
REMARK SMILES CC[C@@H](C(=O)NCCCCNC(=O)c1ccc(-c2c3nc(c(-c4c(F)cccc4F)c4ccc([nH]4)c(-c4c(F)cccc4F)c4nc(c(-c5c(F)cccc5F)c5ccc2[nH]5)C=C4)C=C3)cc1)c1cc(Br)ccc1F
REMARK SMILES IDX 9 1 8 2 7 3 6 4 4 5 5 6 3 8 2 9 1 10 68 11 69 12 74 13 70 14
REMARK SMILES IDX 73 15 75 16 71 17 72 18 10 19 11 20 12 21 13 23 14 24 15 25
REMARK SMILES IDX 67 26 16 27 66 28 17 29 18 30 19 31 60 32 20 33 65 34 59 35
REMARK SMILES IDX 61 36 21 37 64 38 58 39 57 40 22 42 48 43 31 44 47 45 32 46
REMARK SMILES IDX 35 47 46 48 62 49 33 50 34 51 45 53 63 54 36 55 23 56 24 57
REMARK SMILES IDX 29 58 25 59 26 60 28 61 30 62 27 63 49 64 50 65 55 66 51 67
REMARK SMILES IDX 52 68 54 69 56 70 53 71 37 72 38 73 43 74 39 75 40 76 42 77
REMARK SMILES IDX 44 78 41 79
REMARK H PARENT 6 7 11 22 61 41 35 52
REMARK Flexibility Score: inf
ROOT
ATOM      1  C   UNL A   1      38.982  20.976  25.405  1.00  0.00     0.023 C 
ENDROOT
BRANCH   1   2
ATOM      2  C   UNL A   1      38.866  22.324  26.106  1.00  0.00     0.023 C 
BRANCH   2   3
ATOM      3  C   UNL A   1      37.522  23.040  25.923  1.00  0.00     0.116 C 
BRANCH   3   4
ATOM      4  N   UNL A   1      37.339  23.370  24.525  1.00  0.00    -0.356 N 
ATOM      5  C   UNL A   1      36.272  23.116  23.708  1.00  0.00     0.227 C 
ATOM      6  O   UNL A   1      36.504  23.026  22.499  1.00  0.00    -0.274 OA
ATOM      7  H   UNL A   1      38.091  23.843  24.101  1.00  0.00     0.163 HD
BRANCH   5   8
ATOM      8  C   UNL A   1      34.837  23.023  24.282  1.00  0.00     0.111 C 
BRANCH   8   9
ATOM      9  C   UNL A   1      33.897  22.208  23.357  1.00  0.00     0.015 C 
ATOM     10  C   UNL A   1      32.631  21.610  23.932  1.00  0.00     0.005 C 
ENDBRANCH   8   9
BRANCH   8  11
ATOM     11  C   UNL A   1      34.269  24.448  24.509  1.00  0.00     0.001 A 
ATOM     12  C   UNL A   1      34.139  25.392  23.469  1.00  0.00     0.023 A 
ATOM     13  C   UNL A   1      33.899  24.870  25.796  1.00  0.00     0.127 A 
ATOM     14  C   UNL A   1      33.744  26.708  23.726  1.00  0.00     0.018 A 
ATOM     15  C   UNL A   1      33.518  26.188  26.057  1.00  0.00     0.041 A 
ATOM     16  F   UNL A   1      33.918  24.004  26.820  1.00  0.00    -0.207 F 
ATOM     17  Br  UNL A   1      33.635  27.940  22.296  1.00  0.00    -0.051 Br
ATOM     18  C   UNL A   1      33.454  27.118  25.021  1.00  0.00     0.019 A 
ENDBRANCH   8  11
ENDBRANCH   5   8
ENDBRANCH   3   4
ENDBRANCH   2   3
ENDBRANCH   1   2
BRANCH   1  19
ATOM     19  C   UNL A   1      39.455  19.847  26.299  1.00  0.00     0.116 C 
BRANCH  19  20
ATOM     20  N   UNL A   1      40.670  19.208  25.815  1.00  0.00    -0.352 N 
ATOM     21  C   UNL A   1      41.947  19.707  25.772  1.00  0.00     0.251 C 
ATOM     22  H   UNL A   1      40.560  18.291  25.472  1.00  0.00     0.163 HD
ATOM     23  O   UNL A   1      42.841  19.074  25.216  1.00  0.00    -0.269 OA
BRANCH  21  24
ATOM     24  C   UNL A   1      42.232  21.025  26.373  1.00  0.00     0.039 A 
ATOM     25  C   UNL A   1      42.557  22.095  25.537  1.00  0.00     0.014 A 
ATOM     26  C   UNL A   1      42.152  21.209  27.755  1.00  0.00     0.014 A 
ATOM     27  C   UNL A   1      42.758  23.361  26.089  1.00  0.00     0.010 A 
ATOM     28  C   UNL A   1      42.241  22.486  28.288  1.00  0.00     0.010 A 
ATOM     29  C   UNL A   1      42.577  23.571  27.466  1.00  0.00    -0.014 A 
BRANCH  29  30
ATOM     30  C   UNL A   1      42.807  24.899  28.080  1.00  0.00     0.031 A 
ATOM     31  C   UNL A   1      44.191  25.274  28.540  1.00  0.00     0.074 A 
ATOM     32  C   UNL A   1      41.775  25.742  28.269  1.00  0.00     0.049 A 
ATOM     33  N   UNL A   1      44.599  26.362  29.141  1.00  0.00    -0.248 NA
ATOM     34  C   UNL A   1      45.253  24.274  28.332  1.00  0.00     0.031 C 
ATOM     35  C   UNL A   1      40.378  25.467  27.925  1.00  0.00     0.029 A 
ATOM     36  N   UNL A   1      41.743  27.007  28.798  1.00  0.00    -0.354 N 
ATOM     37  C   UNL A   1      45.949  26.166  29.399  1.00  0.00     0.074 A 
ATOM     38  C   UNL A   1      46.277  24.829  28.959  1.00  0.00     0.031 C 
ATOM     39  C   UNL A   1      39.633  26.545  28.219  1.00  0.00     0.029 A 
ATOM     40  C   UNL A   1      40.492  27.574  28.796  1.00  0.00     0.049 A 
ATOM     41  H   UNL A   1      42.542  27.464  29.148  1.00  0.00     0.167 HD
ATOM     42  C   UNL A   1      46.848  27.033  29.920  1.00  0.00     0.037 A 
ATOM     43  C   UNL A   1      40.091  28.791  29.205  1.00  0.00     0.037 A 
ATOM     44  C   UNL A   1      46.528  28.378  30.314  1.00  0.00     0.049 A 
ATOM     45  C   UNL A   1      41.114  29.750  29.750  1.00  0.00     0.074 A 
ATOM     46  C   UNL A   1      47.372  29.362  30.794  1.00  0.00     0.029 A 
ATOM     47  N   UNL A   1      45.256  28.929  30.262  1.00  0.00    -0.354 N 
ATOM     48  N   UNL A   1      42.404  29.577  29.923  1.00  0.00    -0.248 NA
ATOM     49  C   UNL A   1      40.628  31.079  30.144  1.00  0.00     0.031 C 
ATOM     50  C   UNL A   1      46.604  30.500  31.065  1.00  0.00     0.029 A 
ATOM     51  C   UNL A   1      45.289  30.237  30.712  1.00  0.00     0.049 A 
ATOM     52  H   UNL A   1      44.448  28.459  29.951  1.00  0.00     0.167 HD
ATOM     53  C   UNL A   1      42.885  30.782  30.418  1.00  0.00     0.074 A 
ATOM     54  C   UNL A   1      41.754  31.682  30.499  1.00  0.00     0.031 C 
ATOM     55  C   UNL A   1      44.149  31.115  30.777  1.00  0.00     0.037 A 
BRANCH  42  56
ATOM     56  C   UNL A   1      48.262  26.550  30.073  1.00  0.00     0.057 A 
ATOM     57  C   UNL A   1      49.228  26.768  29.081  1.00  0.00     0.134 A 
ATOM     58  C   UNL A   1      48.665  25.864  31.225  1.00  0.00     0.134 A 
ATOM     59  F   UNL A   1      48.903  27.403  27.943  1.00  0.00    -0.206 F 
ATOM     60  C   UNL A   1      50.534  26.292  29.214  1.00  0.00     0.040 A 
ATOM     61  C   UNL A   1      49.976  25.411  31.383  1.00  0.00     0.040 A 
ATOM     62  F   UNL A   1      47.793  25.624  32.215  1.00  0.00    -0.206 F 
ATOM     63  C   UNL A   1      50.912  25.617  30.371  1.00  0.00     0.006 A 
ENDBRANCH  42  56
BRANCH  43  64
ATOM     64  C   UNL A   1      38.669  29.194  29.073  1.00  0.00     0.057 A 
ATOM     65  C   UNL A   1      37.804  29.150  30.174  1.00  0.00     0.134 A 
ATOM     66  C   UNL A   1      38.136  29.617  27.851  1.00  0.00     0.134 A 
ATOM     67  F   UNL A   1      38.253  28.737  31.368  1.00  0.00    -0.206 F 
ATOM     68  C   UNL A   1      36.454  29.486  30.058  1.00  0.00     0.040 A 
ATOM     69  C   UNL A   1      36.793  29.980  27.726  1.00  0.00     0.040 A 
ATOM     70  F   UNL A   1      38.914  29.691  26.761  1.00  0.00    -0.206 F 
ATOM     71  C   UNL A   1      35.946  29.906  28.830  1.00  0.00     0.006 A 
ENDBRANCH  43  64
BRANCH  55  72
ATOM     72  C   UNL A   1      44.372  32.519  31.256  1.00  0.00     0.057 A 
ATOM     73  C   UNL A   1      44.297  32.858  32.613  1.00  0.00     0.134 A 
ATOM     74  C   UNL A   1      44.686  33.539  30.349  1.00  0.00     0.134 A 
ATOM     75  F   UNL A   1      43.989  31.928  33.530  1.00  0.00    -0.206 F 
ATOM     76  C   UNL A   1      44.494  34.170  33.048  1.00  0.00     0.040 A 
ATOM     77  C   UNL A   1      44.913  34.848  30.775  1.00  0.00     0.040 A 
ATOM     78  F   UNL A   1      44.785  33.278  29.037  1.00  0.00    -0.206 F 
ATOM     79  C   UNL A   1      44.808  35.168  32.127  1.00  0.00     0.006 A 
ENDBRANCH  55  72
ENDBRANCH  29  30
ENDBRANCH  21  24
ENDBRANCH  19  20
ENDBRANCH   1  19
TORSDOF 13
ENDMDL
