MODEL 1
REMARK VINA RESULT:     -12.4      0.000      0.000
REMARK SMILES O=C(NCCCCNC(=O)c1cccn1CC(=O)N1CCc2ccccc2C1)c1ccc(-c2c3nc(c(-c4c(F)cccc4F)c4ccc([nH]4)c(-c4c(F)cccc4F)c4nc(c(-c5c(F)cccc5F)c5ccc2[nH]5)C=C4)C=C3)cc1
REMARK SMILES IDX 6 1 5 2 4 3 3 4 1 5 2 6 29 8 30 9 82 10 31 11 81 12 32 13
REMARK SMILES IDX 33 14 34 15 75 16 35 17 80 18 74 19 76 20 36 21 79 22 73 23
REMARK SMILES IDX 72 24 37 26 63 27 46 28 62 29 47 30 50 31 61 32 77 33 48 34
REMARK SMILES IDX 49 35 60 37 78 38 51 39 38 40 39 41 44 42 40 43 41 44 43 45
REMARK SMILES IDX 45 46 42 47 64 48 65 49 70 50 66 51 67 52 69 53 71 54 68 55
REMARK SMILES IDX 52 56 53 57 58 58 54 59 55 60 57 61 59 62 56 63 7 64 8 65
REMARK SMILES IDX 9 66 10 68 11 69 12 70 15 71 13 72 14 73 16 74 17 75 18 76
REMARK SMILES IDX 19 77 20 78 28 79 21 80 27 81 22 82 26 83 23 84 25 85 24 86
REMARK H PARENT 3 7 76 25 50 36 8 67
REMARK Flexibility Score: inf
ROOT
ATOM      1  C   UNL A   1      32.884  29.671  25.346  1.00  0.00     0.023 C 
ENDROOT
BRANCH   1   2
ATOM      2  C   UNL A   1      33.216  28.860  26.594  1.00  0.00     0.023 C 
BRANCH   2   3
ATOM      3  C   UNL A   1      34.661  28.974  27.073  1.00  0.00     0.116 C 
BRANCH   3   4
ATOM      4  N   UNL A   1      34.920  30.038  28.025  1.00  0.00    -0.352 N 
ATOM      5  O   UNL A   1      35.977  31.451  29.395  1.00  0.00    -0.269 OA
ATOM      6  C   UNL A   1      36.046  30.437  28.700  1.00  0.00     0.251 C 
ATOM      7  H   UNL A   1      34.126  30.585  28.228  1.00  0.00     0.163 HD
BRANCH   6   8
ATOM      8  C   UNL A   1      37.314  29.670  28.682  1.00  0.00     0.039 A 
ATOM      9  C   UNL A   1      38.253  29.764  27.653  1.00  0.00     0.014 A 
ATOM     10  C   UNL A   1      37.584  28.843  29.787  1.00  0.00     0.014 A 
ATOM     11  C   UNL A   1      39.399  28.979  27.676  1.00  0.00     0.010 A 
ATOM     12  C   UNL A   1      38.755  28.086  29.839  1.00  0.00     0.010 A 
ATOM     13  C   UNL A   1      39.664  28.158  28.778  1.00  0.00    -0.014 A 
BRANCH  13  14
ATOM     14  C   UNL A   1      41.025  27.581  28.863  1.00  0.00     0.031 A 
ATOM     15  C   UNL A   1      41.045  26.109  28.431  1.00  0.00     0.074 A 
ATOM     16  C   UNL A   1      42.013  28.365  29.381  1.00  0.00     0.049 A 
ATOM     17  N   UNL A   1      41.812  25.137  28.821  1.00  0.00    -0.248 NA
ATOM     18  C   UNL A   1      39.998  25.627  27.488  1.00  0.00     0.031 C 
ATOM     19  C   UNL A   1      41.838  29.783  29.741  1.00  0.00     0.029 A 
ATOM     20  N   UNL A   1      43.336  28.150  29.723  1.00  0.00    -0.354 N 
ATOM     21  C   UNL A   1      41.484  24.007  28.041  1.00  0.00     0.074 A 
ATOM     22  C   UNL A   1      40.281  24.333  27.336  1.00  0.00     0.031 C 
ATOM     23  C   UNL A   1      42.959  30.274  30.305  1.00  0.00     0.029 A 
ATOM     24  C   UNL A   1      43.979  29.243  30.364  1.00  0.00     0.049 A 
ATOM     25  H   UNL A   1      43.799  27.302  29.538  1.00  0.00     0.167 HD
ATOM     26  C   UNL A   1      42.296  22.920  27.911  1.00  0.00     0.037 A 
ATOM     27  C   UNL A   1      45.223  29.311  30.936  1.00  0.00     0.037 A 
ATOM     28  C   UNL A   1      43.462  23.069  28.711  1.00  0.00     0.049 A 
ATOM     29  C   UNL A   1      45.877  28.028  30.635  1.00  0.00     0.074 A 
ATOM     30  C   UNL A   1      43.696  22.973  30.056  1.00  0.00     0.029 A 
ATOM     31  N   UNL A   1      44.552  23.644  28.108  1.00  0.00    -0.354 N 
ATOM     32  N   UNL A   1      46.349  27.692  29.472  1.00  0.00    -0.248 NA
ATOM     33  C   UNL A   1      45.972  27.013  31.693  1.00  0.00     0.031 C 
ATOM     34  C   UNL A   1      44.774  23.855  30.285  1.00  0.00     0.029 A 
ATOM     35  C   UNL A   1      45.216  24.373  29.062  1.00  0.00     0.049 A 
ATOM     36  H   UNL A   1      44.810  23.552  27.162  1.00  0.00     0.167 HD
ATOM     37  C   UNL A   1      46.482  26.329  29.590  1.00  0.00     0.074 A 
ATOM     38  C   UNL A   1      46.561  26.041  31.002  1.00  0.00     0.031 C 
ATOM     39  C   UNL A   1      45.970  25.527  28.622  1.00  0.00     0.037 A 
BRANCH  26  40
ATOM     40  C   UNL A   1      42.288  21.783  26.928  1.00  0.00     0.057 A 
ATOM     41  C   UNL A   1      41.620  20.588  27.286  1.00  0.00     0.134 A 
ATOM     42  C   UNL A   1      43.172  21.684  25.848  1.00  0.00     0.134 A 
ATOM     43  F   UNL A   1      40.719  20.573  28.283  1.00  0.00    -0.206 F 
ATOM     44  C   UNL A   1      41.907  19.357  26.694  1.00  0.00     0.040 A 
ATOM     45  C   UNL A   1      43.431  20.461  25.214  1.00  0.00     0.040 A 
ATOM     46  F   UNL A   1      43.883  22.739  25.429  1.00  0.00    -0.206 F 
ATOM     47  C   UNL A   1      42.832  19.288  25.664  1.00  0.00     0.006 A 
ENDBRANCH  26  40
BRANCH  27  48
ATOM     48  C   UNL A   1      46.023  30.278  31.791  1.00  0.00     0.057 A 
ATOM     49  C   UNL A   1      47.041  31.128  31.350  1.00  0.00     0.134 A 
ATOM     50  C   UNL A   1      45.731  30.425  33.179  1.00  0.00     0.134 A 
ATOM     51  F   UNL A   1      47.541  31.046  30.115  1.00  0.00    -0.206 F 
ATOM     52  C   UNL A   1      47.632  32.107  32.177  1.00  0.00     0.040 A 
ATOM     53  C   UNL A   1      46.283  31.412  34.002  1.00  0.00     0.040 A 
ATOM     54  F   UNL A   1      44.884  29.609  33.820  1.00  0.00    -0.206 F 
ATOM     55  C   UNL A   1      47.229  32.276  33.496  1.00  0.00     0.006 A 
ENDBRANCH  27  48
BRANCH  39  56
ATOM     56  C   UNL A   1      45.865  26.204  27.269  1.00  0.00     0.057 A 
ATOM     57  C   UNL A   1      47.018  26.496  26.533  1.00  0.00     0.134 A 
ATOM     58  C   UNL A   1      44.666  26.704  26.741  1.00  0.00     0.134 A 
ATOM     59  F   UNL A   1      48.215  26.059  26.954  1.00  0.00    -0.206 F 
ATOM     60  C   UNL A   1      46.979  27.256  25.355  1.00  0.00     0.040 A 
ATOM     61  C   UNL A   1      44.604  27.454  25.561  1.00  0.00     0.040 A 
ATOM     62  F   UNL A   1      43.510  26.494  27.363  1.00  0.00    -0.206 F 
ATOM     63  C   UNL A   1      45.769  27.742  24.866  1.00  0.00     0.006 A 
ENDBRANCH  39  56
ENDBRANCH  13  14
ENDBRANCH   6   8
ENDBRANCH   3   4
ENDBRANCH   2   3
ENDBRANCH   1   2
BRANCH   1  64
ATOM     64  C   UNL A   1      31.399  29.838  25.033  1.00  0.00     0.116 C 
BRANCH  64  65
ATOM     65  N   UNL A   1      31.072  29.425  23.681  1.00  0.00    -0.351 N 
ATOM     66  C   UNL A   1      30.801  28.172  23.182  1.00  0.00     0.267 C 
ATOM     67  H   UNL A   1      31.038  30.153  23.020  1.00  0.00     0.163 HD
ATOM     68  O   UNL A   1      30.671  28.056  21.974  1.00  0.00    -0.268 OA
BRANCH  66  69
ATOM     69  C   UNL A   1      30.742  27.055  24.104  1.00  0.00     0.107 A 
ATOM     70  C   UNL A   1      29.643  26.546  24.780  1.00  0.00     0.033 A 
ATOM     71  N   UNL A   1      31.823  26.253  24.444  1.00  0.00    -0.334 N 
ATOM     72  C   UNL A   1      30.067  25.437  25.546  1.00  0.00     0.020 A 
ATOM     73  C   UNL A   1      31.413  25.269  25.310  1.00  0.00     0.087 A 
BRANCH  71  74
ATOM     74  C   UNL A   1      33.178  26.387  23.922  1.00  0.00     0.222 C 
BRANCH  74  75
ATOM     75  C   UNL A   1      33.728  25.272  23.040  1.00  0.00     0.242 C 
ATOM     76  O   UNL A   1      33.868  25.505  21.832  1.00  0.00    -0.273 OA
BRANCH  75  77
ATOM     77  N   UNL A   1      34.234  24.099  23.597  1.00  0.00    -0.336 N 
ATOM     78  C   UNL A   1      33.836  22.758  23.180  1.00  0.00     0.124 C 
ATOM     79  C   UNL A   1      35.333  24.238  24.562  1.00  0.00     0.155 C 
ATOM     80  C   UNL A   1      34.205  21.628  24.132  1.00  0.00     0.057 C 
ATOM     81  C   UNL A   1      36.165  23.002  24.799  1.00  0.00    -0.025 A 
ATOM     82  C   UNL A   1      35.629  21.727  24.577  1.00  0.00    -0.041 A 
ATOM     83  C   UNL A   1      37.456  23.109  25.331  1.00  0.00     0.006 A 
ATOM     84  C   UNL A   1      36.383  20.580  24.847  1.00  0.00     0.004 A 
ATOM     85  C   UNL A   1      38.209  21.965  25.601  1.00  0.00     0.000 A 
ATOM     86  C   UNL A   1      37.676  20.701  25.350  1.00  0.00     0.000 A 
ENDBRANCH  75  77
ENDBRANCH  74  75
ENDBRANCH  71  74
ENDBRANCH  66  69
ENDBRANCH  64  65
ENDBRANCH   1  64
TORSDOF 14
ENDMDL
MODEL 2
REMARK VINA RESULT:     -12.0      1.377      3.868
REMARK SMILES O=C(NCCCCNC(=O)c1cccn1CC(=O)N1CCc2ccccc2C1)c1ccc(-c2c3nc(c(-c4c(F)cccc4F)c4ccc([nH]4)c(-c4c(F)cccc4F)c4nc(c(-c5c(F)cccc5F)c5ccc2[nH]5)C=C4)C=C3)cc1
REMARK SMILES IDX 6 1 5 2 4 3 3 4 1 5 2 6 29 8 30 9 82 10 31 11 81 12 32 13
REMARK SMILES IDX 33 14 34 15 75 16 35 17 80 18 74 19 76 20 36 21 79 22 73 23
REMARK SMILES IDX 72 24 37 26 63 27 46 28 62 29 47 30 50 31 61 32 77 33 48 34
REMARK SMILES IDX 49 35 60 37 78 38 51 39 38 40 39 41 44 42 40 43 41 44 43 45
REMARK SMILES IDX 45 46 42 47 64 48 65 49 70 50 66 51 67 52 69 53 71 54 68 55
REMARK SMILES IDX 52 56 53 57 58 58 54 59 55 60 57 61 59 62 56 63 7 64 8 65
REMARK SMILES IDX 9 66 10 68 11 69 12 70 15 71 13 72 14 73 16 74 17 75 18 76
REMARK SMILES IDX 19 77 20 78 28 79 21 80 27 81 22 82 26 83 23 84 25 85 24 86
REMARK H PARENT 3 7 76 25 50 36 8 67
REMARK Flexibility Score: inf
ROOT
ATOM      1  C   UNL A   1      32.517  27.647  26.996  1.00  0.00     0.023 C 
ENDROOT
BRANCH   1   2
ATOM      2  C   UNL A   1      33.266  28.732  26.227  1.00  0.00     0.023 C 
BRANCH   2   3
ATOM      3  C   UNL A   1      34.732  28.903  26.616  1.00  0.00     0.116 C 
BRANCH   3   4
ATOM      4  N   UNL A   1      35.046  30.115  27.349  1.00  0.00    -0.352 N 
ATOM      5  O   UNL A   1      36.177  31.723  28.409  1.00  0.00    -0.269 OA
ATOM      6  C   UNL A   1      36.201  30.598  27.911  1.00  0.00     0.251 C 
ATOM      7  H   UNL A   1      34.273  30.714  27.466  1.00  0.00     0.163 HD
BRANCH   6   8
ATOM      8  C   UNL A   1      37.448  29.803  28.003  1.00  0.00     0.039 A 
ATOM      9  C   UNL A   1      38.433  29.802  27.014  1.00  0.00     0.014 A 
ATOM     10  C   UNL A   1      37.649  29.050  29.174  1.00  0.00     0.014 A 
ATOM     11  C   UNL A   1      39.556  28.995  27.144  1.00  0.00     0.010 A 
ATOM     12  C   UNL A   1      38.796  28.272  29.332  1.00  0.00     0.010 A 
ATOM     13  C   UNL A   1      39.752  28.248  28.311  1.00  0.00    -0.014 A 
BRANCH  13  14
ATOM     14  C   UNL A   1      41.092  27.648  28.498  1.00  0.00     0.031 A 
ATOM     15  C   UNL A   1      41.102  26.158  28.132  1.00  0.00     0.074 A 
ATOM     16  C   UNL A   1      42.068  28.433  29.037  1.00  0.00     0.049 A 
ATOM     17  N   UNL A   1      41.824  25.189  28.605  1.00  0.00    -0.248 NA
ATOM     18  C   UNL A   1      40.098  25.656  27.153  1.00  0.00     0.031 C 
ATOM     19  C   UNL A   1      41.906  29.870  29.324  1.00  0.00     0.029 A 
ATOM     20  N   UNL A   1      43.365  28.207  29.462  1.00  0.00    -0.354 N 
ATOM     21  C   UNL A   1      41.514  24.033  27.858  1.00  0.00     0.074 A 
ATOM     22  C   UNL A   1      40.360  24.351  27.073  1.00  0.00     0.031 C 
ATOM     23  C   UNL A   1      43.004  30.362  29.929  1.00  0.00     0.029 A 
ATOM     24  C   UNL A   1      43.996  29.315  30.090  1.00  0.00     0.049 A 
ATOM     25  H   UNL A   1      43.817  27.342  29.340  1.00  0.00     0.167 HD
ATOM     26  C   UNL A   1      42.307  22.924  27.821  1.00  0.00     0.037 A 
ATOM     27  C   UNL A   1      45.208  29.382  30.728  1.00  0.00     0.037 A 
ATOM     28  C   UNL A   1      43.430  23.085  28.679  1.00  0.00     0.049 A 
ATOM     29  C   UNL A   1      45.847  28.074  30.520  1.00  0.00     0.074 A 
ATOM     30  C   UNL A   1      43.587  23.043  30.038  1.00  0.00     0.029 A 
ATOM     31  N   UNL A   1      44.565  23.610  28.114  1.00  0.00    -0.354 N 
ATOM     32  N   UNL A   1      46.376  27.677  29.401  1.00  0.00    -0.248 NA
ATOM     33  C   UNL A   1      45.861  27.105  31.625  1.00  0.00     0.031 C 
ATOM     34  C   UNL A   1      44.670  23.913  30.289  1.00  0.00     0.029 A 
ATOM     35  C   UNL A   1      45.191  24.367  29.072  1.00  0.00     0.049 A 
ATOM     36  H   UNL A   1      44.873  23.471  27.189  1.00  0.00     0.167 HD
ATOM     37  C   UNL A   1      46.470  26.318  29.585  1.00  0.00     0.074 A 
ATOM     38  C   UNL A   1      46.465  26.092  31.011  1.00  0.00     0.031 C 
ATOM     39  C   UNL A   1      45.995  25.484  28.626  1.00  0.00     0.037 A 
BRANCH  26  40
ATOM     40  C   UNL A   1      42.328  21.745  26.890  1.00  0.00     0.057 A 
ATOM     41  C   UNL A   1      41.659  20.563  27.285  1.00  0.00     0.134 A 
ATOM     42  C   UNL A   1      43.237  21.604  25.835  1.00  0.00     0.134 A 
ATOM     43  F   UNL A   1      40.735  20.586  28.261  1.00  0.00    -0.206 F 
ATOM     44  C   UNL A   1      41.966  19.309  26.754  1.00  0.00     0.040 A 
ATOM     45  C   UNL A   1      43.517  20.357  25.261  1.00  0.00     0.040 A 
ATOM     46  F   UNL A   1      43.952  22.645  25.386  1.00  0.00    -0.206 F 
ATOM     47  C   UNL A   1      42.914  19.200  25.749  1.00  0.00     0.006 A 
ENDBRANCH  26  40
BRANCH  27  48
ATOM     48  C   UNL A   1      45.980  30.369  31.584  1.00  0.00     0.057 A 
ATOM     49  C   UNL A   1      45.571  30.902  32.810  1.00  0.00     0.134 A 
ATOM     50  C   UNL A   1      47.279  30.805  31.188  1.00  0.00     0.134 A 
ATOM     51  F   UNL A   1      44.338  30.712  33.283  1.00  0.00    -0.206 F 
ATOM     52  C   UNL A   1      46.413  31.696  33.617  1.00  0.00     0.040 A 
ATOM     53  C   UNL A   1      48.137  31.564  31.992  1.00  0.00     0.040 A 
ATOM     54  F   UNL A   1      47.793  30.516  29.985  1.00  0.00    -0.206 F 
ATOM     55  C   UNL A   1      47.712  32.000  33.228  1.00  0.00     0.006 A 
ENDBRANCH  27  48
BRANCH  39  56
ATOM     56  C   UNL A   1      45.980  26.102  27.241  1.00  0.00     0.057 A 
ATOM     57  C   UNL A   1      47.179  26.341  26.560  1.00  0.00     0.134 A 
ATOM     58  C   UNL A   1      44.824  26.601  26.623  1.00  0.00     0.134 A 
ATOM     59  F   UNL A   1      48.341  25.901  27.068  1.00  0.00    -0.206 F 
ATOM     60  C   UNL A   1      47.223  27.048  25.350  1.00  0.00     0.040 A 
ATOM     61  C   UNL A   1      44.845  27.299  25.410  1.00  0.00     0.040 A 
ATOM     62  F   UNL A   1      43.630  26.440  27.187  1.00  0.00    -0.206 F 
ATOM     63  C   UNL A   1      46.053  27.534  24.772  1.00  0.00     0.006 A 
ENDBRANCH  39  56
ENDBRANCH  13  14
ENDBRANCH   6   8
ENDBRANCH   3   4
ENDBRANCH   2   3
ENDBRANCH   1   2
BRANCH   1  64
ATOM     64  C   UNL A   1      32.444  26.280  26.321  1.00  0.00     0.116 C 
BRANCH  64  65
ATOM     65  N   UNL A   1      31.362  25.466  26.846  1.00  0.00    -0.351 N 
ATOM     66  C   UNL A   1      31.143  24.112  26.736  1.00  0.00     0.267 C 
ATOM     67  H   UNL A   1      30.683  25.958  27.359  1.00  0.00     0.163 HD
ATOM     68  O   UNL A   1      30.090  23.669  27.162  1.00  0.00    -0.268 OA
BRANCH  66  69
ATOM     69  C   UNL A   1      32.143  23.298  26.072  1.00  0.00     0.107 A 
ATOM     70  C   UNL A   1      33.162  22.544  26.636  1.00  0.00     0.033 A 
ATOM     71  N   UNL A   1      32.221  23.104  24.699  1.00  0.00    -0.334 N 
ATOM     72  C   UNL A   1      33.868  21.902  25.595  1.00  0.00     0.020 A 
ATOM     73  C   UNL A   1      33.259  22.253  24.411  1.00  0.00     0.087 A 
BRANCH  71  74
ATOM     74  C   UNL A   1      31.308  23.665  23.710  1.00  0.00     0.222 C 
BRANCH  74  75
ATOM     75  C   UNL A   1      31.790  24.836  22.862  1.00  0.00     0.242 C 
ATOM     76  O   UNL A   1      32.560  24.593  21.923  1.00  0.00    -0.273 OA
BRANCH  75  77
ATOM     77  N   UNL A   1      31.240  26.109  23.013  1.00  0.00    -0.336 N 
ATOM     78  C   UNL A   1      31.841  27.328  22.479  1.00  0.00     0.124 C 
ATOM     79  C   UNL A   1      29.909  26.191  23.628  1.00  0.00     0.155 C 
ATOM     80  C   UNL A   1      31.309  28.636  23.050  1.00  0.00     0.057 C 
ATOM     81  C   UNL A   1      29.141  27.466  23.374  1.00  0.00    -0.025 A 
ATOM     82  C   UNL A   1      29.815  28.657  23.076  1.00  0.00    -0.041 A 
ATOM     83  C   UNL A   1      27.749  27.494  23.522  1.00  0.00     0.006 A 
ATOM     84  C   UNL A   1      29.105  29.849  22.892  1.00  0.00     0.004 A 
ATOM     85  C   UNL A   1      27.041  28.683  23.339  1.00  0.00     0.000 A 
ATOM     86  C   UNL A   1      27.718  29.858  23.014  1.00  0.00     0.000 A 
ENDBRANCH  75  77
ENDBRANCH  74  75
ENDBRANCH  71  74
ENDBRANCH  66  69
ENDBRANCH  64  65
ENDBRANCH   1  64
TORSDOF 14
ENDMDL
MODEL 3
REMARK VINA RESULT:     -11.9      1.540      2.116
REMARK SMILES O=C(NCCCCNC(=O)c1cccn1CC(=O)N1CCc2ccccc2C1)c1ccc(-c2c3nc(c(-c4c(F)cccc4F)c4ccc([nH]4)c(-c4c(F)cccc4F)c4nc(c(-c5c(F)cccc5F)c5ccc2[nH]5)C=C4)C=C3)cc1
REMARK SMILES IDX 6 1 5 2 4 3 3 4 1 5 2 6 29 8 30 9 82 10 31 11 81 12 32 13
REMARK SMILES IDX 33 14 34 15 75 16 35 17 80 18 74 19 76 20 36 21 79 22 73 23
REMARK SMILES IDX 72 24 37 26 63 27 46 28 62 29 47 30 50 31 61 32 77 33 48 34
REMARK SMILES IDX 49 35 60 37 78 38 51 39 38 40 39 41 44 42 40 43 41 44 43 45
REMARK SMILES IDX 45 46 42 47 64 48 65 49 70 50 66 51 67 52 69 53 71 54 68 55
REMARK SMILES IDX 52 56 53 57 58 58 54 59 55 60 57 61 59 62 56 63 7 64 8 65
REMARK SMILES IDX 9 66 10 68 11 69 12 70 15 71 13 72 14 73 16 74 17 75 18 76
REMARK SMILES IDX 19 77 20 78 28 79 21 80 27 81 22 82 26 83 23 84 25 85 24 86
REMARK H PARENT 3 7 76 25 50 36 8 67
REMARK Flexibility Score: inf
ROOT
ATOM      1  C   UNL A   1      32.175  28.707  26.821  1.00  0.00     0.023 C 
ENDROOT
BRANCH   1   2
ATOM      2  C   UNL A   1      33.518  29.177  26.272  1.00  0.00     0.023 C 
BRANCH   2   3
ATOM      3  C   UNL A   1      34.710  28.950  27.198  1.00  0.00     0.116 C 
BRANCH   3   4
ATOM      4  N   UNL A   1      34.987  30.023  28.134  1.00  0.00    -0.352 N 
ATOM      5  O   UNL A   1      36.068  31.449  29.471  1.00  0.00    -0.269 OA
ATOM      6  C   UNL A   1      36.125  30.428  28.785  1.00  0.00     0.251 C 
ATOM      7  H   UNL A   1      34.197  30.572  28.346  1.00  0.00     0.163 HD
BRANCH   6   8
ATOM      8  C   UNL A   1      37.392  29.661  28.751  1.00  0.00     0.039 A 
ATOM      9  C   UNL A   1      38.326  29.765  27.719  1.00  0.00     0.014 A 
ATOM     10  C   UNL A   1      37.667  28.821  29.846  1.00  0.00     0.014 A 
ATOM     11  C   UNL A   1      39.471  28.979  27.728  1.00  0.00     0.010 A 
ATOM     12  C   UNL A   1      38.838  28.063  29.884  1.00  0.00     0.010 A 
ATOM     13  C   UNL A   1      39.741  28.146  28.819  1.00  0.00    -0.014 A 
BRANCH  13  14
ATOM     14  C   UNL A   1      41.102  27.567  28.891  1.00  0.00     0.031 A 
ATOM     15  C   UNL A   1      41.117  26.096  28.454  1.00  0.00     0.074 A 
ATOM     16  C   UNL A   1      42.096  28.348  29.403  1.00  0.00     0.049 A 
ATOM     17  N   UNL A   1      41.886  25.122  28.833  1.00  0.00    -0.248 NA
ATOM     18  C   UNL A   1      40.061  25.618  27.518  1.00  0.00     0.031 C 
ATOM     19  C   UNL A   1      41.925  29.765  29.768  1.00  0.00     0.029 A 
ATOM     20  N   UNL A   1      43.422  28.130  29.733  1.00  0.00    -0.354 N 
ATOM     21  C   UNL A   1      41.550  23.995  28.053  1.00  0.00     0.074 A 
ATOM     22  C   UNL A   1      40.342  24.325  27.359  1.00  0.00     0.031 C 
ATOM     23  C   UNL A   1      43.051  30.253  30.325  1.00  0.00     0.029 A 
ATOM     24  C   UNL A   1      44.071  29.221  30.372  1.00  0.00     0.049 A 
ATOM     25  H   UNL A   1      43.882  27.282  29.541  1.00  0.00     0.167 HD
ATOM     26  C   UNL A   1      42.359  22.908  27.912  1.00  0.00     0.037 A 
ATOM     27  C   UNL A   1      45.320  29.285  30.933  1.00  0.00     0.037 A 
ATOM     28  C   UNL A   1      43.533  23.053  28.703  1.00  0.00     0.049 A 
ATOM     29  C   UNL A   1      45.969  28.002  30.623  1.00  0.00     0.074 A 
ATOM     30  C   UNL A   1      43.778  22.951  30.046  1.00  0.00     0.029 A 
ATOM     31  N   UNL A   1      44.618  23.629  28.092  1.00  0.00    -0.354 N 
ATOM     32  N   UNL A   1      46.432  27.670  29.455  1.00  0.00    -0.248 NA
ATOM     33  C   UNL A   1      46.073  26.984  31.676  1.00  0.00     0.031 C 
ATOM     34  C   UNL A   1      44.858  23.832  30.268  1.00  0.00     0.029 A 
ATOM     35  C   UNL A   1      45.291  24.354  29.043  1.00  0.00     0.049 A 
ATOM     36  H   UNL A   1      44.868  23.539  27.144  1.00  0.00     0.167 HD
ATOM     37  C   UNL A   1      46.564  26.306  29.567  1.00  0.00     0.074 A 
ATOM     38  C   UNL A   1      46.655  26.014  30.977  1.00  0.00     0.031 C 
ATOM     39  C   UNL A   1      46.043  25.508  28.601  1.00  0.00     0.037 A 
BRANCH  26  40
ATOM     40  C   UNL A   1      42.342  21.774  26.926  1.00  0.00     0.057 A 
ATOM     41  C   UNL A   1      41.685  20.575  27.290  1.00  0.00     0.134 A 
ATOM     42  C   UNL A   1      43.209  21.683  25.832  1.00  0.00     0.134 A 
ATOM     43  F   UNL A   1      40.800  20.552  28.301  1.00  0.00    -0.206 F 
ATOM     44  C   UNL A   1      41.969  19.347  26.690  1.00  0.00     0.040 A 
ATOM     45  C   UNL A   1      43.464  20.463  25.190  1.00  0.00     0.040 A 
ATOM     46  F   UNL A   1      43.909  22.742  25.406  1.00  0.00    -0.206 F 
ATOM     47  C   UNL A   1      42.879  19.285  25.645  1.00  0.00     0.006 A 
ENDBRANCH  26  40
BRANCH  27  48
ATOM     48  C   UNL A   1      46.128  30.248  31.784  1.00  0.00     0.057 A 
ATOM     49  C   UNL A   1      47.346  30.841  31.437  1.00  0.00     0.134 A 
ATOM     50  C   UNL A   1      45.638  30.676  33.053  1.00  0.00     0.134 A 
ATOM     51  F   UNL A   1      48.023  30.472  30.348  1.00  0.00    -0.206 F 
ATOM     52  C   UNL A   1      47.958  31.844  32.219  1.00  0.00     0.040 A 
ATOM     53  C   UNL A   1      46.215  31.692  33.823  1.00  0.00     0.040 A 
ATOM     54  F   UNL A   1      44.559  30.123  33.623  1.00  0.00    -0.206 F 
ATOM     55  C   UNL A   1      47.377  32.298  33.396  1.00  0.00     0.006 A 
ENDBRANCH  27  48
BRANCH  39  56
ATOM     56  C   UNL A   1      45.927  26.189  27.251  1.00  0.00     0.057 A 
ATOM     57  C   UNL A   1      47.074  26.475  26.503  1.00  0.00     0.134 A 
ATOM     58  C   UNL A   1      44.725  26.699  26.738  1.00  0.00     0.134 A 
ATOM     59  F   UNL A   1      48.272  26.029  26.909  1.00  0.00    -0.206 F 
ATOM     60  C   UNL A   1      47.026  27.239  25.327  1.00  0.00     0.040 A 
ATOM     61  C   UNL A   1      44.656  27.453  25.560  1.00  0.00     0.040 A 
ATOM     62  F   UNL A   1      43.575  26.496  27.373  1.00  0.00    -0.206 F 
ATOM     63  C   UNL A   1      45.815  27.735  24.854  1.00  0.00     0.006 A 
ENDBRANCH  39  56
ENDBRANCH  13  14
ENDBRANCH   6   8
ENDBRANCH   3   4
ENDBRANCH   2   3
ENDBRANCH   1   2
BRANCH   1  64
ATOM     64  C   UNL A   1      31.309  27.894  25.863  1.00  0.00     0.116 C 
BRANCH  64  65
ATOM     65  N   UNL A   1      30.711  26.739  26.508  1.00  0.00    -0.351 N 
ATOM     66  C   UNL A   1      30.564  25.450  26.051  1.00  0.00     0.267 C 
ATOM     67  H   UNL A   1      30.359  26.903  27.412  1.00  0.00     0.163 HD
ATOM     68  O   UNL A   1      29.913  24.675  26.731  1.00  0.00    -0.268 OA
BRANCH  66  69
ATOM     69  C   UNL A   1      31.136  25.099  24.766  1.00  0.00     0.107 A 
ATOM     70  C   UNL A   1      30.571  25.211  23.504  1.00  0.00     0.033 A 
ATOM     71  N   UNL A   1      32.421  24.604  24.581  1.00  0.00    -0.334 N 
ATOM     72  C   UNL A   1      31.516  24.767  22.553  1.00  0.00     0.020 A 
ATOM     73  C   UNL A   1      32.653  24.412  23.242  1.00  0.00     0.087 A 
BRANCH  71  74
ATOM     74  C   UNL A   1      33.403  24.378  25.636  1.00  0.00     0.222 C 
BRANCH  74  75
ATOM     75  C   UNL A   1      33.401  23.031  26.349  1.00  0.00     0.242 C 
ATOM     76  O   UNL A   1      32.768  22.938  27.410  1.00  0.00    -0.273 OA
BRANCH  75  77
ATOM     77  N   UNL A   1      33.929  21.893  25.740  1.00  0.00    -0.336 N 
ATOM     78  C   UNL A   1      35.262  21.365  26.011  1.00  0.00     0.124 C 
ATOM     79  C   UNL A   1      33.025  21.115  24.883  1.00  0.00     0.155 C 
ATOM     80  C   UNL A   1      35.796  20.357  25.001  1.00  0.00     0.057 C 
ATOM     81  C   UNL A   1      33.435  19.689  24.612  1.00  0.00    -0.025 A 
ATOM     82  C   UNL A   1      34.781  19.307  24.684  1.00  0.00    -0.041 A 
ATOM     83  C   UNL A   1      32.486  18.746  24.198  1.00  0.00     0.006 A 
ATOM     84  C   UNL A   1      35.166  17.997  24.382  1.00  0.00     0.004 A 
ATOM     85  C   UNL A   1      32.871  17.438  23.896  1.00  0.00     0.000 A 
ATOM     86  C   UNL A   1      34.209  17.061  23.998  1.00  0.00     0.000 A 
ENDBRANCH  75  77
ENDBRANCH  74  75
ENDBRANCH  71  74
ENDBRANCH  66  69
ENDBRANCH  64  65
ENDBRANCH   1  64
TORSDOF 14
ENDMDL
