MODEL 1
REMARK VINA RESULT:     -12.4      0.000      0.000
REMARK SMILES O=C(NCCCCNC(=O)c1cc(-c2ccccn2)nc2ccc(F)cc12)c1ccc(-c2c3nc(c(-c4c(F)cccc4F)c4ccc([nH]4)c(-c4c(F)cccc4F)c4nc(c(-c5c(F)cccc5F)c5ccc2[nH]5)C=C4)C=C3)cc1
REMARK SMILES IDX 5 1 4 2 3 3 1 4 2 5 28 7 29 8 81 9 30 10 80 11 31 12 32 13
REMARK SMILES IDX 33 14 74 15 34 16 79 17 73 18 75 19 35 20 78 21 72 22 71 23
REMARK SMILES IDX 36 25 62 26 45 27 61 28 46 29 49 30 60 31 76 32 47 33 48 34
REMARK SMILES IDX 59 36 77 37 50 38 37 39 38 40 43 41 39 42 40 43 42 44 44 45
REMARK SMILES IDX 41 46 63 47 64 48 69 49 65 50 66 51 68 52 70 53 67 54 51 55
REMARK SMILES IDX 52 56 57 57 53 58 54 59 56 60 58 61 55 62 6 63 7 64 8 65
REMARK SMILES IDX 9 66 10 68 11 69 12 70 27 71 13 72 21 73 26 74 20 75 22 76
REMARK SMILES IDX 24 77 23 78 25 79 14 80 15 81 19 82 16 83 18 84 17 85
REMARK H PARENT 3 6 75 24 49 35 8 67
REMARK Flexibility Score: inf
ROOT
ATOM      1  C   UNL A   1      39.117  21.040  25.474  1.00  0.00     0.023 C 
ENDROOT
BRANCH   1   2
ATOM      2  C   UNL A   1      39.509  19.854  26.351  1.00  0.00     0.116 C 
BRANCH   2   3
ATOM      3  N   UNL A   1      40.720  19.195  25.892  1.00  0.00    -0.352 N 
ATOM      4  O   UNL A   1      42.856  18.997  25.226  1.00  0.00    -0.269 OA
ATOM      5  C   UNL A   1      42.001  19.674  25.792  1.00  0.00     0.251 C 
ATOM      6  H   UNL A   1      40.602  18.260  25.608  1.00  0.00     0.163 HD
BRANCH   5   7
ATOM      7  C   UNL A   1      42.370  20.993  26.352  1.00  0.00     0.039 A 
ATOM      8  C   UNL A   1      42.262  21.186  27.734  1.00  0.00     0.014 A 
ATOM      9  C   UNL A   1      42.735  22.060  25.527  1.00  0.00     0.014 A 
ATOM     10  C   UNL A   1      42.531  22.440  28.291  1.00  0.00     0.010 A 
ATOM     11  C   UNL A   1      43.064  23.293  26.089  1.00  0.00     0.010 A 
ATOM     12  C   UNL A   1      42.934  23.503  27.471  1.00  0.00    -0.014 A 
BRANCH  12  13
ATOM     13  C   UNL A   1      43.109  24.875  28.012  1.00  0.00     0.031 A 
ATOM     14  C   UNL A   1      44.473  25.306  28.484  1.00  0.00     0.074 A 
ATOM     15  C   UNL A   1      42.060  25.711  28.128  1.00  0.00     0.049 A 
ATOM     16  N   UNL A   1      44.828  26.393  29.118  1.00  0.00    -0.248 NA
ATOM     17  C   UNL A   1      45.582  24.370  28.229  1.00  0.00     0.031 C 
ATOM     18  C   UNL A   1      40.688  25.418  27.709  1.00  0.00     0.029 A 
ATOM     19  N   UNL A   1      41.985  26.976  28.655  1.00  0.00    -0.354 N 
ATOM     20  C   UNL A   1      46.189  26.257  29.367  1.00  0.00     0.074 A 
ATOM     21  C   UNL A   1      46.590  24.969  28.845  1.00  0.00     0.031 C 
ATOM     22  C   UNL A   1      39.909  26.476  27.995  1.00  0.00     0.029 A 
ATOM     23  C   UNL A   1      40.716  27.501  28.652  1.00  0.00     0.049 A 
ATOM     24  H   UNL A   1      42.768  27.463  29.002  1.00  0.00     0.167 HD
ATOM     25  C   UNL A   1      47.032  27.131  29.964  1.00  0.00     0.037 A 
ATOM     26  C   UNL A   1      40.254  28.666  29.146  1.00  0.00     0.037 A 
ATOM     27  C   UNL A   1      46.646  28.434  30.434  1.00  0.00     0.049 A 
ATOM     28  C   UNL A   1      41.210  29.611  29.826  1.00  0.00     0.074 A 
ATOM     29  C   UNL A   1      47.441  29.423  30.985  1.00  0.00     0.029 A 
ATOM     30  N   UNL A   1      45.352  28.929  30.403  1.00  0.00    -0.354 N 
ATOM     31  N   UNL A   1      42.503  29.490  30.013  1.00  0.00    -0.248 NA
ATOM     32  C   UNL A   1      40.641  30.852  30.371  1.00  0.00     0.031 C 
ATOM     33  C   UNL A   1      46.623  30.503  31.324  1.00  0.00     0.029 A 
ATOM     34  C   UNL A   1      45.323  30.202  30.948  1.00  0.00     0.049 A 
ATOM     35  H   UNL A   1      44.570  28.449  30.046  1.00  0.00     0.167 HD
ATOM     36  C   UNL A   1      42.903  30.650  30.664  1.00  0.00     0.074 A 
ATOM     37  C   UNL A   1      41.721  31.467  30.833  1.00  0.00     0.031 C 
ATOM     38  C   UNL A   1      44.139  31.008  31.086  1.00  0.00     0.037 A 
BRANCH  25  39
ATOM     39  C   UNL A   1      48.458  26.707  30.147  1.00  0.00     0.057 A 
ATOM     40  C   UNL A   1      49.423  27.029  29.184  1.00  0.00     0.134 A 
ATOM     41  C   UNL A   1      48.871  25.948  31.248  1.00  0.00     0.134 A 
ATOM     42  F   UNL A   1      49.093  27.751  28.103  1.00  0.00    -0.206 F 
ATOM     43  C   UNL A   1      50.749  26.607  29.310  1.00  0.00     0.040 A 
ATOM     44  C   UNL A   1      50.198  25.541  31.398  1.00  0.00     0.040 A 
ATOM     45  F   UNL A   1      47.997  25.619  32.212  1.00  0.00    -0.206 F 
ATOM     46  C   UNL A   1      51.139  25.865  30.422  1.00  0.00     0.006 A 
ENDBRANCH  25  39
BRANCH  26  47
ATOM     47  C   UNL A   1      38.815  29.015  29.040  1.00  0.00     0.057 A 
ATOM     48  C   UNL A   1      37.953  28.909  30.138  1.00  0.00     0.134 A 
ATOM     49  C   UNL A   1      38.282  29.521  27.849  1.00  0.00     0.134 A 
ATOM     50  F   UNL A   1      38.402  28.432  31.308  1.00  0.00    -0.206 F 
ATOM     51  C   UNL A   1      36.615  29.297  30.057  1.00  0.00     0.040 A 
ATOM     52  C   UNL A   1      36.952  29.937  27.760  1.00  0.00     0.040 A 
ATOM     53  F   UNL A   1      39.064  29.671  26.769  1.00  0.00    -0.206 F 
ATOM     54  C   UNL A   1      36.114  29.824  28.868  1.00  0.00     0.006 A 
ENDBRANCH  26  47
BRANCH  38  55
ATOM     55  C   UNL A   1      44.285  32.356  31.726  1.00  0.00     0.057 A 
ATOM     56  C   UNL A   1      44.567  33.486  30.947  1.00  0.00     0.134 A 
ATOM     57  C   UNL A   1      44.197  32.529  33.112  1.00  0.00     0.134 A 
ATOM     58  F   UNL A   1      44.674  33.384  29.614  1.00  0.00    -0.206 F 
ATOM     59  C   UNL A   1      44.763  34.740  31.526  1.00  0.00     0.040 A 
ATOM     60  C   UNL A   1      44.368  33.783  33.701  1.00  0.00     0.040 A 
ATOM     61  F   UNL A   1      43.915  31.489  33.910  1.00  0.00    -0.206 F 
ATOM     62  C   UNL A   1      44.659  34.892  32.907  1.00  0.00     0.006 A 
ENDBRANCH  38  55
ENDBRANCH  12  13
ENDBRANCH   5   7
ENDBRANCH   2   3
ENDBRANCH   1   2
BRANCH   1  63
ATOM     63  C   UNL A   1      39.022  22.388  26.187  1.00  0.00     0.023 C 
BRANCH  63  64
ATOM     64  C   UNL A   1      37.722  23.154  25.972  1.00  0.00     0.116 C 
BRANCH  64  65
ATOM     65  N   UNL A   1      37.398  23.333  24.562  1.00  0.00    -0.352 N 
ATOM     66  C   UNL A   1      36.271  22.959  23.873  1.00  0.00     0.252 C 
ATOM     67  H   UNL A   1      38.087  23.787  24.027  1.00  0.00     0.163 HD
ATOM     68  O   UNL A   1      36.196  23.146  22.660  1.00  0.00    -0.269 OA
BRANCH  66  69
ATOM     69  C   UNL A   1      35.140  22.353  24.600  1.00  0.00     0.051 A 
ATOM     70  C   UNL A   1      35.068  20.962  24.615  1.00  0.00     0.045 A 
ATOM     71  C   UNL A   1      34.156  23.138  25.236  1.00  0.00     0.016 A 
ATOM     72  C   UNL A   1      33.948  20.367  25.162  1.00  0.00     0.090 A 
ATOM     73  C   UNL A   1      33.075  22.433  25.805  1.00  0.00     0.072 A 
ATOM     74  C   UNL A   1      34.184  24.552  25.323  1.00  0.00     0.050 A 
ATOM     75  N   UNL A   1      32.968  21.094  25.755  1.00  0.00    -0.246 NA
ATOM     76  C   UNL A   1      32.066  23.155  26.434  1.00  0.00     0.032 A 
ATOM     77  C   UNL A   1      33.164  25.235  25.969  1.00  0.00     0.123 A 
ATOM     78  C   UNL A   1      32.100  24.547  26.525  1.00  0.00     0.041 A 
ATOM     79  F   UNL A   1      33.209  26.570  26.055  1.00  0.00    -0.207 F 
BRANCH  72  80
ATOM     80  C   UNL A   1      33.753  18.914  25.037  1.00  0.00     0.089 A 
ATOM     81  C   UNL A   1      34.618  18.122  24.279  1.00  0.00     0.030 A 
ATOM     82  N   UNL A   1      32.610  18.414  25.578  1.00  0.00    -0.255 NA
ATOM     83  C   UNL A   1      34.302  16.783  24.069  1.00  0.00     0.004 A 
ATOM     84  C   UNL A   1      32.338  17.108  25.370  1.00  0.00     0.112 A 
ATOM     85  C   UNL A   1      33.140  16.263  24.622  1.00  0.00     0.020 A 
ENDBRANCH  72  80
ENDBRANCH  66  69
ENDBRANCH  64  65
ENDBRANCH  63  64
ENDBRANCH   1  63
TORSDOF 12
ENDMDL
MODEL 2
REMARK VINA RESULT:     -12.4      4.515      9.259
REMARK SMILES O=C(NCCCCNC(=O)c1cc(-c2ccccn2)nc2ccc(F)cc12)c1ccc(-c2c3nc(c(-c4c(F)cccc4F)c4ccc([nH]4)c(-c4c(F)cccc4F)c4nc(c(-c5c(F)cccc5F)c5ccc2[nH]5)C=C4)C=C3)cc1
REMARK SMILES IDX 5 1 4 2 3 3 1 4 2 5 28 7 29 8 81 9 30 10 80 11 31 12 32 13
REMARK SMILES IDX 33 14 74 15 34 16 79 17 73 18 75 19 35 20 78 21 72 22 71 23
REMARK SMILES IDX 36 25 62 26 45 27 61 28 46 29 49 30 60 31 76 32 47 33 48 34
REMARK SMILES IDX 59 36 77 37 50 38 37 39 38 40 43 41 39 42 40 43 42 44 44 45
REMARK SMILES IDX 41 46 63 47 64 48 69 49 65 50 66 51 68 52 70 53 67 54 51 55
REMARK SMILES IDX 52 56 57 57 53 58 54 59 56 60 58 61 55 62 6 63 7 64 8 65
REMARK SMILES IDX 9 66 10 68 11 69 12 70 27 71 13 72 21 73 26 74 20 75 22 76
REMARK SMILES IDX 24 77 23 78 25 79 14 80 15 81 19 82 16 83 18 84 17 85
REMARK H PARENT 3 6 75 24 49 35 8 67
REMARK Flexibility Score: inf
ROOT
ATOM      1  C   UNL A   1      33.346  30.454  26.288  1.00  0.00     0.023 C 
ENDROOT
BRANCH   1   2
ATOM      2  C   UNL A   1      32.189  30.912  27.172  1.00  0.00     0.116 C 
BRANCH   2   3
ATOM      3  N   UNL A   1      31.989  32.350  27.129  1.00  0.00    -0.352 N 
ATOM      4  O   UNL A   1      32.289  34.510  27.672  1.00  0.00    -0.269 OA
ATOM      5  C   UNL A   1      32.722  33.360  27.698  1.00  0.00     0.251 C 
ATOM      6  H   UNL A   1      31.204  32.645  26.613  1.00  0.00     0.163 HD
BRANCH   5   7
ATOM      7  C   UNL A   1      34.026  33.089  28.342  1.00  0.00     0.039 A 
ATOM      8  C   UNL A   1      35.195  33.478  27.677  1.00  0.00     0.014 A 
ATOM      9  C   UNL A   1      34.113  32.381  29.545  1.00  0.00     0.014 A 
ATOM     10  C   UNL A   1      36.446  33.172  28.220  1.00  0.00     0.010 A 
ATOM     11  C   UNL A   1      35.359  32.132  30.117  1.00  0.00     0.010 A 
ATOM     12  C   UNL A   1      36.537  32.495  29.444  1.00  0.00    -0.014 A 
BRANCH  12  13
ATOM     13  C   UNL A   1      37.846  32.049  29.987  1.00  0.00     0.031 A 
ATOM     14  C   UNL A   1      38.468  30.787  29.451  1.00  0.00     0.074 A 
ATOM     15  C   UNL A   1      38.449  32.730  30.980  1.00  0.00     0.049 A 
ATOM     16  N   UNL A   1      39.522  30.136  29.870  1.00  0.00    -0.248 NA
ATOM     17  C   UNL A   1      37.795  30.161  28.299  1.00  0.00     0.031 C 
ATOM     18  C   UNL A   1      37.953  33.965  31.589  1.00  0.00     0.029 A 
ATOM     19  N   UNL A   1      39.608  32.462  31.666  1.00  0.00    -0.354 N 
ATOM     20  C   UNL A   1      39.617  29.010  29.061  1.00  0.00     0.074 A 
ATOM     21  C   UNL A   1      38.498  29.049  28.145  1.00  0.00     0.031 C 
ATOM     22  C   UNL A   1      38.805  34.347  32.557  1.00  0.00     0.029 A 
ATOM     23  C   UNL A   1      39.880  33.365  32.664  1.00  0.00     0.049 A 
ATOM     24  H   UNL A   1      40.190  31.694  31.461  1.00  0.00     0.167 HD
ATOM     25  C   UNL A   1      40.559  28.040  29.068  1.00  0.00     0.037 A 
ATOM     26  C   UNL A   1      40.871  33.382  33.576  1.00  0.00     0.037 A 
ATOM     27  C   UNL A   1      41.702  28.029  29.941  1.00  0.00     0.049 A 
ATOM     28  C   UNL A   1      41.894  32.276  33.576  1.00  0.00     0.074 A 
ATOM     29  C   UNL A   1      42.752  27.129  29.975  1.00  0.00     0.029 A 
ATOM     30  N   UNL A   1      41.944  28.968  30.930  1.00  0.00    -0.354 N 
ATOM     31  N   UNL A   1      41.998  31.244  32.775  1.00  0.00    -0.248 NA
ATOM     32  C   UNL A   1      42.934  32.336  34.615  1.00  0.00     0.031 C 
ATOM     33  C   UNL A   1      43.612  27.501  31.012  1.00  0.00     0.029 A 
ATOM     34  C   UNL A   1      43.116  28.656  31.598  1.00  0.00     0.049 A 
ATOM     35  H   UNL A   1      41.370  29.743  31.129  1.00  0.00     0.167 HD
ATOM     36  C   UNL A   1      43.130  30.553  33.192  1.00  0.00     0.074 A 
ATOM     37  C   UNL A   1      43.684  31.286  34.309  1.00  0.00     0.031 C 
ATOM     38  C   UNL A   1      43.663  29.412  32.693  1.00  0.00     0.037 A 
BRANCH  25  39
ATOM     39  C   UNL A   1      40.394  26.902  28.105  1.00  0.00     0.057 A 
ATOM     40  C   UNL A   1      39.596  25.800  28.440  1.00  0.00     0.134 A 
ATOM     41  C   UNL A   1      41.052  26.874  26.870  1.00  0.00     0.134 A 
ATOM     42  F   UNL A   1      38.941  25.763  29.609  1.00  0.00    -0.206 F 
ATOM     43  C   UNL A   1      39.462  24.709  27.579  1.00  0.00     0.040 A 
ATOM     44  C   UNL A   1      40.907  25.800  25.991  1.00  0.00     0.040 A 
ATOM     45  F   UNL A   1      41.821  27.905  26.486  1.00  0.00    -0.206 F 
ATOM     46  C   UNL A   1      40.115  24.709  26.349  1.00  0.00     0.006 A 
ENDBRANCH  25  39
BRANCH  26  47
ATOM     47  C   UNL A   1      40.952  34.470  34.583  1.00  0.00     0.057 A 
ATOM     48  C   UNL A   1      40.312  34.366  35.824  1.00  0.00     0.134 A 
ATOM     49  C   UNL A   1      41.724  35.614  34.350  1.00  0.00     0.134 A 
ATOM     50  F   UNL A   1      39.557  33.295  36.110  1.00  0.00    -0.206 F 
ATOM     51  C   UNL A   1      40.439  35.359  36.797  1.00  0.00     0.040 A 
ATOM     52  C   UNL A   1      41.881  36.602  35.323  1.00  0.00     0.040 A 
ATOM     53  F   UNL A   1      42.383  35.759  33.191  1.00  0.00    -0.206 F 
ATOM     54  C   UNL A   1      41.236  36.476  36.552  1.00  0.00     0.006 A 
ENDBRANCH  26  47
BRANCH  38  55
ATOM     55  C   UNL A   1      44.931  28.913  33.320  1.00  0.00     0.057 A 
ATOM     56  C   UNL A   1      46.176  29.333  32.835  1.00  0.00     0.134 A 
ATOM     57  C   UNL A   1      44.922  27.983  34.365  1.00  0.00     0.134 A 
ATOM     58  F   UNL A   1      46.252  30.217  31.828  1.00  0.00    -0.206 F 
ATOM     59  C   UNL A   1      47.369  28.840  33.365  1.00  0.00     0.040 A 
ATOM     60  C   UNL A   1      46.109  27.500  34.919  1.00  0.00     0.040 A 
ATOM     61  F   UNL A   1      43.761  27.552  34.882  1.00  0.00    -0.206 F 
ATOM     62  C   UNL A   1      47.337  27.924  34.414  1.00  0.00     0.006 A 
ENDBRANCH  38  55
ENDBRANCH  12  13
ENDBRANCH   5   7
ENDBRANCH   2   3
ENDBRANCH   1   2
BRANCH   1  63
ATOM     63  C   UNL A   1      34.218  29.339  26.865  1.00  0.00     0.023 C 
BRANCH  63  64
ATOM     64  C   UNL A   1      34.029  27.965  26.234  1.00  0.00     0.116 C 
BRANCH  64  65
ATOM     65  N   UNL A   1      32.869  27.256  26.760  1.00  0.00    -0.352 N 
ATOM     66  C   UNL A   1      31.683  26.945  26.142  1.00  0.00     0.252 C 
ATOM     67  H   UNL A   1      32.946  26.958  27.694  1.00  0.00     0.163 HD
ATOM     68  O   UNL A   1      30.786  26.384  26.767  1.00  0.00    -0.269 OA
BRANCH  66  69
ATOM     69  C   UNL A   1      31.501  27.266  24.713  1.00  0.00     0.051 A 
ATOM     70  C   UNL A   1      30.821  28.443  24.411  1.00  0.00     0.045 A 
ATOM     71  C   UNL A   1      31.969  26.414  23.692  1.00  0.00     0.016 A 
ATOM     72  C   UNL A   1      30.508  28.701  23.089  1.00  0.00     0.090 A 
ATOM     73  C   UNL A   1      31.637  26.788  22.374  1.00  0.00     0.072 A 
ATOM     74  C   UNL A   1      32.721  25.233  23.908  1.00  0.00     0.050 A 
ATOM     75  N   UNL A   1      30.917  27.887  22.085  1.00  0.00    -0.246 NA
ATOM     76  C   UNL A   1      32.059  25.979  21.324  1.00  0.00     0.032 A 
ATOM     77  C   UNL A   1      33.134  24.458  22.834  1.00  0.00     0.123 A 
ATOM     78  C   UNL A   1      32.807  24.820  21.539  1.00  0.00     0.041 A 
ATOM     79  F   UNL A   1      33.855  23.350  23.051  1.00  0.00    -0.207 F 
BRANCH  72  80
ATOM     80  C   UNL A   1      29.640  29.839  22.749  1.00  0.00     0.089 A 
ATOM     81  C   UNL A   1      29.297  30.806  23.696  1.00  0.00     0.030 A 
ATOM     82  N   UNL A   1      29.079  29.815  21.511  1.00  0.00    -0.255 NA
ATOM     83  C   UNL A   1      28.353  31.774  23.364  1.00  0.00     0.004 A 
ATOM     84  C   UNL A   1      28.179  30.775  21.213  1.00  0.00     0.112 A 
ATOM     85  C   UNL A   1      27.780  31.760  22.100  1.00  0.00     0.020 A 
ENDBRANCH  72  80
ENDBRANCH  66  69
ENDBRANCH  64  65
ENDBRANCH  63  64
ENDBRANCH   1  63
TORSDOF 12
ENDMDL
MODEL 3
REMARK VINA RESULT:     -12.3      3.863      7.929
REMARK SMILES O=C(NCCCCNC(=O)c1cc(-c2ccccn2)nc2ccc(F)cc12)c1ccc(-c2c3nc(c(-c4c(F)cccc4F)c4ccc([nH]4)c(-c4c(F)cccc4F)c4nc(c(-c5c(F)cccc5F)c5ccc2[nH]5)C=C4)C=C3)cc1
REMARK SMILES IDX 5 1 4 2 3 3 1 4 2 5 28 7 29 8 81 9 30 10 80 11 31 12 32 13
REMARK SMILES IDX 33 14 74 15 34 16 79 17 73 18 75 19 35 20 78 21 72 22 71 23
REMARK SMILES IDX 36 25 62 26 45 27 61 28 46 29 49 30 60 31 76 32 47 33 48 34
REMARK SMILES IDX 59 36 77 37 50 38 37 39 38 40 43 41 39 42 40 43 42 44 44 45
REMARK SMILES IDX 41 46 63 47 64 48 69 49 65 50 66 51 68 52 70 53 67 54 51 55
REMARK SMILES IDX 52 56 57 57 53 58 54 59 56 60 58 61 55 62 6 63 7 64 8 65
REMARK SMILES IDX 9 66 10 68 11 69 12 70 27 71 13 72 21 73 26 74 20 75 22 76
REMARK SMILES IDX 24 77 23 78 25 79 14 80 15 81 19 82 16 83 18 84 17 85
REMARK H PARENT 3 6 75 24 49 35 8 67
REMARK Flexibility Score: inf
ROOT
ATOM      1  C   UNL A   1      40.344  22.565  27.522  1.00  0.00     0.023 C 
ENDROOT
BRANCH   1   2
ATOM      2  C   UNL A   1      41.715  23.149  27.197  1.00  0.00     0.116 C 
BRANCH   2   3
ATOM      3  N   UNL A   1      41.676  24.080  26.082  1.00  0.00    -0.352 N 
ATOM      4  O   UNL A   1      41.264  25.998  24.987  1.00  0.00    -0.269 OA
ATOM      5  C   UNL A   1      41.400  25.423  26.064  1.00  0.00     0.251 C 
ATOM      6  H   UNL A   1      41.878  23.685  25.203  1.00  0.00     0.163 HD
BRANCH   5   7
ATOM      7  C   UNL A   1      41.263  26.192  27.321  1.00  0.00     0.039 A 
ATOM      8  C   UNL A   1      40.103  26.023  28.086  1.00  0.00     0.014 A 
ATOM      9  C   UNL A   1      42.218  27.138  27.706  1.00  0.00     0.014 A 
ATOM     10  C   UNL A   1      39.906  26.787  29.240  1.00  0.00     0.010 A 
ATOM     11  C   UNL A   1      42.050  27.855  28.889  1.00  0.00     0.010 A 
ATOM     12  C   UNL A   1      40.878  27.710  29.649  1.00  0.00    -0.014 A 
BRANCH  12  13
ATOM     13  C   UNL A   1      40.645  28.622  30.798  1.00  0.00     0.031 A 
ATOM     14  C   UNL A   1      39.572  29.672  30.693  1.00  0.00     0.074 A 
ATOM     15  C   UNL A   1      41.413  28.550  31.903  1.00  0.00     0.049 A 
ATOM     16  N   UNL A   1      39.291  30.659  31.504  1.00  0.00    -0.248 NA
ATOM     17  C   UNL A   1      38.714  29.617  29.496  1.00  0.00     0.031 C 
ATOM     18  C   UNL A   1      42.485  27.581  32.132  1.00  0.00     0.029 A 
ATOM     19  N   UNL A   1      41.416  29.325  33.035  1.00  0.00    -0.354 N 
ATOM     20  C   UNL A   1      38.252  31.359  30.901  1.00  0.00     0.074 A 
ATOM     21  C   UNL A   1      37.973  30.705  29.642  1.00  0.00     0.031 C 
ATOM     22  C   UNL A   1      43.041  27.820  33.332  1.00  0.00     0.029 A 
ATOM     23  C   UNL A   1      42.394  28.982  33.936  1.00  0.00     0.049 A 
ATOM     24  H   UNL A   1      40.777  30.060  33.187  1.00  0.00     0.167 HD
ATOM     25  C   UNL A   1      37.581  32.440  31.362  1.00  0.00     0.037 A 
ATOM     26  C   UNL A   1      42.742  29.556  35.104  1.00  0.00     0.037 A 
ATOM     27  C   UNL A   1      37.822  33.058  32.637  1.00  0.00     0.049 A 
ATOM     28  C   UNL A   1      41.994  30.773  35.581  1.00  0.00     0.074 A 
ATOM     29  C   UNL A   1      37.145  34.111  33.226  1.00  0.00     0.029 A 
ATOM     30  N   UNL A   1      38.815  32.672  33.523  1.00  0.00    -0.354 N 
ATOM     31  N   UNL A   1      40.984  31.396  35.024  1.00  0.00    -0.248 NA
ATOM     32  C   UNL A   1      42.440  31.370  36.849  1.00  0.00     0.031 C 
ATOM     33  C   UNL A   1      37.754  34.390  34.453  1.00  0.00     0.029 A 
ATOM     34  C   UNL A   1      38.786  33.483  34.645  1.00  0.00     0.049 A 
ATOM     35  H   UNL A   1      39.447  31.932  33.378  1.00  0.00     0.167 HD
ATOM     36  C   UNL A   1      40.655  32.434  35.887  1.00  0.00     0.074 A 
ATOM     37  C   UNL A   1      41.565  32.353  37.009  1.00  0.00     0.031 C 
ATOM     38  C   UNL A   1      39.685  33.372  35.762  1.00  0.00     0.037 A 
BRANCH  25  39
ATOM     39  C   UNL A   1      36.524  33.030  30.478  1.00  0.00     0.057 A 
ATOM     40  C   UNL A   1      35.173  32.727  30.689  1.00  0.00     0.134 A 
ATOM     41  C   UNL A   1      36.840  33.861  29.396  1.00  0.00     0.134 A 
ATOM     42  F   UNL A   1      34.803  31.933  31.705  1.00  0.00    -0.206 F 
ATOM     43  C   UNL A   1      34.173  33.228  29.852  1.00  0.00     0.040 A 
ATOM     44  C   UNL A   1      35.848  34.389  28.568  1.00  0.00     0.040 A 
ATOM     45  F   UNL A   1      38.114  34.201  29.149  1.00  0.00    -0.206 F 
ATOM     46  C   UNL A   1      34.510  34.065  28.791  1.00  0.00     0.006 A 
ENDBRANCH  25  39
BRANCH  26  47
ATOM     47  C   UNL A   1      43.862  29.008  35.910  1.00  0.00     0.057 A 
ATOM     48  C   UNL A   1      43.681  27.920  36.772  1.00  0.00     0.134 A 
ATOM     49  C   UNL A   1      45.158  29.525  35.790  1.00  0.00     0.134 A 
ATOM     50  F   UNL A   1      42.464  27.379  36.932  1.00  0.00    -0.206 F 
ATOM     51  C   UNL A   1      44.746  27.364  37.482  1.00  0.00     0.040 A 
ATOM     52  C   UNL A   1      46.237  28.963  36.474  1.00  0.00     0.040 A 
ATOM     53  F   UNL A   1      45.401  30.551  34.960  1.00  0.00    -0.206 F 
ATOM     54  C   UNL A   1      46.031  27.878  37.324  1.00  0.00     0.006 A 
ENDBRANCH  26  47
BRANCH  38  55
ATOM     55  C   UNL A   1      39.529  34.354  36.884  1.00  0.00     0.057 A 
ATOM     56  C   UNL A   1      40.133  35.616  36.814  1.00  0.00     0.134 A 
ATOM     57  C   UNL A   1      38.825  34.036  38.051  1.00  0.00     0.134 A 
ATOM     58  F   UNL A   1      40.829  35.977  35.725  1.00  0.00    -0.206 F 
ATOM     59  C   UNL A   1      40.049  36.525  37.868  1.00  0.00     0.040 A 
ATOM     60  C   UNL A   1      38.714  34.946  39.104  1.00  0.00     0.040 A 
ATOM     61  F   UNL A   1      38.212  32.849  38.173  1.00  0.00    -0.206 F 
ATOM     62  C   UNL A   1      39.333  36.192  39.017  1.00  0.00     0.006 A 
ENDBRANCH  38  55
ENDBRANCH  12  13
ENDBRANCH   5   7
ENDBRANCH   2   3
ENDBRANCH   1   2
BRANCH   1  63
ATOM     63  C   UNL A   1      39.598  21.933  26.347  1.00  0.00     0.023 C 
BRANCH  63  64
ATOM     64  C   UNL A   1      38.173  22.430  26.131  1.00  0.00     0.116 C 
BRANCH  64  65
ATOM     65  N   UNL A   1      37.921  22.844  24.757  1.00  0.00    -0.352 N 
ATOM     66  C   UNL A   1      36.769  22.755  24.017  1.00  0.00     0.252 C 
ATOM     67  H   UNL A   1      38.690  23.245  24.291  1.00  0.00     0.163 HD
ATOM     68  O   UNL A   1      36.758  23.110  22.840  1.00  0.00    -0.269 OA
BRANCH  66  69
ATOM     69  C   UNL A   1      35.534  22.253  24.650  1.00  0.00     0.051 A 
ATOM     70  C   UNL A   1      35.351  20.873  24.673  1.00  0.00     0.045 A 
ATOM     71  C   UNL A   1      34.565  23.124  25.189  1.00  0.00     0.016 A 
ATOM     72  C   UNL A   1      34.144  20.376  25.128  1.00  0.00     0.090 A 
ATOM     73  C   UNL A   1      33.386  22.517  25.669  1.00  0.00     0.072 A 
ATOM     74  C   UNL A   1      34.698  24.532  25.262  1.00  0.00     0.050 A 
ATOM     75  N   UNL A   1      33.178  21.189  25.625  1.00  0.00    -0.246 NA
ATOM     76  C   UNL A   1      32.388  23.326  26.200  1.00  0.00     0.032 A 
ATOM     77  C   UNL A   1      33.684  25.305  25.809  1.00  0.00     0.123 A 
ATOM     78  C   UNL A   1      32.525  24.713  26.278  1.00  0.00     0.041 A 
ATOM     79  F   UNL A   1      33.828  26.634  25.884  1.00  0.00    -0.207 F 
BRANCH  72  80
ATOM     80  C   UNL A   1      33.845  18.942  25.002  1.00  0.00     0.089 A 
ATOM     81  C   UNL A   1      34.696  18.075  24.314  1.00  0.00     0.030 A 
ATOM     82  N   UNL A   1      32.631  18.540  25.465  1.00  0.00    -0.255 NA
ATOM     83  C   UNL A   1      34.292  16.761  24.094  1.00  0.00     0.004 A 
ATOM     84  C   UNL A   1      32.274  17.256  25.251  1.00  0.00     0.112 A 
ATOM     85  C   UNL A   1      33.057  16.341  24.569  1.00  0.00     0.020 A 
ENDBRANCH  72  80
ENDBRANCH  66  69
ENDBRANCH  64  65
ENDBRANCH  63  64
ENDBRANCH   1  63
TORSDOF 12
ENDMDL
