MODEL 1
REMARK VINA RESULT:     -10.2      0.000      0.000
REMARK SMILES [NH3+][C@@H](CCC1=c2ccccc2=NC1)C(=O)NCCCCNC(=O)c1ccc(-c2c3nc(c(-c4c(F)cccc4F)c4ccc([nH]4)c(-c4c(F)cccc4F)c4nc(c(-c5c(F)cccc5F)c5ccc2[nH]5)C=C4)C=C3)cc1
REMARK SMILES IDX 18 1 17 2 16 3 14 4 15 5 2 7 1 8 3 12 4 13 5 14 6 15 13 16
REMARK SMILES IDX 7 17 11 18 12 19 8 20 10 21 9 22 19 23 20 24 21 25 22 26
REMARK SMILES IDX 23 28 24 29 25 30 77 31 26 32 76 33 27 34 28 35 29 36 70 37
REMARK SMILES IDX 30 38 75 39 69 40 71 41 31 42 74 43 68 44 67 45 32 47 58 48
REMARK SMILES IDX 41 49 57 50 42 51 45 52 56 53 72 54 43 55 44 56 55 58 73 59
REMARK SMILES IDX 46 60 33 61 34 62 39 63 35 64 36 65 38 66 40 67 37 68 59 69
REMARK SMILES IDX 60 70 65 71 61 72 62 73 64 74 66 75 63 76 47 77 48 78 53 79
REMARK SMILES IDX 49 80 50 81 52 82 54 83 51 84
REMARK H PARENT 16 6 1 9 1 10 1 11 21 27 71 46 45 57
REMARK Flexibility Score: inf
ROOT
ATOM      1  C   UNL A   1      35.153  34.064  34.387  1.00  0.00     0.023 C 
ENDROOT
BRANCH   1   2
ATOM      2  C   UNL A   1      36.540  33.474  34.635  1.00  0.00     0.116 C 
BRANCH   2   3
ATOM      3  N   UNL A   1      36.778  32.264  33.880  1.00  0.00    -0.351 N 
ATOM      4  C   UNL A   1      37.620  31.221  34.117  1.00  0.00     0.278 C 
ATOM      5  O   UNL A   1      37.583  30.276  33.322  1.00  0.00    -0.268 OA
ATOM      6  H   UNL A   1      36.241  32.180  33.060  1.00  0.00     0.163 HD
BRANCH   4   7
ATOM      7  C   UNL A   1      38.567  31.175  35.334  1.00  0.00     0.271 C 
BRANCH   7   8
ATOM      8  N   UNL A   1      38.122  30.246  36.389  1.00  0.00    -0.347 N 
ATOM      9  H   UNL A   1      37.353  29.675  36.037  1.00  0.00     0.345 HD
ATOM     10  H   UNL A   1      37.807  30.777  37.200  1.00  0.00     0.345 HD
ATOM     11  H   UNL A   1      38.898  29.640  36.658  1.00  0.00     0.345 HD
ENDBRANCH   7   8
BRANCH   7  12
ATOM     12  C   UNL A   1      40.063  31.066  34.993  1.00  0.00     0.080 C 
BRANCH  12  13
ATOM     13  C   UNL A   1      40.652  29.722  34.534  1.00  0.00     0.040 C 
BRANCH  13  14
ATOM     14  C   UNL A   1      41.740  29.158  35.391  1.00  0.00    -0.039 C 
ATOM     15  C   UNL A   1      42.043  27.873  35.539  1.00  0.00     0.001 A 
ATOM     16  C   UNL A   1      42.642  30.070  36.254  1.00  0.00     0.174 C 
ATOM     17  C   UNL A   1      41.528  26.144  35.126  1.00  0.00     0.010 A 
ATOM     18  C   UNL A   1      43.543  28.081  36.705  1.00  0.00     0.065 A 
ATOM     19  N   UNL A   1      43.727  29.318  37.015  1.00  0.00    -0.280 NA
ATOM     20  C   UNL A   1      42.403  24.877  35.592  1.00  0.00     0.001 A 
ATOM     21  C   UNL A   1      44.476  26.441  37.170  1.00  0.00     0.028 A 
ATOM     22  C   UNL A   1      43.894  25.044  36.736  1.00  0.00     0.002 A 
ENDBRANCH  13  14
ENDBRANCH  12  13
ENDBRANCH   7  12
ENDBRANCH   4   7
ENDBRANCH   2   3
ENDBRANCH   1   2
BRANCH   1  23
ATOM     23  C   UNL A   1      34.956  35.302  33.184  1.00  0.00     0.023 C 
BRANCH  23  24
ATOM     24  C   UNL A   1      33.354  35.987  31.853  1.00  0.00     0.116 C 
BRANCH  24  25
ATOM     25  N   UNL A   1      32.826  35.501  30.411  1.00  0.00    -0.352 N 
ATOM     26  C   UNL A   1      33.297  34.666  29.426  1.00  0.00     0.251 C 
ATOM     27  H   UNL A   1      31.956  35.899  30.179  1.00  0.00     0.163 HD
ATOM     28  O   UNL A   1      32.669  34.552  28.376  1.00  0.00    -0.269 OA
BRANCH  26  29
ATOM     29  C   UNL A   1      34.580  33.959  29.577  1.00  0.00     0.039 A 
ATOM     30  C   UNL A   1      34.699  32.881  30.446  1.00  0.00     0.014 A 
ATOM     31  C   UNL A   1      35.700  34.409  28.867  1.00  0.00     0.014 A 
ATOM     32  C   UNL A   1      35.960  32.399  30.772  1.00  0.00     0.010 A 
ATOM     33  C   UNL A   1      36.952  33.828  29.096  1.00  0.00     0.010 A 
ATOM     34  C   UNL A   1      37.103  32.846  30.087  1.00  0.00    -0.014 A 
BRANCH  34  35
ATOM     35  C   UNL A   1      38.421  32.227  30.398  1.00  0.00     0.031 A 
ATOM     36  C   UNL A   1      39.378  32.859  31.375  1.00  0.00     0.074 A 
ATOM     37  C   UNL A   1      38.731  31.046  29.824  1.00  0.00     0.049 A 
ATOM     38  N   UNL A   1      40.568  32.450  31.745  1.00  0.00    -0.248 NA
ATOM     39  C   UNL A   1      38.954  34.112  32.017  1.00  0.00     0.031 C 
ATOM     40  C   UNL A   1      37.888  30.328  28.863  1.00  0.00     0.029 A 
ATOM     41  N   UNL A   1      39.816  30.224  29.983  1.00  0.00    -0.354 N 
ATOM     42  C   UNL A   1      41.043  33.405  32.637  1.00  0.00     0.074 A 
ATOM     43  C   UNL A   1      40.024  34.428  32.733  1.00  0.00     0.031 C 
ATOM     44  C   UNL A   1      38.446  29.145  28.580  1.00  0.00     0.029 A 
ATOM     45  C   UNL A   1      39.734  29.061  29.254  1.00  0.00     0.049 A 
ATOM     46  H   UNL A   1      40.580  30.445  30.564  1.00  0.00     0.167 HD
ATOM     47  C   UNL A   1      42.216  33.422  33.317  1.00  0.00     0.037 A 
ATOM     48  C   UNL A   1      40.612  28.052  29.112  1.00  0.00     0.037 A 
ATOM     49  C   UNL A   1      43.221  32.391  33.226  1.00  0.00     0.049 A 
ATOM     50  C   UNL A   1      41.926  28.132  29.829  1.00  0.00     0.074 A 
ATOM     51  C   UNL A   1      44.437  32.310  33.885  1.00  0.00     0.029 A 
ATOM     52  N   UNL A   1      43.128  31.261  32.426  1.00  0.00    -0.354 N 
ATOM     53  N   UNL A   1      42.359  29.041  30.667  1.00  0.00    -0.248 NA
ATOM     54  C   UNL A   1      42.883  27.049  29.565  1.00  0.00     0.031 C 
ATOM     55  C   UNL A   1      45.100  31.158  33.445  1.00  0.00     0.029 A 
ATOM     56  C   UNL A   1      44.273  30.491  32.555  1.00  0.00     0.049 A 
ATOM     57  H   UNL A   1      42.359  31.039  31.851  1.00  0.00     0.167 HD
ATOM     58  C   UNL A   1      43.630  28.634  31.044  1.00  0.00     0.074 A 
ATOM     59  C   UNL A   1      43.884  27.379  30.366  1.00  0.00     0.031 C 
ATOM     60  C   UNL A   1      44.512  29.246  31.872  1.00  0.00     0.037 A 
BRANCH  47  61
ATOM     61  C   UNL A   1      42.493  34.607  34.201  1.00  0.00     0.057 A 
ATOM     62  C   UNL A   1      43.116  35.752  33.684  1.00  0.00     0.134 A 
ATOM     63  C   UNL A   1      42.179  34.609  35.565  1.00  0.00     0.134 A 
ATOM     64  F   UNL A   1      43.455  35.817  32.387  1.00  0.00    -0.206 F 
ATOM     65  C   UNL A   1      43.415  36.851  34.491  1.00  0.00     0.040 A 
ATOM     66  C   UNL A   1      42.449  35.713  36.378  1.00  0.00     0.040 A 
ATOM     67  F   UNL A   1      41.572  33.551  36.125  1.00  0.00    -0.206 F 
ATOM     68  C   UNL A   1      43.074  36.837  35.842  1.00  0.00     0.006 A 
ENDBRANCH  47  61
BRANCH  48  69
ATOM     69  C   UNL A   1      40.297  26.905  28.223  1.00  0.00     0.057 A 
ATOM     70  C   UNL A   1      39.437  25.878  28.634  1.00  0.00     0.134 A 
ATOM     71  C   UNL A   1      40.825  26.823  26.930  1.00  0.00     0.134 A 
ATOM     72  F   UNL A   1      38.902  25.891  29.864  1.00  0.00    -0.206 F 
ATOM     73  C   UNL A   1      39.121  24.808  27.796  1.00  0.00     0.040 A 
ATOM     74  C   UNL A   1      40.489  25.777  26.068  1.00  0.00     0.040 A 
ATOM     75  F   UNL A   1      41.639  27.785  26.470  1.00  0.00    -0.206 F 
ATOM     76  C   UNL A   1      39.637  24.763  26.504  1.00  0.00     0.006 A 
ENDBRANCH  48  69
BRANCH  60  77
ATOM     77  C   UNL A   1      45.815  28.539  32.108  1.00  0.00     0.057 A 
ATOM     78  C   UNL A   1      45.917  27.545  33.090  1.00  0.00     0.134 A 
ATOM     79  C   UNL A   1      46.963  28.833  31.362  1.00  0.00     0.134 A 
ATOM     80  F   UNL A   1      44.857  27.219  33.844  1.00  0.00    -0.206 F 
ATOM     81  C   UNL A   1      47.114  26.866  33.317  1.00  0.00     0.040 A 
ATOM     82  C   UNL A   1      48.158  28.138  31.559  1.00  0.00     0.040 A 
ATOM     83  F   UNL A   1      46.927  29.760  30.393  1.00  0.00    -0.206 F 
ATOM     84  C   UNL A   1      48.236  27.154  32.543  1.00  0.00     0.006 A 
ENDBRANCH  60  77
ENDBRANCH  34  35
ENDBRANCH  26  29
ENDBRANCH  24  25
ENDBRANCH  23  24
ENDBRANCH   1  23
TORSDOF 15
ENDMDL
MODEL 2
REMARK VINA RESULT:     -10.2      4.141      7.180
REMARK SMILES [NH3+][C@@H](CCC1=c2ccccc2=NC1)C(=O)NCCCCNC(=O)c1ccc(-c2c3nc(c(-c4c(F)cccc4F)c4ccc([nH]4)c(-c4c(F)cccc4F)c4nc(c(-c5c(F)cccc5F)c5ccc2[nH]5)C=C4)C=C3)cc1
REMARK SMILES IDX 18 1 17 2 16 3 14 4 15 5 2 7 1 8 3 12 4 13 5 14 6 15 13 16
REMARK SMILES IDX 7 17 11 18 12 19 8 20 10 21 9 22 19 23 20 24 21 25 22 26
REMARK SMILES IDX 23 28 24 29 25 30 77 31 26 32 76 33 27 34 28 35 29 36 70 37
REMARK SMILES IDX 30 38 75 39 69 40 71 41 31 42 74 43 68 44 67 45 32 47 58 48
REMARK SMILES IDX 41 49 57 50 42 51 45 52 56 53 72 54 43 55 44 56 55 58 73 59
REMARK SMILES IDX 46 60 33 61 34 62 39 63 35 64 36 65 38 66 40 67 37 68 59 69
REMARK SMILES IDX 60 70 65 71 61 72 62 73 64 74 66 75 63 76 47 77 48 78 53 79
REMARK SMILES IDX 49 80 50 81 52 82 54 83 51 84
REMARK H PARENT 16 6 1 9 1 10 1 11 21 27 71 46 45 57
REMARK Flexibility Score: inf
ROOT
ATOM      1  C   UNL A   1      34.161  29.517  27.049  1.00  0.00     0.023 C 
ENDROOT
BRANCH   1   2
ATOM      2  C   UNL A   1      33.275  28.956  25.939  1.00  0.00     0.116 C 
BRANCH   2   3
ATOM      3  N   UNL A   1      33.938  28.926  24.654  1.00  0.00    -0.351 N 
ATOM      4  C   UNL A   1      33.427  28.878  23.393  1.00  0.00     0.278 C 
ATOM      5  O   UNL A   1      34.234  28.916  22.458  1.00  0.00    -0.268 OA
ATOM      6  H   UNL A   1      34.921  28.945  24.699  1.00  0.00     0.163 HD
BRANCH   4   7
ATOM      7  C   UNL A   1      31.912  28.814  23.110  1.00  0.00     0.271 C 
BRANCH   7   8
ATOM      8  N   UNL A   1      31.509  29.553  21.900  1.00  0.00    -0.347 N 
ATOM      9  H   UNL A   1      30.939  28.950  21.306  1.00  0.00     0.345 HD
ATOM     10  H   UNL A   1      32.341  29.846  21.387  1.00  0.00     0.345 HD
ATOM     11  H   UNL A   1      30.967  30.375  22.167  1.00  0.00     0.345 HD
ENDBRANCH   7   8
BRANCH   7  12
ATOM     12  C   UNL A   1      31.286  27.413  23.227  1.00  0.00     0.080 C 
BRANCH  12  13
ATOM     13  C   UNL A   1      30.431  27.053  24.453  1.00  0.00     0.040 C 
BRANCH  13  14
ATOM     14  C   UNL A   1      30.909  25.891  25.264  1.00  0.00    -0.039 C 
ATOM     15  C   UNL A   1      32.133  25.373  25.258  1.00  0.00     0.001 A 
ATOM     16  C   UNL A   1      29.961  25.125  26.215  1.00  0.00     0.174 C 
ATOM     17  C   UNL A   1      33.794  25.435  24.442  1.00  0.00     0.010 A 
ATOM     18  C   UNL A   1      31.866  24.031  26.592  1.00  0.00     0.065 A 
ATOM     19  N   UNL A   1      30.643  24.008  26.994  1.00  0.00    -0.280 NA
ATOM     20  C   UNL A   1      35.009  24.511  24.949  1.00  0.00     0.001 A 
ATOM     21  C   UNL A   1      33.443  23.004  27.073  1.00  0.00     0.028 A 
ATOM     22  C   UNL A   1      34.785  23.181  26.268  1.00  0.00     0.002 A 
ENDBRANCH  13  14
ENDBRANCH  12  13
ENDBRANCH   7  12
ENDBRANCH   4   7
ENDBRANCH   2   3
ENDBRANCH   1   2
BRANCH   1  23
ATOM     23  C   UNL A   1      33.900  31.141  27.610  1.00  0.00     0.023 C 
BRANCH  23  24
ATOM     24  C   UNL A   1      32.488  32.764  27.181  1.00  0.00     0.116 C 
BRANCH  24  25
ATOM     25  N   UNL A   1      32.339  34.275  27.719  1.00  0.00    -0.352 N 
ATOM     26  C   UNL A   1      33.027  35.073  28.602  1.00  0.00     0.251 C 
ATOM     27  H   UNL A   1      31.569  34.739  27.318  1.00  0.00     0.163 HD
ATOM     28  O   UNL A   1      32.607  36.199  28.855  1.00  0.00    -0.269 OA
BRANCH  26  29
ATOM     29  C   UNL A   1      34.222  34.575  29.305  1.00  0.00     0.039 A 
ATOM     30  C   UNL A   1      35.482  34.685  28.728  1.00  0.00     0.014 A 
ATOM     31  C   UNL A   1      34.075  33.949  30.548  1.00  0.00     0.014 A 
ATOM     32  C   UNL A   1      36.548  33.984  29.277  1.00  0.00     0.010 A 
ATOM     33  C   UNL A   1      35.183  33.360  31.168  1.00  0.00     0.010 A 
ATOM     34  C   UNL A   1      36.424  33.332  30.515  1.00  0.00    -0.014 A 
BRANCH  34  35
ATOM     35  C   UNL A   1      37.622  32.681  31.113  1.00  0.00     0.031 A 
ATOM     36  C   UNL A   1      38.205  33.149  32.422  1.00  0.00     0.074 A 
ATOM     37  C   UNL A   1      38.158  31.613  30.486  1.00  0.00     0.049 A 
ATOM     38  N   UNL A   1      39.250  32.695  33.069  1.00  0.00    -0.248 NA
ATOM     39  C   UNL A   1      37.536  34.276  33.090  1.00  0.00     0.031 C 
ATOM     40  C   UNL A   1      37.685  31.057  29.214  1.00  0.00     0.029 A 
ATOM     41  N   UNL A   1      39.191  30.785  30.839  1.00  0.00    -0.354 N 
ATOM     42  C   UNL A   1      39.379  33.492  34.200  1.00  0.00     0.074 A 
ATOM     43  C   UNL A   1      38.321  34.478  34.138  1.00  0.00     0.031 C 
ATOM     44  C   UNL A   1      38.370  29.942  28.935  1.00  0.00     0.029 A 
ATOM     45  C   UNL A   1      39.399  29.758  29.948  1.00  0.00     0.049 A 
ATOM     46  H   UNL A   1      39.732  30.913  31.652  1.00  0.00     0.167 HD
ATOM     47  C   UNL A   1      40.292  33.406  35.200  1.00  0.00     0.037 A 
ATOM     48  C   UNL A   1      40.336  28.793  29.926  1.00  0.00     0.037 A 
ATOM     49  C   UNL A   1      41.336  32.413  35.261  1.00  0.00     0.049 A 
ATOM     50  C   UNL A   1      41.368  28.764  31.013  1.00  0.00     0.074 A 
ATOM     51  C   UNL A   1      42.301  32.233  36.238  1.00  0.00     0.029 A 
ATOM     52  N   UNL A   1      41.552  31.429  34.306  1.00  0.00    -0.354 N 
ATOM     53  N   UNL A   1      41.476  29.525  32.073  1.00  0.00    -0.248 NA
ATOM     54  C   UNL A   1      42.421  27.747  30.889  1.00  0.00     0.031 C 
ATOM     55  C   UNL A   1      43.131  31.175  35.848  1.00  0.00     0.029 A 
ATOM     56  C   UNL A   1      42.649  30.658  34.657  1.00  0.00     0.049 A 
ATOM     57  H   UNL A   1      41.006  31.300  33.497  1.00  0.00     0.167 HD
ATOM     58  C   UNL A   1      42.597  29.071  32.753  1.00  0.00     0.074 A 
ATOM     59  C   UNL A   1      43.115  27.948  31.998  1.00  0.00     0.031 C 
ATOM     60  C   UNL A   1      43.153  29.545  33.895  1.00  0.00     0.037 A 
BRANCH  47  61
ATOM     61  C   UNL A   1      40.223  34.431  36.299  1.00  0.00     0.057 A 
ATOM     62  C   UNL A   1      40.950  35.625  36.207  1.00  0.00     0.134 A 
ATOM     63  C   UNL A   1      39.468  34.227  37.461  1.00  0.00     0.134 A 
ATOM     64  F   UNL A   1      41.703  35.884  35.126  1.00  0.00    -0.206 F 
ATOM     65  C   UNL A   1      40.929  36.577  37.228  1.00  0.00     0.040 A 
ATOM     66  C   UNL A   1      39.417  35.183  38.478  1.00  0.00     0.040 A 
ATOM     67  F   UNL A   1      38.738  33.111  37.611  1.00  0.00    -0.206 F 
ATOM     68  C   UNL A   1      40.154  36.360  38.366  1.00  0.00     0.006 A 
ENDBRANCH  47  61
BRANCH  48  69
ATOM     69  C   UNL A   1      40.369  27.807  28.816  1.00  0.00     0.057 A 
ATOM     70  C   UNL A   1      39.638  26.613  28.880  1.00  0.00     0.134 A 
ATOM     71  C   UNL A   1      41.109  28.047  27.653  1.00  0.00     0.134 A 
ATOM     72  F   UNL A   1      38.914  26.317  29.969  1.00  0.00    -0.206 F 
ATOM     73  C   UNL A   1      39.648  25.691  27.832  1.00  0.00     0.040 A 
ATOM     74  C   UNL A   1      41.100  27.151  26.583  1.00  0.00     0.040 A 
ATOM     75  F   UNL A   1      41.814  29.181  27.523  1.00  0.00    -0.206 F 
ATOM     76  C   UNL A   1      40.371  25.966  26.674  1.00  0.00     0.006 A 
ENDBRANCH  48  69
BRANCH  60  77
ATOM     77  C   UNL A   1      44.365  28.819  34.405  1.00  0.00     0.057 A 
ATOM     78  C   UNL A   1      45.648  29.202  33.993  1.00  0.00     0.134 A 
ATOM     79  C   UNL A   1      44.264  27.752  35.306  1.00  0.00     0.134 A 
ATOM     80  F   UNL A   1      45.814  30.212  33.126  1.00  0.00    -0.206 F 
ATOM     81  C   UNL A   1      46.788  28.551  34.465  1.00  0.00     0.040 A 
ATOM     82  C   UNL A   1      45.400  27.114  35.809  1.00  0.00     0.040 A 
ATOM     83  F   UNL A   1      43.065  27.350  35.755  1.00  0.00    -0.206 F 
ATOM     84  C   UNL A   1      46.666  27.510  35.384  1.00  0.00     0.006 A 
ENDBRANCH  60  77
ENDBRANCH  34  35
ENDBRANCH  26  29
ENDBRANCH  24  25
ENDBRANCH  23  24
ENDBRANCH   1  23
TORSDOF 15
ENDMDL
MODEL 3
REMARK VINA RESULT:     -10.1      5.145     11.219
REMARK SMILES [NH3+][C@@H](CCC1=c2ccccc2=NC1)C(=O)NCCCCNC(=O)c1ccc(-c2c3nc(c(-c4c(F)cccc4F)c4ccc([nH]4)c(-c4c(F)cccc4F)c4nc(c(-c5c(F)cccc5F)c5ccc2[nH]5)C=C4)C=C3)cc1
REMARK SMILES IDX 18 1 17 2 16 3 14 4 15 5 2 7 1 8 3 12 4 13 5 14 6 15 13 16
REMARK SMILES IDX 7 17 11 18 12 19 8 20 10 21 9 22 19 23 20 24 21 25 22 26
REMARK SMILES IDX 23 28 24 29 25 30 77 31 26 32 76 33 27 34 28 35 29 36 70 37
REMARK SMILES IDX 30 38 75 39 69 40 71 41 31 42 74 43 68 44 67 45 32 47 58 48
REMARK SMILES IDX 41 49 57 50 42 51 45 52 56 53 72 54 43 55 44 56 55 58 73 59
REMARK SMILES IDX 46 60 33 61 34 62 39 63 35 64 36 65 38 66 40 67 37 68 59 69
REMARK SMILES IDX 60 70 65 71 61 72 62 73 64 74 66 75 63 76 47 77 48 78 53 79
REMARK SMILES IDX 49 80 50 81 52 82 54 83 51 84
REMARK H PARENT 16 6 1 9 1 10 1 11 21 27 71 46 45 57
REMARK Flexibility Score: inf
ROOT
ATOM      1  C   UNL A   1      37.656  23.029  25.817  1.00  0.00     0.023 C 
ENDROOT
BRANCH   1   2
ATOM      2  C   UNL A   1      36.245  23.613  25.781  1.00  0.00     0.116 C 
BRANCH   2   3
ATOM      3  N   UNL A   1      35.367  23.021  26.767  1.00  0.00    -0.351 N 
ATOM      4  C   UNL A   1      34.594  21.903  26.709  1.00  0.00     0.278 C 
ATOM      5  O   UNL A   1      33.973  21.595  27.732  1.00  0.00    -0.268 OA
ATOM      6  H   UNL A   1      35.323  23.508  27.621  1.00  0.00     0.163 HD
BRANCH   4   7
ATOM      7  C   UNL A   1      34.502  21.018  25.448  1.00  0.00     0.271 C 
BRANCH   7   8
ATOM      8  N   UNL A   1      33.912  19.691  25.704  1.00  0.00    -0.347 N 
ATOM      9  H   UNL A   1      34.454  18.978  25.215  1.00  0.00     0.345 HD
ATOM     10  H   UNL A   1      32.950  19.676  25.367  1.00  0.00     0.345 HD
ATOM     11  H   UNL A   1      33.925  19.500  26.705  1.00  0.00     0.345 HD
ENDBRANCH   7   8
BRANCH   7  12
ATOM     12  C   UNL A   1      33.946  21.722  24.197  1.00  0.00     0.080 C 
BRANCH  12  13
ATOM     13  C   UNL A   1      32.876  22.817  24.343  1.00  0.00     0.040 C 
BRANCH  13  14
ATOM     14  C   UNL A   1      33.073  24.038  23.501  1.00  0.00    -0.039 C 
ATOM     15  C   UNL A   1      33.271  25.276  23.941  1.00  0.00     0.001 A 
ATOM     16  C   UNL A   1      33.031  23.970  21.958  1.00  0.00     0.174 C 
ATOM     17  C   UNL A   1      33.323  26.353  25.446  1.00  0.00     0.010 A 
ATOM     18  C   UNL A   1      33.484  26.134  22.247  1.00  0.00     0.065 A 
ATOM     19  N   UNL A   1      33.305  25.305  21.277  1.00  0.00    -0.280 NA
ATOM     20  C   UNL A   1      33.697  27.914  25.344  1.00  0.00     0.001 A 
ATOM     21  C   UNL A   1      33.924  28.025  22.316  1.00  0.00     0.028 A 
ATOM     22  C   UNL A   1      33.922  28.794  23.690  1.00  0.00     0.002 A 
ENDBRANCH  13  14
ENDBRANCH  12  13
ENDBRANCH   7  12
ENDBRANCH   4   7
ENDBRANCH   2   3
ENDBRANCH   1   2
BRANCH   1  23
ATOM     23  C   UNL A   1      37.984  21.540  24.985  1.00  0.00     0.023 C 
BRANCH  23  24
ATOM     24  C   UNL A   1      38.689  19.536  25.529  1.00  0.00     0.116 C 
BRANCH  24  25
ATOM     25  N   UNL A   1      40.150  18.876  25.675  1.00  0.00    -0.352 N 
ATOM     26  C   UNL A   1      41.379  19.305  26.117  1.00  0.00     0.251 C 
ATOM     27  H   UNL A   1      40.168  17.938  25.374  1.00  0.00     0.163 HD
ATOM     28  O   UNL A   1      42.349  18.555  26.037  1.00  0.00    -0.269 OA
BRANCH  26  29
ATOM     29  C   UNL A   1      41.570  20.676  26.622  1.00  0.00     0.039 A 
ATOM     30  C   UNL A   1      41.739  21.739  25.743  1.00  0.00     0.014 A 
ATOM     31  C   UNL A   1      41.624  20.896  28.003  1.00  0.00     0.014 A 
ATOM     32  C   UNL A   1      42.175  22.965  26.228  1.00  0.00     0.010 A 
ATOM     33  C   UNL A   1      41.930  22.170  28.495  1.00  0.00     0.010 A 
ATOM     34  C   UNL A   1      42.255  23.209  27.609  1.00  0.00    -0.014 A 
BRANCH  34  35
ATOM     35  C   UNL A   1      42.629  24.569  28.084  1.00  0.00     0.031 A 
ATOM     36  C   UNL A   1      44.068  24.968  28.285  1.00  0.00     0.074 A 
ATOM     37  C   UNL A   1      41.649  25.475  28.285  1.00  0.00     0.049 A 
ATOM     38  N   UNL A   1      44.557  26.110  28.703  1.00  0.00    -0.248 NA
ATOM     39  C   UNL A   1      45.093  23.957  27.986  1.00  0.00     0.031 C 
ATOM     40  C   UNL A   1      40.215  25.216  28.122  1.00  0.00     0.029 A 
ATOM     41  N   UNL A   1      41.703  26.798  28.637  1.00  0.00    -0.354 N 
ATOM     42  C   UNL A   1      45.937  25.947  28.742  1.00  0.00     0.074 A 
ATOM     43  C   UNL A   1      46.208  24.586  28.331  1.00  0.00     0.031 C 
ATOM     44  C   UNL A   1      39.535  26.356  28.295  1.00  0.00     0.029 A 
ATOM     45  C   UNL A   1      40.469  27.404  28.684  1.00  0.00     0.049 A 
ATOM     46  H   UNL A   1      42.544  27.270  28.837  1.00  0.00     0.167 HD
ATOM     47  C   UNL A   1      46.889  26.850  29.084  1.00  0.00     0.037 A 
ATOM     48  C   UNL A   1      40.119  28.654  29.036  1.00  0.00     0.037 A 
ATOM     49  C   UNL A   1      46.613  28.209  29.479  1.00  0.00     0.049 A 
ATOM     50  C   UNL A   1      41.191  29.610  29.468  1.00  0.00     0.074 A 
ATOM     51  C   UNL A   1      47.508  29.206  29.831  1.00  0.00     0.029 A 
ATOM     52  N   UNL A   1      45.345  28.765  29.576  1.00  0.00    -0.354 N 
ATOM     53  N   UNL A   1      42.489  29.438  29.500  1.00  0.00    -0.248 NA
ATOM     54  C   UNL A   1      40.743  30.930  29.929  1.00  0.00     0.031 C 
ATOM     55  C   UNL A   1      46.780  30.346  30.189  1.00  0.00     0.029 A 
ATOM     56  C   UNL A   1      45.433  30.079  30.006  1.00  0.00     0.049 A 
ATOM     57  H   UNL A   1      44.505  28.293  29.370  1.00  0.00     0.167 HD
ATOM     58  C   UNL A   1      43.017  30.633  29.968  1.00  0.00     0.074 A 
ATOM     59  C   UNL A   1      41.898  31.529  30.177  1.00  0.00     0.031 C 
ATOM     60  C   UNL A   1      44.310  30.958  30.211  1.00  0.00     0.037 A 
BRANCH  47  61
ATOM     61  C   UNL A   1      48.322  26.392  29.072  1.00  0.00     0.057 A 
ATOM     62  C   UNL A   1      49.098  26.509  27.911  1.00  0.00     0.134 A 
ATOM     63  C   UNL A   1      48.926  25.806  30.191  1.00  0.00     0.134 A 
ATOM     64  F   UNL A   1      48.582  27.053  26.797  1.00  0.00    -0.206 F 
ATOM     65  C   UNL A   1      50.420  26.061  27.863  1.00  0.00     0.040 A 
ATOM     66  C   UNL A   1      50.256  25.377  30.165  1.00  0.00     0.040 A 
ATOM     67  F   UNL A   1      48.246  25.672  31.339  1.00  0.00    -0.206 F 
ATOM     68  C   UNL A   1      51.005  25.499  28.997  1.00  0.00     0.006 A 
ENDBRANCH  47  61
BRANCH  48  69
ATOM     69  C   UNL A   1      38.690  29.059  29.039  1.00  0.00     0.057 A 
ATOM     70  C   UNL A   1      37.903  28.949  30.193  1.00  0.00     0.134 A 
ATOM     71  C   UNL A   1      38.085  29.594  27.896  1.00  0.00     0.134 A 
ATOM     72  F   UNL A   1      38.419  28.437  31.321  1.00  0.00    -0.206 F 
ATOM     73  C   UNL A   1      36.566  29.348  30.208  1.00  0.00     0.040 A 
ATOM     74  C   UNL A   1      36.759  30.030  27.907  1.00  0.00     0.040 A 
ATOM     75  F   UNL A   1      38.791  29.744  26.766  1.00  0.00    -0.206 F 
ATOM     76  C   UNL A   1      35.995  29.902  29.066  1.00  0.00     0.006 A 
ENDBRANCH  48  69
BRANCH  60  77
ATOM     77  C   UNL A   1      44.573  32.354  30.696  1.00  0.00     0.057 A 
ATOM     78  C   UNL A   1      44.553  32.646  32.067  1.00  0.00     0.134 A 
ATOM     79  C   UNL A   1      44.855  33.405  29.814  1.00  0.00     0.134 A 
ATOM     80  F   UNL A   1      44.284  31.687  32.965  1.00  0.00    -0.206 F 
ATOM     81  C   UNL A   1      44.809  33.933  32.541  1.00  0.00     0.040 A 
ATOM     82  C   UNL A   1      45.143  34.689  30.279  1.00  0.00     0.040 A 
ATOM     83  F   UNL A   1      44.909  33.187  28.491  1.00  0.00    -0.206 F 
ATOM     84  C   UNL A   1      45.115  34.956  31.646  1.00  0.00     0.006 A 
ENDBRANCH  60  77
ENDBRANCH  34  35
ENDBRANCH  26  29
ENDBRANCH  24  25
ENDBRANCH  23  24
ENDBRANCH   1  23
TORSDOF 15
ENDMDL
