MODEL 1
REMARK VINA RESULT:     -11.4      0.000      0.000
REMARK SMILES CC[C@@](C)([NH2+]CC(=O)Nc1ccc(Br)cc1F)C(=O)NCCCCNC(=O)c1ccc(-c2c3nc(c(-c4c(F)cccc4F)c4ccc([nH]4)c(-c4c(F)cccc4F)c4nc(c(-c5c(F)cccc5F)c5ccc2[nH]5)C=C4)C=C3)cc1
REMARK SMILES IDX 21 1 20 2 18 3 19 4 3 6 4 7 2 8 1 9 5 10 6 13 7 14 8 15 9 16
REMARK SMILES IDX 10 18 11 19 16 20 12 21 15 22 17 23 13 24 14 25 22 26 23 27
REMARK SMILES IDX 24 28 25 29 26 30 27 32 28 33 29 34 81 35 30 36 80 37 31 38
REMARK SMILES IDX 32 39 33 40 74 41 34 42 79 43 73 44 75 45 35 46 78 47 72 48
REMARK SMILES IDX 71 49 36 51 62 52 45 53 61 54 46 55 49 56 60 57 76 58 47 59
REMARK SMILES IDX 48 60 59 62 77 63 50 64 37 65 38 66 43 67 39 68 40 69 42 70
REMARK SMILES IDX 44 71 41 72 63 73 64 74 69 75 65 76 66 77 68 78 70 79 67 80
REMARK SMILES IDX 51 81 52 82 57 83 53 84 54 85 56 86 58 87 55 88
REMARK H PARENT 20 5 5 11 5 12 9 17 25 31 75 50 49 61
REMARK Flexibility Score: inf
ROOT
ATOM      1  C   UNL A   1      36.625  22.907  25.270  1.00  0.00     0.116 C 
ENDROOT
BRANCH   1   2
ATOM      2  N   UNL A   1      35.348  22.866  25.995  1.00  0.00    -0.351 N 
ATOM      3  C   UNL A   1      34.496  21.796  26.231  1.00  0.00     0.281 C 
ATOM      4  O   UNL A   1      34.439  21.482  27.427  1.00  0.00    -0.268 OA
ATOM      5  H   UNL A   1      35.053  23.727  26.369  1.00  0.00     0.163 HD
BRANCH   3   6
ATOM      6  C   UNL A   1      33.387  21.269  25.154  1.00  0.00     0.172 C 
ATOM      7  C   UNL A   1      32.933  21.822  23.771  1.00  0.00     0.090 C 
BRANCH   6   8
ATOM      8  C   UNL A   1      33.969  19.847  24.756  1.00  0.00     0.075 C 
ATOM      9  C   UNL A   1      32.913  18.824  24.243  1.00  0.00     0.011 C 
ENDBRANCH   6   8
BRANCH   6  10
ATOM     10  N   UNL A   1      32.121  21.197  25.897  1.00  0.00    -0.326 N 
ATOM     11  H   UNL A   1      32.349  21.204  26.891  1.00  0.00     0.347 HD
ATOM     12  H   UNL A   1      31.668  20.349  25.559  1.00  0.00     0.347 HD
BRANCH  10  13
ATOM     13  C   UNL A   1      31.128  22.276  25.663  1.00  0.00     0.363 C 
BRANCH  13  14
ATOM     14  C   UNL A   1      30.751  23.427  26.650  1.00  0.00     0.279 C 
ATOM     15  O   UNL A   1      30.066  23.085  27.636  1.00  0.00    -0.268 OA
ATOM     16  N   UNL A   1      31.186  24.728  26.748  1.00  0.00    -0.319 N 
ATOM     17  H   UNL A   1      31.001  25.075  27.651  1.00  0.00     0.170 HD
BRANCH  16  18
ATOM     18  C   UNL A   1      31.815  25.732  25.966  1.00  0.00     0.077 A 
ATOM     19  C   UNL A   1      32.842  25.316  25.110  1.00  0.00     0.030 A 
ATOM     20  C   UNL A   1      31.684  27.123  26.130  1.00  0.00     0.147 A 
ATOM     21  C   UNL A   1      33.522  26.232  24.286  1.00  0.00     0.018 A 
ATOM     22  C   UNL A   1      32.328  28.043  25.296  1.00  0.00     0.057 A 
ATOM     23  F   UNL A   1      30.971  27.664  27.121  1.00  0.00    -0.205 F 
ATOM     24  C   UNL A   1      33.218  27.588  24.345  1.00  0.00     0.021 A 
ATOM     25  Br  UNL A   1      34.033  28.810  23.160  1.00  0.00    -0.051 Br
ENDBRANCH  16  18
ENDBRANCH  13  14
ENDBRANCH  10  13
ENDBRANCH   6  10
ENDBRANCH   3   6
ENDBRANCH   1   2
BRANCH   1  26
ATOM     26  C   UNL A   1      36.859  21.725  24.318  1.00  0.00     0.023 C 
BRANCH  26  27
ATOM     27  C   UNL A   1      37.546  20.517  24.962  1.00  0.00     0.023 C 
BRANCH  27  28
ATOM     28  C   UNL A   1      38.865  20.778  25.686  1.00  0.00     0.116 C 
BRANCH  28  29
ATOM     29  N   UNL A   1      39.821  19.680  25.634  1.00  0.00    -0.352 N 
ATOM     30  C   UNL A   1      41.146  19.679  26.024  1.00  0.00     0.251 C 
ATOM     31  H   UNL A   1      39.479  18.830  25.274  1.00  0.00     0.163 HD
ATOM     32  O   UNL A   1      41.843  18.678  25.876  1.00  0.00    -0.269 OA
BRANCH  30  33
ATOM     33  C   UNL A   1      41.742  20.915  26.578  1.00  0.00     0.039 A 
ATOM     34  C   UNL A   1      42.270  21.867  25.701  1.00  0.00     0.014 A 
ATOM     35  C   UNL A   1      41.698  21.171  27.950  1.00  0.00     0.014 A 
ATOM     36  C   UNL A   1      42.654  23.119  26.189  1.00  0.00     0.010 A 
ATOM     37  C   UNL A   1      42.003  22.445  28.421  1.00  0.00     0.010 A 
ATOM     38  C   UNL A   1      42.471  23.438  27.546  1.00  0.00    -0.014 A 
BRANCH  38  39
ATOM     39  C   UNL A   1      42.742  24.806  28.064  1.00  0.00     0.031 A 
ATOM     40  C   UNL A   1      44.132  25.190  28.493  1.00  0.00     0.074 A 
ATOM     41  C   UNL A   1      41.726  25.678  28.228  1.00  0.00     0.049 A 
ATOM     42  N   UNL A   1      44.552  26.299  29.045  1.00  0.00    -0.248 NA
ATOM     43  C   UNL A   1      45.184  24.177  28.306  1.00  0.00     0.031 C 
ATOM     44  C   UNL A   1      40.321  25.414  27.909  1.00  0.00     0.029 A 
ATOM     45  N   UNL A   1      41.717  26.962  28.714  1.00  0.00    -0.354 N 
ATOM     46  C   UNL A   1      45.906  26.110  29.290  1.00  0.00     0.074 A 
ATOM     47  C   UNL A   1      46.225  24.760  28.879  1.00  0.00     0.031 C 
ATOM     48  C   UNL A   1      39.593  26.510  28.181  1.00  0.00     0.029 A 
ATOM     49  C   UNL A   1      40.469  27.541  28.726  1.00  0.00     0.049 A 
ATOM     50  H   UNL A   1      42.527  27.426  29.026  1.00  0.00     0.167 HD
ATOM     51  C   UNL A   1      46.810  26.989  29.786  1.00  0.00     0.037 A 
ATOM     52  C   UNL A   1      40.076  28.764  29.133  1.00  0.00     0.037 A 
ATOM     53  C   UNL A   1      46.500  28.344  30.159  1.00  0.00     0.049 A 
ATOM     54  C   UNL A   1      41.100  29.725  29.671  1.00  0.00     0.074 A 
ATOM     55  C   UNL A   1      47.361  29.333  30.603  1.00  0.00     0.029 A 
ATOM     56  N   UNL A   1      45.230  28.900  30.130  1.00  0.00    -0.354 N 
ATOM     57  N   UNL A   1      42.391  29.557  29.826  1.00  0.00    -0.248 NA
ATOM     58  C   UNL A   1      40.614  31.049  30.086  1.00  0.00     0.031 C 
ATOM     59  C   UNL A   1      46.604  30.476  30.882  1.00  0.00     0.029 A 
ATOM     60  C   UNL A   1      45.281  30.213  30.568  1.00  0.00     0.049 A 
ATOM     61  H   UNL A   1      44.415  28.431  29.841  1.00  0.00     0.167 HD
ATOM     62  C   UNL A   1      42.875  30.760  30.326  1.00  0.00     0.074 A 
ATOM     63  C   UNL A   1      41.741  31.653  30.436  1.00  0.00     0.031 C 
ATOM     64  C   UNL A   1      44.145  31.093  30.662  1.00  0.00     0.037 A 
BRANCH  51  65
ATOM     65  C   UNL A   1      48.224  26.509  29.943  1.00  0.00     0.057 A 
ATOM     66  C   UNL A   1      49.188  26.715  28.948  1.00  0.00     0.134 A 
ATOM     67  C   UNL A   1      48.633  25.858  31.114  1.00  0.00     0.134 A 
ATOM     68  F   UNL A   1      48.859  27.321  27.797  1.00  0.00    -0.206 F 
ATOM     69  C   UNL A   1      50.499  26.261  29.096  1.00  0.00     0.040 A 
ATOM     70  C   UNL A   1      49.949  25.425  31.286  1.00  0.00     0.040 A 
ATOM     71  F   UNL A   1      47.762  25.634  32.109  1.00  0.00    -0.206 F 
ATOM     72  C   UNL A   1      50.885  25.620  30.272  1.00  0.00     0.006 A 
ENDBRANCH  51  65
BRANCH  52  73
ATOM     73  C   UNL A   1      38.651  29.166  29.020  1.00  0.00     0.057 A 
ATOM     74  C   UNL A   1      37.796  29.104  30.128  1.00  0.00     0.134 A 
ATOM     75  C   UNL A   1      38.103  29.603  27.809  1.00  0.00     0.134 A 
ATOM     76  F   UNL A   1      38.257  28.674  31.312  1.00  0.00    -0.206 F 
ATOM     77  C   UNL A   1      36.445  29.442  30.031  1.00  0.00     0.040 A 
ATOM     78  C   UNL A   1      36.760  29.967  27.703  1.00  0.00     0.040 A 
ATOM     79  F   UNL A   1      38.869  29.691  26.712  1.00  0.00    -0.206 F 
ATOM     80  C   UNL A   1      35.925  29.880  28.815  1.00  0.00     0.006 A 
ENDBRANCH  52  73
BRANCH  64  81
ATOM     81  C   UNL A   1      44.383  32.494  31.145  1.00  0.00     0.057 A 
ATOM     82  C   UNL A   1      44.360  32.822  32.507  1.00  0.00     0.134 A 
ATOM     83  C   UNL A   1      44.681  33.519  30.237  1.00  0.00     0.134 A 
ATOM     84  F   UNL A   1      44.069  31.889  33.425  1.00  0.00    -0.206 F 
ATOM     85  C   UNL A   1      44.606  34.123  32.946  1.00  0.00     0.040 A 
ATOM     86  C   UNL A   1      44.954  34.817  30.666  1.00  0.00     0.040 A 
ATOM     87  F   UNL A   1      44.726  33.269  28.920  1.00  0.00    -0.206 F 
ATOM     88  C   UNL A   1      44.912  35.124  32.024  1.00  0.00     0.006 A 
ENDBRANCH  64  81
ENDBRANCH  38  39
ENDBRANCH  30  33
ENDBRANCH  28  29
ENDBRANCH  27  28
ENDBRANCH  26  27
ENDBRANCH   1  26
TORSDOF 16
ENDMDL
MODEL 2
REMARK VINA RESULT:     -11.2      1.729      6.623
REMARK SMILES CC[C@@](C)([NH2+]CC(=O)Nc1ccc(Br)cc1F)C(=O)NCCCCNC(=O)c1ccc(-c2c3nc(c(-c4c(F)cccc4F)c4ccc([nH]4)c(-c4c(F)cccc4F)c4nc(c(-c5c(F)cccc5F)c5ccc2[nH]5)C=C4)C=C3)cc1
REMARK SMILES IDX 21 1 20 2 18 3 19 4 3 6 4 7 2 8 1 9 5 10 6 13 7 14 8 15 9 16
REMARK SMILES IDX 10 18 11 19 16 20 12 21 15 22 17 23 13 24 14 25 22 26 23 27
REMARK SMILES IDX 24 28 25 29 26 30 27 32 28 33 29 34 81 35 30 36 80 37 31 38
REMARK SMILES IDX 32 39 33 40 74 41 34 42 79 43 73 44 75 45 35 46 78 47 72 48
REMARK SMILES IDX 71 49 36 51 62 52 45 53 61 54 46 55 49 56 60 57 76 58 47 59
REMARK SMILES IDX 48 60 59 62 77 63 50 64 37 65 38 66 43 67 39 68 40 69 42 70
REMARK SMILES IDX 44 71 41 72 63 73 64 74 69 75 65 76 66 77 68 78 70 79 67 80
REMARK SMILES IDX 51 81 52 82 57 83 53 84 54 85 56 86 58 87 55 88
REMARK H PARENT 20 5 5 11 5 12 9 17 25 31 75 50 49 61
REMARK Flexibility Score: inf
ROOT
ATOM      1  C   UNL A   1      35.742  22.675  26.040  1.00  0.00     0.116 C 
ENDROOT
BRANCH   1   2
ATOM      2  N   UNL A   1      34.312  22.342  26.068  1.00  0.00    -0.351 N 
ATOM      3  C   UNL A   1      33.394  22.282  25.027  1.00  0.00     0.281 C 
ATOM      4  O   UNL A   1      32.991  21.132  24.808  1.00  0.00    -0.268 OA
ATOM      5  H   UNL A   1      33.949  22.130  26.958  1.00  0.00     0.163 HD
BRANCH   3   6
ATOM      6  C   UNL A   1      32.619  23.589  24.429  1.00  0.00     0.172 C 
ATOM      7  C   UNL A   1      31.203  23.765  23.805  1.00  0.00     0.090 C 
BRANCH   6   8
ATOM      8  C   UNL A   1      32.525  24.525  25.708  1.00  0.00     0.075 C 
ATOM      9  C   UNL A   1      33.468  25.764  25.686  1.00  0.00     0.011 C 
ENDBRANCH   6   8
BRANCH   6  10
ATOM     10  N   UNL A   1      33.497  24.119  23.377  1.00  0.00    -0.326 N 
ATOM     11  H   UNL A   1      34.267  23.461  23.262  1.00  0.00     0.347 HD
ATOM     12  H   UNL A   1      33.761  25.048  23.702  1.00  0.00     0.347 HD
BRANCH  10  13
ATOM     13  C   UNL A   1      32.900  24.343  22.036  1.00  0.00     0.363 C 
BRANCH  13  14
ATOM     14  C   UNL A   1      32.878  25.687  21.239  1.00  0.00     0.279 C 
ATOM     15  O   UNL A   1      32.957  25.575  19.998  1.00  0.00    -0.268 OA
ATOM     16  N   UNL A   1      32.597  26.977  21.626  1.00  0.00    -0.319 N 
ATOM     17  H   UNL A   1      32.360  27.518  20.838  1.00  0.00     0.170 HD
BRANCH  16  18
ATOM     18  C   UNL A   1      32.542  27.779  22.796  1.00  0.00     0.077 A 
ATOM     19  C   UNL A   1      31.287  27.931  23.399  1.00  0.00     0.030 A 
ATOM     20  C   UNL A   1      33.556  28.627  23.276  1.00  0.00     0.147 A 
ATOM     21  C   UNL A   1      31.127  28.698  24.567  1.00  0.00     0.018 A 
ATOM     22  C   UNL A   1      33.422  29.369  24.454  1.00  0.00     0.057 A 
ATOM     23  F   UNL A   1      34.702  28.817  22.618  1.00  0.00    -0.205 F 
ATOM     24  C   UNL A   1      32.213  29.368  25.121  1.00  0.00     0.021 A 
ATOM     25  Br  UNL A   1      32.040  30.299  26.754  1.00  0.00    -0.051 Br
ENDBRANCH  16  18
ENDBRANCH  13  14
ENDBRANCH  10  13
ENDBRANCH   6  10
ENDBRANCH   3   6
ENDBRANCH   1   2
BRANCH   1  26
ATOM     26  C   UNL A   1      36.432  22.423  24.692  1.00  0.00     0.023 C 
BRANCH  26  27
ATOM     27  C   UNL A   1      37.337  21.188  24.662  1.00  0.00     0.023 C 
BRANCH  27  28
ATOM     28  C   UNL A   1      38.475  21.141  25.679  1.00  0.00     0.116 C 
BRANCH  28  29
ATOM     29  N   UNL A   1      39.335  19.969  25.583  1.00  0.00    -0.352 N 
ATOM     30  C   UNL A   1      40.656  19.842  25.964  1.00  0.00     0.251 C 
ATOM     31  H   UNL A   1      38.921  19.163  25.196  1.00  0.00     0.163 HD
ATOM     32  O   UNL A   1      41.266  18.792  25.778  1.00  0.00    -0.269 OA
BRANCH  30  33
ATOM     33  C   UNL A   1      41.356  21.004  26.558  1.00  0.00     0.039 A 
ATOM     34  C   UNL A   1      41.949  21.945  25.710  1.00  0.00     0.014 A 
ATOM     35  C   UNL A   1      41.348  21.207  27.939  1.00  0.00     0.014 A 
ATOM     36  C   UNL A   1      42.437  23.142  26.242  1.00  0.00     0.010 A 
ATOM     37  C   UNL A   1      41.760  22.432  28.455  1.00  0.00     0.010 A 
ATOM     38  C   UNL A   1      42.296  23.420  27.612  1.00  0.00    -0.014 A 
BRANCH  38  39
ATOM     39  C   UNL A   1      42.682  24.740  28.180  1.00  0.00     0.031 A 
ATOM     40  C   UNL A   1      41.641  25.803  28.395  1.00  0.00     0.074 A 
ATOM     41  C   UNL A   1      43.980  25.013  28.425  1.00  0.00     0.049 A 
ATOM     42  N   UNL A   1      41.790  27.039  28.799  1.00  0.00    -0.248 NA
ATOM     43  C   UNL A   1      40.250  25.438  28.083  1.00  0.00     0.031 C 
ATOM     44  C   UNL A   1      45.098  24.094  28.204  1.00  0.00     0.029 A 
ATOM     45  N   UNL A   1      44.581  26.151  28.905  1.00  0.00    -0.354 N 
ATOM     46  C   UNL A   1      40.521  27.602  28.769  1.00  0.00     0.074 A 
ATOM     47  C   UNL A   1      39.623  26.593  28.253  1.00  0.00     0.031 C 
ATOM     48  C   UNL A   1      46.242  24.692  28.574  1.00  0.00     0.029 A 
ATOM     49  C   UNL A   1      45.947  26.049  29.024  1.00  0.00     0.049 A 
ATOM     50  H   UNL A   1      44.080  26.965  29.142  1.00  0.00     0.167 HD
ATOM     51  C   UNL A   1      40.131  28.839  29.160  1.00  0.00     0.037 A 
ATOM     52  C   UNL A   1      46.858  26.947  29.445  1.00  0.00     0.037 A 
ATOM     53  C   UNL A   1      41.018  29.831  29.710  1.00  0.00     0.049 A 
ATOM     54  C   UNL A   1      46.399  28.311  29.884  1.00  0.00     0.074 A 
ATOM     55  C   UNL A   1      40.707  31.086  30.202  1.00  0.00     0.029 A 
ATOM     56  N   UNL A   1      42.390  29.677  29.838  1.00  0.00    -0.354 N 
ATOM     57  N   UNL A   1      45.185  28.802  29.920  1.00  0.00    -0.248 NA
ATOM     58  C   UNL A   1      47.438  29.242  30.347  1.00  0.00     0.031 C 
ATOM     59  C   UNL A   1      41.897  31.709  30.592  1.00  0.00     0.029 A 
ATOM     60  C   UNL A   1      42.942  30.824  30.385  1.00  0.00     0.049 A 
ATOM     61  H   UNL A   1      42.895  28.874  29.580  1.00  0.00     0.167 HD
ATOM     62  C   UNL A   1      45.309  30.087  30.436  1.00  0.00     0.074 A 
ATOM     63  C   UNL A   1      46.715  30.293  30.711  1.00  0.00     0.031 C 
ATOM     64  C   UNL A   1      44.344  31.010  30.663  1.00  0.00     0.037 A 
BRANCH  51  65
ATOM     65  C   UNL A   1      38.676  29.182  29.016  1.00  0.00     0.057 A 
ATOM     66  C   UNL A   1      37.787  29.099  30.096  1.00  0.00     0.134 A 
ATOM     67  C   UNL A   1      38.163  29.626  27.791  1.00  0.00     0.134 A 
ATOM     68  F   UNL A   1      38.212  28.670  31.295  1.00  0.00    -0.206 F 
ATOM     69  C   UNL A   1      36.435  29.413  29.955  1.00  0.00     0.040 A 
ATOM     70  C   UNL A   1      36.819  29.970  27.644  1.00  0.00     0.040 A 
ATOM     71  F   UNL A   1      38.961  29.734  26.718  1.00  0.00    -0.206 F 
ATOM     72  C   UNL A   1      35.948  29.857  28.727  1.00  0.00     0.006 A 
ENDBRANCH  51  65
BRANCH  52  73
ATOM     73  C   UNL A   1      48.296  26.581  29.504  1.00  0.00     0.057 A 
ATOM     74  C   UNL A   1      48.821  25.902  30.612  1.00  0.00     0.134 A 
ATOM     75  C   UNL A   1      49.183  26.911  28.473  1.00  0.00     0.134 A 
ATOM     76  F   UNL A   1      48.025  25.577  31.641  1.00  0.00    -0.206 F 
ATOM     77  C   UNL A   1      50.177  25.583  30.701  1.00  0.00     0.040 A 
ATOM     78  C   UNL A   1      50.537  26.576  28.538  1.00  0.00     0.040 A 
ATOM     79  F   UNL A   1      48.744  27.555  27.382  1.00  0.00    -0.206 F 
ATOM     80  C   UNL A   1      51.039  25.917  29.659  1.00  0.00     0.006 A 
ENDBRANCH  52  73
BRANCH  64  81
ATOM     81  C   UNL A   1      44.769  32.314  31.271  1.00  0.00     0.057 A 
ATOM     82  C   UNL A   1      45.125  33.418  30.485  1.00  0.00     0.134 A 
ATOM     83  C   UNL A   1      44.781  32.481  32.662  1.00  0.00     0.134 A 
ATOM     84  F   UNL A   1      45.146  33.319  29.147  1.00  0.00    -0.206 F 
ATOM     85  C   UNL A   1      45.497  34.633  31.061  1.00  0.00     0.040 A 
ATOM     86  C   UNL A   1      45.125  33.698  33.249  1.00  0.00     0.040 A 
ATOM     87  F   UNL A   1      44.443  31.466  33.472  1.00  0.00    -0.206 F 
ATOM     88  C   UNL A   1      45.490  34.778  32.448  1.00  0.00     0.006 A 
ENDBRANCH  64  81
ENDBRANCH  38  39
ENDBRANCH  30  33
ENDBRANCH  28  29
ENDBRANCH  27  28
ENDBRANCH  26  27
ENDBRANCH   1  26
TORSDOF 16
ENDMDL
MODEL 3
REMARK VINA RESULT:     -11.2      2.563      7.434
REMARK SMILES CC[C@@](C)([NH2+]CC(=O)Nc1ccc(Br)cc1F)C(=O)NCCCCNC(=O)c1ccc(-c2c3nc(c(-c4c(F)cccc4F)c4ccc([nH]4)c(-c4c(F)cccc4F)c4nc(c(-c5c(F)cccc5F)c5ccc2[nH]5)C=C4)C=C3)cc1
REMARK SMILES IDX 21 1 20 2 18 3 19 4 3 6 4 7 2 8 1 9 5 10 6 13 7 14 8 15 9 16
REMARK SMILES IDX 10 18 11 19 16 20 12 21 15 22 17 23 13 24 14 25 22 26 23 27
REMARK SMILES IDX 24 28 25 29 26 30 27 32 28 33 29 34 81 35 30 36 80 37 31 38
REMARK SMILES IDX 32 39 33 40 74 41 34 42 79 43 73 44 75 45 35 46 78 47 72 48
REMARK SMILES IDX 71 49 36 51 62 52 45 53 61 54 46 55 49 56 60 57 76 58 47 59
REMARK SMILES IDX 48 60 59 62 77 63 50 64 37 65 38 66 43 67 39 68 40 69 42 70
REMARK SMILES IDX 44 71 41 72 63 73 64 74 69 75 65 76 66 77 68 78 70 79 67 80
REMARK SMILES IDX 51 81 52 82 57 83 53 84 54 85 56 86 58 87 55 88
REMARK H PARENT 20 5 5 11 5 12 9 17 25 31 75 50 49 61
REMARK Flexibility Score: inf
ROOT
ATOM      1  C   UNL A   1      32.508  28.517  23.453  1.00  0.00     0.116 C 
ENDROOT
BRANCH   1   2
ATOM      2  N   UNL A   1      33.330  27.311  23.286  1.00  0.00    -0.351 N 
ATOM      3  C   UNL A   1      33.032  26.115  22.645  1.00  0.00     0.281 C 
ATOM      4  O   UNL A   1      33.716  25.932  21.629  1.00  0.00    -0.268 OA
ATOM      5  H   UNL A   1      34.226  27.358  23.689  1.00  0.00     0.163 HD
BRANCH   3   6
ATOM      6  C   UNL A   1      32.193  24.901  23.343  1.00  0.00     0.172 C 
ATOM      7  C   UNL A   1      30.740  24.382  23.129  1.00  0.00     0.090 C 
BRANCH   6   8
ATOM      8  C   UNL A   1      33.052  23.632  22.929  1.00  0.00     0.075 C 
ATOM      9  C   UNL A   1      32.231  22.328  22.701  1.00  0.00     0.011 C 
ENDBRANCH   6   8
BRANCH   6  10
ATOM     10  N   UNL A   1      32.219  25.183  24.784  1.00  0.00    -0.326 N 
ATOM     11  H   UNL A   1      32.216  26.196  24.898  1.00  0.00     0.347 HD
ATOM     12  H   UNL A   1      33.054  24.708  25.127  1.00  0.00     0.347 HD
BRANCH  10  13
ATOM     13  C   UNL A   1      31.109  24.640  25.608  1.00  0.00     0.363 C 
BRANCH  13  14
ATOM     14  C   UNL A   1      31.188  23.434  26.599  1.00  0.00     0.279 C 
ATOM     15  O   UNL A   1      30.206  23.299  27.358  1.00  0.00    -0.268 OA
ATOM     16  N   UNL A   1      32.053  22.367  26.677  1.00  0.00    -0.319 N 
ATOM     17  H   UNL A   1      31.640  21.640  27.198  1.00  0.00     0.170 HD
BRANCH  16  18
ATOM     18  C   UNL A   1      33.348  21.978  26.248  1.00  0.00     0.077 A 
ATOM     19  C   UNL A   1      34.365  22.935  26.356  1.00  0.00     0.030 A 
ATOM     20  C   UNL A   1      33.673  20.825  25.510  1.00  0.00     0.147 A 
ATOM     21  C   UNL A   1      35.685  22.645  25.967  1.00  0.00     0.018 A 
ATOM     22  C   UNL A   1      34.987  20.509  25.147  1.00  0.00     0.057 A 
ATOM     23  F   UNL A   1      32.746  19.974  25.066  1.00  0.00    -0.205 F 
ATOM     24  C   UNL A   1      35.999  21.407  25.416  1.00  0.00     0.021 A 
ATOM     25  Br  UNL A   1      37.786  20.961  25.004  1.00  0.00    -0.051 Br
ENDBRANCH  16  18
ENDBRANCH  13  14
ENDBRANCH  10  13
ENDBRANCH   6  10
ENDBRANCH   3   6
ENDBRANCH   1   2
BRANCH   1  26
ATOM     26  C   UNL A   1      32.908  29.404  24.640  1.00  0.00     0.023 C 
BRANCH  26  27
ATOM     27  C   UNL A   1      32.574  28.815  26.015  1.00  0.00     0.023 C 
BRANCH  27  28
ATOM     28  C   UNL A   1      33.647  28.931  27.095  1.00  0.00     0.116 C 
BRANCH  28  29
ATOM     29  N   UNL A   1      33.684  30.212  27.788  1.00  0.00    -0.352 N 
ATOM     30  C   UNL A   1      34.743  30.793  28.458  1.00  0.00     0.251 C 
ATOM     31  H   UNL A   1      32.846  30.729  27.778  1.00  0.00     0.163 HD
ATOM     32  O   UNL A   1      34.605  31.868  29.036  1.00  0.00    -0.269 OA
BRANCH  30  33
ATOM     33  C   UNL A   1      36.041  30.084  28.520  1.00  0.00     0.039 A 
ATOM     34  C   UNL A   1      36.893  30.130  27.414  1.00  0.00     0.014 A 
ATOM     35  C   UNL A   1      36.449  29.453  29.698  1.00  0.00     0.014 A 
ATOM     36  C   UNL A   1      38.197  29.639  27.526  1.00  0.00     0.010 A 
ATOM     37  C   UNL A   1      37.771  29.040  29.832  1.00  0.00     0.010 A 
ATOM     38  C   UNL A   1      38.665  29.140  28.753  1.00  0.00    -0.014 A 
BRANCH  38  39
ATOM     39  C   UNL A   1      40.086  28.739  28.937  1.00  0.00     0.031 A 
ATOM     40  C   UNL A   1      41.081  29.718  29.497  1.00  0.00     0.074 A 
ATOM     41  C   UNL A   1      40.500  27.523  28.525  1.00  0.00     0.049 A 
ATOM     42  N   UNL A   1      42.374  29.586  29.654  1.00  0.00    -0.248 NA
ATOM     43  C   UNL A   1      40.558  31.032  29.902  1.00  0.00     0.031 C 
ATOM     44  C   UNL A   1      39.652  26.500  27.910  1.00  0.00     0.029 A 
ATOM     45  N   UNL A   1      41.746  26.945  28.551  1.00  0.00    -0.354 N 
ATOM     46  C   UNL A   1      42.819  30.802  30.155  1.00  0.00     0.074 A 
ATOM     47  C   UNL A   1      41.670  31.679  30.220  1.00  0.00     0.031 C 
ATOM     48  C   UNL A   1      40.393  25.412  27.645  1.00  0.00     0.029 A 
ATOM     49  C   UNL A   1      41.775  25.670  28.035  1.00  0.00     0.049 A 
ATOM     50  H   UNL A   1      42.543  27.400  28.906  1.00  0.00     0.167 HD
ATOM     51  C   UNL A   1      44.066  31.153  30.550  1.00  0.00     0.037 A 
ATOM     52  C   UNL A   1      42.801  24.808  27.891  1.00  0.00     0.037 A 
ATOM     53  C   UNL A   1      45.202  30.269  30.521  1.00  0.00     0.049 A 
ATOM     54  C   UNL A   1      44.175  25.217  28.348  1.00  0.00     0.074 A 
ATOM     55  C   UNL A   1      46.491  30.507  30.967  1.00  0.00     0.029 A 
ATOM     56  N   UNL A   1      45.184  28.978  30.016  1.00  0.00    -0.354 N 
ATOM     57  N   UNL A   1      44.565  26.345  28.889  1.00  0.00    -0.248 NA
ATOM     58  C   UNL A   1      45.250  24.229  28.178  1.00  0.00     0.031 C 
ATOM     59  C   UNL A   1      47.263  29.373  30.695  1.00  0.00     0.029 A 
ATOM     60  C   UNL A   1      46.445  28.413  30.123  1.00  0.00     0.049 A 
ATOM     61  H   UNL A   1      44.394  28.529  29.640  1.00  0.00     0.167 HD
ATOM     62  C   UNL A   1      45.921  26.193  29.152  1.00  0.00     0.074 A 
ATOM     63  C   UNL A   1      46.283  24.859  28.722  1.00  0.00     0.031 C 
ATOM     64  C   UNL A   1      46.787  27.079  29.701  1.00  0.00     0.037 A 
BRANCH  51  65
ATOM     65  C   UNL A   1      44.262  32.551  31.059  1.00  0.00     0.057 A 
ATOM     66  C   UNL A   1      44.613  33.606  30.206  1.00  0.00     0.134 A 
ATOM     67  C   UNL A   1      44.073  32.853  32.414  1.00  0.00     0.134 A 
ATOM     68  F   UNL A   1      44.821  33.383  28.900  1.00  0.00    -0.206 F 
ATOM     69  C   UNL A   1      44.800  34.903  30.686  1.00  0.00     0.040 A 
ATOM     70  C   UNL A   1      44.229  34.151  32.901  1.00  0.00     0.040 A 
ATOM     71  F   UNL A   1      43.730  31.891  33.285  1.00  0.00    -0.206 F 
ATOM     72  C   UNL A   1      44.601  35.180  32.037  1.00  0.00     0.006 A 
ENDBRANCH  51  65
BRANCH  52  73
ATOM     73  C   UNL A   1      42.568  23.459  27.318  1.00  0.00     0.057 A 
ATOM     74  C   UNL A   1      42.727  23.223  25.946  1.00  0.00     0.134 A 
ATOM     75  C   UNL A   1      42.165  22.380  28.113  1.00  0.00     0.134 A 
ATOM     76  F   UNL A   1      43.091  24.221  25.128  1.00  0.00    -0.206 F 
ATOM     77  C   UNL A   1      42.475  21.970  25.384  1.00  0.00     0.040 A 
ATOM     78  C   UNL A   1      41.933  21.116  27.568  1.00  0.00     0.040 A 
ATOM     79  F   UNL A   1      42.000  22.538  29.434  1.00  0.00    -0.206 F 
ATOM     80  C   UNL A   1      42.081  20.911  26.198  1.00  0.00     0.006 A 
ENDBRANCH  52  73
BRANCH  64  81
ATOM     81  C   UNL A   1      48.202  26.622  29.904  1.00  0.00     0.057 A 
ATOM     82  C   UNL A   1      48.598  25.925  31.053  1.00  0.00     0.134 A 
ATOM     83  C   UNL A   1      49.170  26.845  28.916  1.00  0.00     0.134 A 
ATOM     84  F   UNL A   1      47.722  25.691  32.041  1.00  0.00    -0.206 F 
ATOM     85  C   UNL A   1      49.912  25.485  31.220  1.00  0.00     0.040 A 
ATOM     86  C   UNL A   1      50.479  26.387  29.060  1.00  0.00     0.040 A 
ATOM     87  F   UNL A   1      48.854  27.498  27.788  1.00  0.00    -0.206 F 
ATOM     88  C   UNL A   1      50.855  25.709  30.218  1.00  0.00     0.006 A 
ENDBRANCH  64  81
ENDBRANCH  38  39
ENDBRANCH  30  33
ENDBRANCH  28  29
ENDBRANCH  27  28
ENDBRANCH  26  27
ENDBRANCH   1  26
TORSDOF 16
ENDMDL
