MODEL 1
REMARK VINA RESULT:     -11.2      0.000      0.000
REMARK SMILES CCSc1cccc(-c2ccc([C@@H](C)C(=O)NCCCCNC(=O)c3ccc(-c4c5nc(c(-c6c(F)cccc6F)c6ccc([nH]6)c(-c6c(F)cccc6F)c6nc(c(-c7c(F)cccc7F)c7ccc4[nH]7)C=C6)C=C5)cc3)cc2)c1
REMARK SMILES IDX 18 1 17 2 15 3 16 4 13 6 14 7 12 8 9 9 10 10 80 11 11 12
REMARK SMILES IDX 79 13 8 14 4 15 5 16 81 17 6 18 7 19 3 20 2 21 1 22 19 23
REMARK SMILES IDX 20 24 21 25 22 26 23 27 24 29 25 30 26 31 78 32 27 33 77 34
REMARK SMILES IDX 28 35 29 36 30 37 71 38 31 39 76 40 70 41 72 42 32 43 75 44
REMARK SMILES IDX 69 45 68 46 33 48 59 49 42 50 58 51 43 52 46 53 57 54 73 55
REMARK SMILES IDX 44 56 45 57 56 59 74 60 47 61 34 62 35 63 40 64 36 65 37 66
REMARK SMILES IDX 39 67 41 68 38 69 60 70 61 71 66 72 62 73 63 74 65 75 67 76
REMARK SMILES IDX 64 77 48 78 49 79 54 80 50 81 51 82 53 83 55 84 52 85
REMARK H PARENT 17 5 22 28 72 47 46 58
REMARK Flexibility Score: inf
ROOT
ATOM      1  C   UNL A   1      30.835  29.871  24.918  1.00  0.00     0.116 C 
ENDROOT
BRANCH   1   2
ATOM      2  N   UNL A   1      30.660  30.075  23.496  1.00  0.00    -0.356 N 
ATOM      3  C   UNL A   1      30.051  29.306  22.551  1.00  0.00     0.227 C 
ATOM      4  O   UNL A   1      30.121  29.708  21.383  1.00  0.00    -0.274 OA
ATOM      5  H   UNL A   1      31.048  30.912  23.153  1.00  0.00     0.163 HD
BRANCH   3   6
ATOM      6  C   UNL A   1      29.298  28.005  22.871  1.00  0.00     0.105 C 
ATOM      7  C   UNL A   1      27.881  28.222  23.403  1.00  0.00     0.023 C 
BRANCH   6   8
ATOM      8  C   UNL A   1      30.154  26.989  23.610  1.00  0.00    -0.036 A 
ATOM      9  C   UNL A   1      31.940  25.261  25.025  1.00  0.00    -0.018 A 
ATOM     10  C   UNL A   1      30.643  25.520  25.494  1.00  0.00     0.009 A 
ATOM     11  C   UNL A   1      32.299  25.847  23.800  1.00  0.00     0.009 A 
ATOM     12  C   UNL A   1      29.755  26.343  24.784  1.00  0.00     0.005 A 
ATOM     13  C   UNL A   1      31.437  26.710  23.118  1.00  0.00     0.005 A 
BRANCH   9  14
ATOM     14  C   UNL A   1      32.895  24.414  25.778  1.00  0.00    -0.017 A 
ATOM     15  C   UNL A   1      35.219  23.723  26.222  1.00  0.00     0.008 A 
ATOM     16  C   UNL A   1      34.743  22.754  27.111  1.00  0.00     0.015 A 
ATOM     17  C   UNL A   1      34.288  24.560  25.597  1.00  0.00     0.023 A 
ATOM     18  C   UNL A   1      33.376  22.614  27.349  1.00  0.00     0.002 A 
ATOM     19  C   UNL A   1      32.462  23.428  26.678  1.00  0.00     0.009 A 
BRANCH  15  20
ATOM     20  S   UNL A   1      36.989  23.771  25.962  1.00  0.00    -0.126 SA
BRANCH  20  21
ATOM     21  C   UNL A   1      37.355  22.350  24.873  1.00  0.00     0.071 C 
ATOM     22  C   UNL A   1      36.143  21.871  24.090  1.00  0.00     0.016 C 
ENDBRANCH  20  21
ENDBRANCH  15  20
ENDBRANCH   9  14
ENDBRANCH   6   8
ENDBRANCH   3   6
ENDBRANCH   1   2
BRANCH   1  23
ATOM     23  C   UNL A   1      32.299  29.644  25.295  1.00  0.00     0.023 C 
BRANCH  23  24
ATOM     24  C   UNL A   1      32.530  28.587  26.372  1.00  0.00     0.023 C 
BRANCH  24  25
ATOM     25  C   UNL A   1      33.722  28.839  27.291  1.00  0.00     0.116 C 
BRANCH  25  26
ATOM     26  N   UNL A   1      33.787  30.191  27.825  1.00  0.00    -0.352 N 
ATOM     27  C   UNL A   1      34.862  30.827  28.416  1.00  0.00     0.251 C 
ATOM     28  H   UNL A   1      32.960  30.720  27.757  1.00  0.00     0.163 HD
ATOM     29  O   UNL A   1      34.756  31.947  28.875  1.00  0.00    -0.269 OA
BRANCH  27  30
ATOM     30  C   UNL A   1      36.137  30.086  28.528  1.00  0.00     0.039 A 
ATOM     31  C   UNL A   1      37.034  30.127  27.457  1.00  0.00     0.014 A 
ATOM     32  C   UNL A   1      36.478  29.440  29.719  1.00  0.00     0.014 A 
ATOM     33  C   UNL A   1      38.319  29.607  27.619  1.00  0.00     0.010 A 
ATOM     34  C   UNL A   1      37.777  28.981  29.899  1.00  0.00     0.010 A 
ATOM     35  C   UNL A   1      38.716  29.082  28.859  1.00  0.00    -0.014 A 
BRANCH  35  36
ATOM     36  C   UNL A   1      40.117  28.673  29.118  1.00  0.00     0.031 A 
ATOM     37  C   UNL A   1      41.092  29.656  29.696  1.00  0.00     0.074 A 
ATOM     38  C   UNL A   1      40.536  27.454  28.724  1.00  0.00     0.049 A 
ATOM     39  N   UNL A   1      42.385  29.543  29.851  1.00  0.00    -0.248 NA
ATOM     40  C   UNL A   1      40.542  30.950  30.129  1.00  0.00     0.031 C 
ATOM     41  C   UNL A   1      39.696  26.426  28.105  1.00  0.00     0.029 A 
ATOM     42  N   UNL A   1      41.784  26.882  28.763  1.00  0.00    -0.354 N 
ATOM     43  C   UNL A   1      42.808  30.756  30.376  1.00  0.00     0.074 A 
ATOM     44  C   UNL A   1      41.640  31.604  30.478  1.00  0.00     0.031 C 
ATOM     45  C   UNL A   1      40.450  25.347  27.834  1.00  0.00     0.029 A 
ATOM     46  C   UNL A   1      41.830  25.622  28.219  1.00  0.00     0.049 A 
ATOM     47  H   UNL A   1      42.571  27.333  29.147  1.00  0.00     0.167 HD
ATOM     48  C   UNL A   1      44.055  31.123  30.754  1.00  0.00     0.037 A 
ATOM     49  C   UNL A   1      42.871  24.788  28.033  1.00  0.00     0.037 A 
ATOM     50  C   UNL A   1      45.207  30.265  30.688  1.00  0.00     0.049 A 
ATOM     51  C   UNL A   1      44.246  25.224  28.453  1.00  0.00     0.074 A 
ATOM     52  C   UNL A   1      46.494  30.514  31.131  1.00  0.00     0.029 A 
ATOM     53  N   UNL A   1      45.210  28.991  30.141  1.00  0.00    -0.354 N 
ATOM     54  N   UNL A   1      44.621  26.351  29.006  1.00  0.00    -0.248 NA
ATOM     55  C   UNL A   1      45.343  24.275  28.214  1.00  0.00     0.031 C 
ATOM     56  C   UNL A   1      47.285  29.402  30.822  1.00  0.00     0.029 A 
ATOM     57  C   UNL A   1      46.483  28.450  30.212  1.00  0.00     0.049 A 
ATOM     58  H   UNL A   1      44.424  28.538  29.758  1.00  0.00     0.167 HD
ATOM     59  C   UNL A   1      45.992  26.244  29.194  1.00  0.00     0.074 A 
ATOM     60  C   UNL A   1      46.382  24.935  28.708  1.00  0.00     0.031 C 
ATOM     61  C   UNL A   1      46.851  27.149  29.720  1.00  0.00     0.037 A 
BRANCH  48  62
ATOM     62  C   UNL A   1      44.233  32.515  31.280  1.00  0.00     0.057 A 
ATOM     63  C   UNL A   1      44.120  32.804  32.646  1.00  0.00     0.134 A 
ATOM     64  C   UNL A   1      44.548  33.570  30.417  1.00  0.00     0.134 A 
ATOM     65  F   UNL A   1      43.808  31.838  33.522  1.00  0.00    -0.206 F 
ATOM     66  C   UNL A   1      44.292  34.101  33.132  1.00  0.00     0.040 A 
ATOM     67  C   UNL A   1      44.743  34.867  30.894  1.00  0.00     0.040 A 
ATOM     68  F   UNL A   1      44.673  33.359  29.097  1.00  0.00    -0.206 F 
ATOM     69  C   UNL A   1      44.611  35.136  32.254  1.00  0.00     0.006 A 
ENDBRANCH  48  62
BRANCH  49  70
ATOM     70  C   UNL A   1      42.653  23.455  27.420  1.00  0.00     0.057 A 
ATOM     71  C   UNL A   1      42.789  23.271  26.039  1.00  0.00     0.134 A 
ATOM     72  C   UNL A   1      42.305  22.341  28.192  1.00  0.00     0.134 A 
ATOM     73  F   UNL A   1      43.101  24.308  25.249  1.00  0.00    -0.206 F 
ATOM     74  C   UNL A   1      42.574  22.027  25.446  1.00  0.00     0.040 A 
ATOM     75  C   UNL A   1      42.106  21.087  27.613  1.00  0.00     0.040 A 
ATOM     76  F   UNL A   1      42.164  22.454  29.520  1.00  0.00    -0.206 F 
ATOM     77  C   UNL A   1      42.236  20.928  26.234  1.00  0.00     0.006 A 
ENDBRANCH  49  70
BRANCH  61  78
ATOM     78  C   UNL A   1      48.294  26.754  29.804  1.00  0.00     0.057 A 
ATOM     79  C   UNL A   1      48.788  26.017  30.888  1.00  0.00     0.134 A 
ATOM     80  C   UNL A   1      49.185  27.068  28.771  1.00  0.00     0.134 A 
ATOM     81  F   UNL A   1      47.986  25.700  31.915  1.00  0.00    -0.206 F 
ATOM     82  C   UNL A   1      50.122  25.614  30.944  1.00  0.00     0.040 A 
ATOM     83  C   UNL A   1      50.516  26.653  28.806  1.00  0.00     0.040 A 
ATOM     84  F   UNL A   1      48.770  27.767  27.703  1.00  0.00    -0.206 F 
ATOM     85  C   UNL A   1      50.988  25.925  29.897  1.00  0.00     0.006 A 
ENDBRANCH  61  78
ENDBRANCH  35  36
ENDBRANCH  27  30
ENDBRANCH  25  26
ENDBRANCH  24  25
ENDBRANCH  23  24
ENDBRANCH   1  23
TORSDOF 15
ENDMDL
MODEL 2
REMARK VINA RESULT:     -11.0      3.674      8.498
REMARK SMILES CCSc1cccc(-c2ccc([C@@H](C)C(=O)NCCCCNC(=O)c3ccc(-c4c5nc(c(-c6c(F)cccc6F)c6ccc([nH]6)c(-c6c(F)cccc6F)c6nc(c(-c7c(F)cccc7F)c7ccc4[nH]7)C=C6)C=C5)cc3)cc2)c1
REMARK SMILES IDX 18 1 17 2 15 3 16 4 13 6 14 7 12 8 9 9 10 10 80 11 11 12
REMARK SMILES IDX 79 13 8 14 4 15 5 16 81 17 6 18 7 19 3 20 2 21 1 22 19 23
REMARK SMILES IDX 20 24 21 25 22 26 23 27 24 29 25 30 26 31 78 32 27 33 77 34
REMARK SMILES IDX 28 35 29 36 30 37 71 38 31 39 76 40 70 41 72 42 32 43 75 44
REMARK SMILES IDX 69 45 68 46 33 48 59 49 42 50 58 51 43 52 46 53 57 54 73 55
REMARK SMILES IDX 44 56 45 57 56 59 74 60 47 61 34 62 35 63 40 64 36 65 37 66
REMARK SMILES IDX 39 67 41 68 38 69 60 70 61 71 66 72 62 73 63 74 65 75 67 76
REMARK SMILES IDX 64 77 48 78 49 79 54 80 50 81 51 82 53 83 55 84 52 85
REMARK H PARENT 17 5 22 28 72 47 46 58
REMARK Flexibility Score: inf
ROOT
ATOM      1  C   UNL A   1      35.339  20.078  24.684  1.00  0.00     0.116 C 
ENDROOT
BRANCH   1   2
ATOM      2  N   UNL A   1      34.340  19.267  25.346  1.00  0.00    -0.356 N 
ATOM      3  C   UNL A   1      33.000  19.148  25.132  1.00  0.00     0.227 C 
ATOM      4  O   UNL A   1      32.379  18.418  25.914  1.00  0.00    -0.274 OA
ATOM      5  H   UNL A   1      34.688  18.707  26.076  1.00  0.00     0.163 HD
BRANCH   3   6
ATOM      6  C   UNL A   1      32.257  19.855  23.987  1.00  0.00     0.105 C 
ATOM      7  C   UNL A   1      32.411  19.170  22.630  1.00  0.00     0.023 C 
BRANCH   6   8
ATOM      8  C   UNL A   1      32.428  21.366  24.011  1.00  0.00    -0.036 A 
ATOM      9  C   UNL A   1      32.935  24.171  24.227  1.00  0.00    -0.018 A 
ATOM     10  C   UNL A   1      33.042  23.498  23.000  1.00  0.00     0.009 A 
ATOM     11  C   UNL A   1      32.514  23.412  25.331  1.00  0.00     0.009 A 
ATOM     12  C   UNL A   1      32.763  22.128  22.888  1.00  0.00     0.005 A 
ATOM     13  C   UNL A   1      32.288  22.037  25.233  1.00  0.00     0.005 A 
BRANCH   9  14
ATOM     14  C   UNL A   1      33.251  25.613  24.365  1.00  0.00    -0.017 A 
ATOM     15  C   UNL A   1      33.365  27.631  25.775  1.00  0.00     0.008 A 
ATOM     16  C   UNL A   1      33.741  28.375  24.651  1.00  0.00     0.015 A 
ATOM     17  C   UNL A   1      33.161  26.256  25.619  1.00  0.00     0.023 A 
ATOM     18  C   UNL A   1      33.885  27.762  23.406  1.00  0.00     0.002 A 
ATOM     19  C   UNL A   1      33.629  26.398  23.264  1.00  0.00     0.009 A 
BRANCH  15  20
ATOM     20  S   UNL A   1      33.165  28.538  27.305  1.00  0.00    -0.126 SA
BRANCH  20  21
ATOM     21  C   UNL A   1      33.242  30.302  26.834  1.00  0.00     0.071 C 
ATOM     22  C   UNL A   1      31.872  30.915  26.596  1.00  0.00     0.016 C 
ENDBRANCH  20  21
ENDBRANCH  15  20
ENDBRANCH   9  14
ENDBRANCH   6   8
ENDBRANCH   3   6
ENDBRANCH   1   2
BRANCH   1  23
ATOM     23  C   UNL A   1      35.837  21.222  25.567  1.00  0.00     0.023 C 
BRANCH  23  24
ATOM     24  C   UNL A   1      36.246  22.486  24.816  1.00  0.00     0.023 C 
BRANCH  24  25
ATOM     25  C   UNL A   1      37.354  23.306  25.470  1.00  0.00     0.116 C 
BRANCH  25  26
ATOM     26  N   UNL A   1      38.596  22.576  25.670  1.00  0.00    -0.352 N 
ATOM     27  C   UNL A   1      39.748  23.003  26.304  1.00  0.00     0.251 C 
ATOM     28  H   UNL A   1      38.621  21.661  25.308  1.00  0.00     0.163 HD
ATOM     29  O   UNL A   1      40.740  22.302  26.346  1.00  0.00    -0.269 OA
BRANCH  27  30
ATOM     30  C   UNL A   1      39.763  24.362  26.886  1.00  0.00     0.039 A 
ATOM     31  C   UNL A   1      39.246  24.549  28.170  1.00  0.00     0.014 A 
ATOM     32  C   UNL A   1      40.370  25.418  26.201  1.00  0.00     0.014 A 
ATOM     33  C   UNL A   1      39.432  25.774  28.813  1.00  0.00     0.010 A 
ATOM     34  C   UNL A   1      40.610  26.614  26.866  1.00  0.00     0.010 A 
ATOM     35  C   UNL A   1      40.165  26.794  28.186  1.00  0.00    -0.014 A 
BRANCH  35  36
ATOM     36  C   UNL A   1      40.523  28.045  28.898  1.00  0.00     0.031 A 
ATOM     37  C   UNL A   1      41.858  28.168  29.572  1.00  0.00     0.074 A 
ATOM     38  C   UNL A   1      39.602  29.019  29.034  1.00  0.00     0.049 A 
ATOM     39  N   UNL A   1      42.297  29.108  30.368  1.00  0.00    -0.248 NA
ATOM     40  C   UNL A   1      42.814  27.074  29.343  1.00  0.00     0.031 C 
ATOM     41  C   UNL A   1      38.251  28.996  28.466  1.00  0.00     0.029 A 
ATOM     42  N   UNL A   1      39.654  30.209  29.715  1.00  0.00    -0.354 N 
ATOM     43  C   UNL A   1      43.568  28.708  30.755  1.00  0.00     0.074 A 
ATOM     44  C   UNL A   1      43.816  27.423  30.136  1.00  0.00     0.031 C 
ATOM     45  C   UNL A   1      37.609  30.124  28.814  1.00  0.00     0.029 A 
ATOM     46  C   UNL A   1      38.484  30.927  29.661  1.00  0.00     0.049 A 
ATOM     47  H   UNL A   1      40.456  30.520  30.196  1.00  0.00     0.167 HD
ATOM     48  C   UNL A   1      44.456  29.361  31.541  1.00  0.00     0.037 A 
ATOM     49  C   UNL A   1      38.147  32.092  30.245  1.00  0.00     0.037 A 
ATOM     50  C   UNL A   1      44.222  30.656  32.123  1.00  0.00     0.049 A 
ATOM     51  C   UNL A   1      39.147  32.793  31.121  1.00  0.00     0.074 A 
ATOM     52  C   UNL A   1      45.093  31.439  32.859  1.00  0.00     0.029 A 
ATOM     53  N   UNL A   1      43.028  31.356  32.035  1.00  0.00    -0.354 N 
ATOM     54  N   UNL A   1      40.369  32.434  31.427  1.00  0.00    -0.248 NA
ATOM     55  C   UNL A   1      38.717  34.056  31.739  1.00  0.00     0.031 C 
ATOM     56  C   UNL A   1      44.415  32.600  33.246  1.00  0.00     0.029 A 
ATOM     57  C   UNL A   1      43.131  32.551  32.726  1.00  0.00     0.049 A 
ATOM     58  H   UNL A   1      42.226  31.048  31.554  1.00  0.00     0.167 HD
ATOM     59  C   UNL A   1      40.859  33.429  32.261  1.00  0.00     0.074 A 
ATOM     60  C   UNL A   1      39.807  34.415  32.403  1.00  0.00     0.031 C 
ATOM     61  C   UNL A   1      42.072  33.517  32.858  1.00  0.00     0.037 A 
BRANCH  48  62
ATOM     62  C   UNL A   1      45.765  28.685  31.811  1.00  0.00     0.057 A 
ATOM     63  C   UNL A   1      46.872  28.864  30.971  1.00  0.00     0.134 A 
ATOM     64  C   UNL A   1      45.930  27.870  32.936  1.00  0.00     0.134 A 
ATOM     65  F   UNL A   1      46.773  29.624  29.870  1.00  0.00    -0.206 F 
ATOM     66  C   UNL A   1      48.091  28.236  31.229  1.00  0.00     0.040 A 
ATOM     67  C   UNL A   1      47.151  27.253  33.216  1.00  0.00     0.040 A 
ATOM     68  F   UNL A   1      44.909  27.659  33.782  1.00  0.00    -0.206 F 
ATOM     69  C   UNL A   1      48.234  27.432  32.358  1.00  0.00     0.006 A 
ENDBRANCH  48  62
BRANCH  49  70
ATOM     70  C   UNL A   1      36.801  32.673  30.020  1.00  0.00     0.057 A 
ATOM     71  C   UNL A   1      35.744  32.391  30.893  1.00  0.00     0.134 A 
ATOM     72  C   UNL A   1      36.537  33.515  28.933  1.00  0.00     0.134 A 
ATOM     73  F   UNL A   1      35.934  31.574  31.938  1.00  0.00    -0.206 F 
ATOM     74  C   UNL A   1      34.469  32.917  30.687  1.00  0.00     0.040 A 
ATOM     75  C   UNL A   1      35.271  34.064  28.727  1.00  0.00     0.040 A 
ATOM     76  F   UNL A   1      37.511  33.825  28.065  1.00  0.00    -0.206 F 
ATOM     77  C   UNL A   1      34.230  33.761  29.604  1.00  0.00     0.006 A 
ENDBRANCH  49  70
BRANCH  61  78
ATOM     78  C   UNL A   1      42.329  34.721  33.711  1.00  0.00     0.057 A 
ATOM     79  C   UNL A   1      42.856  35.900  33.171  1.00  0.00     0.134 A 
ATOM     80  C   UNL A   1      41.999  34.719  35.072  1.00  0.00     0.134 A 
ATOM     81  F   UNL A   1      43.206  35.958  31.877  1.00  0.00    -0.206 F 
ATOM     82  C   UNL A   1      43.055  37.035  33.958  1.00  0.00     0.040 A 
ATOM     83  C   UNL A   1      42.174  35.853  35.865  1.00  0.00     0.040 A 
ATOM     84  F   UNL A   1      41.485  33.621  35.647  1.00  0.00    -0.206 F 
ATOM     85  C   UNL A   1      42.706  37.015  35.308  1.00  0.00     0.006 A 
ENDBRANCH  61  78
ENDBRANCH  35  36
ENDBRANCH  27  30
ENDBRANCH  25  26
ENDBRANCH  24  25
ENDBRANCH  23  24
ENDBRANCH   1  23
TORSDOF 15
ENDMDL
MODEL 3
REMARK VINA RESULT:     -10.9      3.302      7.645
REMARK SMILES CCSc1cccc(-c2ccc([C@@H](C)C(=O)NCCCCNC(=O)c3ccc(-c4c5nc(c(-c6c(F)cccc6F)c6ccc([nH]6)c(-c6c(F)cccc6F)c6nc(c(-c7c(F)cccc7F)c7ccc4[nH]7)C=C6)C=C5)cc3)cc2)c1
REMARK SMILES IDX 18 1 17 2 15 3 16 4 13 6 14 7 12 8 9 9 10 10 80 11 11 12
REMARK SMILES IDX 79 13 8 14 4 15 5 16 81 17 6 18 7 19 3 20 2 21 1 22 19 23
REMARK SMILES IDX 20 24 21 25 22 26 23 27 24 29 25 30 26 31 78 32 27 33 77 34
REMARK SMILES IDX 28 35 29 36 30 37 71 38 31 39 76 40 70 41 72 42 32 43 75 44
REMARK SMILES IDX 69 45 68 46 33 48 59 49 42 50 58 51 43 52 46 53 57 54 73 55
REMARK SMILES IDX 44 56 45 57 56 59 74 60 47 61 34 62 35 63 40 64 36 65 37 66
REMARK SMILES IDX 39 67 41 68 38 69 60 70 61 71 66 72 62 73 63 74 65 75 67 76
REMARK SMILES IDX 64 77 48 78 49 79 54 80 50 81 51 82 53 83 55 84 52 85
REMARK H PARENT 17 5 22 28 72 47 46 58
REMARK Flexibility Score: inf
ROOT
ATOM      1  C   UNL A   1      35.358  19.578  24.553  1.00  0.00     0.116 C 
ENDROOT
BRANCH   1   2
ATOM      2  N   UNL A   1      34.354  18.858  25.307  1.00  0.00    -0.356 N 
ATOM      3  C   UNL A   1      32.998  18.819  25.182  1.00  0.00     0.227 C 
ATOM      4  O   UNL A   1      32.385  18.159  26.029  1.00  0.00    -0.274 OA
ATOM      5  H   UNL A   1      34.713  18.301  26.036  1.00  0.00     0.163 HD
BRANCH   3   6
ATOM      6  C   UNL A   1      32.229  19.534  24.059  1.00  0.00     0.105 C 
ATOM      7  C   UNL A   1      32.415  18.902  22.680  1.00  0.00     0.023 C 
BRANCH   6   8
ATOM      8  C   UNL A   1      32.337  21.048  24.136  1.00  0.00    -0.036 A 
ATOM      9  C   UNL A   1      32.687  23.864  24.484  1.00  0.00    -0.018 A 
ATOM     10  C   UNL A   1      33.062  23.219  23.295  1.00  0.00     0.009 A 
ATOM     11  C   UNL A   1      32.081  23.070  25.471  1.00  0.00     0.009 A 
ATOM     12  C   UNL A   1      32.862  21.843  23.112  1.00  0.00     0.005 A 
ATOM     13  C   UNL A   1      31.930  21.690  25.313  1.00  0.00     0.005 A 
BRANCH   9  14
ATOM     14  C   UNL A   1      32.916  25.313  24.699  1.00  0.00    -0.017 A 
ATOM     15  C   UNL A   1      32.554  27.644  23.983  1.00  0.00     0.008 A 
ATOM     16  C   UNL A   1      33.405  28.072  25.008  1.00  0.00     0.015 A 
ATOM     17  C   UNL A   1      32.297  26.273  23.869  1.00  0.00     0.023 A 
ATOM     18  C   UNL A   1      33.996  27.154  25.875  1.00  0.00     0.002 A 
ATOM     19  C   UNL A   1      33.763  25.788  25.713  1.00  0.00     0.009 A 
BRANCH  15  20
ATOM     20  S   UNL A   1      31.897  28.912  22.904  1.00  0.00    -0.126 SA
BRANCH  20  21
ATOM     21  C   UNL A   1      30.180  29.181  23.467  1.00  0.00     0.071 C 
ATOM     22  C   UNL A   1      29.266  28.000  23.179  1.00  0.00     0.016 C 
ENDBRANCH  20  21
ENDBRANCH  15  20
ENDBRANCH   9  14
ENDBRANCH   6   8
ENDBRANCH   3   6
ENDBRANCH   1   2
BRANCH   1  23
ATOM     23  C   UNL A   1      35.856  20.821  25.289  1.00  0.00     0.023 C 
BRANCH  23  24
ATOM     24  C   UNL A   1      37.159  21.408  24.754  1.00  0.00     0.023 C 
BRANCH  24  25
ATOM     25  C   UNL A   1      38.349  21.335  25.707  1.00  0.00     0.116 C 
BRANCH  25  26
ATOM     26  N   UNL A   1      39.157  20.134  25.560  1.00  0.00    -0.352 N 
ATOM     27  C   UNL A   1      40.475  19.938  25.926  1.00  0.00     0.251 C 
ATOM     28  H   UNL A   1      38.708  19.361  25.147  1.00  0.00     0.163 HD
ATOM     29  O   UNL A   1      41.046  18.892  25.687  1.00  0.00    -0.269 OA
BRANCH  27  30
ATOM     30  C   UNL A   1      41.196  21.058  26.569  1.00  0.00     0.039 A 
ATOM     31  C   UNL A   1      41.844  21.993  25.758  1.00  0.00     0.014 A 
ATOM     32  C   UNL A   1      41.146  21.228  27.954  1.00  0.00     0.014 A 
ATOM     33  C   UNL A   1      42.355  23.159  26.330  1.00  0.00     0.010 A 
ATOM     34  C   UNL A   1      41.598  22.418  28.512  1.00  0.00     0.010 A 
ATOM     35  C   UNL A   1      42.185  23.404  27.702  1.00  0.00    -0.014 A 
BRANCH  35  36
ATOM     36  C   UNL A   1      42.566  24.700  28.314  1.00  0.00     0.031 A 
ATOM     37  C   UNL A   1      41.535  25.773  28.503  1.00  0.00     0.074 A 
ATOM     38  C   UNL A   1      43.862  24.948  28.590  1.00  0.00     0.049 A 
ATOM     39  N   UNL A   1      41.696  27.017  28.873  1.00  0.00    -0.248 NA
ATOM     40  C   UNL A   1      40.141  25.405  28.209  1.00  0.00     0.031 C 
ATOM     41  C   UNL A   1      44.966  24.003  28.404  1.00  0.00     0.029 A 
ATOM     42  N   UNL A   1      44.473  26.082  29.063  1.00  0.00    -0.354 N 
ATOM     43  C   UNL A   1      40.431  27.586  28.833  1.00  0.00     0.074 A 
ATOM     44  C   UNL A   1      39.519  26.564  28.367  1.00  0.00     0.031 C 
ATOM     45  C   UNL A   1      46.116  24.593  28.769  1.00  0.00     0.029 A 
ATOM     46  C   UNL A   1      45.838  25.967  29.173  1.00  0.00     0.049 A 
ATOM     47  H   UNL A   1      43.980  26.900  29.301  1.00  0.00     0.167 HD
ATOM     48  C   UNL A   1      40.061  28.844  29.170  1.00  0.00     0.037 A 
ATOM     49  C   UNL A   1      46.763  26.873  29.541  1.00  0.00     0.037 A 
ATOM     50  C   UNL A   1      40.963  29.847  29.669  1.00  0.00     0.049 A 
ATOM     51  C   UNL A   1      46.328  28.266  29.900  1.00  0.00     0.074 A 
ATOM     52  C   UNL A   1      40.670  31.121  30.123  1.00  0.00     0.029 A 
ATOM     53  N   UNL A   1      42.337  29.688  29.778  1.00  0.00    -0.354 N 
ATOM     54  N   UNL A   1      45.120  28.773  29.918  1.00  0.00    -0.248 NA
ATOM     55  C   UNL A   1      47.385  29.213  30.283  1.00  0.00     0.031 C 
ATOM     56  C   UNL A   1      41.871  31.746  30.475  1.00  0.00     0.029 A 
ATOM     57  C   UNL A   1      42.908  30.851  30.267  1.00  0.00     0.049 A 
ATOM     58  H   UNL A   1      42.832  28.871  29.541  1.00  0.00     0.167 HD
ATOM     59  C   UNL A   1      45.268  30.092  30.324  1.00  0.00     0.074 A 
ATOM     60  C   UNL A   1      46.682  30.304  30.557  1.00  0.00     0.031 C 
ATOM     61  C   UNL A   1      44.317  31.043  30.488  1.00  0.00     0.037 A 
BRANCH  48  62
ATOM     62  C   UNL A   1      38.615  29.202  29.014  1.00  0.00     0.057 A 
ATOM     63  C   UNL A   1      37.726  29.156  30.096  1.00  0.00     0.134 A 
ATOM     64  C   UNL A   1      38.112  29.623  27.778  1.00  0.00     0.134 A 
ATOM     65  F   UNL A   1      38.144  28.748  31.303  1.00  0.00    -0.206 F 
ATOM     66  C   UNL A   1      36.380  29.495  29.947  1.00  0.00     0.040 A 
ATOM     67  C   UNL A   1      36.773  29.985  27.622  1.00  0.00     0.040 A 
ATOM     68  F   UNL A   1      38.912  29.691  26.703  1.00  0.00    -0.206 F 
ATOM     69  C   UNL A   1      35.902  29.917  28.707  1.00  0.00     0.006 A 
ENDBRANCH  48  62
BRANCH  49  70
ATOM     70  C   UNL A   1      48.196  26.493  29.587  1.00  0.00     0.057 A 
ATOM     71  C   UNL A   1      48.741  25.888  30.726  1.00  0.00     0.134 A 
ATOM     72  C   UNL A   1      49.052  26.726  28.505  1.00  0.00     0.134 A 
ATOM     73  F   UNL A   1      47.972  25.660  31.800  1.00  0.00    -0.206 F 
ATOM     74  C   UNL A   1      50.089  25.538  30.790  1.00  0.00     0.040 A 
ATOM     75  C   UNL A   1      50.399  26.363  28.549  1.00  0.00     0.040 A 
ATOM     76  F   UNL A   1      48.588  27.299  27.385  1.00  0.00    -0.206 F 
ATOM     77  C   UNL A   1      50.922  25.771  29.698  1.00  0.00     0.006 A 
ENDBRANCH  49  70
BRANCH  61  78
ATOM     78  C   UNL A   1      44.773  32.394  30.947  1.00  0.00     0.057 A 
ATOM     79  C   UNL A   1      44.961  32.680  32.304  1.00  0.00     0.134 A 
ATOM     80  C   UNL A   1      45.076  33.400  30.021  1.00  0.00     0.134 A 
ATOM     81  F   UNL A   1      44.673  31.762  33.238  1.00  0.00    -0.206 F 
ATOM     82  C   UNL A   1      45.427  33.926  32.726  1.00  0.00     0.040 A 
ATOM     83  C   UNL A   1      45.562  34.642  30.429  1.00  0.00     0.040 A 
ATOM     84  F   UNL A   1      44.922  33.184  28.705  1.00  0.00    -0.206 F 
ATOM     85  C   UNL A   1      45.736  34.908  31.786  1.00  0.00     0.006 A 
ENDBRANCH  61  78
ENDBRANCH  35  36
ENDBRANCH  27  30
ENDBRANCH  25  26
ENDBRANCH  24  25
ENDBRANCH  23  24
ENDBRANCH   1  23
TORSDOF 15
ENDMDL
