MODEL 1
REMARK VINA RESULT:     -10.9      0.000      0.000
REMARK SMILES C[C@@](O)(CNC(=O)c1ccc(Br)cc1N)CC(=O)NCCCCNC(=O)c1ccc(-c2c3nc(c(-c4c(F)cccc4F)c4ccc([nH]4)c(-c4c(F)cccc4F)c4nc(c(-c5c(F)cccc5F)c5ccc2[nH]5)C=C4)C=C3)cc1
REMARK SMILES IDX 20 1 19 2 17 3 18 4 16 6 2 7 1 8 3 9 4 11 5 12 6 13 7 15
REMARK SMILES IDX 8 16 9 17 14 18 10 19 13 20 11 21 12 22 15 23 21 26 22 27
REMARK SMILES IDX 23 28 24 29 25 30 26 32 27 33 28 34 80 35 29 36 79 37 30 38
REMARK SMILES IDX 31 39 32 40 73 41 33 42 78 43 72 44 74 45 34 46 77 47 71 48
REMARK SMILES IDX 70 49 35 51 61 52 44 53 60 54 45 55 48 56 59 57 75 58 46 59
REMARK SMILES IDX 47 60 58 62 76 63 49 64 36 65 37 66 42 67 38 68 39 69 41 70
REMARK SMILES IDX 43 71 40 72 62 73 63 74 68 75 64 76 65 77 67 78 69 79 66 80
REMARK SMILES IDX 50 81 51 82 56 83 52 84 53 85 55 86 57 87 54 88
REMARK H PARENT 19 5 3 10 5 14 15 24 15 25 24 31 74 50 48 61
REMARK Flexibility Score: inf
ROOT
ATOM      1  C   UNL A   1      33.512  28.748  22.812  1.00  0.00     0.116 C 
ENDROOT
BRANCH   1   2
ATOM      2  N   UNL A   1      33.614  27.528  21.992  1.00  0.00    -0.356 N 
ATOM      3  C   UNL A   1      32.819  26.482  21.635  1.00  0.00     0.222 C 
ATOM      4  O   UNL A   1      33.261  25.630  20.858  1.00  0.00    -0.275 OA
ATOM      5  H   UNL A   1      34.509  27.445  21.590  1.00  0.00     0.163 HD
BRANCH   3   6
ATOM      6  C   UNL A   1      31.413  26.367  22.099  1.00  0.00     0.136 C 
BRANCH   6   7
ATOM      7  C   UNL A   1      31.272  25.552  23.357  1.00  0.00     0.088 C 
ATOM      8  C   UNL A   1      30.478  26.339  24.421  1.00  0.00     0.044 C 
BRANCH   7   9
ATOM      9  O   UNL A   1      32.597  25.497  23.969  1.00  0.00    -0.388 OA
ATOM     10  H   UNL A   1      32.948  24.594  23.903  1.00  0.00     0.211 HD
ENDBRANCH   7   9
BRANCH   7  11
ATOM     11  C   UNL A   1      30.759  24.062  23.206  1.00  0.00     0.151 C 
BRANCH  11  12
ATOM     12  N   UNL A   1      31.553  22.753  23.000  1.00  0.00    -0.349 N 
ATOM     13  C   UNL A   1      32.567  21.866  23.445  1.00  0.00     0.253 C 
ATOM     14  H   UNL A   1      31.186  22.347  22.182  1.00  0.00     0.163 HD
ATOM     15  O   UNL A   1      32.306  20.680  23.171  1.00  0.00    -0.269 OA
BRANCH  13  16
ATOM     16  C   UNL A   1      33.973  22.030  24.062  1.00  0.00     0.062 A 
ATOM     17  C   UNL A   1      35.033  22.836  23.600  1.00  0.00     0.017 A 
ATOM     18  C   UNL A   1      34.242  21.422  25.306  1.00  0.00     0.045 A 
ATOM     19  C   UNL A   1      36.354  22.772  24.078  1.00  0.00     0.016 A 
ATOM     20  C   UNL A   1      35.578  21.297  25.768  1.00  0.00     0.042 A 
ATOM     21  C   UNL A   1      36.636  21.928  25.123  1.00  0.00     0.020 A 
ATOM     22  Br  UNL A   1      38.424  21.653  25.656  1.00  0.00    -0.051 Br
BRANCH  18  23
ATOM     23  N   UNL A   1      33.236  20.827  26.066  1.00  0.00    -0.398 N 
ATOM     24  H   UNL A   1      32.909  21.267  26.884  1.00  0.00     0.156 HD
ATOM     25  H   UNL A   1      32.851  19.964  25.785  1.00  0.00     0.156 HD
ENDBRANCH  18  23
ENDBRANCH  13  16
ENDBRANCH  11  12
ENDBRANCH   7  11
ENDBRANCH   6   7
ENDBRANCH   3   6
ENDBRANCH   1   2
BRANCH   1  26
ATOM     26  C   UNL A   1      33.358  28.944  24.442  1.00  0.00     0.023 C 
BRANCH  26  27
ATOM     27  C   UNL A   1      33.889  28.296  25.834  1.00  0.00     0.023 C 
BRANCH  27  28
ATOM     28  C   UNL A   1      33.521  28.615  27.327  1.00  0.00     0.116 C 
BRANCH  28  29
ATOM     29  N   UNL A   1      33.536  30.011  27.725  1.00  0.00    -0.352 N 
ATOM     30  C   UNL A   1      34.595  30.766  28.187  1.00  0.00     0.251 C 
ATOM     31  H   UNL A   1      32.674  30.483  27.657  1.00  0.00     0.163 HD
ATOM     32  O   UNL A   1      34.407  31.951  28.478  1.00  0.00    -0.269 OA
BRANCH  30  33
ATOM     33  C   UNL A   1      35.939  30.179  28.425  1.00  0.00     0.039 A 
ATOM     34  C   UNL A   1      36.299  29.573  29.631  1.00  0.00     0.014 A 
ATOM     35  C   UNL A   1      36.852  30.176  27.361  1.00  0.00     0.014 A 
ATOM     36  C   UNL A   1      37.603  29.074  29.804  1.00  0.00     0.010 A 
ATOM     37  C   UNL A   1      38.142  29.654  27.527  1.00  0.00     0.010 A 
ATOM     38  C   UNL A   1      38.551  29.138  28.768  1.00  0.00    -0.014 A 
BRANCH  38  39
ATOM     39  C   UNL A   1      39.973  28.728  28.981  1.00  0.00     0.031 A 
ATOM     40  C   UNL A   1      40.945  29.679  29.641  1.00  0.00     0.074 A 
ATOM     41  C   UNL A   1      40.412  27.515  28.590  1.00  0.00     0.049 A 
ATOM     42  N   UNL A   1      42.225  29.534  29.880  1.00  0.00    -0.248 NA
ATOM     43  C   UNL A   1      40.399  30.972  30.080  1.00  0.00     0.031 C 
ATOM     44  C   UNL A   1      39.593  26.491  27.945  1.00  0.00     0.029 A 
ATOM     45  N   UNL A   1      41.658  26.940  28.677  1.00  0.00    -0.354 N 
ATOM     46  C   UNL A   1      42.638  30.715  30.488  1.00  0.00     0.074 A 
ATOM     47  C   UNL A   1      41.481  31.584  30.539  1.00  0.00     0.031 C 
ATOM     48  C   UNL A   1      40.351  25.405  27.713  1.00  0.00     0.029 A 
ATOM     49  C   UNL A   1      41.720  25.672  28.148  1.00  0.00     0.049 A 
ATOM     50  H   UNL A   1      42.434  27.394  29.080  1.00  0.00     0.167 HD
ATOM     51  C   UNL A   1      43.862  31.047  30.974  1.00  0.00     0.037 A 
ATOM     52  C   UNL A   1      42.761  24.828  28.010  1.00  0.00     0.037 A 
ATOM     53  C   UNL A   1      45.018  30.188  30.924  1.00  0.00     0.049 A 
ATOM     54  C   UNL A   1      44.125  25.244  28.492  1.00  0.00     0.074 A 
ATOM     55  C   UNL A   1      46.294  30.427  31.410  1.00  0.00     0.029 A 
ATOM     56  N   UNL A   1      45.044  28.928  30.344  1.00  0.00    -0.354 N 
ATOM     57  N   UNL A   1      44.492  26.351  29.090  1.00  0.00    -0.248 NA
ATOM     58  C   UNL A   1      45.223  24.290  28.274  1.00  0.00     0.031 C 
ATOM     59  C   UNL A   1      47.103  29.336  31.073  1.00  0.00     0.029 A 
ATOM     60  C   UNL A   1      46.319  28.389  30.434  1.00  0.00     0.049 A 
ATOM     61  H   UNL A   1      44.271  28.482  29.930  1.00  0.00     0.167 HD
ATOM     62  C   UNL A   1      45.852  26.215  29.346  1.00  0.00     0.074 A 
ATOM     63  C   UNL A   1      46.242  24.910  28.852  1.00  0.00     0.031 C 
ATOM     64  C   UNL A   1      46.700  27.091  29.940  1.00  0.00     0.037 A 
BRANCH  51  65
ATOM     65  C   UNL A   1      44.015  32.414  31.585  1.00  0.00     0.057 A 
ATOM     66  C   UNL A   1      44.383  33.514  30.796  1.00  0.00     0.134 A 
ATOM     67  C   UNL A   1      43.816  32.646  32.953  1.00  0.00     0.134 A 
ATOM     68  F   UNL A   1      44.605  33.366  29.481  1.00  0.00    -0.206 F 
ATOM     69  C   UNL A   1      44.536  34.790  31.343  1.00  0.00     0.040 A 
ATOM     70  C   UNL A   1      43.935  33.924  33.506  1.00  0.00     0.040 A 
ATOM     71  F   UNL A   1      43.456  31.642  33.767  1.00  0.00    -0.206 F 
ATOM     72  C   UNL A   1      44.301  34.999  32.700  1.00  0.00     0.006 A 
ENDBRANCH  51  65
BRANCH  52  73
ATOM     73  C   UNL A   1      42.562  23.496  27.381  1.00  0.00     0.057 A 
ATOM     74  C   UNL A   1      42.692  23.315  25.998  1.00  0.00     0.134 A 
ATOM     75  C   UNL A   1      42.260  22.367  28.152  1.00  0.00     0.134 A 
ATOM     76  F   UNL A   1      42.983  24.354  25.203  1.00  0.00    -0.206 F 
ATOM     77  C   UNL A   1      42.517  22.064  25.404  1.00  0.00     0.040 A 
ATOM     78  C   UNL A   1      42.111  21.104  27.574  1.00  0.00     0.040 A 
ATOM     79  F   UNL A   1      42.149  22.469  29.484  1.00  0.00    -0.206 F 
ATOM     80  C   UNL A   1      42.234  20.952  26.194  1.00  0.00     0.006 A 
ENDBRANCH  52  73
BRANCH  64  81
ATOM     81  C   UNL A   1      48.124  26.648  30.128  1.00  0.00     0.057 A 
ATOM     82  C   UNL A   1      48.497  25.914  31.263  1.00  0.00     0.134 A 
ATOM     83  C   UNL A   1      49.130  26.955  29.202  1.00  0.00     0.134 A 
ATOM     84  F   UNL A   1      47.588  25.593  32.196  1.00  0.00    -0.206 F 
ATOM     85  C   UNL A   1      49.814  25.502  31.468  1.00  0.00     0.040 A 
ATOM     86  C   UNL A   1      50.446  26.521  29.381  1.00  0.00     0.040 A 
ATOM     87  F   UNL A   1      48.840  27.642  28.086  1.00  0.00    -0.206 F 
ATOM     88  C   UNL A   1      50.792  25.797  30.520  1.00  0.00     0.006 A 
ENDBRANCH  64  81
ENDBRANCH  38  39
ENDBRANCH  30  33
ENDBRANCH  28  29
ENDBRANCH  27  28
ENDBRANCH  26  27
ENDBRANCH   1  26
TORSDOF 17
ENDMDL
MODEL 2
REMARK VINA RESULT:     -10.5      1.364      2.289
REMARK SMILES C[C@@](O)(CNC(=O)c1ccc(Br)cc1N)CC(=O)NCCCCNC(=O)c1ccc(-c2c3nc(c(-c4c(F)cccc4F)c4ccc([nH]4)c(-c4c(F)cccc4F)c4nc(c(-c5c(F)cccc5F)c5ccc2[nH]5)C=C4)C=C3)cc1
REMARK SMILES IDX 20 1 19 2 17 3 18 4 16 6 2 7 1 8 3 9 4 11 5 12 6 13 7 15
REMARK SMILES IDX 8 16 9 17 14 18 10 19 13 20 11 21 12 22 15 23 21 26 22 27
REMARK SMILES IDX 23 28 24 29 25 30 26 32 27 33 28 34 80 35 29 36 79 37 30 38
REMARK SMILES IDX 31 39 32 40 73 41 33 42 78 43 72 44 74 45 34 46 77 47 71 48
REMARK SMILES IDX 70 49 35 51 61 52 44 53 60 54 45 55 48 56 59 57 75 58 46 59
REMARK SMILES IDX 47 60 58 62 76 63 49 64 36 65 37 66 42 67 38 68 39 69 41 70
REMARK SMILES IDX 43 71 40 72 62 73 63 74 68 75 64 76 65 77 67 78 69 79 66 80
REMARK SMILES IDX 50 81 51 82 56 83 52 84 53 85 55 86 57 87 54 88
REMARK H PARENT 19 5 3 10 5 14 15 24 15 25 24 31 74 50 48 61
REMARK Flexibility Score: inf
ROOT
ATOM      1  C   UNL A   1      33.062  28.737  23.259  1.00  0.00     0.116 C 
ENDROOT
BRANCH   1   2
ATOM      2  N   UNL A   1      33.127  27.752  22.165  1.00  0.00    -0.356 N 
ATOM      3  C   UNL A   1      33.364  26.420  22.018  1.00  0.00     0.222 C 
ATOM      4  O   UNL A   1      33.286  25.916  20.894  1.00  0.00    -0.275 OA
ATOM      5  H   UNL A   1      32.950  28.177  21.295  1.00  0.00     0.163 HD
BRANCH   3   6
ATOM      6  C   UNL A   1      33.651  25.538  23.179  1.00  0.00     0.136 C 
BRANCH   6   7
ATOM      7  C   UNL A   1      32.428  24.828  23.697  1.00  0.00     0.088 C 
ATOM      8  C   UNL A   1      32.240  23.481  22.967  1.00  0.00     0.044 C 
BRANCH   7   9
ATOM      9  O   UNL A   1      31.273  25.581  23.216  1.00  0.00    -0.388 OA
ATOM     10  H   UNL A   1      31.520  26.512  23.096  1.00  0.00     0.211 HD
ENDBRANCH   7   9
BRANCH   7  11
ATOM     11  C   UNL A   1      32.280  24.686  25.266  1.00  0.00     0.151 C 
BRANCH  11  12
ATOM     12  N   UNL A   1      32.516  23.464  26.181  1.00  0.00    -0.349 N 
ATOM     13  C   UNL A   1      33.093  22.181  26.367  1.00  0.00     0.253 C 
ATOM     14  H   UNL A   1      32.054  23.671  27.025  1.00  0.00     0.163 HD
ATOM     15  O   UNL A   1      33.428  21.983  27.550  1.00  0.00    -0.269 OA
BRANCH  13  16
ATOM     16  C   UNL A   1      33.277  20.924  25.487  1.00  0.00     0.062 A 
ATOM     17  C   UNL A   1      32.304  20.254  24.720  1.00  0.00     0.017 A 
ATOM     18  C   UNL A   1      34.580  20.420  25.293  1.00  0.00     0.045 A 
ATOM     19  C   UNL A   1      32.485  18.994  24.121  1.00  0.00     0.016 A 
ATOM     20  C   UNL A   1      34.771  19.123  24.747  1.00  0.00     0.042 A 
ATOM     21  C   UNL A   1      33.716  18.394  24.211  1.00  0.00     0.020 A 
ATOM     22  Br  UNL A   1      33.945  16.621  23.609  1.00  0.00    -0.051 Br
BRANCH  18  23
ATOM     23  N   UNL A   1      35.709  21.112  25.728  1.00  0.00    -0.398 N 
ATOM     24  H   UNL A   1      36.063  21.861  25.196  1.00  0.00     0.156 HD
ATOM     25  H   UNL A   1      36.154  20.852  26.568  1.00  0.00     0.156 HD
ENDBRANCH  18  23
ENDBRANCH  13  16
ENDBRANCH  11  12
ENDBRANCH   7  11
ENDBRANCH   6   7
ENDBRANCH   3   6
ENDBRANCH   1   2
BRANCH   1  26
ATOM     26  C   UNL A   1      32.249  28.704  24.694  1.00  0.00     0.023 C 
BRANCH  26  27
ATOM     27  C   UNL A   1      32.495  28.352  26.261  1.00  0.00     0.023 C 
BRANCH  27  28
ATOM     28  C   UNL A   1      33.670  28.727  27.231  1.00  0.00     0.116 C 
BRANCH  28  29
ATOM     29  N   UNL A   1      33.646  30.058  27.813  1.00  0.00    -0.352 N 
ATOM     30  C   UNL A   1      34.677  30.764  28.396  1.00  0.00     0.251 C 
ATOM     31  H   UNL A   1      32.775  30.518  27.787  1.00  0.00     0.163 HD
ATOM     32  O   UNL A   1      34.457  31.896  28.839  1.00  0.00    -0.269 OA
BRANCH  30  33
ATOM     33  C   UNL A   1      36.029  30.176  28.587  1.00  0.00     0.039 A 
ATOM     34  C   UNL A   1      36.409  29.510  29.755  1.00  0.00     0.014 A 
ATOM     35  C   UNL A   1      36.929  30.238  27.513  1.00  0.00     0.014 A 
ATOM     36  C   UNL A   1      37.718  29.014  29.886  1.00  0.00     0.010 A 
ATOM     37  C   UNL A   1      38.224  29.718  27.636  1.00  0.00     0.010 A 
ATOM     38  C   UNL A   1      38.653  29.141  28.842  1.00  0.00    -0.014 A 
BRANCH  38  39
ATOM     39  C   UNL A   1      40.080  28.731  29.017  1.00  0.00     0.031 A 
ATOM     40  C   UNL A   1      41.071  29.687  29.641  1.00  0.00     0.074 A 
ATOM     41  C   UNL A   1      40.507  27.516  28.622  1.00  0.00     0.049 A 
ATOM     42  N   UNL A   1      42.358  29.544  29.844  1.00  0.00    -0.248 NA
ATOM     43  C   UNL A   1      40.539  30.983  30.087  1.00  0.00     0.031 C 
ATOM     44  C   UNL A   1      39.670  26.487  28.008  1.00  0.00     0.029 A 
ATOM     45  N   UNL A   1      41.756  26.941  28.676  1.00  0.00    -0.354 N 
ATOM     46  C   UNL A   1      42.789  30.729  30.431  1.00  0.00     0.074 A 
ATOM     47  C   UNL A   1      41.634  31.598  30.510  1.00  0.00     0.031 C 
ATOM     48  C   UNL A   1      40.421  25.400  27.762  1.00  0.00     0.029 A 
ATOM     49  C   UNL A   1      41.802  25.670  28.154  1.00  0.00     0.049 A 
ATOM     50  H   UNL A   1      42.543  27.397  29.053  1.00  0.00     0.167 HD
ATOM     51  C   UNL A   1      44.026  31.064  30.878  1.00  0.00     0.037 A 
ATOM     52  C   UNL A   1      42.838  24.824  27.991  1.00  0.00     0.037 A 
ATOM     53  C   UNL A   1      45.181  30.204  30.800  1.00  0.00     0.049 A 
ATOM     54  C   UNL A   1      44.216  25.243  28.429  1.00  0.00     0.074 A 
ATOM     55  C   UNL A   1      46.471  30.446  31.247  1.00  0.00     0.029 A 
ATOM     56  N   UNL A   1      45.190  28.940  30.229  1.00  0.00    -0.354 N 
ATOM     57  N   UNL A   1      44.601  26.355  29.009  1.00  0.00    -0.248 NA
ATOM     58  C   UNL A   1      45.307  24.287  28.186  1.00  0.00     0.031 C 
ATOM     59  C   UNL A   1      47.269  29.352  30.893  1.00  0.00     0.029 A 
ATOM     60  C   UNL A   1      46.466  28.402  30.285  1.00  0.00     0.049 A 
ATOM     61  H   UNL A   1      44.404  28.492  29.840  1.00  0.00     0.167 HD
ATOM     62  C   UNL A   1      45.968  26.220  29.226  1.00  0.00     0.074 A 
ATOM     63  C   UNL A   1      46.342  24.911  28.729  1.00  0.00     0.031 C 
ATOM     64  C   UNL A   1      46.833  27.100  29.789  1.00  0.00     0.037 A 
BRANCH  51  65
ATOM     65  C   UNL A   1      44.198  32.435  31.475  1.00  0.00     0.057 A 
ATOM     66  C   UNL A   1      44.016  32.646  32.849  1.00  0.00     0.134 A 
ATOM     67  C   UNL A   1      44.526  33.551  30.694  1.00  0.00     0.134 A 
ATOM     68  F   UNL A   1      43.686  31.628  33.658  1.00  0.00    -0.206 F 
ATOM     69  C   UNL A   1      44.165  33.911  33.422  1.00  0.00     0.040 A 
ATOM     70  C   UNL A   1      44.708  34.816  31.260  1.00  0.00     0.040 A 
ATOM     71  F   UNL A   1      44.721  33.423  29.372  1.00  0.00    -0.206 F 
ATOM     72  C   UNL A   1      44.523  34.998  32.629  1.00  0.00     0.006 A 
ENDBRANCH  51  65
BRANCH  52  73
ATOM     73  C   UNL A   1      42.621  23.488  27.377  1.00  0.00     0.057 A 
ATOM     74  C   UNL A   1      42.252  22.380  28.150  1.00  0.00     0.134 A 
ATOM     75  C   UNL A   1      42.754  23.294  25.997  1.00  0.00     0.134 A 
ATOM     76  F   UNL A   1      42.105  22.499  29.477  1.00  0.00    -0.206 F 
ATOM     77  C   UNL A   1      42.038  21.126  27.576  1.00  0.00     0.040 A 
ATOM     78  C   UNL A   1      42.514  22.052  25.405  1.00  0.00     0.040 A 
ATOM     79  F   UNL A   1      43.078  24.321  25.198  1.00  0.00    -0.206 F 
ATOM     80  C   UNL A   1      42.160  20.961  26.198  1.00  0.00     0.006 A 
ENDBRANCH  52  73
BRANCH  64  81
ATOM     81  C   UNL A   1      48.262  26.658  29.938  1.00  0.00     0.057 A 
ATOM     82  C   UNL A   1      49.207  26.959  28.948  1.00  0.00     0.134 A 
ATOM     83  C   UNL A   1      48.704  25.925  31.048  1.00  0.00     0.134 A 
ATOM     84  F   UNL A   1      48.851  27.648  27.853  1.00  0.00    -0.206 F 
ATOM     85  C   UNL A   1      50.537  26.549  29.056  1.00  0.00     0.040 A 
ATOM     86  C   UNL A   1      50.039  25.537  31.183  1.00  0.00     0.040 A 
ATOM     87  F   UNL A   1      47.855  25.615  32.040  1.00  0.00    -0.206 F 
ATOM     88  C   UNL A   1      50.958  25.844  30.181  1.00  0.00     0.006 A 
ENDBRANCH  64  81
ENDBRANCH  38  39
ENDBRANCH  30  33
ENDBRANCH  28  29
ENDBRANCH  27  28
ENDBRANCH  26  27
ENDBRANCH   1  26
TORSDOF 17
ENDMDL
MODEL 3
REMARK VINA RESULT:     -10.5      3.067      7.650
REMARK SMILES C[C@@](O)(CNC(=O)c1ccc(Br)cc1N)CC(=O)NCCCCNC(=O)c1ccc(-c2c3nc(c(-c4c(F)cccc4F)c4ccc([nH]4)c(-c4c(F)cccc4F)c4nc(c(-c5c(F)cccc5F)c5ccc2[nH]5)C=C4)C=C3)cc1
REMARK SMILES IDX 20 1 19 2 17 3 18 4 16 6 2 7 1 8 3 9 4 11 5 12 6 13 7 15
REMARK SMILES IDX 8 16 9 17 14 18 10 19 13 20 11 21 12 22 15 23 21 26 22 27
REMARK SMILES IDX 23 28 24 29 25 30 26 32 27 33 28 34 80 35 29 36 79 37 30 38
REMARK SMILES IDX 31 39 32 40 73 41 33 42 78 43 72 44 74 45 34 46 77 47 71 48
REMARK SMILES IDX 70 49 35 51 61 52 44 53 60 54 45 55 48 56 59 57 75 58 46 59
REMARK SMILES IDX 47 60 58 62 76 63 49 64 36 65 37 66 42 67 38 68 39 69 41 70
REMARK SMILES IDX 43 71 40 72 62 73 63 74 68 75 64 76 65 77 67 78 69 79 66 80
REMARK SMILES IDX 50 81 51 82 56 83 52 84 53 85 55 86 57 87 54 88
REMARK H PARENT 19 5 3 10 5 14 15 24 15 25 24 31 74 50 48 61
REMARK Flexibility Score: inf
ROOT
ATOM      1  C   UNL A   1      35.437  21.198  25.452  1.00  0.00     0.116 C 
ENDROOT
BRANCH   1   2
ATOM      2  N   UNL A   1      34.128  20.522  25.437  1.00  0.00    -0.356 N 
ATOM      3  C   UNL A   1      32.956  20.605  24.750  1.00  0.00     0.222 C 
ATOM      4  O   UNL A   1      32.054  19.800  25.001  1.00  0.00    -0.275 OA
ATOM      5  H   UNL A   1      34.090  19.809  26.115  1.00  0.00     0.163 HD
BRANCH   3   6
ATOM      6  C   UNL A   1      32.749  21.594  23.662  1.00  0.00     0.136 C 
BRANCH   6   7
ATOM      7  C   UNL A   1      32.242  22.922  24.159  1.00  0.00     0.088 C 
ATOM      8  C   UNL A   1      33.386  23.957  24.188  1.00  0.00     0.044 C 
BRANCH   7   9
ATOM      9  O   UNL A   1      31.967  22.756  25.584  1.00  0.00    -0.388 OA
ATOM     10  H   UNL A   1      31.870  21.812  25.788  1.00  0.00     0.211 HD
ENDBRANCH   7   9
BRANCH   7  11
ATOM     11  C   UNL A   1      30.929  23.497  23.488  1.00  0.00     0.151 C 
BRANCH  11  12
ATOM     12  N   UNL A   1      30.048  24.699  23.895  1.00  0.00    -0.349 N 
ATOM     13  C   UNL A   1      29.949  26.078  24.212  1.00  0.00     0.253 C 
ATOM     14  H   UNL A   1      29.133  24.343  23.970  1.00  0.00     0.163 HD
ATOM     15  O   UNL A   1      28.856  26.562  23.864  1.00  0.00    -0.269 OA
BRANCH  13  16
ATOM     16  C   UNL A   1      30.811  27.086  25.004  1.00  0.00     0.062 A 
ATOM     17  C   UNL A   1      31.028  28.449  24.721  1.00  0.00     0.017 A 
ATOM     18  C   UNL A   1      31.368  26.680  26.234  1.00  0.00     0.045 A 
ATOM     19  C   UNL A   1      31.995  29.253  25.351  1.00  0.00     0.016 A 
ATOM     20  C   UNL A   1      32.390  27.452  26.847  1.00  0.00     0.042 A 
ATOM     21  C   UNL A   1      32.736  28.713  26.372  1.00  0.00     0.020 A 
ATOM     22  Br  UNL A   1      34.181  29.680  27.102  1.00  0.00    -0.051 Br
BRANCH  18  23
ATOM     23  N   UNL A   1      31.029  25.466  26.830  1.00  0.00    -0.398 N 
ATOM     24  H   UNL A   1      31.427  24.627  26.503  1.00  0.00     0.156 HD
ATOM     25  H   UNL A   1      30.389  25.447  27.580  1.00  0.00     0.156 HD
ENDBRANCH  18  23
ENDBRANCH  13  16
ENDBRANCH  11  12
ENDBRANCH   7  11
ENDBRANCH   6   7
ENDBRANCH   3   6
ENDBRANCH   1   2
BRANCH   1  26
ATOM     26  C   UNL A   1      36.875  20.783  24.760  1.00  0.00     0.023 C 
BRANCH  26  27
ATOM     27  C   UNL A   1      38.136  19.787  25.001  1.00  0.00     0.023 C 
BRANCH  27  28
ATOM     28  C   UNL A   1      39.355  19.886  25.984  1.00  0.00     0.116 C 
BRANCH  28  29
ATOM     29  N   UNL A   1      40.429  18.925  25.802  1.00  0.00    -0.352 N 
ATOM     30  C   UNL A   1      41.785  19.100  25.990  1.00  0.00     0.251 C 
ATOM     31  H   UNL A   1      40.152  18.029  25.503  1.00  0.00     0.163 HD
ATOM     32  O   UNL A   1      42.548  18.153  25.780  1.00  0.00    -0.269 OA
BRANCH  30  33
ATOM     33  C   UNL A   1      42.369  20.416  26.358  1.00  0.00     0.039 A 
ATOM     34  C   UNL A   1      42.291  20.946  27.649  1.00  0.00     0.014 A 
ATOM     35  C   UNL A   1      43.087  21.113  25.376  1.00  0.00     0.014 A 
ATOM     36  C   UNL A   1      42.829  22.217  27.919  1.00  0.00     0.010 A 
ATOM     37  C   UNL A   1      43.647  22.368  25.655  1.00  0.00     0.010 A 
ATOM     38  C   UNL A   1      43.484  22.959  26.919  1.00  0.00    -0.014 A 
BRANCH  38  39
ATOM     39  C   UNL A   1      43.946  24.360  27.160  1.00  0.00     0.031 A 
ATOM     40  C   UNL A   1      42.955  25.425  27.569  1.00  0.00     0.074 A 
ATOM     41  C   UNL A   1      45.244  24.697  27.017  1.00  0.00     0.049 A 
ATOM     42  N   UNL A   1      43.143  26.704  27.785  1.00  0.00    -0.248 NA
ATOM     43  C   UNL A   1      41.562  24.989  27.747  1.00  0.00     0.031 C 
ATOM     44  C   UNL A   1      46.314  23.781  26.633  1.00  0.00     0.029 A 
ATOM     45  N   UNL A   1      45.880  25.906  27.176  1.00  0.00    -0.354 N 
ATOM     46  C   UNL A   1      41.896  27.225  28.116  1.00  0.00     0.074 A 
ATOM     47  C   UNL A   1      40.951  26.132  28.026  1.00  0.00     0.031 C 
ATOM     48  C   UNL A   1      47.478  24.453  26.606  1.00  0.00     0.029 A 
ATOM     49  C   UNL A   1      47.230  25.857  26.923  1.00  0.00     0.049 A 
ATOM     50  H   UNL A   1      45.412  26.730  27.445  1.00  0.00     0.167 HD
ATOM     51  C   UNL A   1      41.563  28.491  28.475  1.00  0.00     0.037 A 
ATOM     52  C   UNL A   1      48.161  26.832  26.926  1.00  0.00     0.037 A 
ATOM     53  C   UNL A   1      42.498  29.585  28.563  1.00  0.00     0.049 A 
ATOM     54  C   UNL A   1      47.758  28.244  27.258  1.00  0.00     0.074 A 
ATOM     55  C   UNL A   1      42.261  30.898  28.940  1.00  0.00     0.029 A 
ATOM     56  N   UNL A   1      43.849  29.498  28.260  1.00  0.00    -0.354 N 
ATOM     57  N   UNL A   1      46.581  28.713  27.596  1.00  0.00    -0.248 NA
ATOM     58  C   UNL A   1      48.816  29.264  27.205  1.00  0.00     0.031 C 
ATOM     59  C   UNL A   1      43.455  31.615  28.809  1.00  0.00     0.029 A 
ATOM     60  C   UNL A   1      44.452  30.738  28.413  1.00  0.00     0.049 A 
ATOM     61  H   UNL A   1      44.312  28.676  27.978  1.00  0.00     0.167 HD
ATOM     62  C   UNL A   1      46.763  30.073  27.824  1.00  0.00     0.074 A 
ATOM     63  C   UNL A   1      48.168  30.350  27.601  1.00  0.00     0.031 C 
ATOM     64  C   UNL A   1      45.850  31.006  28.189  1.00  0.00     0.037 A 
BRANCH  51  65
ATOM     65  C   UNL A   1      40.115  28.766  28.778  1.00  0.00     0.057 A 
ATOM     66  C   UNL A   1      39.236  29.174  27.766  1.00  0.00     0.134 A 
ATOM     67  C   UNL A   1      39.589  28.643  30.072  1.00  0.00     0.134 A 
ATOM     68  F   UNL A   1      39.671  29.328  26.505  1.00  0.00    -0.206 F 
ATOM     69  C   UNL A   1      37.889  29.440  28.026  1.00  0.00     0.040 A 
ATOM     70  C   UNL A   1      38.237  28.875  30.339  1.00  0.00     0.040 A 
ATOM     71  F   UNL A   1      40.370  28.250  31.089  1.00  0.00    -0.206 F 
ATOM     72  C   UNL A   1      37.384  29.279  29.314  1.00  0.00     0.006 A 
ENDBRANCH  51  65
BRANCH  52  73
ATOM     73  C   UNL A   1      49.575  26.514  26.599  1.00  0.00     0.057 A 
ATOM     74  C   UNL A   1      50.471  26.072  27.580  1.00  0.00     0.134 A 
ATOM     75  C   UNL A   1      50.058  26.622  25.289  1.00  0.00     0.134 A 
ATOM     76  F   UNL A   1      50.072  25.944  28.853  1.00  0.00    -0.206 F 
ATOM     77  C   UNL A   1      51.797  25.762  27.275  1.00  0.00     0.040 A 
ATOM     78  C   UNL A   1      51.375  26.287  24.964  1.00  0.00     0.040 A 
ATOM     79  F   UNL A   1      49.243  27.013  24.299  1.00  0.00    -0.206 F 
ATOM     80  C   UNL A   1      52.250  25.862  25.961  1.00  0.00     0.006 A 
ENDBRANCH  52  73
BRANCH  64  81
ATOM     81  C   UNL A   1      46.349  32.406  28.413  1.00  0.00     0.057 A 
ATOM     82  C   UNL A   1      46.389  33.325  27.355  1.00  0.00     0.134 A 
ATOM     83  C   UNL A   1      46.804  32.845  29.663  1.00  0.00     0.134 A 
ATOM     84  F   UNL A   1      45.978  32.971  26.128  1.00  0.00    -0.206 F 
ATOM     85  C   UNL A   1      46.860  34.627  27.533  1.00  0.00     0.040 A 
ATOM     86  C   UNL A   1      47.249  34.155  29.861  1.00  0.00     0.040 A 
ATOM     87  F   UNL A   1      46.781  32.022  30.723  1.00  0.00    -0.206 F 
ATOM     88  C   UNL A   1      47.283  35.048  28.792  1.00  0.00     0.006 A 
ENDBRANCH  64  81
ENDBRANCH  38  39
ENDBRANCH  30  33
ENDBRANCH  28  29
ENDBRANCH  27  28
ENDBRANCH  26  27
ENDBRANCH   1  26
TORSDOF 17
ENDMDL
