MODEL 1
REMARK VINA RESULT:     -13.1      0.000      0.000
REMARK SMILES Cc1cccc2c1[C@H]1c3c(C)cccc3[C@H](CC(=O)NCCCCNC(=O)c3ccc(-c4c5nc(c(-c6c(F)cccc6F)c6ccc([nH]6)c(-c6c(F)cccc6F)c6nc(c(-c7c(F)cccc7F)c7ccc4[nH]7)C=C6)C=C5)cc3)C[C@H]1CC2
REMARK SMILES IDX 23 1 22 2 21 3 20 4 18 5 19 6 17 8 16 9 1 10 2 11 3 12 7 13
REMARK SMILES IDX 4 14 6 15 8 16 5 17 85 18 9 19 83 20 84 21 10 22 15 23 82 24
REMARK SMILES IDX 12 25 11 26 14 27 13 28 24 29 25 30 26 31 27 33 28 34 29 35
REMARK SMILES IDX 81 36 30 37 80 38 31 39 32 40 33 41 74 42 34 43 79 44 73 45
REMARK SMILES IDX 75 46 35 47 78 48 72 49 71 50 36 52 62 53 45 54 61 55 46 56
REMARK SMILES IDX 49 57 60 58 76 59 47 60 48 61 59 63 77 64 50 65 37 66 38 67
REMARK SMILES IDX 43 68 39 69 40 70 42 71 44 72 41 73 63 74 64 75 69 76 65 77
REMARK SMILES IDX 66 78 68 79 70 80 67 81 51 82 52 83 57 84 53 85 54 86 56 87
REMARK SMILES IDX 58 88 55 89
REMARK H PARENT 20 7 25 32 75 51 49 62
REMARK Flexibility Score: inf
ROOT
ATOM      1  C   UNL A   1      33.034  28.868  25.867  1.00  0.00     0.023 C 
ENDROOT
BRANCH   1   2
ATOM      2  C   UNL A   1      33.926  28.345  24.749  1.00  0.00     0.023 C 
BRANCH   2   3
ATOM      3  C   UNL A   1      33.594  28.894  23.360  1.00  0.00     0.116 C 
BRANCH   3   4
ATOM      4  N   UNL A   1      32.210  29.328  23.236  1.00  0.00    -0.356 N 
ATOM      5  C   UNL A   1      31.038  28.718  22.937  1.00  0.00     0.220 C 
ATOM      6  O   UNL A   1      30.030  29.430  23.053  1.00  0.00    -0.275 OA
ATOM      7  H   UNL A   1      32.101  30.291  23.409  1.00  0.00     0.163 HD
BRANCH   5   8
ATOM      8  C   UNL A   1      30.859  27.298  22.391  1.00  0.00     0.108 C 
BRANCH   8   9
ATOM      9  C   UNL A   1      31.677  26.134  22.960  1.00  0.00     0.029 C 
ATOM     10  C   UNL A   1      32.153  20.241  23.394  1.00  0.00     0.044 C 
ATOM     11  C   UNL A   1      33.369  20.891  24.001  1.00  0.00    -0.047 A 
ATOM     12  C   UNL A   1      34.314  20.056  24.626  1.00  0.00     0.004 A 
ATOM     13  C   UNL A   1      33.624  22.280  23.894  1.00  0.00    -0.034 A 
ATOM     14  C   UNL A   1      35.518  20.564  25.104  1.00  0.00     0.001 A 
ATOM     15  C   UNL A   1      34.927  22.734  24.213  1.00  0.00    -0.044 A 
ATOM     16  C   UNL A   1      32.557  23.279  23.417  1.00  0.00     0.053 C 
ATOM     17  C   UNL A   1      35.840  21.889  24.863  1.00  0.00     0.004 A 
ATOM     18  C   UNL A   1      35.469  24.038  23.694  1.00  0.00     0.036 C 
ATOM     19  C   UNL A   1      31.670  24.029  24.474  1.00  0.00    -0.034 A 
ATOM     20  C   UNL A   1      33.254  24.254  22.441  1.00  0.00     0.002 C 
ATOM     21  C   UNL A   1      34.404  24.974  23.170  1.00  0.00     0.009 C 
ATOM     22  C   UNL A   1      31.258  23.470  25.719  1.00  0.00    -0.047 A 
ATOM     23  C   UNL A   1      31.107  25.310  24.114  1.00  0.00    -0.040 A 
ATOM     24  C   UNL A   1      32.222  25.229  21.854  1.00  0.00     0.013 C 
ATOM     25  C   UNL A   1      30.277  24.120  26.501  1.00  0.00     0.004 A 
ATOM     26  C   UNL A   1      31.788  22.204  26.333  1.00  0.00     0.044 C 
ATOM     27  C   UNL A   1      30.117  25.903  24.926  1.00  0.00     0.004 A 
ATOM     28  C   UNL A   1      29.696  25.309  26.102  1.00  0.00     0.001 A 
ENDBRANCH   8   9
ENDBRANCH   5   8
ENDBRANCH   3   4
ENDBRANCH   2   3
ENDBRANCH   1   2
BRANCH   1  29
ATOM     29  C   UNL A   1      33.694  28.898  27.242  1.00  0.00     0.116 C 
BRANCH  29  30
ATOM     30  N   UNL A   1      33.778  30.225  27.842  1.00  0.00    -0.352 N 
ATOM     31  C   UNL A   1      34.874  30.814  28.443  1.00  0.00     0.251 C 
ATOM     32  H   UNL A   1      32.955  30.766  27.816  1.00  0.00     0.163 HD
ATOM     33  O   UNL A   1      34.808  31.917  28.959  1.00  0.00    -0.269 OA
BRANCH  31  34
ATOM     34  C   UNL A   1      36.129  30.036  28.484  1.00  0.00     0.039 A 
ATOM     35  C   UNL A   1      36.995  30.088  27.389  1.00  0.00     0.014 A 
ATOM     36  C   UNL A   1      36.505  29.400  29.668  1.00  0.00     0.014 A 
ATOM     37  C   UNL A   1      38.293  29.589  27.520  1.00  0.00     0.010 A 
ATOM     38  C   UNL A   1      37.816  28.973  29.820  1.00  0.00     0.010 A 
ATOM     39  C   UNL A   1      38.725  29.078  28.754  1.00  0.00    -0.014 A 
BRANCH  39  40
ATOM     40  C   UNL A   1      40.120  28.628  28.972  1.00  0.00     0.031 A 
ATOM     41  C   UNL A   1      41.124  29.605  29.510  1.00  0.00     0.074 A 
ATOM     42  C   UNL A   1      40.506  27.397  28.585  1.00  0.00     0.049 A 
ATOM     43  N   UNL A   1      42.423  29.493  29.603  1.00  0.00    -0.248 NA
ATOM     44  C   UNL A   1      40.592  30.898  29.968  1.00  0.00     0.031 C 
ATOM     45  C   UNL A   1      39.631  26.368  28.019  1.00  0.00     0.029 A 
ATOM     46  N   UNL A   1      41.747  26.811  28.587  1.00  0.00    -0.354 N 
ATOM     47  C   UNL A   1      42.865  30.709  30.107  1.00  0.00     0.074 A 
ATOM     48  C   UNL A   1      41.704  31.560  30.251  1.00  0.00     0.031 C 
ATOM     49  C   UNL A   1      40.363  25.275  27.737  1.00  0.00     0.029 A 
ATOM     50  C   UNL A   1      41.760  25.541  28.062  1.00  0.00     0.049 A 
ATOM     51  H   UNL A   1      42.553  27.259  28.933  1.00  0.00     0.167 HD
ATOM     52  C   UNL A   1      44.124  31.076  30.442  1.00  0.00     0.037 A 
ATOM     53  C   UNL A   1      42.790  24.699  27.850  1.00  0.00     0.037 A 
ATOM     54  C   UNL A   1      45.270  30.218  30.327  1.00  0.00     0.049 A 
ATOM     55  C   UNL A   1      44.184  25.141  28.202  1.00  0.00     0.074 A 
ATOM     56  C   UNL A   1      46.579  30.468  30.701  1.00  0.00     0.029 A 
ATOM     57  N   UNL A   1      45.241  28.935  29.800  1.00  0.00    -0.354 N 
ATOM     58  N   UNL A   1      44.585  26.276  28.723  1.00  0.00    -0.248 NA
ATOM     59  C   UNL A   1      45.269  24.189  27.926  1.00  0.00     0.031 C 
ATOM     60  C   UNL A   1      47.348  29.347  30.369  1.00  0.00     0.029 A 
ATOM     61  C   UNL A   1      46.512  28.389  29.817  1.00  0.00     0.049 A 
ATOM     62  H   UNL A   1      44.434  28.482  29.462  1.00  0.00     0.167 HD
ATOM     63  C   UNL A   1      45.962  26.168  28.856  1.00  0.00     0.074 A 
ATOM     64  C   UNL A   1      46.328  24.851  28.373  1.00  0.00     0.031 C 
ATOM     65  C   UNL A   1      46.848  27.076  29.333  1.00  0.00     0.037 A 
BRANCH  52  66
ATOM     66  C   UNL A   1      44.308  32.469  30.964  1.00  0.00     0.057 A 
ATOM     67  C   UNL A   1      44.556  33.535  30.092  1.00  0.00     0.134 A 
ATOM     68  C   UNL A   1      44.225  32.756  32.334  1.00  0.00     0.134 A 
ATOM     69  F   UNL A   1      44.647  33.327  28.770  1.00  0.00    -0.206 F 
ATOM     70  C   UNL A   1      44.706  34.840  30.563  1.00  0.00     0.040 A 
ATOM     71  C   UNL A   1      44.348  34.060  32.814  1.00  0.00     0.040 A 
ATOM     72  F   UNL A   1      43.970  31.780  33.218  1.00  0.00    -0.206 F 
ATOM     73  C   UNL A   1      44.593  35.106  31.927  1.00  0.00     0.006 A 
ENDBRANCH  52  66
BRANCH  53  74
ATOM     74  C   UNL A   1      42.553  23.351  27.277  1.00  0.00     0.057 A 
ATOM     75  C   UNL A   1      42.670  23.102  25.905  1.00  0.00     0.134 A 
ATOM     76  C   UNL A   1      42.237  22.267  28.105  1.00  0.00     0.134 A 
ATOM     77  F   UNL A   1      42.971  24.099  25.059  1.00  0.00    -0.206 F 
ATOM     78  C   UNL A   1      42.480  21.824  25.376  1.00  0.00     0.040 A 
ATOM     79  C   UNL A   1      42.063  20.980  27.592  1.00  0.00     0.040 A 
ATOM     80  F   UNL A   1      42.134  22.439  29.430  1.00  0.00    -0.206 F 
ATOM     81  C   UNL A   1      42.183  20.757  26.222  1.00  0.00     0.006 A 
ENDBRANCH  53  74
BRANCH  65  82
ATOM     82  C   UNL A   1      48.289  26.666  29.369  1.00  0.00     0.057 A 
ATOM     83  C   UNL A   1      48.803  25.958  30.462  1.00  0.00     0.134 A 
ATOM     84  C   UNL A   1      49.175  27.009  28.341  1.00  0.00     0.134 A 
ATOM     85  F   UNL A   1      48.005  25.604  31.481  1.00  0.00    -0.206 F 
ATOM     86  C   UNL A   1      50.151  25.611  30.535  1.00  0.00     0.040 A 
ATOM     87  C   UNL A   1      50.523  26.649  28.393  1.00  0.00     0.040 A 
ATOM     88  F   UNL A   1      48.739  27.673  27.261  1.00  0.00    -0.206 F 
ATOM     89  C   UNL A   1      51.015  25.953  29.496  1.00  0.00     0.006 A 
ENDBRANCH  65  82
ENDBRANCH  39  40
ENDBRANCH  31  34
ENDBRANCH  29  30
ENDBRANCH   1  29
TORSDOF 12
ENDMDL
MODEL 2
REMARK VINA RESULT:     -13.0      3.283      7.546
REMARK SMILES Cc1cccc2c1[C@H]1c3c(C)cccc3[C@H](CC(=O)NCCCCNC(=O)c3ccc(-c4c5nc(c(-c6c(F)cccc6F)c6ccc([nH]6)c(-c6c(F)cccc6F)c6nc(c(-c7c(F)cccc7F)c7ccc4[nH]7)C=C6)C=C5)cc3)C[C@H]1CC2
REMARK SMILES IDX 23 1 22 2 21 3 20 4 18 5 19 6 17 8 16 9 1 10 2 11 3 12 7 13
REMARK SMILES IDX 4 14 6 15 8 16 5 17 85 18 9 19 83 20 84 21 10 22 15 23 82 24
REMARK SMILES IDX 12 25 11 26 14 27 13 28 24 29 25 30 26 31 27 33 28 34 29 35
REMARK SMILES IDX 81 36 30 37 80 38 31 39 32 40 33 41 74 42 34 43 79 44 73 45
REMARK SMILES IDX 75 46 35 47 78 48 72 49 71 50 36 52 62 53 45 54 61 55 46 56
REMARK SMILES IDX 49 57 60 58 76 59 47 60 48 61 59 63 77 64 50 65 37 66 38 67
REMARK SMILES IDX 43 68 39 69 40 70 42 71 44 72 41 73 63 74 64 75 69 76 65 77
REMARK SMILES IDX 66 78 68 79 70 80 67 81 51 82 52 83 57 84 53 85 54 86 56 87
REMARK SMILES IDX 58 88 55 89
REMARK H PARENT 20 7 25 32 75 51 49 62
REMARK Flexibility Score: inf
ROOT
ATOM      1  C   UNL A   1      32.299  30.660  26.827  1.00  0.00     0.023 C 
ENDROOT
BRANCH   1   2
ATOM      2  C   UNL A   1      32.535  29.229  27.289  1.00  0.00     0.023 C 
BRANCH   2   3
ATOM      3  C   UNL A   1      33.930  28.681  26.978  1.00  0.00     0.116 C 
BRANCH   3   4
ATOM      4  N   UNL A   1      34.012  28.043  25.673  1.00  0.00    -0.356 N 
ATOM      5  C   UNL A   1      33.681  26.826  25.179  1.00  0.00     0.220 C 
ATOM      6  O   UNL A   1      33.800  26.705  23.950  1.00  0.00    -0.275 OA
ATOM      7  H   UNL A   1      34.399  28.635  24.988  1.00  0.00     0.163 HD
BRANCH   5   8
ATOM      8  C   UNL A   1      33.278  25.589  25.989  1.00  0.00     0.108 C 
BRANCH   8   9
ATOM      9  C   UNL A   1      33.246  24.205  25.334  1.00  0.00     0.029 C 
ATOM     10  C   UNL A   1      32.766  18.368  26.256  1.00  0.00     0.044 C 
ATOM     11  C   UNL A   1      32.761  18.647  24.775  1.00  0.00    -0.047 A 
ATOM     12  C   UNL A   1      32.749  17.543  23.901  1.00  0.00     0.004 A 
ATOM     13  C   UNL A   1      32.690  19.959  24.247  1.00  0.00    -0.034 A 
ATOM     14  C   UNL A   1      32.624  17.715  22.527  1.00  0.00     0.001 A 
ATOM     15  C   UNL A   1      32.373  20.096  22.874  1.00  0.00    -0.044 A 
ATOM     16  C   UNL A   1      32.907  21.209  25.115  1.00  0.00     0.053 C 
ATOM     17  C   UNL A   1      32.397  18.984  22.019  1.00  0.00     0.004 A 
ATOM     18  C   UNL A   1      31.795  21.366  22.309  1.00  0.00     0.036 C 
ATOM     19  C   UNL A   1      34.336  21.856  25.198  1.00  0.00    -0.034 A 
ATOM     20  C   UNL A   1      31.824  22.234  24.711  1.00  0.00     0.002 C 
ATOM     21  C   UNL A   1      31.965  22.566  23.213  1.00  0.00     0.009 C 
ATOM     22  C   UNL A   1      35.556  21.121  25.130  1.00  0.00    -0.047 A 
ATOM     23  C   UNL A   1      34.437  23.262  25.510  1.00  0.00    -0.040 A 
ATOM     24  C   UNL A   1      31.927  23.479  25.605  1.00  0.00     0.013 C 
ATOM     25  C   UNL A   1      36.782  21.748  25.444  1.00  0.00     0.004 A 
ATOM     26  C   UNL A   1      35.692  19.679  24.726  1.00  0.00     0.044 C 
ATOM     27  C   UNL A   1      35.687  23.830  25.833  1.00  0.00     0.004 A 
ATOM     28  C   UNL A   1      36.848  23.078  25.813  1.00  0.00     0.001 A 
ENDBRANCH   8   9
ENDBRANCH   5   8
ENDBRANCH   3   4
ENDBRANCH   2   3
ENDBRANCH   1   2
BRANCH   1  29
ATOM     29  C   UNL A   1      33.261  31.685  27.420  1.00  0.00     0.116 C 
BRANCH  29  30
ATOM     30  N   UNL A   1      32.690  33.015  27.601  1.00  0.00    -0.352 N 
ATOM     31  C   UNL A   1      33.188  34.052  28.366  1.00  0.00     0.251 C 
ATOM     32  H   UNL A   1      31.849  33.195  27.121  1.00  0.00     0.163 HD
ATOM     33  O   UNL A   1      32.589  35.108  28.482  1.00  0.00    -0.269 OA
BRANCH  31  34
ATOM     34  C   UNL A   1      34.456  33.821  29.087  1.00  0.00     0.039 A 
ATOM     35  C   UNL A   1      34.460  32.979  30.201  1.00  0.00     0.014 A 
ATOM     36  C   UNL A   1      35.649  34.311  28.551  1.00  0.00     0.014 A 
ATOM     37  C   UNL A   1      35.679  32.538  30.720  1.00  0.00     0.010 A 
ATOM     38  C   UNL A   1      36.856  33.814  29.021  1.00  0.00     0.010 A 
ATOM     39  C   UNL A   1      36.881  32.911  30.097  1.00  0.00    -0.014 A 
BRANCH  39  40
ATOM     40  C   UNL A   1      38.193  32.391  30.549  1.00  0.00     0.031 A 
ATOM     41  C   UNL A   1      38.717  31.120  29.949  1.00  0.00     0.074 A 
ATOM     42  C   UNL A   1      38.850  32.989  31.562  1.00  0.00     0.049 A 
ATOM     43  N   UNL A   1      39.735  30.387  30.317  1.00  0.00    -0.248 NA
ATOM     44  C   UNL A   1      37.966  30.583  28.802  1.00  0.00     0.031 C 
ATOM     45  C   UNL A   1      38.426  34.211  32.249  1.00  0.00     0.029 A 
ATOM     46  N   UNL A   1      40.005  32.628  32.210  1.00  0.00    -0.354 N 
ATOM     47  C   UNL A   1      39.732  29.291  29.464  1.00  0.00     0.074 A 
ATOM     48  C   UNL A   1      38.583  29.430  28.595  1.00  0.00     0.031 C 
ATOM     49  C   UNL A   1      39.316  34.502  33.216  1.00  0.00     0.029 A 
ATOM     50  C   UNL A   1      40.344  33.468  33.244  1.00  0.00     0.049 A 
ATOM     51  H   UNL A   1      40.541  31.842  31.957  1.00  0.00     0.167 HD
ATOM     52  C   UNL A   1      40.619  28.272  29.395  1.00  0.00     0.037 A 
ATOM     53  C   UNL A   1      41.360  33.395  34.125  1.00  0.00     0.037 A 
ATOM     54  C   UNL A   1      41.776  28.154  30.238  1.00  0.00     0.049 A 
ATOM     55  C   UNL A   1      42.316  32.236  34.048  1.00  0.00     0.074 A 
ATOM     56  C   UNL A   1      42.775  27.197  30.206  1.00  0.00     0.029 A 
ATOM     57  N   UNL A   1      42.091  29.030  31.267  1.00  0.00    -0.354 N 
ATOM     58  N   UNL A   1      42.331  31.231  33.206  1.00  0.00    -0.248 NA
ATOM     59  C   UNL A   1      43.391  32.197  35.050  1.00  0.00     0.031 C 
ATOM     60  C   UNL A   1      43.678  27.477  31.238  1.00  0.00     0.029 A 
ATOM     61  C   UNL A   1      43.257  28.624  31.892  1.00  0.00     0.049 A 
ATOM     62  H   UNL A   1      41.561  29.822  31.515  1.00  0.00     0.167 HD
ATOM     63  C   UNL A   1      43.424  30.452  33.562  1.00  0.00     0.074 A 
ATOM     64  C   UNL A   1      44.056  31.107  34.690  1.00  0.00     0.031 C 
ATOM     65  C   UNL A   1      43.865  29.296  33.010  1.00  0.00     0.037 A 
BRANCH  52  66
ATOM     66  C   UNL A   1      40.359  27.214  28.366  1.00  0.00     0.057 A 
ATOM     67  C   UNL A   1      40.956  27.282  27.102  1.00  0.00     0.134 A 
ATOM     68  C   UNL A   1      39.527  26.118  28.633  1.00  0.00     0.134 A 
ATOM     69  F   UNL A   1      41.764  28.304  26.783  1.00  0.00    -0.206 F 
ATOM     70  C   UNL A   1      40.742  26.292  26.142  1.00  0.00     0.040 A 
ATOM     71  C   UNL A   1      39.326  25.109  27.690  1.00  0.00     0.040 A 
ATOM     72  F   UNL A   1      38.942  25.987  29.833  1.00  0.00    -0.206 F 
ATOM     73  C   UNL A   1      39.932  25.197  26.438  1.00  0.00     0.006 A 
ENDBRANCH  52  66
BRANCH  53  74
ATOM     74  C   UNL A   1      41.535  34.444  35.160  1.00  0.00     0.057 A 
ATOM     75  C   UNL A   1      42.296  35.594  34.922  1.00  0.00     0.134 A 
ATOM     76  C   UNL A   1      40.910  34.331  36.407  1.00  0.00     0.134 A 
ATOM     77  F   UNL A   1      42.921  35.762  33.746  1.00  0.00    -0.206 F 
ATOM     78  C   UNL A   1      42.429  36.594  35.887  1.00  0.00     0.040 A 
ATOM     79  C   UNL A   1      41.018  35.332  37.374  1.00  0.00     0.040 A 
ATOM     80  F   UNL A   1      40.149  33.262  36.684  1.00  0.00    -0.206 F 
ATOM     81  C   UNL A   1      41.782  36.467  37.115  1.00  0.00     0.006 A 
ENDBRANCH  53  74
BRANCH  65  82
ATOM     82  C   UNL A   1      45.095  28.683  33.608  1.00  0.00     0.057 A 
ATOM     83  C   UNL A   1      46.366  29.024  33.131  1.00  0.00     0.134 A 
ATOM     84  C   UNL A   1      45.017  27.725  34.625  1.00  0.00     0.134 A 
ATOM     85  F   UNL A   1      46.507  29.933  32.153  1.00  0.00    -0.206 F 
ATOM     86  C   UNL A   1      47.519  28.428  33.642  1.00  0.00     0.040 A 
ATOM     87  C   UNL A   1      46.164  27.136  35.159  1.00  0.00     0.040 A 
ATOM     88  F   UNL A   1      43.828  27.368  35.133  1.00  0.00    -0.206 F 
ATOM     89  C   UNL A   1      47.420  27.483  34.662  1.00  0.00     0.006 A 
ENDBRANCH  65  82
ENDBRANCH  39  40
ENDBRANCH  31  34
ENDBRANCH  29  30
ENDBRANCH   1  29
TORSDOF 12
ENDMDL
MODEL 3
REMARK VINA RESULT:     -12.9      3.722      7.286
REMARK SMILES Cc1cccc2c1[C@H]1c3c(C)cccc3[C@H](CC(=O)NCCCCNC(=O)c3ccc(-c4c5nc(c(-c6c(F)cccc6F)c6ccc([nH]6)c(-c6c(F)cccc6F)c6nc(c(-c7c(F)cccc7F)c7ccc4[nH]7)C=C6)C=C5)cc3)C[C@H]1CC2
REMARK SMILES IDX 23 1 22 2 21 3 20 4 18 5 19 6 17 8 16 9 1 10 2 11 3 12 7 13
REMARK SMILES IDX 4 14 6 15 8 16 5 17 85 18 9 19 83 20 84 21 10 22 15 23 82 24
REMARK SMILES IDX 12 25 11 26 14 27 13 28 24 29 25 30 26 31 27 33 28 34 29 35
REMARK SMILES IDX 81 36 30 37 80 38 31 39 32 40 33 41 74 42 34 43 79 44 73 45
REMARK SMILES IDX 75 46 35 47 78 48 72 49 71 50 36 52 62 53 45 54 61 55 46 56
REMARK SMILES IDX 49 57 60 58 76 59 47 60 48 61 59 63 77 64 50 65 37 66 38 67
REMARK SMILES IDX 43 68 39 69 40 70 42 71 44 72 41 73 63 74 64 75 69 76 65 77
REMARK SMILES IDX 66 78 68 79 70 80 67 81 51 82 52 83 57 84 53 85 54 86 56 87
REMARK SMILES IDX 58 88 55 89
REMARK H PARENT 20 7 25 32 75 51 49 62
REMARK Flexibility Score: inf
ROOT
ATOM      1  C   UNL A   1      31.029  31.943  26.397  1.00  0.00     0.023 C 
ENDROOT
BRANCH   1   2
ATOM      2  C   UNL A   1      31.180  30.742  25.476  1.00  0.00     0.023 C 
BRANCH   2   3
ATOM      3  C   UNL A   1      32.380  29.845  25.789  1.00  0.00     0.116 C 
BRANCH   3   4
ATOM      4  N   UNL A   1      33.301  29.715  24.670  1.00  0.00    -0.356 N 
ATOM      5  C   UNL A   1      33.336  28.970  23.540  1.00  0.00     0.220 C 
ATOM      6  O   UNL A   1      34.259  29.243  22.757  1.00  0.00    -0.275 OA
ATOM      7  H   UNL A   1      34.083  30.308  24.755  1.00  0.00     0.163 HD
BRANCH   5   8
ATOM      8  C   UNL A   1      32.425  27.788  23.195  1.00  0.00     0.108 C 
BRANCH   8   9
ATOM      9  C   UNL A   1      32.805  26.363  23.607  1.00  0.00     0.029 C 
ATOM     10  C   UNL A   1      31.876  20.584  22.663  1.00  0.00     0.044 C 
ATOM     11  C   UNL A   1      33.016  20.760  23.633  1.00  0.00    -0.047 A 
ATOM     12  C   UNL A   1      33.575  19.601  24.203  1.00  0.00     0.004 A 
ATOM     13  C   UNL A   1      33.583  22.026  23.921  1.00  0.00    -0.034 A 
ATOM     14  C   UNL A   1      34.704  19.669  25.012  1.00  0.00     0.001 A 
ATOM     15  C   UNL A   1      34.834  22.047  24.585  1.00  0.00    -0.044 A 
ATOM     16  C   UNL A   1      32.908  23.344  23.509  1.00  0.00     0.053 C 
ATOM     17  C   UNL A   1      35.354  20.883  25.170  1.00  0.00     0.004 A 
ATOM     18  C   UNL A   1      35.756  23.235  24.516  1.00  0.00     0.036 C 
ATOM     19  C   UNL A   1      31.972  24.087  24.527  1.00  0.00    -0.034 A 
ATOM     20  C   UNL A   1      34.017  24.266  22.954  1.00  0.00     0.002 C 
ATOM     21  C   UNL A   1      35.080  24.502  24.044  1.00  0.00     0.009 C 
ATOM     22  C   UNL A   1      31.155  23.430  25.494  1.00  0.00    -0.047 A 
ATOM     23  C   UNL A   1      31.805  25.515  24.392  1.00  0.00    -0.040 A 
ATOM     24  C   UNL A   1      33.397  25.573  22.438  1.00  0.00     0.013 C 
ATOM     25  C   UNL A   1      30.175  24.156  26.208  1.00  0.00     0.004 A 
ATOM     26  C   UNL A   1      31.232  21.976  25.868  1.00  0.00     0.044 C 
ATOM     27  C   UNL A   1      30.798  26.183  25.119  1.00  0.00     0.004 A 
ATOM     28  C   UNL A   1      29.982  25.510  26.010  1.00  0.00     0.001 A 
ENDBRANCH   8   9
ENDBRANCH   5   8
ENDBRANCH   3   4
ENDBRANCH   2   3
ENDBRANCH   1   2
BRANCH   1  29
ATOM     29  C   UNL A   1      32.346  32.549  26.872  1.00  0.00     0.116 C 
BRANCH  29  30
ATOM     30  N   UNL A   1      32.213  33.844  27.530  1.00  0.00    -0.352 N 
ATOM     31  C   UNL A   1      33.084  34.430  28.426  1.00  0.00     0.251 C 
ATOM     32  H   UNL A   1      31.405  34.361  27.308  1.00  0.00     0.163 HD
ATOM     33  O   UNL A   1      32.838  35.502  28.954  1.00  0.00    -0.269 OA
BRANCH  31  34
ATOM     34  C   UNL A   1      34.315  33.688  28.767  1.00  0.00     0.039 A 
ATOM     35  C   UNL A   1      35.555  34.254  28.460  1.00  0.00     0.014 A 
ATOM     36  C   UNL A   1      34.225  32.522  29.530  1.00  0.00     0.014 A 
ATOM     37  C   UNL A   1      36.713  33.703  29.014  1.00  0.00     0.010 A 
ATOM     38  C   UNL A   1      35.368  32.022  30.137  1.00  0.00     0.010 A 
ATOM     39  C   UNL A   1      36.618  32.617  29.898  1.00  0.00    -0.014 A 
BRANCH  39  40
ATOM     40  C   UNL A   1      37.806  32.060  30.587  1.00  0.00     0.031 A 
ATOM     41  C   UNL A   1      38.581  30.960  29.925  1.00  0.00     0.074 A 
ATOM     42  C   UNL A   1      38.115  32.456  31.837  1.00  0.00     0.049 A 
ATOM     43  N   UNL A   1      39.528  30.201  30.412  1.00  0.00    -0.248 NA
ATOM     44  C   UNL A   1      38.211  30.649  28.534  1.00  0.00     0.031 C 
ATOM     45  C   UNL A   1      37.417  33.493  32.601  1.00  0.00     0.029 A 
ATOM     46  N   UNL A   1      39.086  32.007  32.699  1.00  0.00    -0.354 N 
ATOM     47  C   UNL A   1      39.848  29.308  29.399  1.00  0.00     0.074 A 
ATOM     48  C   UNL A   1      38.961  29.586  28.290  1.00  0.00     0.031 C 
ATOM     49  C   UNL A   1      37.990  33.607  33.813  1.00  0.00     0.029 A 
ATOM     50  C   UNL A   1      39.063  32.624  33.926  1.00  0.00     0.049 A 
ATOM     51  H   UNL A   1      39.738  31.309  32.459  1.00  0.00     0.167 HD
ATOM     52  C   UNL A   1      40.810  28.356  29.385  1.00  0.00     0.037 A 
ATOM     53  C   UNL A   1      39.813  32.404  35.023  1.00  0.00     0.037 A 
ATOM     54  C   UNL A   1      41.709  28.105  30.477  1.00  0.00     0.049 A 
ATOM     55  C   UNL A   1      40.855  31.320  34.994  1.00  0.00     0.074 A 
ATOM     56  C   UNL A   1      42.762  27.210  30.541  1.00  0.00     0.029 A 
ATOM     57  N   UNL A   1      41.661  28.758  31.700  1.00  0.00    -0.354 N 
ATOM     58  N   UNL A   1      41.182  30.514  34.013  1.00  0.00    -0.248 NA
ATOM     59  C   UNL A   1      41.626  31.110  36.227  1.00  0.00     0.031 C 
ATOM     60  C   UNL A   1      43.332  27.300  31.816  1.00  0.00     0.029 A 
ATOM     61  C   UNL A   1      42.652  28.271  32.534  1.00  0.00     0.049 A 
ATOM     62  H   UNL A   1      41.016  29.463  31.939  1.00  0.00     0.167 HD
ATOM     63  C   UNL A   1      42.207  29.715  34.502  1.00  0.00     0.074 A 
ATOM     64  C   UNL A   1      42.458  30.143  35.864  1.00  0.00     0.031 C 
ATOM     65  C   UNL A   1      42.881  28.715  33.884  1.00  0.00     0.037 A 
BRANCH  52  66
ATOM     66  C   UNL A   1      40.927  27.528  28.142  1.00  0.00     0.057 A 
ATOM     67  C   UNL A   1      41.732  27.945  27.076  1.00  0.00     0.134 A 
ATOM     68  C   UNL A   1      40.251  26.307  28.007  1.00  0.00     0.134 A 
ATOM     69  F   UNL A   1      42.406  29.103  27.143  1.00  0.00    -0.206 F 
ATOM     70  C   UNL A   1      41.869  27.172  25.922  1.00  0.00     0.040 A 
ATOM     71  C   UNL A   1      40.401  25.514  26.868  1.00  0.00     0.040 A 
ATOM     72  F   UNL A   1      39.480  25.844  29.001  1.00  0.00    -0.206 F 
ATOM     73  C   UNL A   1      41.209  25.949  25.820  1.00  0.00     0.006 A 
ENDBRANCH  52  66
BRANCH  53  74
ATOM     74  C   UNL A   1      39.614  33.220  36.247  1.00  0.00     0.057 A 
ATOM     75  C   UNL A   1      40.330  34.401  36.469  1.00  0.00     0.134 A 
ATOM     76  C   UNL A   1      38.669  32.847  37.209  1.00  0.00     0.134 A 
ATOM     77  F   UNL A   1      41.250  34.814  35.584  1.00  0.00    -0.206 F 
ATOM     78  C   UNL A   1      40.114  35.183  37.605  1.00  0.00     0.040 A 
ATOM     79  C   UNL A   1      38.428  33.629  38.341  1.00  0.00     0.040 A 
ATOM     80  F   UNL A   1      37.936  31.738  37.040  1.00  0.00    -0.206 F 
ATOM     81  C   UNL A   1      39.154  34.801  38.542  1.00  0.00     0.006 A 
ENDBRANCH  53  74
BRANCH  65  82
ATOM     82  C   UNL A   1      43.960  28.034  34.670  1.00  0.00     0.057 A 
ATOM     83  C   UNL A   1      43.683  26.878  35.409  1.00  0.00     0.134 A 
ATOM     84  C   UNL A   1      45.260  28.547  34.726  1.00  0.00     0.134 A 
ATOM     85  F   UNL A   1      42.453  26.340  35.399  1.00  0.00    -0.206 F 
ATOM     86  C   UNL A   1      44.663  26.258  36.184  1.00  0.00     0.040 A 
ATOM     87  C   UNL A   1      46.255  27.924  35.482  1.00  0.00     0.040 A 
ATOM     88  F   UNL A   1      45.590  29.643  34.027  1.00  0.00    -0.206 F 
ATOM     89  C   UNL A   1      45.955  26.779  36.219  1.00  0.00     0.006 A 
ENDBRANCH  65  82
ENDBRANCH  39  40
ENDBRANCH  31  34
ENDBRANCH  29  30
ENDBRANCH   1  29
TORSDOF 12
ENDMDL
