MODEL 1
REMARK VINA RESULT:     -13.4      0.000      0.000
REMARK SMILES COc1cc([C@@H]2CC(=O)Nc3c(C(=O)NCCCCNC(=O)c4ccc(-c5c6nc(c(-c7c(F)cccc7F)c7ccc([nH]7)c(-c7c(F)cccc7F)c7nc(c(-c8c(F)cccc8F)c8ccc5[nH]8)C=C7)C=C6)cc4)cn(-c4ccc(F)cc4)c32)c(OC)c2c1OCO2
REMARK SMILES IDX 17 1 16 2 15 3 13 4 14 5 12 7 6 8 7 9 86 10 8 11 11 12 78 13
REMARK SMILES IDX 9 14 10 15 77 16 5 18 3 19 4 20 91 21 90 22 92 23 87 24
REMARK SMILES IDX 94 25 93 26 2 27 1 28 88 29 89 30 79 31 80 32 85 33 81 34
REMARK SMILES IDX 84 35 82 36 83 37 18 38 19 39 20 40 21 41 22 43 23 44 24 45
REMARK SMILES IDX 76 46 25 47 75 48 26 49 27 50 28 51 69 52 29 53 74 54 68 55
REMARK SMILES IDX 70 56 30 57 73 58 67 59 66 60 31 62 57 63 40 64 56 65 41 66
REMARK SMILES IDX 44 67 55 68 71 69 42 70 43 71 54 73 72 74 45 75 32 76 33 77
REMARK SMILES IDX 38 78 34 79 35 80 37 81 39 82 36 83 58 84 59 85 64 86 60 87
REMARK SMILES IDX 61 88 63 89 65 90 62 91 46 92 47 93 52 94 48 95 49 96 51 97
REMARK SMILES IDX 53 98 50 99
REMARK H PARENT 15 6 10 17 20 42 70 61 44 72
REMARK Flexibility Score: inf
ROOT
ATOM      1  C   UNL A   1      32.914  28.571  27.437  1.00  0.00     0.023 C 
ENDROOT
BRANCH   1   2
ATOM      2  C   UNL A   1      31.862  28.047  26.446  1.00  0.00     0.116 C 
BRANCH   2   3
ATOM      3  N   UNL A   1      32.394  27.929  25.110  1.00  0.00    -0.352 N 
ATOM      4  C   UNL A   1      33.066  26.945  24.434  1.00  0.00     0.254 C 
ATOM      5  O   UNL A   1      33.318  27.227  23.256  1.00  0.00    -0.269 OA
ATOM      6  H   UNL A   1      32.243  28.735  24.564  1.00  0.00     0.163 HD
BRANCH   4   7
ATOM      7  C   UNL A   1      33.446  25.631  24.975  1.00  0.00     0.081 A 
ATOM      8  C   UNL A   1      33.428  22.173  26.399  1.00  0.00     0.082 C 
ATOM      9  C   UNL A   1      32.265  22.315  27.385  1.00  0.00     0.115 C 
ATOM     10  C   UNL A   1      33.736  23.507  25.777  1.00  0.00     0.055 A 
ATOM     11  C   UNL A   1      31.181  23.236  26.884  1.00  0.00     0.225 C 
ATOM     12  C   UNL A   1      32.828  24.543  25.664  1.00  0.00     0.076 A 
ATOM     13  N   UNL A   1      34.954  23.946  25.320  1.00  0.00    -0.317 N 
ATOM     14  O   UNL A   1      30.000  23.096  27.205  1.00  0.00    -0.275 OA
ATOM     15  N   UNL A   1      31.566  24.336  26.166  1.00  0.00    -0.324 N 
ATOM     16  C   UNL A   1      34.787  25.238  24.887  1.00  0.00     0.107 A 
ATOM     17  H   UNL A   1      30.889  25.030  25.998  1.00  0.00     0.170 HD
BRANCH   8  18
ATOM     18  C   UNL A   1      33.173  21.031  25.410  1.00  0.00     0.012 A 
ATOM     19  C   UNL A   1      33.321  18.599  25.072  1.00  0.00     0.165 A 
ATOM     20  C   UNL A   1      33.430  19.720  25.892  1.00  0.00     0.059 A 
ATOM     21  C   UNL A   1      32.877  18.794  23.780  1.00  0.00     0.211 A 
ATOM     22  C   UNL A   1      32.571  20.056  23.303  1.00  0.00     0.211 A 
ATOM     23  O   UNL A   1      32.665  17.826  22.845  1.00  0.00    -0.449 OA
ATOM     24  C   UNL A   1      32.706  21.196  24.086  1.00  0.00     0.168 A 
ATOM     25  O   UNL A   1      32.152  20.007  22.005  1.00  0.00    -0.449 OA
ATOM     26  C   UNL A   1      32.123  18.593  21.761  1.00  0.00     0.468 C 
BRANCH  19  27
ATOM     27  O   UNL A   1      33.632  17.408  25.660  1.00  0.00    -0.493 OA
ATOM     28  C   UNL A   1      32.545  16.493  25.750  1.00  0.00     0.278 C 
ENDBRANCH  19  27
BRANCH  24  29
ATOM     29  O   UNL A   1      32.439  22.470  23.682  1.00  0.00    -0.492 OA
ATOM     30  C   UNL A   1      32.943  22.929  22.438  1.00  0.00     0.278 C 
ENDBRANCH  24  29
ENDBRANCH   8  18
BRANCH  13  31
ATOM     31  C   UNL A   1      36.185  23.253  25.363  1.00  0.00     0.046 A 
ATOM     32  C   UNL A   1      36.308  22.005  24.745  1.00  0.00     0.029 A 
ATOM     33  C   UNL A   1      37.257  23.800  26.079  1.00  0.00     0.029 A 
ATOM     34  C   UNL A   1      37.474  21.260  24.909  1.00  0.00     0.041 A 
ATOM     35  C   UNL A   1      38.420  23.045  26.244  1.00  0.00     0.041 A 
ATOM     36  C   UNL A   1      38.513  21.780  25.672  1.00  0.00     0.123 A 
ATOM     37  F   UNL A   1      39.620  21.049  25.856  1.00  0.00    -0.207 F 
ENDBRANCH  13  31
ENDBRANCH   4   7
ENDBRANCH   2   3
ENDBRANCH   1   2
BRANCH   1  38
ATOM     38  C   UNL A   1      33.995  29.488  26.857  1.00  0.00     0.023 C 
BRANCH  38  39
ATOM     39  C   UNL A   1      35.387  29.298  27.457  1.00  0.00     0.116 C 
BRANCH  39  40
ATOM     40  N   UNL A   1      35.485  29.704  28.868  1.00  0.00    -0.352 N 
ATOM     41  C   UNL A   1      36.460  29.379  29.807  1.00  0.00     0.251 C 
ATOM     42  H   UNL A   1      34.761  30.286  29.195  1.00  0.00     0.163 HD
ATOM     43  O   UNL A   1      36.245  29.423  31.004  1.00  0.00    -0.269 OA
BRANCH  41  44
ATOM     44  C   UNL A   1      37.796  29.018  29.302  1.00  0.00     0.039 A 
ATOM     45  C   UNL A   1      38.410  29.628  28.204  1.00  0.00     0.014 A 
ATOM     46  C   UNL A   1      38.459  28.057  30.048  1.00  0.00     0.014 A 
ATOM     47  C   UNL A   1      39.730  29.280  27.912  1.00  0.00     0.010 A 
ATOM     48  C   UNL A   1      39.812  27.979  29.960  1.00  0.00     0.010 A 
ATOM     49  C   UNL A   1      40.414  28.449  28.808  1.00  0.00    -0.014 A 
BRANCH  49  50
ATOM     50  C   UNL A   1      41.779  28.001  28.626  1.00  0.00     0.031 A 
ATOM     51  C   UNL A   1      41.946  26.782  27.806  1.00  0.00     0.074 A 
ATOM     52  C   UNL A   1      42.822  28.805  28.932  1.00  0.00     0.049 A 
ATOM     53  N   UNL A   1      42.311  25.617  28.215  1.00  0.00    -0.248 NA
ATOM     54  C   UNL A   1      41.534  26.821  26.396  1.00  0.00     0.031 C 
ATOM     55  C   UNL A   1      42.823  30.192  29.425  1.00  0.00     0.029 A 
ATOM     56  N   UNL A   1      44.143  28.554  28.763  1.00  0.00    -0.354 N 
ATOM     57  C   UNL A   1      42.359  24.807  27.085  1.00  0.00     0.074 A 
ATOM     58  C   UNL A   1      41.694  25.544  26.042  1.00  0.00     0.031 C 
ATOM     59  C   UNL A   1      44.065  30.714  29.312  1.00  0.00     0.029 A 
ATOM     60  C   UNL A   1      44.972  29.658  28.906  1.00  0.00     0.049 A 
ATOM     61  H   UNL A   1      44.488  27.655  28.555  1.00  0.00     0.167 HD
ATOM     62  C   UNL A   1      43.132  23.685  27.062  1.00  0.00     0.037 A 
ATOM     63  C   UNL A   1      46.307  29.681  28.679  1.00  0.00     0.037 A 
ATOM     64  C   UNL A   1      43.612  23.368  28.388  1.00  0.00     0.049 A 
ATOM     65  C   UNL A   1      46.779  28.271  28.758  1.00  0.00     0.074 A 
ATOM     66  C   UNL A   1      42.999  23.044  29.583  1.00  0.00     0.029 A 
ATOM     67  N   UNL A   1      44.883  23.776  28.719  1.00  0.00    -0.354 N 
ATOM     68  N   UNL A   1      46.767  27.571  29.861  1.00  0.00    -0.248 NA
ATOM     69  C   UNL A   1      46.779  27.490  27.528  1.00  0.00     0.031 C 
ATOM     70  C   UNL A   1      43.744  23.746  30.577  1.00  0.00     0.029 A 
ATOM     71  C   UNL A   1      44.810  24.388  29.945  1.00  0.00     0.049 A 
ATOM     72  H   UNL A   1      45.695  23.650  28.177  1.00  0.00     0.167 HD
ATOM     73  C   UNL A   1      46.331  26.308  29.481  1.00  0.00     0.074 A 
ATOM     74  C   UNL A   1      46.429  26.297  28.021  1.00  0.00     0.031 C 
ATOM     75  C   UNL A   1      45.648  25.499  30.347  1.00  0.00     0.037 A 
BRANCH  62  76
ATOM     76  C   UNL A   1      43.737  23.057  25.833  1.00  0.00     0.057 A 
ATOM     77  C   UNL A   1      43.582  21.672  25.631  1.00  0.00     0.134 A 
ATOM     78  C   UNL A   1      44.675  23.681  24.988  1.00  0.00     0.134 A 
ATOM     79  F   UNL A   1      42.714  20.959  26.366  1.00  0.00    -0.206 F 
ATOM     80  C   UNL A   1      44.365  20.951  24.721  1.00  0.00     0.040 A 
ATOM     81  C   UNL A   1      45.425  22.978  24.040  1.00  0.00     0.040 A 
ATOM     82  F   UNL A   1      44.993  24.975  25.096  1.00  0.00    -0.206 F 
ATOM     83  C   UNL A   1      45.298  21.603  23.929  1.00  0.00     0.006 A 
ENDBRANCH  62  76
BRANCH  63  84
ATOM     84  C   UNL A   1      47.118  30.780  28.106  1.00  0.00     0.057 A 
ATOM     85  C   UNL A   1      46.746  31.417  26.914  1.00  0.00     0.134 A 
ATOM     86  C   UNL A   1      48.130  31.413  28.851  1.00  0.00     0.134 A 
ATOM     87  F   UNL A   1      45.765  30.913  26.151  1.00  0.00    -0.206 F 
ATOM     88  C   UNL A   1      47.327  32.625  26.500  1.00  0.00     0.040 A 
ATOM     89  C   UNL A   1      48.720  32.616  28.448  1.00  0.00     0.040 A 
ATOM     90  F   UNL A   1      48.520  30.932  30.040  1.00  0.00    -0.206 F 
ATOM     91  C   UNL A   1      48.309  33.235  27.276  1.00  0.00     0.006 A 
ENDBRANCH  63  84
BRANCH  75  92
ATOM     92  C   UNL A   1      45.551  25.925  31.790  1.00  0.00     0.057 A 
ATOM     93  C   UNL A   1      44.438  26.576  32.345  1.00  0.00     0.134 A 
ATOM     94  C   UNL A   1      46.540  25.509  32.687  1.00  0.00     0.134 A 
ATOM     95  F   UNL A   1      43.390  26.923  31.593  1.00  0.00    -0.206 F 
ATOM     96  C   UNL A   1      44.331  26.834  33.715  1.00  0.00     0.040 A 
ATOM     97  C   UNL A   1      46.433  25.732  34.062  1.00  0.00     0.040 A 
ATOM     98  F   UNL A   1      47.608  24.826  32.244  1.00  0.00    -0.206 F 
ATOM     99  C   UNL A   1      45.329  26.405  34.581  1.00  0.00     0.006 A 
ENDBRANCH  75  92
ENDBRANCH  49  50
ENDBRANCH  41  44
ENDBRANCH  39  40
ENDBRANCH  38  39
ENDBRANCH   1  38
TORSDOF 15
ENDMDL
MODEL 2
REMARK VINA RESULT:     -13.4      3.060      8.106
REMARK SMILES COc1cc([C@@H]2CC(=O)Nc3c(C(=O)NCCCCNC(=O)c4ccc(-c5c6nc(c(-c7c(F)cccc7F)c7ccc([nH]7)c(-c7c(F)cccc7F)c7nc(c(-c8c(F)cccc8F)c8ccc5[nH]8)C=C7)C=C6)cc4)cn(-c4ccc(F)cc4)c32)c(OC)c2c1OCO2
REMARK SMILES IDX 17 1 16 2 15 3 13 4 14 5 12 7 6 8 7 9 86 10 8 11 11 12 78 13
REMARK SMILES IDX 9 14 10 15 77 16 5 18 3 19 4 20 91 21 90 22 92 23 87 24
REMARK SMILES IDX 94 25 93 26 2 27 1 28 88 29 89 30 79 31 80 32 85 33 81 34
REMARK SMILES IDX 84 35 82 36 83 37 18 38 19 39 20 40 21 41 22 43 23 44 24 45
REMARK SMILES IDX 76 46 25 47 75 48 26 49 27 50 28 51 69 52 29 53 74 54 68 55
REMARK SMILES IDX 70 56 30 57 73 58 67 59 66 60 31 62 57 63 40 64 56 65 41 66
REMARK SMILES IDX 44 67 55 68 71 69 42 70 43 71 54 73 72 74 45 75 32 76 33 77
REMARK SMILES IDX 38 78 34 79 35 80 37 81 39 82 36 83 58 84 59 85 64 86 60 87
REMARK SMILES IDX 61 88 63 89 65 90 62 91 46 92 47 93 52 94 48 95 49 96 51 97
REMARK SMILES IDX 53 98 50 99
REMARK H PARENT 15 6 10 17 20 42 70 61 44 72
REMARK Flexibility Score: inf
ROOT
ATOM      1  C   UNL A   1      37.970  23.039  26.150  1.00  0.00     0.023 C 
ENDROOT
BRANCH   1   2
ATOM      2  C   UNL A   1      36.830  24.063  26.034  1.00  0.00     0.116 C 
BRANCH   2   3
ATOM      3  N   UNL A   1      35.537  23.424  25.989  1.00  0.00    -0.352 N 
ATOM      4  C   UNL A   1      34.280  23.836  25.631  1.00  0.00     0.254 C 
ATOM      5  O   UNL A   1      33.423  22.947  25.697  1.00  0.00    -0.269 OA
ATOM      6  H   UNL A   1      35.564  22.484  26.281  1.00  0.00     0.163 HD
BRANCH   4   7
ATOM      7  C   UNL A   1      33.915  25.181  25.159  1.00  0.00     0.081 A 
ATOM      8  C   UNL A   1      32.711  28.094  23.147  1.00  0.00     0.082 C 
ATOM      9  C   UNL A   1      33.243  27.684  21.771  1.00  0.00     0.115 C 
ATOM     10  C   UNL A   1      33.194  27.125  24.190  1.00  0.00     0.055 A 
ATOM     11  C   UNL A   1      33.218  26.192  21.552  1.00  0.00     0.225 C 
ATOM     12  C   UNL A   1      33.566  25.820  23.929  1.00  0.00     0.076 A 
ATOM     13  N   UNL A   1      33.433  27.388  25.516  1.00  0.00    -0.317 N 
ATOM     14  O   UNL A   1      33.082  25.694  20.434  1.00  0.00    -0.275 OA
ATOM     15  N   UNL A   1      33.498  25.390  22.626  1.00  0.00    -0.324 N 
ATOM     16  C   UNL A   1      33.914  26.233  26.082  1.00  0.00     0.107 A 
ATOM     17  H   UNL A   1      33.664  24.436  22.451  1.00  0.00     0.170 HD
BRANCH   8  18
ATOM     18  C   UNL A   1      31.196  28.314  23.106  1.00  0.00     0.012 A 
ATOM     19  C   UNL A   1      29.415  29.912  22.538  1.00  0.00     0.165 A 
ATOM     20  C   UNL A   1      30.760  29.549  22.558  1.00  0.00     0.059 A 
ATOM     21  C   UNL A   1      28.498  28.992  23.004  1.00  0.00     0.211 A 
ATOM     22  C   UNL A   1      28.895  27.761  23.496  1.00  0.00     0.211 A 
ATOM     23  O   UNL A   1      27.144  29.142  23.028  1.00  0.00    -0.449 OA
ATOM     24  C   UNL A   1      30.232  27.387  23.562  1.00  0.00     0.168 A 
ATOM     25  O   UNL A   1      27.821  27.019  23.897  1.00  0.00    -0.449 OA
ATOM     26  C   UNL A   1      26.724  27.857  23.508  1.00  0.00     0.468 C 
BRANCH  19  27
ATOM     27  O   UNL A   1      29.146  31.142  22.014  1.00  0.00    -0.493 OA
ATOM     28  C   UNL A   1      28.775  32.125  22.976  1.00  0.00     0.278 C 
ENDBRANCH  19  27
BRANCH  24  29
ATOM     29  O   UNL A   1      30.698  26.201  24.046  1.00  0.00    -0.492 OA
ATOM     30  C   UNL A   1      30.221  25.718  25.292  1.00  0.00     0.278 C 
ENDBRANCH  24  29
ENDBRANCH   8  18
BRANCH  13  31
ATOM     31  C   UNL A   1      33.309  28.629  26.180  1.00  0.00     0.046 A 
ATOM     32  C   UNL A   1      32.064  29.263  26.252  1.00  0.00     0.029 A 
ATOM     33  C   UNL A   1      34.450  29.244  26.707  1.00  0.00     0.029 A 
ATOM     34  C   UNL A   1      31.969  30.549  26.779  1.00  0.00     0.041 A 
ATOM     35  C   UNL A   1      34.348  30.537  27.228  1.00  0.00     0.041 A 
ATOM     36  C   UNL A   1      33.114  31.181  27.245  1.00  0.00     0.123 A 
ATOM     37  F   UNL A   1      33.027  32.430  27.721  1.00  0.00    -0.207 F 
ENDBRANCH  13  31
ENDBRANCH   4   7
ENDBRANCH   2   3
ENDBRANCH   1   2
BRANCH   1  38
ATOM     38  C   UNL A   1      37.589  21.571  25.936  1.00  0.00     0.023 C 
BRANCH  38  39
ATOM     39  C   UNL A   1      38.402  20.847  24.865  1.00  0.00     0.116 C 
BRANCH  39  40
ATOM     40  N   UNL A   1      39.136  19.674  25.369  1.00  0.00    -0.352 N 
ATOM     41  C   UNL A   1      40.446  19.595  25.833  1.00  0.00     0.251 C 
ATOM     42  H   UNL A   1      38.631  18.829  25.379  1.00  0.00     0.163 HD
ATOM     43  O   UNL A   1      41.066  18.548  25.840  1.00  0.00    -0.269 OA
BRANCH  41  44
ATOM     44  C   UNL A   1      41.054  20.827  26.365  1.00  0.00     0.039 A 
ATOM     45  C   UNL A   1      41.671  21.801  25.574  1.00  0.00     0.014 A 
ATOM     46  C   UNL A   1      40.909  21.004  27.732  1.00  0.00     0.014 A 
ATOM     47  C   UNL A   1      42.089  22.981  26.191  1.00  0.00     0.010 A 
ATOM     48  C   UNL A   1      41.012  22.257  28.243  1.00  0.00     0.010 A 
ATOM     49  C   UNL A   1      41.749  23.188  27.534  1.00  0.00    -0.014 A 
BRANCH  49  50
ATOM     50  C   UNL A   1      42.125  24.357  28.301  1.00  0.00     0.031 A 
ATOM     51  C   UNL A   1      41.152  25.471  28.282  1.00  0.00     0.074 A 
ATOM     52  C   UNL A   1      43.137  24.307  29.195  1.00  0.00     0.049 A 
ATOM     53  N   UNL A   1      41.293  26.613  27.704  1.00  0.00    -0.248 NA
ATOM     54  C   UNL A   1      39.818  25.248  28.855  1.00  0.00     0.031 C 
ATOM     55  C   UNL A   1      43.979  23.167  29.595  1.00  0.00     0.029 A 
ATOM     56  N   UNL A   1      43.565  25.291  30.022  1.00  0.00    -0.354 N 
ATOM     57  C   UNL A   1      40.141  27.337  27.992  1.00  0.00     0.074 A 
ATOM     58  C   UNL A   1      39.202  26.389  28.533  1.00  0.00     0.031 C 
ATOM     59  C   UNL A   1      44.659  23.478  30.721  1.00  0.00     0.029 A 
ATOM     60  C   UNL A   1      44.436  24.879  31.021  1.00  0.00     0.049 A 
ATOM     61  H   UNL A   1      43.279  26.228  29.922  1.00  0.00     0.167 HD
ATOM     62  C   UNL A   1      40.143  28.699  27.951  1.00  0.00     0.037 A 
ATOM     63  C   UNL A   1      44.912  25.651  32.028  1.00  0.00     0.037 A 
ATOM     64  C   UNL A   1      41.354  29.189  27.334  1.00  0.00     0.049 A 
ATOM     65  C   UNL A   1      44.758  27.065  31.590  1.00  0.00     0.074 A 
ATOM     66  C   UNL A   1      41.924  29.049  26.083  1.00  0.00     0.029 A 
ATOM     67  N   UNL A   1      42.374  29.593  28.165  1.00  0.00    -0.354 N 
ATOM     68  N   UNL A   1      45.427  27.585  30.595  1.00  0.00    -0.248 NA
ATOM     69  C   UNL A   1      43.510  27.742  31.918  1.00  0.00     0.031 C 
ATOM     70  C   UNL A   1      43.319  28.882  26.333  1.00  0.00     0.029 A 
ATOM     71  C   UNL A   1      43.529  29.010  27.707  1.00  0.00     0.049 A 
ATOM     72  H   UNL A   1      42.290  30.190  28.942  1.00  0.00     0.167 HD
ATOM     73  C   UNL A   1      44.504  28.365  29.909  1.00  0.00     0.074 A 
ATOM     74  C   UNL A   1      43.361  28.484  30.816  1.00  0.00     0.031 C 
ATOM     75  C   UNL A   1      44.617  28.588  28.565  1.00  0.00     0.037 A 
BRANCH  62  76
ATOM     76  C   UNL A   1      39.239  29.607  28.745  1.00  0.00     0.057 A 
ATOM     77  C   UNL A   1      38.148  30.216  28.098  1.00  0.00     0.134 A 
ATOM     78  C   UNL A   1      39.534  30.117  30.025  1.00  0.00     0.134 A 
ATOM     79  F   UNL A   1      37.759  29.819  26.876  1.00  0.00    -0.206 F 
ATOM     80  C   UNL A   1      37.461  31.307  28.644  1.00  0.00     0.040 A 
ATOM     81  C   UNL A   1      38.820  31.172  30.601  1.00  0.00     0.040 A 
ATOM     82  F   UNL A   1      40.580  29.698  30.744  1.00  0.00    -0.206 F 
ATOM     83  C   UNL A   1      37.804  31.795  29.896  1.00  0.00     0.006 A 
ENDBRANCH  62  76
BRANCH  63  84
ATOM     84  C   UNL A   1      45.190  25.258  33.428  1.00  0.00     0.057 A 
ATOM     85  C   UNL A   1      44.152  25.006  34.336  1.00  0.00     0.134 A 
ATOM     86  C   UNL A   1      46.476  24.859  33.838  1.00  0.00     0.134 A 
ATOM     87  F   UNL A   1      42.885  25.315  34.023  1.00  0.00    -0.206 F 
ATOM     88  C   UNL A   1      44.375  24.370  35.567  1.00  0.00     0.040 A 
ATOM     89  C   UNL A   1      46.712  24.228  35.064  1.00  0.00     0.040 A 
ATOM     90  F   UNL A   1      47.534  24.988  33.025  1.00  0.00    -0.206 F 
ATOM     91  C   UNL A   1      45.658  23.968  35.928  1.00  0.00     0.006 A 
ENDBRANCH  63  84
BRANCH  75  92
ATOM     92  C   UNL A   1      45.879  28.135  27.874  1.00  0.00     0.057 A 
ATOM     93  C   UNL A   1      46.025  26.890  27.242  1.00  0.00     0.134 A 
ATOM     94  C   UNL A   1      46.917  29.052  27.690  1.00  0.00     0.134 A 
ATOM     95  F   UNL A   1      45.048  25.979  27.268  1.00  0.00    -0.206 F 
ATOM     96  C   UNL A   1      47.163  26.559  26.498  1.00  0.00     0.040 A 
ATOM     97  C   UNL A   1      48.046  28.748  26.923  1.00  0.00     0.040 A 
ATOM     98  F   UNL A   1      46.827  30.287  28.210  1.00  0.00    -0.206 F 
ATOM     99  C   UNL A   1      48.177  27.495  26.331  1.00  0.00     0.006 A 
ENDBRANCH  75  92
ENDBRANCH  49  50
ENDBRANCH  41  44
ENDBRANCH  39  40
ENDBRANCH  38  39
ENDBRANCH   1  38
TORSDOF 15
ENDMDL
MODEL 3
REMARK VINA RESULT:     -13.3      3.547      8.330
REMARK SMILES COc1cc([C@@H]2CC(=O)Nc3c(C(=O)NCCCCNC(=O)c4ccc(-c5c6nc(c(-c7c(F)cccc7F)c7ccc([nH]7)c(-c7c(F)cccc7F)c7nc(c(-c8c(F)cccc8F)c8ccc5[nH]8)C=C7)C=C6)cc4)cn(-c4ccc(F)cc4)c32)c(OC)c2c1OCO2
REMARK SMILES IDX 17 1 16 2 15 3 13 4 14 5 12 7 6 8 7 9 86 10 8 11 11 12 78 13
REMARK SMILES IDX 9 14 10 15 77 16 5 18 3 19 4 20 91 21 90 22 92 23 87 24
REMARK SMILES IDX 94 25 93 26 2 27 1 28 88 29 89 30 79 31 80 32 85 33 81 34
REMARK SMILES IDX 84 35 82 36 83 37 18 38 19 39 20 40 21 41 22 43 23 44 24 45
REMARK SMILES IDX 76 46 25 47 75 48 26 49 27 50 28 51 69 52 29 53 74 54 68 55
REMARK SMILES IDX 70 56 30 57 73 58 67 59 66 60 31 62 57 63 40 64 56 65 41 66
REMARK SMILES IDX 44 67 55 68 71 69 42 70 43 71 54 73 72 74 45 75 32 76 33 77
REMARK SMILES IDX 38 78 34 79 35 80 37 81 39 82 36 83 58 84 59 85 64 86 60 87
REMARK SMILES IDX 61 88 63 89 65 90 62 91 46 92 47 93 52 94 48 95 49 96 51 97
REMARK SMILES IDX 53 98 50 99
REMARK H PARENT 15 6 10 17 20 42 70 61 44 72
REMARK Flexibility Score: inf
ROOT
ATOM      1  C   UNL A   1      37.381  22.615  24.759  1.00  0.00     0.023 C 
ENDROOT
BRANCH   1   2
ATOM      2  C   UNL A   1      36.559  23.554  25.657  1.00  0.00     0.116 C 
BRANCH   2   3
ATOM      3  N   UNL A   1      35.214  23.070  25.852  1.00  0.00    -0.352 N 
ATOM      4  C   UNL A   1      33.969  23.615  25.677  1.00  0.00     0.254 C 
ATOM      5  O   UNL A   1      33.041  22.835  25.925  1.00  0.00    -0.269 OA
ATOM      6  H   UNL A   1      35.185  22.144  26.186  1.00  0.00     0.163 HD
BRANCH   4   7
ATOM      7  C   UNL A   1      33.682  24.975  25.197  1.00  0.00     0.081 A 
ATOM      8  C   UNL A   1      32.661  27.944  23.165  1.00  0.00     0.082 C 
ATOM      9  C   UNL A   1      33.189  27.504  21.797  1.00  0.00     0.115 C 
ATOM     10  C   UNL A   1      33.078  26.953  24.216  1.00  0.00     0.055 A 
ATOM     11  C   UNL A   1      33.088  26.014  21.580  1.00  0.00     0.225 C 
ATOM     12  C   UNL A   1      33.384  25.629  23.962  1.00  0.00     0.076 A 
ATOM     13  N   UNL A   1      33.313  27.206  25.545  1.00  0.00    -0.317 N 
ATOM     14  O   UNL A   1      32.940  25.522  20.461  1.00  0.00    -0.275 OA
ATOM     15  N   UNL A   1      33.311  25.201  22.658  1.00  0.00    -0.324 N 
ATOM     16  C   UNL A   1      33.724  26.028  26.119  1.00  0.00     0.107 A 
ATOM     17  H   UNL A   1      33.428  24.239  22.487  1.00  0.00     0.170 HD
BRANCH   8  18
ATOM     18  C   UNL A   1      31.161  28.243  23.103  1.00  0.00     0.012 A 
ATOM     19  C   UNL A   1      29.475  29.938  22.523  1.00  0.00     0.165 A 
ATOM     20  C   UNL A   1      30.799  29.505  22.560  1.00  0.00     0.059 A 
ATOM     21  C   UNL A   1      28.504  29.064  22.967  1.00  0.00     0.211 A 
ATOM     22  C   UNL A   1      28.828  27.809  23.454  1.00  0.00     0.211 A 
ATOM     23  O   UNL A   1      27.159  29.285  22.972  1.00  0.00    -0.449 OA
ATOM     24  C   UNL A   1      30.142  27.365  23.536  1.00  0.00     0.168 A 
ATOM     25  O   UNL A   1      27.711  27.122  23.832  1.00  0.00    -0.449 OA
ATOM     26  C   UNL A   1      26.666  28.020  23.434  1.00  0.00     0.468 C 
BRANCH  19  27
ATOM     27  O   UNL A   1      29.279  31.185  22.007  1.00  0.00    -0.493 OA
ATOM     28  C   UNL A   1      28.341  31.240  20.937  1.00  0.00     0.278 C 
ENDBRANCH  19  27
BRANCH  24  29
ATOM     29  O   UNL A   1      30.538  26.152  24.016  1.00  0.00    -0.492 OA
ATOM     30  C   UNL A   1      30.022  25.687  25.252  1.00  0.00     0.278 C 
ENDBRANCH  24  29
ENDBRANCH   8  18
BRANCH  13  31
ATOM     31  C   UNL A   1      33.246  28.454  26.205  1.00  0.00     0.046 A 
ATOM     32  C   UNL A   1      32.012  29.090  26.374  1.00  0.00     0.029 A 
ATOM     33  C   UNL A   1      34.428  29.071  26.630  1.00  0.00     0.029 A 
ATOM     34  C   UNL A   1      31.963  30.381  26.895  1.00  0.00     0.041 A 
ATOM     35  C   UNL A   1      34.371  30.368  27.145  1.00  0.00     0.041 A 
ATOM     36  C   UNL A   1      33.144  31.015  27.259  1.00  0.00     0.123 A 
ATOM     37  F   UNL A   1      33.098  32.269  27.728  1.00  0.00    -0.207 F 
ENDBRANCH  13  31
ENDBRANCH   4   7
ENDBRANCH   2   3
ENDBRANCH   1   2
BRANCH   1  38
ATOM     38  C   UNL A   1      38.254  21.581  25.477  1.00  0.00     0.023 C 
BRANCH  38  39
ATOM     39  C   UNL A   1      39.315  22.170  26.404  1.00  0.00     0.116 C 
BRANCH  39  40
ATOM     40  N   UNL A   1      40.694  21.985  25.919  1.00  0.00    -0.352 N 
ATOM     41  C   UNL A   1      41.733  22.909  25.864  1.00  0.00     0.251 C 
ATOM     42  H   UNL A   1      40.910  21.083  25.588  1.00  0.00     0.163 HD
ATOM     43  O   UNL A   1      42.671  22.781  25.099  1.00  0.00    -0.269 OA
BRANCH  41  44
ATOM     44  C   UNL A   1      41.686  24.042  26.805  1.00  0.00     0.039 A 
ATOM     45  C   UNL A   1      42.280  24.035  28.070  1.00  0.00     0.014 A 
ATOM     46  C   UNL A   1      41.061  25.178  26.316  1.00  0.00     0.014 A 
ATOM     47  C   UNL A   1      42.272  25.220  28.807  1.00  0.00     0.010 A 
ATOM     48  C   UNL A   1      41.349  26.377  26.883  1.00  0.00     0.010 A 
ATOM     49  C   UNL A   1      41.797  26.385  28.190  1.00  0.00    -0.014 A 
BRANCH  49  50
ATOM     50  C   UNL A   1      41.722  27.678  28.837  1.00  0.00     0.031 A 
ATOM     51  C   UNL A   1      42.779  28.641  28.460  1.00  0.00     0.074 A 
ATOM     52  C   UNL A   1      40.606  28.063  29.495  1.00  0.00     0.049 A 
ATOM     53  N   UNL A   1      43.746  29.059  29.199  1.00  0.00    -0.248 NA
ATOM     54  C   UNL A   1      42.852  29.094  27.064  1.00  0.00     0.031 C 
ATOM     55  C   UNL A   1      39.324  27.358  29.658  1.00  0.00     0.029 A 
ATOM     56  N   UNL A   1      40.364  29.253  30.095  1.00  0.00    -0.354 N 
ATOM     57  C   UNL A   1      44.455  29.975  28.430  1.00  0.00     0.074 A 
ATOM     58  C   UNL A   1      43.978  29.812  27.081  1.00  0.00     0.031 C 
ATOM     59  C   UNL A   1      38.389  28.217  30.125  1.00  0.00     0.029 A 
ATOM     60  C   UNL A   1      39.040  29.470  30.453  1.00  0.00     0.049 A 
ATOM     61  H   UNL A   1      41.073  29.915  30.264  1.00  0.00     0.167 HD
ATOM     62  C   UNL A   1      45.225  30.934  29.017  1.00  0.00     0.037 A 
ATOM     63  C   UNL A   1      38.534  30.619  30.963  1.00  0.00     0.037 A 
ATOM     64  C   UNL A   1      45.384  30.667  30.428  1.00  0.00     0.049 A 
ATOM     65  C   UNL A   1      39.684  31.378  31.528  1.00  0.00     0.074 A 
ATOM     66  C   UNL A   1      45.937  29.632  31.158  1.00  0.00     0.029 A 
ATOM     67  N   UNL A   1      44.557  31.337  31.300  1.00  0.00    -0.354 N 
ATOM     68  N   UNL A   1      40.370  30.974  32.564  1.00  0.00    -0.248 NA
ATOM     69  C   UNL A   1      40.381  32.304  30.645  1.00  0.00     0.031 C 
ATOM     70  C   UNL A   1      45.042  29.436  32.251  1.00  0.00     0.029 A 
ATOM     71  C   UNL A   1      44.044  30.410  32.172  1.00  0.00     0.049 A 
ATOM     72  H   UNL A   1      44.369  32.303  31.299  1.00  0.00     0.167 HD
ATOM     73  C   UNL A   1      41.695  31.242  32.244  1.00  0.00     0.074 A 
ATOM     74  C   UNL A   1      41.632  32.132  31.083  1.00  0.00     0.031 C 
ATOM     75  C   UNL A   1      42.718  30.487  32.748  1.00  0.00     0.037 A 
BRANCH  62  76
ATOM     76  C   UNL A   1      45.563  32.278  28.425  1.00  0.00     0.057 A 
ATOM     77  C   UNL A   1      46.917  32.637  28.281  1.00  0.00     0.134 A 
ATOM     78  C   UNL A   1      44.645  33.330  28.240  1.00  0.00     0.134 A 
ATOM     79  F   UNL A   1      47.892  31.726  28.426  1.00  0.00    -0.206 F 
ATOM     80  C   UNL A   1      47.327  33.956  28.059  1.00  0.00     0.040 A 
ATOM     81  C   UNL A   1      45.043  34.642  27.966  1.00  0.00     0.040 A 
ATOM     82  F   UNL A   1      43.328  33.175  28.411  1.00  0.00    -0.206 F 
ATOM     83  C   UNL A   1      46.388  34.966  27.910  1.00  0.00     0.006 A 
ENDBRANCH  62  76
BRANCH  63  84
ATOM     84  C   UNL A   1      37.204  31.220  30.716  1.00  0.00     0.057 A 
ATOM     85  C   UNL A   1      36.248  31.324  31.736  1.00  0.00     0.134 A 
ATOM     86  C   UNL A   1      36.933  31.950  29.544  1.00  0.00     0.134 A 
ATOM     87  F   UNL A   1      36.432  30.696  32.907  1.00  0.00    -0.206 F 
ATOM     88  C   UNL A   1      35.104  32.127  31.610  1.00  0.00     0.040 A 
ATOM     89  C   UNL A   1      35.795  32.752  29.403  1.00  0.00     0.040 A 
ATOM     90  F   UNL A   1      37.808  31.980  28.528  1.00  0.00    -0.206 F 
ATOM     91  C   UNL A   1      34.882  32.855  30.443  1.00  0.00     0.006 A 
ENDBRANCH  63  84
BRANCH  75  92
ATOM     92  C   UNL A   1      42.392  29.479  33.821  1.00  0.00     0.057 A 
ATOM     93  C   UNL A   1      42.100  28.129  33.570  1.00  0.00     0.134 A 
ATOM     94  C   UNL A   1      42.552  29.842  35.163  1.00  0.00     0.134 A 
ATOM     95  F   UNL A   1      42.029  27.655  32.323  1.00  0.00    -0.206 F 
ATOM     96  C   UNL A   1      41.935  27.197  34.600  1.00  0.00     0.040 A 
ATOM     97  C   UNL A   1      42.421  28.915  36.201  1.00  0.00     0.040 A 
ATOM     98  F   UNL A   1      42.892  31.100  35.485  1.00  0.00    -0.206 F 
ATOM     99  C   UNL A   1      42.103  27.588  35.922  1.00  0.00     0.006 A 
ENDBRANCH  75  92
ENDBRANCH  49  50
ENDBRANCH  41  44
ENDBRANCH  39  40
ENDBRANCH  38  39
ENDBRANCH   1  38
TORSDOF 15
ENDMDL
