MODEL 1
REMARK VINA RESULT:     -11.8      0.000      0.000
REMARK SMILES O=C(NCCCCNC(=O)[C@@H]1C[C@@H](O)CN1C(=O)CSc1ccc(F)cc1F)c1ccc(-c2c3nc(c(-c4c(F)cccc4F)c4ccc([nH]4)c(-c4c(F)cccc4F)c4nc(c(-c5c(F)cccc5F)c5ccc2[nH]5)C=C4)C=C3)cc1
REMARK SMILES IDX 6 1 5 2 4 3 3 4 1 5 2 6 29 8 30 9 82 10 31 11 81 12 32 13
REMARK SMILES IDX 33 14 34 15 75 16 35 17 80 18 74 19 76 20 36 21 79 22 73 23
REMARK SMILES IDX 72 24 37 26 63 27 46 28 62 29 47 30 50 31 61 32 77 33 48 34
REMARK SMILES IDX 49 35 60 37 78 38 51 39 38 40 39 41 44 42 40 43 41 44 43 45
REMARK SMILES IDX 45 46 42 47 64 48 65 49 70 50 66 51 67 52 69 53 71 54 68 55
REMARK SMILES IDX 52 56 53 57 58 58 54 59 55 60 57 61 59 62 56 63 7 64 8 65
REMARK SMILES IDX 9 66 10 68 11 69 12 70 16 71 13 72 15 73 17 74 18 75 19 76
REMARK SMILES IDX 20 77 21 78 22 79 27 80 23 81 26 82 28 83 24 84 25 85 14 86
REMARK H PARENT 3 7 76 25 50 36 8 67 14 87
REMARK Flexibility Score: inf
ROOT
ATOM      1  C   UNL A   1      31.221  30.701  25.449  1.00  0.00     0.023 C 
ENDROOT
BRANCH   1   2
ATOM      2  C   UNL A   1      31.066  31.815  26.488  1.00  0.00     0.023 C 
BRANCH   2   3
ATOM      3  C   UNL A   1      32.371  32.476  26.917  1.00  0.00     0.116 C 
BRANCH   3   4
ATOM      4  N   UNL A   1      32.178  33.831  27.408  1.00  0.00    -0.352 N 
ATOM      5  O   UNL A   1      32.533  35.611  28.752  1.00  0.00    -0.269 OA
ATOM      6  C   UNL A   1      32.904  34.511  28.354  1.00  0.00     0.251 C 
ATOM      7  H   UNL A   1      31.427  34.327  27.009  1.00  0.00     0.163 HD
BRANCH   6   8
ATOM      8  C   UNL A   1      34.120  33.891  28.909  1.00  0.00     0.039 A 
ATOM      9  C   UNL A   1      34.028  32.900  29.892  1.00  0.00     0.014 A 
ATOM     10  C   UNL A   1      35.363  34.322  28.445  1.00  0.00     0.014 A 
ATOM     11  C   UNL A   1      35.185  32.415  30.489  1.00  0.00     0.010 A 
ATOM     12  C   UNL A   1      36.525  33.789  29.001  1.00  0.00     0.010 A 
ATOM     13  C   UNL A   1      36.442  32.849  30.042  1.00  0.00    -0.014 A 
BRANCH  13  14
ATOM     14  C   UNL A   1      37.678  32.284  30.629  1.00  0.00     0.031 A 
ATOM     15  C   UNL A   1      38.349  31.100  30.002  1.00  0.00     0.074 A 
ATOM     16  C   UNL A   1      38.171  32.835  31.753  1.00  0.00     0.049 A 
ATOM     17  N   UNL A   1      39.375  30.413  30.432  1.00  0.00    -0.248 NA
ATOM     18  C   UNL A   1      37.790  30.618  28.730  1.00  0.00     0.031 C 
ATOM     19  C   UNL A   1      37.602  33.996  32.441  1.00  0.00     0.029 A 
ATOM     20  N   UNL A   1      39.253  32.488  32.519  1.00  0.00    -0.354 N 
ATOM     21  C   UNL A   1      39.573  29.404  29.499  1.00  0.00     0.074 A 
ATOM     22  C   UNL A   1      38.550  29.558  28.487  1.00  0.00     0.031 C 
ATOM     23  C   UNL A   1      38.349  34.275  33.518  1.00  0.00     0.029 A 
ATOM     24  C   UNL A   1      39.408  33.278  33.630  1.00  0.00     0.049 A 
ATOM     25  H   UNL A   1      39.859  31.746  32.293  1.00  0.00     0.167 HD
ATOM     26  C   UNL A   1      40.525  28.442  29.492  1.00  0.00     0.037 A 
ATOM     27  C   UNL A   1      40.287  33.192  34.645  1.00  0.00     0.037 A 
ATOM     28  C   UNL A   1      41.546  28.310  30.499  1.00  0.00     0.049 A 
ATOM     29  C   UNL A   1      41.304  32.091  34.641  1.00  0.00     0.074 A 
ATOM     30  C   UNL A   1      42.581  27.393  30.561  1.00  0.00     0.029 A 
ATOM     31  N   UNL A   1      41.657  29.117  31.622  1.00  0.00    -0.354 N 
ATOM     32  N   UNL A   1      41.491  31.150  33.747  1.00  0.00    -0.248 NA
ATOM     33  C   UNL A   1      42.223  32.028  35.784  1.00  0.00     0.031 C 
ATOM     34  C   UNL A   1      43.291  27.617  31.745  1.00  0.00     0.029 A 
ATOM     35  C   UNL A   1      42.728  28.702  32.397  1.00  0.00     0.049 A 
ATOM     36  H   UNL A   1      41.063  29.872  31.837  1.00  0.00     0.167 HD
ATOM     37  C   UNL A   1      42.559  30.394  34.208  1.00  0.00     0.074 A 
ATOM     38  C   UNL A   1      42.981  30.988  35.461  1.00  0.00     0.031 C 
ATOM     39  C   UNL A   1      43.136  29.308  33.641  1.00  0.00     0.037 A 
BRANCH  26  40
ATOM     40  C   UNL A   1      40.495  27.440  28.376  1.00  0.00     0.057 A 
ATOM     41  C   UNL A   1      41.218  27.665  27.198  1.00  0.00     0.134 A 
ATOM     42  C   UNL A   1      39.721  26.276  28.446  1.00  0.00     0.134 A 
ATOM     43  F   UNL A   1      41.975  28.765  27.063  1.00  0.00    -0.206 F 
ATOM     44  C   UNL A   1      41.169  26.771  26.127  1.00  0.00     0.040 A 
ATOM     45  C   UNL A   1      39.682  25.361  27.391  1.00  0.00     0.040 A 
ATOM     46  F   UNL A   1      39.014  25.994  29.550  1.00  0.00    -0.206 F 
ATOM     47  C   UNL A   1      40.403  25.612  26.224  1.00  0.00     0.006 A 
ENDBRANCH  26  40
BRANCH  27  48
ATOM     48  C   UNL A   1      40.220  34.189  35.739  1.00  0.00     0.057 A 
ATOM     49  C   UNL A   1      39.446  33.963  36.884  1.00  0.00     0.134 A 
ATOM     50  C   UNL A   1      40.858  35.428  35.621  1.00  0.00     0.134 A 
ATOM     51  F   UNL A   1      38.799  32.800  37.045  1.00  0.00    -0.206 F 
ATOM     52  C   UNL A   1      39.285  34.947  37.861  1.00  0.00     0.040 A 
ATOM     53  C   UNL A   1      40.722  36.412  36.600  1.00  0.00     0.040 A 
ATOM     54  F   UNL A   1      41.620  35.695  34.550  1.00  0.00    -0.206 F 
ATOM     55  C   UNL A   1      39.924  36.177  37.719  1.00  0.00     0.006 A 
ENDBRANCH  27  48
BRANCH  39  56
ATOM     56  C   UNL A   1      44.305  28.696  34.348  1.00  0.00     0.057 A 
ATOM     57  C   UNL A   1      44.112  27.685  35.299  1.00  0.00     0.134 A 
ATOM     58  C   UNL A   1      45.608  29.171  34.160  1.00  0.00     0.134 A 
ATOM     59  F   UNL A   1      42.885  27.194  35.530  1.00  0.00    -0.206 F 
ATOM     60  C   UNL A   1      45.172  27.183  36.054  1.00  0.00     0.040 A 
ATOM     61  C   UNL A   1      46.680  28.662  34.894  1.00  0.00     0.040 A 
ATOM     62  F   UNL A   1      45.858  30.130  33.255  1.00  0.00    -0.206 F 
ATOM     63  C   UNL A   1      46.460  27.674  35.854  1.00  0.00     0.006 A 
ENDBRANCH  39  56
ENDBRANCH  13  14
ENDBRANCH   6   8
ENDBRANCH   3   4
ENDBRANCH   2   3
ENDBRANCH   1   2
BRANCH   1  64
ATOM     64  C   UNL A   1      32.358  29.721  25.741  1.00  0.00     0.116 C 
BRANCH  64  65
ATOM     65  N   UNL A   1      33.241  29.607  24.599  1.00  0.00    -0.354 N 
ATOM     66  C   UNL A   1      33.766  28.483  24.017  1.00  0.00     0.242 C 
ATOM     67  H   UNL A   1      33.502  30.459  24.181  1.00  0.00     0.163 HD
ATOM     68  O   UNL A   1      34.610  28.659  23.139  1.00  0.00    -0.273 OA
BRANCH  66  69
ATOM     69  C   UNL A   1      33.266  27.092  24.490  1.00  0.00     0.177 C 
ATOM     70  C   UNL A   1      34.046  26.633  25.734  1.00  0.00     0.069 C 
ATOM     71  N   UNL A   1      33.433  25.958  23.561  1.00  0.00    -0.327 N 
ATOM     72  C   UNL A   1      33.879  25.125  25.720  1.00  0.00     0.136 C 
ATOM     73  C   UNL A   1      33.996  24.794  24.238  1.00  0.00     0.152 C 
BRANCH  71  74
ATOM     74  C   UNL A   1      32.909  25.988  22.288  1.00  0.00     0.233 C 
ATOM     75  O   UNL A   1      33.653  26.175  21.317  1.00  0.00    -0.274 OA
BRANCH  74  76
ATOM     76  C   UNL A   1      31.400  25.949  22.061  1.00  0.00     0.175 C 
BRANCH  76  77
ATOM     77  S   UNL A   1      30.302  26.354  23.463  1.00  0.00    -0.113 SA
BRANCH  77  78
ATOM     78  C   UNL A   1      29.560  27.885  22.937  1.00  0.00     0.044 A 
ATOM     79  C   UNL A   1      30.372  28.876  22.376  1.00  0.00     0.021 A 
ATOM     80  C   UNL A   1      28.211  28.177  23.166  1.00  0.00     0.139 A 
ATOM     81  C   UNL A   1      29.821  30.105  21.998  1.00  0.00     0.040 A 
ATOM     82  C   UNL A   1      27.644  29.376  22.752  1.00  0.00     0.079 A 
ATOM     83  F   UNL A   1      27.455  27.331  23.874  1.00  0.00    -0.206 F 
ATOM     84  C   UNL A   1      28.459  30.333  22.168  1.00  0.00     0.126 A 
ATOM     85  F   UNL A   1      27.937  31.508  21.794  1.00  0.00    -0.207 F 
ENDBRANCH  77  78
ENDBRANCH  76  77
ENDBRANCH  74  76
ENDBRANCH  71  74
BRANCH  72  86
ATOM     86  O   UNL A   1      32.593  24.782  26.237  1.00  0.00    -0.391 OA
ATOM     87  H   UNL A   1      32.361  23.883  25.957  1.00  0.00     0.211 HD
ENDBRANCH  72  86
ENDBRANCH  66  69
ENDBRANCH  64  65
ENDBRANCH   1  64
TORSDOF 16
ENDMDL
MODEL 2
REMARK VINA RESULT:     -11.6      0.756      6.282
REMARK SMILES O=C(NCCCCNC(=O)[C@@H]1C[C@@H](O)CN1C(=O)CSc1ccc(F)cc1F)c1ccc(-c2c3nc(c(-c4c(F)cccc4F)c4ccc([nH]4)c(-c4c(F)cccc4F)c4nc(c(-c5c(F)cccc5F)c5ccc2[nH]5)C=C4)C=C3)cc1
REMARK SMILES IDX 6 1 5 2 4 3 3 4 1 5 2 6 29 8 30 9 82 10 31 11 81 12 32 13
REMARK SMILES IDX 33 14 34 15 75 16 35 17 80 18 74 19 76 20 36 21 79 22 73 23
REMARK SMILES IDX 72 24 37 26 63 27 46 28 62 29 47 30 50 31 61 32 77 33 48 34
REMARK SMILES IDX 49 35 60 37 78 38 51 39 38 40 39 41 44 42 40 43 41 44 43 45
REMARK SMILES IDX 45 46 42 47 64 48 65 49 70 50 66 51 67 52 69 53 71 54 68 55
REMARK SMILES IDX 52 56 53 57 58 58 54 59 55 60 57 61 59 62 56 63 7 64 8 65
REMARK SMILES IDX 9 66 10 68 11 69 12 70 16 71 13 72 15 73 17 74 18 75 19 76
REMARK SMILES IDX 20 77 21 78 22 79 27 80 23 81 26 82 28 83 24 84 25 85 14 86
REMARK H PARENT 3 7 76 25 50 36 8 67 14 87
REMARK Flexibility Score: inf
ROOT
ATOM      1  C   UNL A   1      31.410  30.596  25.781  1.00  0.00     0.023 C 
ENDROOT
BRANCH   1   2
ATOM      2  C   UNL A   1      31.322  31.821  26.695  1.00  0.00     0.023 C 
BRANCH   2   3
ATOM      3  C   UNL A   1      32.655  32.502  26.983  1.00  0.00     0.116 C 
BRANCH   3   4
ATOM      4  N   UNL A   1      32.496  33.874  27.441  1.00  0.00    -0.352 N 
ATOM      5  O   UNL A   1      32.835  35.653  28.789  1.00  0.00    -0.269 OA
ATOM      6  C   UNL A   1      33.178  34.529  28.435  1.00  0.00     0.251 C 
ATOM      7  H   UNL A   1      31.807  34.402  26.976  1.00  0.00     0.163 HD
BRANCH   6   8
ATOM      8  C   UNL A   1      34.310  33.854  29.095  1.00  0.00     0.039 A 
ATOM      9  C   UNL A   1      35.627  34.204  28.781  1.00  0.00     0.014 A 
ATOM     10  C   UNL A   1      34.040  32.853  30.028  1.00  0.00     0.014 A 
ATOM     11  C   UNL A   1      36.679  33.475  29.322  1.00  0.00     0.010 A 
ATOM     12  C   UNL A   1      35.098  32.164  30.618  1.00  0.00     0.010 A 
ATOM     13  C   UNL A   1      36.423  32.456  30.252  1.00  0.00    -0.014 A 
BRANCH  13  14
ATOM     14  C   UNL A   1      37.544  31.724  30.882  1.00  0.00     0.031 A 
ATOM     15  C   UNL A   1      37.984  32.052  32.277  1.00  0.00     0.074 A 
ATOM     16  C   UNL A   1      38.182  30.778  30.169  1.00  0.00     0.049 A 
ATOM     17  N   UNL A   1      39.004  31.588  32.949  1.00  0.00    -0.248 NA
ATOM     18  C   UNL A   1      37.176  33.039  33.011  1.00  0.00     0.031 C 
ATOM     19  C   UNL A   1      37.830  30.371  28.807  1.00  0.00     0.029 A 
ATOM     20  N   UNL A   1      39.260  29.994  30.485  1.00  0.00    -0.354 N 
ATOM     21  C   UNL A   1      38.978  32.239  34.175  1.00  0.00     0.074 A 
ATOM     22  C   UNL A   1      37.850  33.145  34.148  1.00  0.00     0.031 C 
ATOM     23  C   UNL A   1      38.668  29.404  28.409  1.00  0.00     0.029 A 
ATOM     24  C   UNL A   1      39.649  29.167  29.462  1.00  0.00     0.049 A 
ATOM     25  H   UNL A   1      39.711  30.023  31.360  1.00  0.00     0.167 HD
ATOM     26  C   UNL A   1      39.821  32.088  35.223  1.00  0.00     0.037 A 
ATOM     27  C   UNL A   1      40.700  28.330  29.369  1.00  0.00     0.037 A 
ATOM     28  C   UNL A   1      40.932  31.172  35.240  1.00  0.00     0.049 A 
ATOM     29  C   UNL A   1      41.647  28.213  30.524  1.00  0.00     0.074 A 
ATOM     30  C   UNL A   1      41.821  30.916  36.270  1.00  0.00     0.029 A 
ATOM     31  N   UNL A   1      41.307  30.366  34.176  1.00  0.00    -0.354 N 
ATOM     32  N   UNL A   1      41.606  28.823  31.684  1.00  0.00    -0.248 NA
ATOM     33  C   UNL A   1      42.789  27.305  30.360  1.00  0.00     0.031 C 
ATOM     34  C   UNL A   1      42.762  29.987  35.811  1.00  0.00     0.029 A 
ATOM     35  C   UNL A   1      42.432  29.630  34.514  1.00  0.00     0.049 A 
ATOM     36  H   UNL A   1      40.844  30.322  33.308  1.00  0.00     0.167 HD
ATOM     37  C   UNL A   1      42.703  28.361  32.396  1.00  0.00     0.074 A 
ATOM     38  C   UNL A   1      43.390  27.417  31.538  1.00  0.00     0.031 C 
ATOM     39  C   UNL A   1      43.101  28.691  33.648  1.00  0.00     0.037 A 
BRANCH  26  40
ATOM     40  C   UNL A   1      39.592  32.949  36.431  1.00  0.00     0.057 A 
ATOM     41  C   UNL A   1      38.668  32.567  37.412  1.00  0.00     0.134 A 
ATOM     42  C   UNL A   1      40.250  34.172  36.605  1.00  0.00     0.134 A 
ATOM     43  F   UNL A   1      37.998  31.409  37.302  1.00  0.00    -0.206 F 
ATOM     44  C   UNL A   1      38.403  33.373  38.520  1.00  0.00     0.040 A 
ATOM     45  C   UNL A   1      40.012  34.976  37.722  1.00  0.00     0.040 A 
ATOM     46  F   UNL A   1      41.155  34.591  35.708  1.00  0.00    -0.206 F 
ATOM     47  C   UNL A   1      39.080  34.580  38.680  1.00  0.00     0.006 A 
ENDBRANCH  26  40
BRANCH  27  48
ATOM     48  C   UNL A   1      40.888  27.552  28.122  1.00  0.00     0.057 A 
ATOM     49  C   UNL A   1      41.604  28.076  27.038  1.00  0.00     0.134 A 
ATOM     50  C   UNL A   1      40.279  26.305  27.955  1.00  0.00     0.134 A 
ATOM     51  F   UNL A   1      42.197  29.274  27.133  1.00  0.00    -0.206 F 
ATOM     52  C   UNL A   1      41.684  27.397  25.820  1.00  0.00     0.040 A 
ATOM     53  C   UNL A   1      40.369  25.606  26.751  1.00  0.00     0.040 A 
ATOM     54  F   UNL A   1      39.589  25.751  28.963  1.00  0.00    -0.206 F 
ATOM     55  C   UNL A   1      41.063  26.158  25.676  1.00  0.00     0.006 A 
ENDBRANCH  27  48
BRANCH  39  56
ATOM     56  C   UNL A   1      44.322  28.013  34.188  1.00  0.00     0.057 A 
ATOM     57  C   UNL A   1      45.587  28.593  34.027  1.00  0.00     0.134 A 
ATOM     58  C   UNL A   1      44.258  26.746  34.779  1.00  0.00     0.134 A 
ATOM     59  F   UNL A   1      45.714  29.803  33.460  1.00  0.00    -0.206 F 
ATOM     60  C   UNL A   1      46.749  27.926  34.416  1.00  0.00     0.040 A 
ATOM     61  C   UNL A   1      45.411  26.078  35.191  1.00  0.00     0.040 A 
ATOM     62  F   UNL A   1      43.074  26.145  34.970  1.00  0.00    -0.206 F 
ATOM     63  C   UNL A   1      46.662  26.664  34.998  1.00  0.00     0.006 A 
ENDBRANCH  39  56
ENDBRANCH  13  14
ENDBRANCH   6   8
ENDBRANCH   3   4
ENDBRANCH   2   3
ENDBRANCH   1   2
BRANCH   1  64
ATOM     64  C   UNL A   1      32.719  29.814  25.900  1.00  0.00     0.116 C 
BRANCH  64  65
ATOM     65  N   UNL A   1      33.369  29.706  24.611  1.00  0.00    -0.354 N 
ATOM     66  C   UNL A   1      33.728  28.584  23.911  1.00  0.00     0.242 C 
ATOM     67  H   UNL A   1      33.585  30.562  24.175  1.00  0.00     0.163 HD
ATOM     68  O   UNL A   1      34.401  28.758  22.896  1.00  0.00    -0.273 OA
BRANCH  66  69
ATOM     69  C   UNL A   1      33.264  27.198  24.431  1.00  0.00     0.177 C 
ATOM     70  C   UNL A   1      34.071  26.790  25.676  1.00  0.00     0.069 C 
ATOM     71  N   UNL A   1      33.440  26.041  23.533  1.00  0.00    -0.327 N 
ATOM     72  C   UNL A   1      33.935  25.279  25.707  1.00  0.00     0.136 C 
ATOM     73  C   UNL A   1      34.037  24.908  24.233  1.00  0.00     0.152 C 
BRANCH  71  74
ATOM     74  C   UNL A   1      32.897  26.023  22.267  1.00  0.00     0.233 C 
ATOM     75  O   UNL A   1      33.636  26.041  21.275  1.00  0.00    -0.274 OA
BRANCH  74  76
ATOM     76  C   UNL A   1      31.388  26.139  22.061  1.00  0.00     0.175 C 
BRANCH  76  77
ATOM     77  S   UNL A   1      30.334  26.433  23.523  1.00  0.00    -0.113 SA
BRANCH  77  78
ATOM     78  C   UNL A   1      29.462  27.919  23.073  1.00  0.00     0.044 A 
ATOM     79  C   UNL A   1      30.185  29.006  22.570  1.00  0.00     0.021 A 
ATOM     80  C   UNL A   1      28.092  28.081  23.308  1.00  0.00     0.139 A 
ATOM     81  C   UNL A   1      29.531  30.200  22.253  1.00  0.00     0.040 A 
ATOM     82  C   UNL A   1      27.424  29.246  22.953  1.00  0.00     0.079 A 
ATOM     83  F   UNL A   1      27.412  27.135  23.966  1.00  0.00    -0.206 F 
ATOM     84  C   UNL A   1      28.153  30.299  22.425  1.00  0.00     0.126 A 
ATOM     85  F   UNL A   1      27.531  31.443  22.111  1.00  0.00    -0.207 F 
ENDBRANCH  77  78
ENDBRANCH  76  77
ENDBRANCH  74  76
ENDBRANCH  71  74
BRANCH  72  86
ATOM     86  O   UNL A   1      32.664  24.926  26.254  1.00  0.00    -0.391 OA
ATOM     87  H   UNL A   1      32.491  25.463  27.042  1.00  0.00     0.211 HD
ENDBRANCH  72  86
ENDBRANCH  66  69
ENDBRANCH  64  65
ENDBRANCH   1  64
TORSDOF 16
ENDMDL
MODEL 3
REMARK VINA RESULT:     -11.6      4.863      9.690
REMARK SMILES O=C(NCCCCNC(=O)[C@@H]1C[C@@H](O)CN1C(=O)CSc1ccc(F)cc1F)c1ccc(-c2c3nc(c(-c4c(F)cccc4F)c4ccc([nH]4)c(-c4c(F)cccc4F)c4nc(c(-c5c(F)cccc5F)c5ccc2[nH]5)C=C4)C=C3)cc1
REMARK SMILES IDX 6 1 5 2 4 3 3 4 1 5 2 6 29 8 30 9 82 10 31 11 81 12 32 13
REMARK SMILES IDX 33 14 34 15 75 16 35 17 80 18 74 19 76 20 36 21 79 22 73 23
REMARK SMILES IDX 72 24 37 26 63 27 46 28 62 29 47 30 50 31 61 32 77 33 48 34
REMARK SMILES IDX 49 35 60 37 78 38 51 39 38 40 39 41 44 42 40 43 41 44 43 45
REMARK SMILES IDX 45 46 42 47 64 48 65 49 70 50 66 51 67 52 69 53 71 54 68 55
REMARK SMILES IDX 52 56 53 57 58 58 54 59 55 60 57 61 59 62 56 63 7 64 8 65
REMARK SMILES IDX 9 66 10 68 11 69 12 70 16 71 13 72 15 73 17 74 18 75 19 76
REMARK SMILES IDX 20 77 21 78 22 79 27 80 23 81 26 82 28 83 24 84 25 85 14 86
REMARK H PARENT 3 7 76 25 50 36 8 67 14 87
REMARK Flexibility Score: inf
ROOT
ATOM      1  C   UNL A   1      36.952  21.822  24.134  1.00  0.00     0.023 C 
ENDROOT
BRANCH   1   2
ATOM      2  C   UNL A   1      37.605  20.516  24.592  1.00  0.00     0.023 C 
BRANCH   2   3
ATOM      3  C   UNL A   1      38.590  20.664  25.746  1.00  0.00     0.116 C 
BRANCH   3   4
ATOM      4  N   UNL A   1      39.636  19.652  25.723  1.00  0.00    -0.352 N 
ATOM      5  O   UNL A   1      41.746  18.861  25.855  1.00  0.00    -0.269 OA
ATOM      6  C   UNL A   1      40.961  19.784  26.050  1.00  0.00     0.251 C 
ATOM      7  H   UNL A   1      39.354  18.754  25.436  1.00  0.00     0.163 HD
BRANCH   6   8
ATOM      8  C   UNL A   1      41.440  21.060  26.611  1.00  0.00     0.039 A 
ATOM      9  C   UNL A   1      41.437  21.274  27.994  1.00  0.00     0.014 A 
ATOM     10  C   UNL A   1      41.883  22.052  25.736  1.00  0.00     0.014 A 
ATOM     11  C   UNL A   1      41.778  22.524  28.495  1.00  0.00     0.010 A 
ATOM     12  C   UNL A   1      42.284  23.286  26.246  1.00  0.00     0.010 A 
ATOM     13  C   UNL A   1      42.212  23.536  27.626  1.00  0.00    -0.014 A 
BRANCH  13  14
ATOM     14  C   UNL A   1      42.640  24.847  28.164  1.00  0.00     0.031 A 
ATOM     15  C   UNL A   1      41.633  25.914  28.469  1.00  0.00     0.074 A 
ATOM     16  C   UNL A   1      43.954  25.074  28.346  1.00  0.00     0.049 A 
ATOM     17  N   UNL A   1      41.832  27.150  28.848  1.00  0.00    -0.248 NA
ATOM     18  C   UNL A   1      40.215  25.549  28.321  1.00  0.00     0.031 C 
ATOM     19  C   UNL A   1      45.019  24.102  28.091  1.00  0.00     0.029 A 
ATOM     20  N   UNL A   1      44.617  26.193  28.779  1.00  0.00    -0.354 N 
ATOM     21  C   UNL A   1      40.571  27.718  28.962  1.00  0.00     0.074 A 
ATOM     22  C   UNL A   1      39.612  26.698  28.596  1.00  0.00     0.031 C 
ATOM     23  C   UNL A   1      46.201  24.661  28.386  1.00  0.00     0.029 A 
ATOM     24  C   UNL A   1      45.981  26.046  28.790  1.00  0.00     0.049 A 
ATOM     25  H   UNL A   1      44.159  27.020  29.054  1.00  0.00     0.167 HD
ATOM     26  C   UNL A   1      40.249  28.977  29.340  1.00  0.00     0.037 A 
ATOM     27  C   UNL A   1      46.951  26.937  29.065  1.00  0.00     0.037 A 
ATOM     28  C   UNL A   1      41.213  29.978  29.716  1.00  0.00     0.049 A 
ATOM     29  C   UNL A   1      46.574  28.338  29.438  1.00  0.00     0.074 A 
ATOM     30  C   UNL A   1      40.986  31.272  30.153  1.00  0.00     0.029 A 
ATOM     31  N   UNL A   1      42.588  29.798  29.694  1.00  0.00    -0.354 N 
ATOM     32  N   UNL A   1      45.378  28.862  29.556  1.00  0.00    -0.248 NA
ATOM     33  C   UNL A   1      47.672  29.275  29.705  1.00  0.00     0.031 C 
ATOM     34  C   UNL A   1      42.226  31.888  30.353  1.00  0.00     0.029 A 
ATOM     35  C   UNL A   1      43.224  30.966  30.085  1.00  0.00     0.049 A 
ATOM     36  H   UNL A   1      43.045  28.964  29.438  1.00  0.00     0.167 HD
ATOM     37  C   UNL A   1      45.577  30.184  29.928  1.00  0.00     0.074 A 
ATOM     38  C   UNL A   1      47.009  30.381  30.019  1.00  0.00     0.031 C 
ATOM     39  C   UNL A   1      44.652  31.143  30.173  1.00  0.00     0.037 A 
BRANCH  26  40
ATOM     40  C   UNL A   1      38.796  29.354  29.345  1.00  0.00     0.057 A 
ATOM     41  C   UNL A   1      38.052  29.305  30.530  1.00  0.00     0.134 A 
ATOM     42  C   UNL A   1      38.122  29.722  28.174  1.00  0.00     0.134 A 
ATOM     43  F   UNL A   1      38.636  28.954  31.687  1.00  0.00    -0.206 F 
ATOM     44  C   UNL A   1      36.689  29.606  30.552  1.00  0.00     0.040 A 
ATOM     45  C   UNL A   1      36.764  30.048  28.186  1.00  0.00     0.040 A 
ATOM     46  F   UNL A   1      38.779  29.799  27.007  1.00  0.00    -0.206 F 
ATOM     47  C   UNL A   1      36.042  29.983  29.377  1.00  0.00     0.006 A 
ENDBRANCH  26  40
BRANCH  27  48
ATOM     48  C   UNL A   1      48.366  26.502  28.989  1.00  0.00     0.057 A 
ATOM     49  C   UNL A   1      49.086  26.574  27.789  1.00  0.00     0.134 A 
ATOM     50  C   UNL A   1      49.000  25.922  30.092  1.00  0.00     0.134 A 
ATOM     51  F   UNL A   1      48.526  27.106  26.694  1.00  0.00    -0.206 F 
ATOM     52  C   UNL A   1      50.379  26.057  27.683  1.00  0.00     0.040 A 
ATOM     53  C   UNL A   1      50.299  25.422  30.005  1.00  0.00     0.040 A 
ATOM     54  F   UNL A   1      48.361  25.837  31.269  1.00  0.00    -0.206 F 
ATOM     55  C   UNL A   1      50.988  25.478  28.794  1.00  0.00     0.006 A 
ENDBRANCH  27  48
BRANCH  39  56
ATOM     56  C   UNL A   1      45.149  32.493  30.589  1.00  0.00     0.057 A 
ATOM     57  C   UNL A   1      45.354  32.790  31.942  1.00  0.00     0.134 A 
ATOM     58  C   UNL A   1      45.333  33.526  29.662  1.00  0.00     0.134 A 
ATOM     59  F   UNL A   1      45.186  31.843  32.879  1.00  0.00    -0.206 F 
ATOM     60  C   UNL A   1      45.703  34.073  32.363  1.00  0.00     0.040 A 
ATOM     61  C   UNL A   1      45.702  34.808  30.068  1.00  0.00     0.040 A 
ATOM     62  F   UNL A   1      45.163  33.300  28.351  1.00  0.00    -0.206 F 
ATOM     63  C   UNL A   1      45.876  35.087  31.423  1.00  0.00     0.006 A 
ENDBRANCH  39  56
ENDBRANCH  13  14
ENDBRANCH   6   8
ENDBRANCH   3   4
ENDBRANCH   2   3
ENDBRANCH   1   2
BRANCH   1  64
ATOM     64  C   UNL A   1      36.887  22.906  25.211  1.00  0.00     0.116 C 
BRANCH  64  65
ATOM     65  N   UNL A   1      35.727  22.718  26.057  1.00  0.00    -0.354 N 
ATOM     66  C   UNL A   1      34.601  23.490  26.169  1.00  0.00     0.242 C 
ATOM     67  H   UNL A   1      35.752  21.922  26.635  1.00  0.00     0.163 HD
ATOM     68  O   UNL A   1      33.816  23.194  27.069  1.00  0.00    -0.273 OA
BRANCH  66  69
ATOM     69  C   UNL A   1      34.391  24.658  25.169  1.00  0.00     0.177 C 
ATOM     70  C   UNL A   1      33.802  25.885  25.887  1.00  0.00     0.069 C 
ATOM     71  N   UNL A   1      33.442  24.442  24.060  1.00  0.00    -0.327 N 
ATOM     72  C   UNL A   1      33.144  26.669  24.768  1.00  0.00     0.136 C 
ATOM     73  C   UNL A   1      32.528  25.570  23.912  1.00  0.00     0.152 C 
BRANCH  71  74
ATOM     74  C   UNL A   1      33.589  23.390  23.182  1.00  0.00     0.233 C 
ATOM     75  O   UNL A   1      34.567  23.346  22.426  1.00  0.00    -0.274 OA
BRANCH  74  76
ATOM     76  C   UNL A   1      32.483  22.351  23.015  1.00  0.00     0.175 C 
BRANCH  76  77
ATOM     77  S   UNL A   1      32.063  21.294  24.444  1.00  0.00    -0.113 SA
BRANCH  77  78
ATOM     78  C   UNL A   1      32.810  19.739  24.002  1.00  0.00     0.044 A 
ATOM     79  C   UNL A   1      32.190  18.936  23.038  1.00  0.00     0.021 A 
ATOM     80  C   UNL A   1      33.936  19.237  24.663  1.00  0.00     0.139 A 
ATOM     81  C   UNL A   1      32.731  17.690  22.706  1.00  0.00     0.040 A 
ATOM     82  C   UNL A   1      34.509  18.022  24.309  1.00  0.00     0.079 A 
ATOM     83  F   UNL A   1      34.436  19.890  25.719  1.00  0.00    -0.206 F 
ATOM     84  C   UNL A   1      33.898  17.257  23.329  1.00  0.00     0.126 A 
ATOM     85  F   UNL A   1      34.416  16.066  22.999  1.00  0.00    -0.207 F 
ENDBRANCH  77  78
ENDBRANCH  76  77
ENDBRANCH  74  76
ENDBRANCH  71  74
BRANCH  72  86
ATOM     86  O   UNL A   1      34.138  27.402  24.051  1.00  0.00    -0.391 OA
ATOM     87  H   UNL A   1      34.994  27.307  24.496  1.00  0.00     0.211 HD
ENDBRANCH  72  86
ENDBRANCH  66  69
ENDBRANCH  64  65
ENDBRANCH   1  64
TORSDOF 16
ENDMDL
