MODEL 1
REMARK VINA RESULT:     -13.2      0.000      0.000
REMARK SMILES CS(=O)(=O)c1ccc(/C=C(/C(=O)NCCCCNC(=O)c2ccc(-c3c4nc(c(-c5c(F)cccc5F)c5ccc([nH]5)c(-c5c(F)cccc5F)c5nc(c(-c6c(F)cccc6F)c6ccc3[nH]6)C=C5)C=C4)cc2)c2ccc(-c3ccc(F)cc3F)cc2)cc1
REMARK SMILES IDX 15 1 14 2 13 3 11 4 12 5 10 7 9 8 8 9 5 10 6 11 90 12 7 13
REMARK SMILES IDX 89 14 2 15 1 16 3 17 4 18 75 19 76 20 88 21 77 22 87 23
REMARK SMILES IDX 78 24 79 25 80 26 85 27 81 28 84 29 86 30 82 31 83 32 16 33
REMARK SMILES IDX 17 34 18 35 19 36 20 38 21 39 22 40 74 41 23 42 73 43 24 44
REMARK SMILES IDX 25 45 26 46 67 47 27 48 72 49 66 50 68 51 28 52 71 53 65 54
REMARK SMILES IDX 64 55 29 57 55 58 38 59 54 60 39 61 42 62 53 63 69 64 40 65
REMARK SMILES IDX 41 66 52 68 70 69 43 70 30 71 31 72 36 73 32 74 33 75 35 76
REMARK SMILES IDX 37 77 34 78 56 79 57 80 62 81 58 82 59 83 61 84 63 85 60 86
REMARK SMILES IDX 44 87 45 88 50 89 46 90 47 91 49 92 51 93 48 94
REMARK H PARENT 13 6 18 37 68 56 42 67
REMARK Flexibility Score: inf
ROOT
ATOM      1  C   UNL A   1      35.176  22.885  23.559  1.00  0.00     0.023 C 
ENDROOT
BRANCH   1   2
ATOM      2  C   UNL A   1      33.746  23.007  23.024  1.00  0.00     0.116 C 
BRANCH   2   3
ATOM      3  N   UNL A   1      32.799  22.506  23.998  1.00  0.00    -0.352 N 
ATOM      4  C   UNL A   1      31.818  23.095  24.733  1.00  0.00     0.251 C 
ATOM      5  O   UNL A   1      31.213  22.362  25.520  1.00  0.00    -0.269 OA
ATOM      6  H   UNL A   1      32.881  21.538  24.160  1.00  0.00     0.163 HD
BRANCH   4   7
ATOM      7  C   UNL A   1      31.412  24.542  24.571  1.00  0.00     0.047 C 
ATOM      8  C   UNL A   1      30.604  24.964  23.571  1.00  0.00     0.022 C 
BRANCH   8   9
ATOM      9  C   UNL A   1      30.059  26.316  23.317  1.00  0.00    -0.025 A 
ATOM     10  C   UNL A   1      28.926  28.862  23.005  1.00  0.00     0.067 A 
ATOM     11  C   UNL A   1      30.236  28.629  22.584  1.00  0.00     0.021 A 
ATOM     12  C   UNL A   1      28.154  27.825  23.527  1.00  0.00     0.021 A 
ATOM     13  C   UNL A   1      30.790  27.354  22.724  1.00  0.00     0.009 A 
ATOM     14  C   UNL A   1      28.725  26.559  23.682  1.00  0.00     0.009 A 
BRANCH  10  15
ATOM     15  S   UNL A   1      28.237  30.492  22.845  1.00  0.00     0.175 S 
ATOM     16  C   UNL A   1      27.968  30.673  21.100  1.00  0.00     0.163 C 
ATOM     17  O   UNL A   1      29.258  31.444  23.231  1.00  0.00    -0.224 OA
ATOM     18  O   UNL A   1      26.944  30.470  23.507  1.00  0.00    -0.224 OA
ENDBRANCH  10  15
ENDBRANCH   8   9
BRANCH   7  19
ATOM     19  C   UNL A   1      32.102  25.540  25.424  1.00  0.00    -0.013 A 
ATOM     20  C   UNL A   1      33.402  25.927  25.073  1.00  0.00     0.009 A 
ATOM     21  C   UNL A   1      31.454  26.216  26.462  1.00  0.00     0.009 A 
ATOM     22  C   UNL A   1      34.001  27.033  25.672  1.00  0.00     0.009 A 
ATOM     23  C   UNL A   1      32.056  27.334  27.055  1.00  0.00     0.009 A 
ATOM     24  C   UNL A   1      33.316  27.794  26.632  1.00  0.00    -0.015 A 
BRANCH  24  25
ATOM     25  C   UNL A   1      33.869  29.078  27.099  1.00  0.00     0.018 A 
ATOM     26  C   UNL A   1      35.228  29.163  27.471  1.00  0.00     0.015 A 
ATOM     27  C   UNL A   1      33.109  30.257  27.161  1.00  0.00     0.133 A 
ATOM     28  C   UNL A   1      35.792  30.370  27.887  1.00  0.00     0.040 A 
ATOM     29  C   UNL A   1      33.663  31.465  27.575  1.00  0.00     0.079 A 
ATOM     30  F   UNL A   1      31.812  30.243  26.814  1.00  0.00    -0.206 F 
ATOM     31  C   UNL A   1      35.002  31.510  27.934  1.00  0.00     0.126 A 
ATOM     32  F   UNL A   1      35.544  32.669  28.327  1.00  0.00    -0.207 F 
ENDBRANCH  24  25
ENDBRANCH   7  19
ENDBRANCH   4   7
ENDBRANCH   2   3
ENDBRANCH   1   2
BRANCH   1  33
ATOM     33  C   UNL A   1      35.310  22.021  24.819  1.00  0.00     0.023 C 
BRANCH  33  34
ATOM     34  C   UNL A   1      36.503  22.352  25.710  1.00  0.00     0.116 C 
BRANCH  34  35
ATOM     35  N   UNL A   1      37.485  21.282  25.767  1.00  0.00    -0.352 N 
ATOM     36  C   UNL A   1      38.819  21.348  26.081  1.00  0.00     0.251 C 
ATOM     37  H   UNL A   1      37.146  20.384  25.548  1.00  0.00     0.163 HD
ATOM     38  O   UNL A   1      39.524  20.350  25.973  1.00  0.00    -0.269 OA
BRANCH  36  39
ATOM     39  C   UNL A   1      39.415  22.630  26.512  1.00  0.00     0.039 A 
ATOM     40  C   UNL A   1      40.415  22.603  27.488  1.00  0.00     0.014 A 
ATOM     41  C   UNL A   1      38.993  23.847  25.970  1.00  0.00     0.014 A 
ATOM     42  C   UNL A   1      41.031  23.791  27.880  1.00  0.00     0.010 A 
ATOM     43  C   UNL A   1      39.649  25.025  26.318  1.00  0.00     0.010 A 
ATOM     44  C   UNL A   1      40.673  25.007  27.277  1.00  0.00    -0.014 A 
BRANCH  44  45
ATOM     45  C   UNL A   1      41.364  26.268  27.640  1.00  0.00     0.031 A 
ATOM     46  C   UNL A   1      42.777  26.514  27.192  1.00  0.00     0.074 A 
ATOM     47  C   UNL A   1      40.733  27.168  28.418  1.00  0.00     0.049 A 
ATOM     48  N   UNL A   1      43.555  27.537  27.442  1.00  0.00    -0.248 NA
ATOM     49  C   UNL A   1      43.407  25.462  26.380  1.00  0.00     0.031 C 
ATOM     50  C   UNL A   1      39.381  27.018  28.960  1.00  0.00     0.029 A 
ATOM     51  N   UNL A   1      41.150  28.384  28.895  1.00  0.00    -0.354 N 
ATOM     52  C   UNL A   1      44.767  27.246  26.832  1.00  0.00     0.074 A 
ATOM     53  C   UNL A   1      44.638  25.932  26.238  1.00  0.00     0.031 C 
ATOM     54  C   UNL A   1      39.072  28.111  29.677  1.00  0.00     0.029 A 
ATOM     55  C   UNL A   1      40.210  29.024  29.665  1.00  0.00     0.049 A 
ATOM     56  H   UNL A   1      42.039  28.763  28.703  1.00  0.00     0.167 HD
ATOM     57  C   UNL A   1      45.881  28.013  26.752  1.00  0.00     0.037 A 
ATOM     58  C   UNL A   1      40.262  30.215  30.290  1.00  0.00     0.037 A 
ATOM     59  C   UNL A   1      45.998  29.333  27.316  1.00  0.00     0.049 A 
ATOM     60  C   UNL A   1      41.499  31.057  30.167  1.00  0.00     0.074 A 
ATOM     61  C   UNL A   1      47.060  30.215  27.236  1.00  0.00     0.029 A 
ATOM     62  N   UNL A   1      45.012  29.960  28.065  1.00  0.00    -0.354 N 
ATOM     63  N   UNL A   1      42.613  30.799  29.528  1.00  0.00    -0.248 NA
ATOM     64  C   UNL A   1      41.482  32.361  30.845  1.00  0.00     0.031 C 
ATOM     65  C   UNL A   1      46.730  31.365  27.962  1.00  0.00     0.029 A 
ATOM     66  C   UNL A   1      45.448  31.212  28.464  1.00  0.00     0.049 A 
ATOM     67  H   UNL A   1      44.134  29.572  28.280  1.00  0.00     0.167 HD
ATOM     68  C   UNL A   1      43.420  31.915  29.705  1.00  0.00     0.074 A 
ATOM     69  C   UNL A   1      42.662  32.858  30.501  1.00  0.00     0.031 C 
ATOM     70  C   UNL A   1      44.676  32.139  29.250  1.00  0.00     0.037 A 
BRANCH  57  71
ATOM     71  C   UNL A   1      47.058  27.444  26.020  1.00  0.00     0.057 A 
ATOM     72  C   UNL A   1      47.210  27.598  24.635  1.00  0.00     0.134 A 
ATOM     73  C   UNL A   1      48.066  26.757  26.708  1.00  0.00     0.134 A 
ATOM     74  F   UNL A   1      46.272  28.235  23.916  1.00  0.00    -0.206 F 
ATOM     75  C   UNL A   1      48.309  27.069  23.957  1.00  0.00     0.040 A 
ATOM     76  C   UNL A   1      49.182  26.245  26.044  1.00  0.00     0.040 A 
ATOM     77  F   UNL A   1      47.985  26.578  28.034  1.00  0.00    -0.206 F 
ATOM     78  C   UNL A   1      49.302  26.395  24.664  1.00  0.00     0.006 A 
ENDBRANCH  57  71
BRANCH  58  79
ATOM     79  C   UNL A   1      39.088  30.699  31.057  1.00  0.00     0.057 A 
ATOM     80  C   UNL A   1      38.872  30.287  32.377  1.00  0.00     0.134 A 
ATOM     81  C   UNL A   1      38.157  31.578  30.492  1.00  0.00     0.134 A 
ATOM     82  F   UNL A   1      39.721  29.432  32.964  1.00  0.00    -0.206 F 
ATOM     83  C   UNL A   1      37.762  30.719  33.103  1.00  0.00     0.040 A 
ATOM     84  C   UNL A   1      37.054  32.035  31.215  1.00  0.00     0.040 A 
ATOM     85  F   UNL A   1      38.315  32.015  29.234  1.00  0.00    -0.206 F 
ATOM     86  C   UNL A   1      36.851  31.600  32.524  1.00  0.00     0.006 A 
ENDBRANCH  58  79
BRANCH  70  87
ATOM     87  C   UNL A   1      45.295  33.465  29.578  1.00  0.00     0.057 A 
ATOM     88  C   UNL A   1      46.075  33.650  30.726  1.00  0.00     0.134 A 
ATOM     89  C   UNL A   1      45.133  34.559  28.719  1.00  0.00     0.134 A 
ATOM     90  F   UNL A   1      46.255  32.644  31.595  1.00  0.00    -0.206 F 
ATOM     91  C   UNL A   1      46.656  34.885  31.019  1.00  0.00     0.040 A 
ATOM     92  C   UNL A   1      45.727  35.792  28.989  1.00  0.00     0.040 A 
ATOM     93  F   UNL A   1      44.402  34.444  27.600  1.00  0.00    -0.206 F 
ATOM     94  C   UNL A   1      46.488  35.958  30.146  1.00  0.00     0.006 A 
ENDBRANCH  70  87
ENDBRANCH  44  45
ENDBRANCH  36  39
ENDBRANCH  34  35
ENDBRANCH  33  34
ENDBRANCH   1  33
TORSDOF 15
ENDMDL
MODEL 2
REMARK VINA RESULT:     -13.0      0.761      5.963
REMARK SMILES CS(=O)(=O)c1ccc(/C=C(/C(=O)NCCCCNC(=O)c2ccc(-c3c4nc(c(-c5c(F)cccc5F)c5ccc([nH]5)c(-c5c(F)cccc5F)c5nc(c(-c6c(F)cccc6F)c6ccc3[nH]6)C=C5)C=C4)cc2)c2ccc(-c3ccc(F)cc3F)cc2)cc1
REMARK SMILES IDX 15 1 14 2 13 3 11 4 12 5 10 7 9 8 8 9 5 10 6 11 90 12 7 13
REMARK SMILES IDX 89 14 2 15 1 16 3 17 4 18 75 19 76 20 88 21 77 22 87 23
REMARK SMILES IDX 78 24 79 25 80 26 85 27 81 28 84 29 86 30 82 31 83 32 16 33
REMARK SMILES IDX 17 34 18 35 19 36 20 38 21 39 22 40 74 41 23 42 73 43 24 44
REMARK SMILES IDX 25 45 26 46 67 47 27 48 72 49 66 50 68 51 28 52 71 53 65 54
REMARK SMILES IDX 64 55 29 57 55 58 38 59 54 60 39 61 42 62 53 63 69 64 40 65
REMARK SMILES IDX 41 66 52 68 70 69 43 70 30 71 31 72 36 73 32 74 33 75 35 76
REMARK SMILES IDX 37 77 34 78 56 79 57 80 62 81 58 82 59 83 61 84 63 85 60 86
REMARK SMILES IDX 44 87 45 88 50 89 46 90 47 91 49 92 51 93 48 94
REMARK H PARENT 13 6 18 37 68 56 42 67
REMARK Flexibility Score: inf
ROOT
ATOM      1  C   UNL A   1      34.478  22.811  23.604  1.00  0.00     0.023 C 
ENDROOT
BRANCH   1   2
ATOM      2  C   UNL A   1      33.071  23.253  23.190  1.00  0.00     0.116 C 
BRANCH   2   3
ATOM      3  N   UNL A   1      32.101  22.847  24.186  1.00  0.00    -0.352 N 
ATOM      4  C   UNL A   1      31.199  23.530  24.941  1.00  0.00     0.251 C 
ATOM      5  O   UNL A   1      30.544  22.859  25.743  1.00  0.00    -0.269 OA
ATOM      6  H   UNL A   1      32.093  21.876  24.350  1.00  0.00     0.163 HD
BRANCH   4   7
ATOM      7  C   UNL A   1      30.933  25.009  24.784  1.00  0.00     0.047 C 
ATOM      8  C   UNL A   1      30.135  25.506  23.810  1.00  0.00     0.022 C 
BRANCH   8   9
ATOM      9  C   UNL A   1      29.718  26.904  23.567  1.00  0.00    -0.025 A 
ATOM     10  C   UNL A   1      28.783  29.528  23.239  1.00  0.00     0.067 A 
ATOM     11  C   UNL A   1      30.151  29.263  23.160  1.00  0.00     0.021 A 
ATOM     12  C   UNL A   1      27.870  28.491  23.422  1.00  0.00     0.021 A 
ATOM     13  C   UNL A   1      30.610  27.951  23.305  1.00  0.00     0.009 A 
ATOM     14  C   UNL A   1      28.341  27.185  23.588  1.00  0.00     0.009 A 
BRANCH  10  15
ATOM     15  S   UNL A   1      28.209  31.202  23.077  1.00  0.00     0.175 S 
ATOM     16  C   UNL A   1      28.003  31.415  21.327  1.00  0.00     0.163 C 
ATOM     17  O   UNL A   1      29.279  32.079  23.502  1.00  0.00    -0.224 OA
ATOM     18  O   UNL A   1      26.899  31.261  23.702  1.00  0.00    -0.224 OA
ENDBRANCH  10  15
ENDBRANCH   8   9
BRANCH   7  19
ATOM     19  C   UNL A   1      31.748  25.937  25.606  1.00  0.00    -0.013 A 
ATOM     20  C   UNL A   1      33.074  26.172  25.220  1.00  0.00     0.009 A 
ATOM     21  C   UNL A   1      31.202  26.694  26.646  1.00  0.00     0.009 A 
ATOM     22  C   UNL A   1      33.805  27.214  25.789  1.00  0.00     0.009 A 
ATOM     23  C   UNL A   1      31.937  27.747  27.207  1.00  0.00     0.009 A 
ATOM     24  C   UNL A   1      33.230  28.059  26.750  1.00  0.00    -0.015 A 
BRANCH  24  25
ATOM     25  C   UNL A   1      33.932  29.280  27.184  1.00  0.00     0.018 A 
ATOM     26  C   UNL A   1      35.312  29.230  27.478  1.00  0.00     0.015 A 
ATOM     27  C   UNL A   1      33.295  30.528  27.288  1.00  0.00     0.133 A 
ATOM     28  C   UNL A   1      36.013  30.375  27.861  1.00  0.00     0.040 A 
ATOM     29  C   UNL A   1      33.988  31.674  27.669  1.00  0.00     0.079 A 
ATOM     30  F   UNL A   1      31.986  30.643  27.016  1.00  0.00    -0.206 F 
ATOM     31  C   UNL A   1      35.342  31.586  27.952  1.00  0.00     0.126 A 
ATOM     32  F   UNL A   1      36.017  32.685  28.312  1.00  0.00    -0.207 F 
ENDBRANCH  24  25
ENDBRANCH   7  19
ENDBRANCH   4   7
ENDBRANCH   2   3
ENDBRANCH   1   2
BRANCH   1  33
ATOM     33  C   UNL A   1      34.581  22.290  25.043  1.00  0.00     0.023 C 
BRANCH  33  34
ATOM     34  C   UNL A   1      35.936  22.500  25.713  1.00  0.00     0.116 C 
BRANCH  34  35
ATOM     35  N   UNL A   1      36.833  21.368  25.548  1.00  0.00    -0.352 N 
ATOM     36  C   UNL A   1      38.189  21.303  25.748  1.00  0.00     0.251 C 
ATOM     37  H   UNL A   1      36.409  20.531  25.250  1.00  0.00     0.163 HD
ATOM     38  O   UNL A   1      38.803  20.283  25.454  1.00  0.00    -0.269 OA
BRANCH  36  39
ATOM     39  C   UNL A   1      38.914  22.475  26.282  1.00  0.00     0.039 A 
ATOM     40  C   UNL A   1      39.997  22.252  27.139  1.00  0.00     0.014 A 
ATOM     41  C   UNL A   1      38.535  23.778  25.951  1.00  0.00     0.014 A 
ATOM     42  C   UNL A   1      40.732  23.336  27.619  1.00  0.00     0.010 A 
ATOM     43  C   UNL A   1      39.305  24.855  26.383  1.00  0.00     0.010 A 
ATOM     44  C   UNL A   1      40.409  24.643  27.222  1.00  0.00    -0.014 A 
BRANCH  44  45
ATOM     45  C   UNL A   1      41.222  25.798  27.675  1.00  0.00     0.031 A 
ATOM     46  C   UNL A   1      40.621  26.840  28.575  1.00  0.00     0.074 A 
ATOM     47  C   UNL A   1      42.485  25.934  27.232  1.00  0.00     0.049 A 
ATOM     48  N   UNL A   1      41.161  27.936  29.044  1.00  0.00    -0.248 NA
ATOM     49  C   UNL A   1      39.221  26.638  28.981  1.00  0.00     0.031 C 
ATOM     50  C   UNL A   1      43.162  25.017  26.311  1.00  0.00     0.029 A 
ATOM     51  N   UNL A   1      43.424  26.900  27.488  1.00  0.00    -0.354 N 
ATOM     52  C   UNL A   1      40.167  28.559  29.786  1.00  0.00     0.074 A 
ATOM     53  C   UNL A   1      38.976  27.744  29.668  1.00  0.00     0.031 C 
ATOM     54  C   UNL A   1      44.414  25.454  26.099  1.00  0.00     0.029 A 
ATOM     55  C   UNL A   1      44.619  26.691  26.845  1.00  0.00     0.049 A 
ATOM     56  H   UNL A   1      43.256  27.671  28.077  1.00  0.00     0.167 HD
ATOM     57  C   UNL A   1      40.244  29.696  30.518  1.00  0.00     0.037 A 
ATOM     58  C   UNL A   1      45.753  27.416  26.859  1.00  0.00     0.037 A 
ATOM     59  C   UNL A   1      41.436  30.490  30.660  1.00  0.00     0.049 A 
ATOM     60  C   UNL A   1      45.820  28.660  27.698  1.00  0.00     0.074 A 
ATOM     61  C   UNL A   1      41.633  31.623  31.429  1.00  0.00     0.029 A 
ATOM     62  N   UNL A   1      42.637  30.229  30.017  1.00  0.00    -0.354 N 
ATOM     63  N   UNL A   1      44.893  29.200  28.450  1.00  0.00    -0.248 NA
ATOM     64  C   UNL A   1      47.096  29.390  27.697  1.00  0.00     0.031 C 
ATOM     65  C   UNL A   1      42.946  32.066  31.228  1.00  0.00     0.029 A 
ATOM     66  C   UNL A   1      43.575  31.188  30.361  1.00  0.00     0.049 A 
ATOM     67  H   UNL A   1      42.799  29.474  29.406  1.00  0.00     0.167 HD
ATOM     68  C   UNL A   1      45.478  30.318  29.030  1.00  0.00     0.074 A 
ATOM     69  C   UNL A   1      46.845  30.371  28.553  1.00  0.00     0.031 C 
ATOM     70  C   UNL A   1      44.932  31.220  29.881  1.00  0.00     0.037 A 
BRANCH  57  71
ATOM     71  C   UNL A   1      39.002  30.142  31.230  1.00  0.00     0.057 A 
ATOM     72  C   UNL A   1      38.614  29.584  32.455  1.00  0.00     0.134 A 
ATOM     73  C   UNL A   1      38.198  31.159  30.700  1.00  0.00     0.134 A 
ATOM     74  F   UNL A   1      39.334  28.596  33.010  1.00  0.00    -0.206 F 
ATOM     75  C   UNL A   1      37.458  30.004  33.116  1.00  0.00     0.040 A 
ATOM     76  C   UNL A   1      37.054  31.605  31.363  1.00  0.00     0.040 A 
ATOM     77  F   UNL A   1      38.516  31.739  29.533  1.00  0.00    -0.206 F 
ATOM     78  C   UNL A   1      36.678  31.021  32.572  1.00  0.00     0.006 A 
ENDBRANCH  57  71
BRANCH  58  79
ATOM     79  C   UNL A   1      46.931  26.960  26.082  1.00  0.00     0.057 A 
ATOM     80  C   UNL A   1      47.096  27.332  24.743  1.00  0.00     0.134 A 
ATOM     81  C   UNL A   1      47.914  26.145  26.653  1.00  0.00     0.134 A 
ATOM     82  F   UNL A   1      46.178  28.099  24.138  1.00  0.00    -0.206 F 
ATOM     83  C   UNL A   1      48.190  26.896  23.994  1.00  0.00     0.040 A 
ATOM     84  C   UNL A   1      49.023  25.718  25.922  1.00  0.00     0.040 A 
ATOM     85  F   UNL A   1      47.814  25.762  27.935  1.00  0.00    -0.206 F 
ATOM     86  C   UNL A   1      49.160  26.090  24.586  1.00  0.00     0.006 A 
ENDBRANCH  58  79
BRANCH  70  87
ATOM     87  C   UNL A   1      45.824  32.321  30.372  1.00  0.00     0.057 A 
ATOM     88  C   UNL A   1      46.611  32.175  31.520  1.00  0.00     0.134 A 
ATOM     89  C   UNL A   1      45.918  33.529  29.669  1.00  0.00     0.134 A 
ATOM     90  F   UNL A   1      46.554  31.047  32.245  1.00  0.00    -0.206 F 
ATOM     91  C   UNL A   1      47.447  33.201  31.965  1.00  0.00     0.040 A 
ATOM     92  C   UNL A   1      46.766  34.553  30.090  1.00  0.00     0.040 A 
ATOM     93  F   UNL A   1      45.194  33.728  28.557  1.00  0.00    -0.206 F 
ATOM     94  C   UNL A   1      47.530  34.391  31.245  1.00  0.00     0.006 A 
ENDBRANCH  70  87
ENDBRANCH  44  45
ENDBRANCH  36  39
ENDBRANCH  34  35
ENDBRANCH  33  34
ENDBRANCH   1  33
TORSDOF 15
ENDMDL
MODEL 3
REMARK VINA RESULT:     -12.2      5.817     11.326
REMARK SMILES CS(=O)(=O)c1ccc(/C=C(/C(=O)NCCCCNC(=O)c2ccc(-c3c4nc(c(-c5c(F)cccc5F)c5ccc([nH]5)c(-c5c(F)cccc5F)c5nc(c(-c6c(F)cccc6F)c6ccc3[nH]6)C=C5)C=C4)cc2)c2ccc(-c3ccc(F)cc3F)cc2)cc1
REMARK SMILES IDX 15 1 14 2 13 3 11 4 12 5 10 7 9 8 8 9 5 10 6 11 90 12 7 13
REMARK SMILES IDX 89 14 2 15 1 16 3 17 4 18 75 19 76 20 88 21 77 22 87 23
REMARK SMILES IDX 78 24 79 25 80 26 85 27 81 28 84 29 86 30 82 31 83 32 16 33
REMARK SMILES IDX 17 34 18 35 19 36 20 38 21 39 22 40 74 41 23 42 73 43 24 44
REMARK SMILES IDX 25 45 26 46 67 47 27 48 72 49 66 50 68 51 28 52 71 53 65 54
REMARK SMILES IDX 64 55 29 57 55 58 38 59 54 60 39 61 42 62 53 63 69 64 40 65
REMARK SMILES IDX 41 66 52 68 70 69 43 70 30 71 31 72 36 73 32 74 33 75 35 76
REMARK SMILES IDX 37 77 34 78 56 79 57 80 62 81 58 82 59 83 61 84 63 85 60 86
REMARK SMILES IDX 44 87 45 88 50 89 46 90 47 91 49 92 51 93 48 94
REMARK H PARENT 13 6 18 37 68 56 42 67
REMARK Flexibility Score: inf
ROOT
ATOM      1  C   UNL A   1      49.309  25.030  32.139  1.00  0.00     0.023 C 
ENDROOT
BRANCH   1   2
ATOM      2  C   UNL A   1      49.997  26.208  31.444  1.00  0.00     0.116 C 
BRANCH   2   3
ATOM      3  N   UNL A   1      50.068  25.980  30.016  1.00  0.00    -0.352 N 
ATOM      4  C   UNL A   1      49.201  26.204  28.991  1.00  0.00     0.251 C 
ATOM      5  O   UNL A   1      49.575  25.839  27.874  1.00  0.00    -0.269 OA
ATOM      6  H   UNL A   1      50.920  25.580  29.726  1.00  0.00     0.163 HD
BRANCH   4   7
ATOM      7  C   UNL A   1      47.882  26.921  29.160  1.00  0.00     0.047 C 
ATOM      8  C   UNL A   1      47.789  28.155  29.708  1.00  0.00     0.022 C 
BRANCH   8   9
ATOM      9  C   UNL A   1      46.597  29.015  29.876  1.00  0.00    -0.025 A 
ATOM     10  C   UNL A   1      44.433  30.737  30.341  1.00  0.00     0.067 A 
ATOM     11  C   UNL A   1      44.740  30.345  29.037  1.00  0.00     0.021 A 
ATOM     12  C   UNL A   1      45.156  30.234  31.422  1.00  0.00     0.021 A 
ATOM     13  C   UNL A   1      45.808  29.472  28.812  1.00  0.00     0.009 A 
ATOM     14  C   UNL A   1      46.235  29.378  31.184  1.00  0.00     0.009 A 
BRANCH  10  15
ATOM     15  S   UNL A   1      43.088  31.866  30.617  1.00  0.00     0.175 S 
ATOM     16  C   UNL A   1      43.783  33.456  30.245  1.00  0.00     0.163 C 
ATOM     17  O   UNL A   1      42.776  31.844  32.030  1.00  0.00    -0.224 OA
ATOM     18  O   UNL A   1      42.075  31.566  29.620  1.00  0.00    -0.224 OA
ENDBRANCH  10  15
ENDBRANCH   8   9
BRANCH   7  19
ATOM     19  C   UNL A   1      46.647  26.142  28.900  1.00  0.00    -0.013 A 
ATOM     20  C   UNL A   1      46.051  26.247  27.636  1.00  0.00     0.009 A 
ATOM     21  C   UNL A   1      46.150  25.200  29.805  1.00  0.00     0.009 A 
ATOM     22  C   UNL A   1      45.051  25.357  27.246  1.00  0.00     0.009 A 
ATOM     23  C   UNL A   1      45.152  24.301  29.405  1.00  0.00     0.009 A 
ATOM     24  C   UNL A   1      44.624  24.330  28.102  1.00  0.00    -0.015 A 
BRANCH  24  25
ATOM     25  C   UNL A   1      43.728  23.271  27.604  1.00  0.00     0.018 A 
ATOM     26  C   UNL A   1      44.113  22.489  26.493  1.00  0.00     0.015 A 
ATOM     27  C   UNL A   1      42.499  22.966  28.212  1.00  0.00     0.133 A 
ATOM     28  C   UNL A   1      43.302  21.458  26.017  1.00  0.00     0.040 A 
ATOM     29  C   UNL A   1      41.684  21.939  27.742  1.00  0.00     0.079 A 
ATOM     30  F   UNL A   1      42.079  23.669  29.275  1.00  0.00    -0.206 F 
ATOM     31  C   UNL A   1      42.095  21.194  26.647  1.00  0.00     0.126 A 
ATOM     32  F   UNL A   1      41.320  20.201  26.194  1.00  0.00    -0.207 F 
ENDBRANCH  24  25
ENDBRANCH   7  19
ENDBRANCH   4   7
ENDBRANCH   2   3
ENDBRANCH   1   2
BRANCH   1  33
ATOM     33  C   UNL A   1      48.328  25.432  33.247  1.00  0.00     0.023 C 
BRANCH  33  34
ATOM     34  C   UNL A   1      47.775  24.276  34.076  1.00  0.00     0.116 C 
BRANCH  34  35
ATOM     35  N   UNL A   1      47.641  24.602  35.486  1.00  0.00    -0.352 N 
ATOM     36  C   UNL A   1      46.772  25.472  36.094  1.00  0.00     0.251 C 
ATOM     37  H   UNL A   1      48.261  24.132  36.090  1.00  0.00     0.163 HD
ATOM     38  O   UNL A   1      46.874  25.701  37.295  1.00  0.00    -0.269 OA
BRANCH  36  39
ATOM     39  C   UNL A   1      45.739  26.164  35.296  1.00  0.00     0.039 A 
ATOM     40  C   UNL A   1      44.524  25.508  35.071  1.00  0.00     0.014 A 
ATOM     41  C   UNL A   1      45.960  27.437  34.766  1.00  0.00     0.014 A 
ATOM     42  C   UNL A   1      43.511  26.155  34.363  1.00  0.00     0.010 A 
ATOM     43  C   UNL A   1      44.927  28.104  34.111  1.00  0.00     0.010 A 
ATOM     44  C   UNL A   1      43.695  27.468  33.903  1.00  0.00    -0.014 A 
BRANCH  44  45
ATOM     45  C   UNL A   1      42.603  28.188  33.204  1.00  0.00     0.031 A 
ATOM     46  C   UNL A   1      42.369  27.969  31.736  1.00  0.00     0.074 A 
ATOM     47  C   UNL A   1      41.858  29.080  33.882  1.00  0.00     0.049 A 
ATOM     48  N   UNL A   1      41.491  28.534  30.947  1.00  0.00    -0.248 NA
ATOM     49  C   UNL A   1      43.255  27.009  31.060  1.00  0.00     0.031 C 
ATOM     50  C   UNL A   1      42.024  29.421  35.298  1.00  0.00     0.029 A 
ATOM     51  N   UNL A   1      40.815  29.871  33.471  1.00  0.00    -0.354 N 
ATOM     52  C   UNL A   1      41.727  28.011  29.683  1.00  0.00     0.074 A 
ATOM     53  C   UNL A   1      42.860  27.117  29.800  1.00  0.00     0.031 C 
ATOM     54  C   UNL A   1      41.101  30.333  35.641  1.00  0.00     0.029 A 
ATOM     55  C   UNL A   1      40.297  30.661  34.468  1.00  0.00     0.049 A 
ATOM     56  H   UNL A   1      40.471  29.872  32.548  1.00  0.00     0.167 HD
ATOM     57  C   UNL A   1      41.047  28.236  28.533  1.00  0.00     0.037 A 
ATOM     58  C   UNL A   1      39.285  31.548  34.438  1.00  0.00     0.037 A 
ATOM     59  C   UNL A   1      39.902  29.101  28.425  1.00  0.00     0.049 A 
ATOM     60  C   UNL A   1      38.532  31.762  33.156  1.00  0.00     0.074 A 
ATOM     61  C   UNL A   1      39.107  29.346  27.319  1.00  0.00     0.029 A 
ATOM     62  N   UNL A   1      39.388  29.862  29.465  1.00  0.00    -0.354 N 
ATOM     63  N   UNL A   1      38.722  31.207  31.985  1.00  0.00    -0.248 NA
ATOM     64  C   UNL A   1      37.418  32.719  33.196  1.00  0.00     0.031 C 
ATOM     65  C   UNL A   1      38.129  30.279  27.682  1.00  0.00     0.029 A 
ATOM     66  C   UNL A   1      38.295  30.587  29.022  1.00  0.00     0.049 A 
ATOM     67  H   UNL A   1      39.747  29.882  30.381  1.00  0.00     0.167 HD
ATOM     68  C   UNL A   1      37.739  31.727  31.154  1.00  0.00     0.074 A 
ATOM     69  C   UNL A   1      36.946  32.632  31.960  1.00  0.00     0.031 C 
ATOM     70  C   UNL A   1      37.514  31.478  29.841  1.00  0.00     0.037 A 
BRANCH  57  71
ATOM     71  C   UNL A   1      41.523  27.525  27.302  1.00  0.00     0.057 A 
ATOM     72  C   UNL A   1      42.407  28.130  26.398  1.00  0.00     0.134 A 
ATOM     73  C   UNL A   1      41.116  26.214  27.029  1.00  0.00     0.134 A 
ATOM     74  F   UNL A   1      42.824  29.390  26.596  1.00  0.00    -0.206 F 
ATOM     75  C   UNL A   1      42.850  27.464  25.254  1.00  0.00     0.040 A 
ATOM     76  C   UNL A   1      41.572  25.529  25.901  1.00  0.00     0.040 A 
ATOM     77  F   UNL A   1      40.275  25.575  27.856  1.00  0.00    -0.206 F 
ATOM     78  C   UNL A   1      42.437  26.157  25.007  1.00  0.00     0.006 A 
ENDBRANCH  57  71
BRANCH  58  79
ATOM     79  C   UNL A   1      38.900  32.272  35.674  1.00  0.00     0.057 A 
ATOM     80  C   UNL A   1      39.293  33.599  35.882  1.00  0.00     0.134 A 
ATOM     81  C   UNL A   1      38.136  31.659  36.673  1.00  0.00     0.134 A 
ATOM     82  F   UNL A   1      40.041  34.231  34.966  1.00  0.00    -0.206 F 
ATOM     83  C   UNL A   1      38.954  34.286  37.047  1.00  0.00     0.040 A 
ATOM     84  C   UNL A   1      37.772  32.341  37.834  1.00  0.00     0.040 A 
ATOM     85  F   UNL A   1      37.722  30.391  36.527  1.00  0.00    -0.206 F 
ATOM     86  C   UNL A   1      38.187  33.658  38.026  1.00  0.00     0.006 A 
ENDBRANCH  58  79
BRANCH  70  87
ATOM     87  C   UNL A   1      36.346  32.172  29.206  1.00  0.00     0.057 A 
ATOM     88  C   UNL A   1      35.161  31.491  28.901  1.00  0.00     0.134 A 
ATOM     89  C   UNL A   1      36.399  33.543  28.925  1.00  0.00     0.134 A 
ATOM     90  F   UNL A   1      35.054  30.175  29.133  1.00  0.00    -0.206 F 
ATOM     91  C   UNL A   1      34.075  32.148  28.319  1.00  0.00     0.040 A 
ATOM     92  C   UNL A   1      35.312  34.214  28.364  1.00  0.00     0.040 A 
ATOM     93  F   UNL A   1      37.504  34.253  29.199  1.00  0.00    -0.206 F 
ATOM     94  C   UNL A   1      34.147  33.514  28.056  1.00  0.00     0.006 A 
ENDBRANCH  70  87
ENDBRANCH  44  45
ENDBRANCH  36  39
ENDBRANCH  34  35
ENDBRANCH  33  34
ENDBRANCH   1  33
TORSDOF 15
ENDMDL
