MODEL 1
REMARK VINA RESULT:     -11.5      0.000      0.000
REMARK SMILES Cc1nc(CNC(=O)[C@H]2CCO[C@H]2C)sc1C(=O)NCCCCNC(=O)c1ccc(-c2c3nc(c(-c4c(F)cccc4F)c4ccc([nH]4)c(-c4c(F)cccc4F)c4nc(c(-c5c(F)cccc5F)c5ccc2[nH]5)C=C4)C=C3)cc1
REMARK SMILES IDX 21 1 20 2 19 3 17 4 18 5 16 7 1 8 2 9 3 10 4 11 15 12 5 13
REMARK SMILES IDX 6 14 7 15 8 17 9 18 10 19 13 20 11 21 12 22 14 23 22 24
REMARK SMILES IDX 23 25 24 26 25 27 26 29 27 30 28 31 80 32 29 33 79 34 30 35
REMARK SMILES IDX 31 36 32 37 73 38 33 39 78 40 72 41 74 42 34 43 77 44 71 45
REMARK SMILES IDX 70 46 35 48 61 49 44 50 60 51 45 52 48 53 59 54 75 55 46 56
REMARK SMILES IDX 47 57 58 59 76 60 49 61 36 62 37 63 42 64 38 65 39 66 41 67
REMARK SMILES IDX 43 68 40 69 62 70 63 71 68 72 64 73 65 74 67 75 69 76 66 77
REMARK SMILES IDX 50 78 51 79 56 80 52 81 53 82 55 83 57 84 54 85
REMARK H PARENT 19 6 6 16 24 28 74 47 48 58
REMARK Flexibility Score: inf
ROOT
ATOM      1  C   UNL A   1      36.275  21.577  24.994  1.00  0.00     0.023 C 
ENDROOT
BRANCH   1   2
ATOM      2  C   UNL A   1      35.276  21.520  26.151  1.00  0.00     0.116 C 
BRANCH   2   3
ATOM      3  N   UNL A   1      34.276  20.514  25.901  1.00  0.00    -0.351 N 
ATOM      4  C   UNL A   1      32.992  20.553  25.425  1.00  0.00     0.263 C 
ATOM      5  O   UNL A   1      32.475  19.429  25.369  1.00  0.00    -0.268 OA
ATOM      6  H   UNL A   1      34.581  19.603  26.118  1.00  0.00     0.163 HD
BRANCH   4   7
ATOM      7  C   UNL A   1      32.284  21.757  24.991  1.00  0.00     0.115 A 
ATOM      8  C   UNL A   1      32.571  22.299  22.428  1.00  0.00     0.068 C 
ATOM      9  C   UNL A   1      32.077  22.478  23.815  1.00  0.00     0.061 A 
ATOM     10  N   UNL A   1      31.314  23.630  23.960  1.00  0.00    -0.244 NA
ATOM     11  C   UNL A   1      31.027  23.863  25.214  1.00  0.00     0.113 A 
ATOM     12  S   UNL A   1      31.504  22.639  26.291  1.00  0.00    -0.111 S 
BRANCH  11  13
ATOM     13  C   UNL A   1      30.352  25.112  25.697  1.00  0.00     0.183 C 
BRANCH  13  14
ATOM     14  N   UNL A   1      31.369  26.118  25.969  1.00  0.00    -0.349 N 
ATOM     15  C   UNL A   1      31.625  27.293  25.330  1.00  0.00     0.226 C 
ATOM     16  H   UNL A   1      31.961  25.919  26.730  1.00  0.00     0.163 HD
ATOM     17  O   UNL A   1      32.607  27.946  25.686  1.00  0.00    -0.275 OA
BRANCH  15  18
ATOM     18  C   UNL A   1      30.686  27.773  24.243  1.00  0.00     0.109 C 
ATOM     19  C   UNL A   1      30.825  29.248  23.918  1.00  0.00     0.044 C 
ATOM     20  C   UNL A   1      30.893  27.142  22.871  1.00  0.00     0.127 C 
ATOM     21  C   UNL A   1      30.135  29.338  22.574  1.00  0.00     0.161 C 
ATOM     22  O   UNL A   1      30.273  28.058  21.938  1.00  0.00    -0.378 OA
ATOM     23  C   UNL A   1      32.343  26.970  22.427  1.00  0.00     0.039 C 
ENDBRANCH  15  18
ENDBRANCH  13  14
ENDBRANCH  11  13
ENDBRANCH   4   7
ENDBRANCH   2   3
ENDBRANCH   1   2
BRANCH   1  24
ATOM     24  C   UNL A   1      37.296  20.441  24.971  1.00  0.00     0.023 C 
BRANCH  24  25
ATOM     25  C   UNL A   1      38.647  20.789  25.583  1.00  0.00     0.116 C 
BRANCH  25  26
ATOM     26  N   UNL A   1      39.598  19.687  25.572  1.00  0.00    -0.352 N 
ATOM     27  C   UNL A   1      40.909  19.687  25.992  1.00  0.00     0.251 C 
ATOM     28  H   UNL A   1      39.260  18.832  25.219  1.00  0.00     0.163 HD
ATOM     29  O   UNL A   1      41.610  18.698  25.856  1.00  0.00    -0.269 OA
BRANCH  27  30
ATOM     30  C   UNL A   1      41.467  20.931  26.561  1.00  0.00     0.039 A 
ATOM     31  C   UNL A   1      42.015  21.876  25.691  1.00  0.00     0.014 A 
ATOM     32  C   UNL A   1      41.380  21.187  27.931  1.00  0.00     0.014 A 
ATOM     33  C   UNL A   1      42.399  23.121  26.187  1.00  0.00     0.010 A 
ATOM     34  C   UNL A   1      41.695  22.453  28.411  1.00  0.00     0.010 A 
ATOM     35  C   UNL A   1      42.200  23.432  27.543  1.00  0.00    -0.014 A 
BRANCH  35  36
ATOM     36  C   UNL A   1      42.501  24.783  28.072  1.00  0.00     0.031 A 
ATOM     37  C   UNL A   1      43.896  25.122  28.511  1.00  0.00     0.074 A 
ATOM     38  C   UNL A   1      41.502  25.673  28.229  1.00  0.00     0.049 A 
ATOM     39  N   UNL A   1      44.343  26.217  29.070  1.00  0.00    -0.248 NA
ATOM     40  C   UNL A   1      44.919  24.080  28.326  1.00  0.00     0.031 C 
ATOM     41  C   UNL A   1      40.096  25.438  27.895  1.00  0.00     0.029 A 
ATOM     42  N   UNL A   1      41.518  26.952  28.722  1.00  0.00    -0.354 N 
ATOM     43  C   UNL A   1      45.689  25.988  29.319  1.00  0.00     0.074 A 
ATOM     44  C   UNL A   1      45.976  24.635  28.898  1.00  0.00     0.031 C 
ATOM     45  C   UNL A   1      39.388  26.545  28.173  1.00  0.00     0.029 A 
ATOM     46  C   UNL A   1      40.283  27.554  28.730  1.00  0.00     0.049 A 
ATOM     47  H   UNL A   1      42.336  27.398  29.041  1.00  0.00     0.167 HD
ATOM     48  C   UNL A   1      46.608  26.840  29.831  1.00  0.00     0.037 A 
ATOM     49  C   UNL A   1      39.916  28.781  29.143  1.00  0.00     0.037 A 
ATOM     50  C   UNL A   1      46.327  28.197  30.214  1.00  0.00     0.049 A 
ATOM     51  C   UNL A   1      40.959  29.713  29.690  1.00  0.00     0.074 A 
ATOM     52  C   UNL A   1      47.206  29.163  30.672  1.00  0.00     0.029 A 
ATOM     53  N   UNL A   1      45.070  28.780  30.182  1.00  0.00    -0.354 N 
ATOM     54  N   UNL A   1      42.244  29.510  29.854  1.00  0.00    -0.248 NA
ATOM     55  C   UNL A   1      40.503  31.047  30.106  1.00  0.00     0.031 C 
ATOM     56  C   UNL A   1      46.473  30.323  30.947  1.00  0.00     0.029 A 
ATOM     57  C   UNL A   1      45.145  30.088  30.627  1.00  0.00     0.049 A 
ATOM     58  H   UNL A   1      44.246  28.331  29.885  1.00  0.00     0.167 HD
ATOM     59  C   UNL A   1      42.753  30.693  30.371  1.00  0.00     0.074 A 
ATOM     60  C   UNL A   1      41.641  31.615  30.480  1.00  0.00     0.031 C 
ATOM     61  C   UNL A   1      44.027  30.991  30.725  1.00  0.00     0.037 A 
BRANCH  48  62
ATOM     62  C   UNL A   1      48.007  26.324  29.992  1.00  0.00     0.057 A 
ATOM     63  C   UNL A   1      48.950  26.418  28.959  1.00  0.00     0.134 A 
ATOM     64  C   UNL A   1      48.423  25.745  31.196  1.00  0.00     0.134 A 
ATOM     65  F   UNL A   1      48.608  26.949  27.774  1.00  0.00    -0.206 F 
ATOM     66  C   UNL A   1      50.248  25.932  29.110  1.00  0.00     0.040 A 
ATOM     67  C   UNL A   1      49.727  25.277  31.368  1.00  0.00     0.040 A 
ATOM     68  F   UNL A   1      47.571  25.626  32.226  1.00  0.00    -0.206 F 
ATOM     69  C   UNL A   1      50.642  25.364  30.321  1.00  0.00     0.006 A 
ENDBRANCH  48  62
BRANCH  49  70
ATOM     70  C   UNL A   1      38.500  29.212  29.028  1.00  0.00     0.057 A 
ATOM     71  C   UNL A   1      37.990  29.681  27.812  1.00  0.00     0.134 A 
ATOM     72  C   UNL A   1      37.630  29.169  30.122  1.00  0.00     0.134 A 
ATOM     73  F   UNL A   1      38.782  29.762  26.734  1.00  0.00    -0.206 F 
ATOM     74  C   UNL A   1      36.667  30.110  27.693  1.00  0.00     0.040 A 
ATOM     75  C   UNL A   1      36.299  29.575  30.012  1.00  0.00     0.040 A 
ATOM     76  F   UNL A   1      38.059  28.721  31.312  1.00  0.00    -0.206 F 
ATOM     77  C   UNL A   1      35.816  30.053  28.795  1.00  0.00     0.006 A 
ENDBRANCH  49  70
BRANCH  61  78
ATOM     78  C   UNL A   1      44.286  32.373  31.242  1.00  0.00     0.057 A 
ATOM     79  C   UNL A   1      44.581  33.436  30.380  1.00  0.00     0.134 A 
ATOM     80  C   UNL A   1      44.199  32.651  32.611  1.00  0.00     0.134 A 
ATOM     81  F   UNL A   1      44.692  33.229  29.059  1.00  0.00    -0.206 F 
ATOM     82  C   UNL A   1      44.800  34.726  30.865  1.00  0.00     0.040 A 
ATOM     83  C   UNL A   1      44.393  33.940  33.106  1.00  0.00     0.040 A 
ATOM     84  F   UNL A   1      43.912  31.676  33.487  1.00  0.00    -0.206 F 
ATOM     85  C   UNL A   1      44.698  34.982  32.232  1.00  0.00     0.006 A 
ENDBRANCH  61  78
ENDBRANCH  35  36
ENDBRANCH  27  30
ENDBRANCH  25  26
ENDBRANCH  24  25
ENDBRANCH   1  24
TORSDOF 14
ENDMDL
MODEL 2
REMARK VINA RESULT:     -11.5      3.985      9.421
REMARK SMILES Cc1nc(CNC(=O)[C@H]2CCO[C@H]2C)sc1C(=O)NCCCCNC(=O)c1ccc(-c2c3nc(c(-c4c(F)cccc4F)c4ccc([nH]4)c(-c4c(F)cccc4F)c4nc(c(-c5c(F)cccc5F)c5ccc2[nH]5)C=C4)C=C3)cc1
REMARK SMILES IDX 21 1 20 2 19 3 17 4 18 5 16 7 1 8 2 9 3 10 4 11 15 12 5 13
REMARK SMILES IDX 6 14 7 15 8 17 9 18 10 19 13 20 11 21 12 22 14 23 22 24
REMARK SMILES IDX 23 25 24 26 25 27 26 29 27 30 28 31 80 32 29 33 79 34 30 35
REMARK SMILES IDX 31 36 32 37 73 38 33 39 78 40 72 41 74 42 34 43 77 44 71 45
REMARK SMILES IDX 70 46 35 48 61 49 44 50 60 51 45 52 48 53 59 54 75 55 46 56
REMARK SMILES IDX 47 57 58 59 76 60 49 61 36 62 37 63 42 64 38 65 39 66 41 67
REMARK SMILES IDX 43 68 40 69 62 70 63 71 68 72 64 73 65 74 67 75 69 76 66 77
REMARK SMILES IDX 50 78 51 79 56 80 52 81 53 82 55 83 57 84 54 85
REMARK H PARENT 19 6 6 16 24 28 74 47 48 58
REMARK Flexibility Score: inf
ROOT
ATOM      1  C   UNL A   1      31.930  30.472  26.861  1.00  0.00     0.023 C 
ENDROOT
BRANCH   1   2
ATOM      2  C   UNL A   1      32.467  29.910  25.543  1.00  0.00     0.116 C 
BRANCH   2   3
ATOM      3  N   UNL A   1      31.435  29.914  24.538  1.00  0.00    -0.351 N 
ATOM      4  C   UNL A   1      30.672  28.933  23.961  1.00  0.00     0.263 C 
ATOM      5  O   UNL A   1      29.886  29.382  23.116  1.00  0.00    -0.268 OA
ATOM      6  H   UNL A   1      31.235  30.814  24.192  1.00  0.00     0.163 HD
BRANCH   4   7
ATOM      7  C   UNL A   1      30.724  27.511  24.295  1.00  0.00     0.115 A 
ATOM      8  C   UNL A   1      31.129  27.029  26.854  1.00  0.00     0.068 C 
ATOM      9  C   UNL A   1      30.888  26.710  25.426  1.00  0.00     0.061 A 
ATOM     10  N   UNL A   1      30.896  25.343  25.181  1.00  0.00    -0.244 NA
ATOM     11  C   UNL A   1      30.850  25.083  23.900  1.00  0.00     0.113 A 
ATOM     12  S   UNL A   1      30.628  26.443  22.907  1.00  0.00    -0.111 S 
BRANCH  11  13
ATOM     13  C   UNL A   1      31.002  23.707  23.323  1.00  0.00     0.183 C 
BRANCH  13  14
ATOM     14  N   UNL A   1      32.266  23.639  22.604  1.00  0.00    -0.349 N 
ATOM     15  C   UNL A   1      33.486  23.202  23.026  1.00  0.00     0.226 C 
ATOM     16  H   UNL A   1      32.235  23.954  21.672  1.00  0.00     0.163 HD
ATOM     17  O   UNL A   1      34.442  23.324  22.260  1.00  0.00    -0.275 OA
BRANCH  15  18
ATOM     18  C   UNL A   1      33.618  22.555  24.389  1.00  0.00     0.109 C 
ATOM     19  C   UNL A   1      34.814  21.632  24.517  1.00  0.00     0.044 C 
ATOM     20  C   UNL A   1      33.852  23.514  25.551  1.00  0.00     0.127 C 
ATOM     21  C   UNL A   1      34.944  21.496  26.019  1.00  0.00     0.161 C 
ATOM     22  O   UNL A   1      34.421  22.699  26.602  1.00  0.00    -0.378 OA
ATOM     23  C   UNL A   1      34.836  24.652  25.289  1.00  0.00     0.039 C 
ENDBRANCH  15  18
ENDBRANCH  13  14
ENDBRANCH  11  13
ENDBRANCH   4   7
ENDBRANCH   2   3
ENDBRANCH   1   2
BRANCH   1  24
ATOM     24  C   UNL A   1      31.625  31.969  26.844  1.00  0.00     0.023 C 
BRANCH  24  25
ATOM     25  C   UNL A   1      32.789  32.858  27.260  1.00  0.00     0.116 C 
BRANCH  25  26
ATOM     26  N   UNL A   1      32.391  34.202  27.654  1.00  0.00    -0.352 N 
ATOM     27  C   UNL A   1      32.974  35.025  28.591  1.00  0.00     0.251 C 
ATOM     28  H   UNL A   1      31.605  34.570  27.189  1.00  0.00     0.163 HD
ATOM     29  O   UNL A   1      32.483  36.107  28.866  1.00  0.00    -0.269 OA
BRANCH  27  30
ATOM     30  C   UNL A   1      34.177  34.544  29.302  1.00  0.00     0.039 A 
ATOM     31  C   UNL A   1      34.016  33.917  30.539  1.00  0.00     0.014 A 
ATOM     32  C   UNL A   1      35.438  34.647  28.712  1.00  0.00     0.014 A 
ATOM     33  C   UNL A   1      35.116  33.315  31.148  1.00  0.00     0.010 A 
ATOM     34  C   UNL A   1      36.517  33.984  29.285  1.00  0.00     0.010 A 
ATOM     35  C   UNL A   1      36.363  33.307  30.503  1.00  0.00    -0.014 A 
BRANCH  35  36
ATOM     36  C   UNL A   1      37.520  32.583  31.080  1.00  0.00     0.031 A 
ATOM     37  C   UNL A   1      38.141  33.061  32.361  1.00  0.00     0.074 A 
ATOM     38  C   UNL A   1      38.058  31.547  30.408  1.00  0.00     0.049 A 
ATOM     39  N   UNL A   1      39.201  32.613  32.983  1.00  0.00    -0.248 NA
ATOM     40  C   UNL A   1      37.503  34.216  33.014  1.00  0.00     0.031 C 
ATOM     41  C   UNL A   1      37.581  31.028  29.124  1.00  0.00     0.029 A 
ATOM     42  N   UNL A   1      39.133  30.751  30.709  1.00  0.00    -0.354 N 
ATOM     43  C   UNL A   1      39.367  33.440  34.085  1.00  0.00     0.074 A 
ATOM     44  C   UNL A   1      38.331  34.447  34.021  1.00  0.00     0.031 C 
ATOM     45  C   UNL A   1      38.347  29.988  28.758  1.00  0.00     0.029 A 
ATOM     46  C   UNL A   1      39.384  29.785  29.765  1.00  0.00     0.049 A 
ATOM     47  H   UNL A   1      39.675  30.861  31.523  1.00  0.00     0.167 HD
ATOM     48  C   UNL A   1      40.285  33.352  35.075  1.00  0.00     0.037 A 
ATOM     49  C   UNL A   1      40.345  28.843  29.717  1.00  0.00     0.037 A 
ATOM     50  C   UNL A   1      41.291  32.327  35.154  1.00  0.00     0.049 A 
ATOM     51  C   UNL A   1      41.342  28.757  30.837  1.00  0.00     0.074 A 
ATOM     52  C   UNL A   1      42.221  32.108  36.156  1.00  0.00     0.029 A 
ATOM     53  N   UNL A   1      41.497  31.349  34.194  1.00  0.00    -0.354 N 
ATOM     54  N   UNL A   1      41.444  29.500  31.912  1.00  0.00    -0.248 NA
ATOM     55  C   UNL A   1      42.355  27.696  30.741  1.00  0.00     0.031 C 
ATOM     56  C   UNL A   1      43.010  31.013  35.785  1.00  0.00     0.029 A 
ATOM     57  C   UNL A   1      42.549  30.532  34.570  1.00  0.00     0.049 A 
ATOM     58  H   UNL A   1      40.971  31.250  33.367  1.00  0.00     0.167 HD
ATOM     59  C   UNL A   1      42.516  28.987  32.629  1.00  0.00     0.074 A 
ATOM     60  C   UNL A   1      43.023  27.860  31.875  1.00  0.00     0.031 C 
ATOM     61  C   UNL A   1      43.036  29.412  33.806  1.00  0.00     0.037 A 
BRANCH  48  62
ATOM     62  C   UNL A   1      40.232  34.390  36.156  1.00  0.00     0.057 A 
ATOM     63  C   UNL A   1      39.419  34.234  37.286  1.00  0.00     0.134 A 
ATOM     64  C   UNL A   1      41.015  35.548  36.076  1.00  0.00     0.134 A 
ATOM     65  F   UNL A   1      38.633  33.153  37.414  1.00  0.00    -0.206 F 
ATOM     66  C   UNL A   1      39.367  35.204  38.287  1.00  0.00     0.040 A 
ATOM     67  C   UNL A   1      40.989  36.515  37.082  1.00  0.00     0.040 A 
ATOM     68  F   UNL A   1      41.817  35.758  35.021  1.00  0.00    -0.206 F 
ATOM     69  C   UNL A   1      40.159  36.347  38.189  1.00  0.00     0.006 A 
ENDBRANCH  48  62
BRANCH  49  70
ATOM     70  C   UNL A   1      40.394  27.888  28.583  1.00  0.00     0.057 A 
ATOM     71  C   UNL A   1      41.106  28.193  27.417  1.00  0.00     0.134 A 
ATOM     72  C   UNL A   1      39.732  26.656  28.634  1.00  0.00     0.134 A 
ATOM     73  F   UNL A   1      41.744  29.367  27.305  1.00  0.00    -0.206 F 
ATOM     74  C   UNL A   1      41.143  27.314  26.334  1.00  0.00     0.040 A 
ATOM     75  C   UNL A   1      39.780  25.759  27.565  1.00  0.00     0.040 A 
ATOM     76  F   UNL A   1      39.040  26.303  29.727  1.00  0.00    -0.206 F 
ATOM     77  C   UNL A   1      40.482  26.091  26.408  1.00  0.00     0.006 A 
ENDBRANCH  49  70
BRANCH  61  78
ATOM     78  C   UNL A   1      44.197  28.641  34.357  1.00  0.00     0.057 A 
ATOM     79  C   UNL A   1      44.011  27.507  35.157  1.00  0.00     0.134 A 
ATOM     80  C   UNL A   1      45.511  29.014  34.052  1.00  0.00     0.134 A 
ATOM     81  F   UNL A   1      42.775  27.108  35.496  1.00  0.00    -0.206 F 
ATOM     82  C   UNL A   1      45.095  26.779  35.649  1.00  0.00     0.040 A 
ATOM     83  C   UNL A   1      46.602  28.281  34.518  1.00  0.00     0.040 A 
ATOM     84  F   UNL A   1      45.753  30.087  33.284  1.00  0.00    -0.206 F 
ATOM     85  C   UNL A   1      46.396  27.163  35.323  1.00  0.00     0.006 A 
ENDBRANCH  61  78
ENDBRANCH  35  36
ENDBRANCH  27  30
ENDBRANCH  25  26
ENDBRANCH  24  25
ENDBRANCH   1  24
TORSDOF 14
ENDMDL
MODEL 3
REMARK VINA RESULT:     -11.5      0.519      6.285
REMARK SMILES Cc1nc(CNC(=O)[C@H]2CCO[C@H]2C)sc1C(=O)NCCCCNC(=O)c1ccc(-c2c3nc(c(-c4c(F)cccc4F)c4ccc([nH]4)c(-c4c(F)cccc4F)c4nc(c(-c5c(F)cccc5F)c5ccc2[nH]5)C=C4)C=C3)cc1
REMARK SMILES IDX 21 1 20 2 19 3 17 4 18 5 16 7 1 8 2 9 3 10 4 11 15 12 5 13
REMARK SMILES IDX 6 14 7 15 8 17 9 18 10 19 13 20 11 21 12 22 14 23 22 24
REMARK SMILES IDX 23 25 24 26 25 27 26 29 27 30 28 31 80 32 29 33 79 34 30 35
REMARK SMILES IDX 31 36 32 37 73 38 33 39 78 40 72 41 74 42 34 43 77 44 71 45
REMARK SMILES IDX 70 46 35 48 61 49 44 50 60 51 45 52 48 53 59 54 75 55 46 56
REMARK SMILES IDX 47 57 58 59 76 60 49 61 36 62 37 63 42 64 38 65 39 66 41 67
REMARK SMILES IDX 43 68 40 69 62 70 63 71 68 72 64 73 65 74 67 75 69 76 66 77
REMARK SMILES IDX 50 78 51 79 56 80 52 81 53 82 55 83 57 84 54 85
REMARK H PARENT 19 6 6 16 24 28 74 47 48 58
REMARK Flexibility Score: inf
ROOT
ATOM      1  C   UNL A   1      36.420  20.265  24.965  1.00  0.00     0.023 C 
ENDROOT
BRANCH   1   2
ATOM      2  C   UNL A   1      35.189  21.044  25.433  1.00  0.00     0.116 C 
BRANCH   2   3
ATOM      3  N   UNL A   1      34.013  20.214  25.358  1.00  0.00    -0.351 N 
ATOM      4  C   UNL A   1      32.695  20.464  25.082  1.00  0.00     0.263 C 
ATOM      5  O   UNL A   1      32.001  19.439  25.128  1.00  0.00    -0.268 OA
ATOM      6  H   UNL A   1      34.197  19.265  25.545  1.00  0.00     0.163 HD
BRANCH   4   7
ATOM      7  C   UNL A   1      32.132  21.768  24.737  1.00  0.00     0.115 A 
ATOM      8  C   UNL A   1      32.887  22.666  22.377  1.00  0.00     0.068 C 
ATOM      9  C   UNL A   1      32.168  22.672  23.674  1.00  0.00     0.061 A 
ATOM     10  N   UNL A   1      31.448  23.843  23.875  1.00  0.00    -0.244 NA
ATOM     11  C   UNL A   1      30.958  23.906  25.086  1.00  0.00     0.113 A 
ATOM     12  S   UNL A   1      31.181  22.501  26.016  1.00  0.00    -0.111 S 
BRANCH  11  13
ATOM     13  C   UNL A   1      30.271  25.115  25.645  1.00  0.00     0.183 C 
BRANCH  13  14
ATOM     14  N   UNL A   1      31.274  26.127  25.945  1.00  0.00    -0.349 N 
ATOM     15  C   UNL A   1      31.530  27.311  25.321  1.00  0.00     0.226 C 
ATOM     16  H   UNL A   1      31.854  25.926  26.714  1.00  0.00     0.163 HD
ATOM     17  O   UNL A   1      32.500  27.968  25.700  1.00  0.00    -0.275 OA
BRANCH  15  18
ATOM     18  C   UNL A   1      30.605  27.793  24.223  1.00  0.00     0.109 C 
ATOM     19  C   UNL A   1      30.699  29.282  23.950  1.00  0.00     0.044 C 
ATOM     20  C   UNL A   1      30.874  27.216  22.838  1.00  0.00     0.127 C 
ATOM     21  C   UNL A   1      30.044  29.392  22.590  1.00  0.00     0.161 C 
ATOM     22  O   UNL A   1      30.249  28.140  21.917  1.00  0.00    -0.378 OA
ATOM     23  C   UNL A   1      32.343  27.112  22.432  1.00  0.00     0.039 C 
ENDBRANCH  15  18
ENDBRANCH  13  14
ENDBRANCH  11  13
ENDBRANCH   4   7
ENDBRANCH   2   3
ENDBRANCH   1   2
BRANCH   1  24
ATOM     24  C   UNL A   1      37.674  21.112  24.755  1.00  0.00     0.023 C 
BRANCH  24  25
ATOM     25  C   UNL A   1      38.705  21.008  25.871  1.00  0.00     0.116 C 
BRANCH  25  26
ATOM     26  N   UNL A   1      39.628  19.893  25.717  1.00  0.00    -0.352 N 
ATOM     27  C   UNL A   1      40.971  19.849  26.015  1.00  0.00     0.251 C 
ATOM     28  H   UNL A   1      39.241  19.064  25.352  1.00  0.00     0.163 HD
ATOM     29  O   UNL A   1      41.636  18.858  25.765  1.00  0.00    -0.269 OA
BRANCH  27  30
ATOM     30  C   UNL A   1      41.604  21.052  26.595  1.00  0.00     0.039 A 
ATOM     31  C   UNL A   1      42.090  22.034  25.729  1.00  0.00     0.014 A 
ATOM     32  C   UNL A   1      41.646  21.235  27.979  1.00  0.00     0.014 A 
ATOM     33  C   UNL A   1      42.543  23.244  26.253  1.00  0.00     0.010 A 
ATOM     34  C   UNL A   1      42.030  22.468  28.494  1.00  0.00     0.010 A 
ATOM     35  C   UNL A   1      42.474  23.484  27.635  1.00  0.00    -0.014 A 
BRANCH  35  36
ATOM     36  C   UNL A   1      42.850  24.799  28.204  1.00  0.00     0.031 A 
ATOM     37  C   UNL A   1      41.800  25.849  28.426  1.00  0.00     0.074 A 
ATOM     38  C   UNL A   1      44.147  25.072  28.446  1.00  0.00     0.049 A 
ATOM     39  N   UNL A   1      41.939  27.082  28.839  1.00  0.00    -0.248 NA
ATOM     40  C   UNL A   1      40.412  25.471  28.111  1.00  0.00     0.031 C 
ATOM     41  C   UNL A   1      45.266  24.156  28.213  1.00  0.00     0.029 A 
ATOM     42  N   UNL A   1      44.744  26.208  28.929  1.00  0.00    -0.354 N 
ATOM     43  C   UNL A   1      40.664  27.631  28.815  1.00  0.00     0.074 A 
ATOM     44  C   UNL A   1      39.773  26.615  28.300  1.00  0.00     0.031 C 
ATOM     45  C   UNL A   1      46.410  24.758  28.576  1.00  0.00     0.029 A 
ATOM     46  C   UNL A   1      46.110  26.110  29.036  1.00  0.00     0.049 A 
ATOM     47  H   UNL A   1      44.242  27.018  29.176  1.00  0.00     0.167 HD
ATOM     48  C   UNL A   1      40.269  28.863  29.212  1.00  0.00     0.037 A 
ATOM     49  C   UNL A   1      47.018  27.011  29.456  1.00  0.00     0.037 A 
ATOM     50  C   UNL A   1      41.152  29.858  29.757  1.00  0.00     0.049 A 
ATOM     51  C   UNL A   1      46.551  28.365  29.907  1.00  0.00     0.074 A 
ATOM     52  C   UNL A   1      40.838  31.109  30.257  1.00  0.00     0.029 A 
ATOM     53  N   UNL A   1      42.526  29.712  29.877  1.00  0.00    -0.354 N 
ATOM     54  N   UNL A   1      45.332  28.848  29.948  1.00  0.00    -0.248 NA
ATOM     55  C   UNL A   1      47.584  29.300  30.375  1.00  0.00     0.031 C 
ATOM     56  C   UNL A   1      42.027  31.733  30.650  1.00  0.00     0.029 A 
ATOM     57  C   UNL A   1      43.077  30.856  30.427  1.00  0.00     0.049 A 
ATOM     58  H   UNL A   1      43.034  28.912  29.610  1.00  0.00     0.167 HD
ATOM     59  C   UNL A   1      45.449  30.131  30.463  1.00  0.00     0.074 A 
ATOM     60  C   UNL A   1      46.855  30.348  30.734  1.00  0.00     0.031 C 
ATOM     61  C   UNL A   1      44.479  31.050  30.691  1.00  0.00     0.037 A 
BRANCH  48  62
ATOM     62  C   UNL A   1      38.813  29.195  29.076  1.00  0.00     0.057 A 
ATOM     63  C   UNL A   1      38.254  29.563  27.845  1.00  0.00     0.134 A 
ATOM     64  C   UNL A   1      37.957  29.127  30.181  1.00  0.00     0.134 A 
ATOM     65  F   UNL A   1      39.025  29.662  26.751  1.00  0.00    -0.206 F 
ATOM     66  C   UNL A   1      36.900  29.877  27.723  1.00  0.00     0.040 A 
ATOM     67  C   UNL A   1      36.595  29.415  30.067  1.00  0.00     0.040 A 
ATOM     68  F   UNL A   1      38.427  28.778  31.388  1.00  0.00    -0.206 F 
ATOM     69  C   UNL A   1      36.065  29.797  28.836  1.00  0.00     0.006 A 
ENDBRANCH  48  62
BRANCH  49  70
ATOM     70  C   UNL A   1      48.457  26.652  29.499  1.00  0.00     0.057 A 
ATOM     71  C   UNL A   1      49.004  26.012  30.617  1.00  0.00     0.134 A 
ATOM     72  C   UNL A   1      49.316  26.941  28.434  1.00  0.00     0.134 A 
ATOM     73  F   UNL A   1      48.231  25.726  31.675  1.00  0.00    -0.206 F 
ATOM     74  C   UNL A   1      50.360  25.687  30.682  1.00  0.00     0.040 A 
ATOM     75  C   UNL A   1      50.670  26.603  28.477  1.00  0.00     0.040 A 
ATOM     76  F   UNL A   1      48.849  27.546  27.331  1.00  0.00    -0.206 F 
ATOM     77  C   UNL A   1      51.196  25.980  29.607  1.00  0.00     0.006 A 
ENDBRANCH  49  70
BRANCH  61  78
ATOM     78  C   UNL A   1      44.905  32.360  31.280  1.00  0.00     0.057 A 
ATOM     79  C   UNL A   1      44.986  32.551  32.665  1.00  0.00     0.134 A 
ATOM     80  C   UNL A   1      45.276  33.427  30.454  1.00  0.00     0.134 A 
ATOM     81  F   UNL A   1      44.631  31.570  33.509  1.00  0.00    -0.206 F 
ATOM     82  C   UNL A   1      45.405  33.766  33.208  1.00  0.00     0.040 A 
ATOM     83  C   UNL A   1      45.719  34.639  30.984  1.00  0.00     0.040 A 
ATOM     84  F   UNL A   1      45.227  33.304  29.119  1.00  0.00    -0.206 F 
ATOM     85  C   UNL A   1      45.780  34.812  32.365  1.00  0.00     0.006 A 
ENDBRANCH  61  78
ENDBRANCH  35  36
ENDBRANCH  27  30
ENDBRANCH  25  26
ENDBRANCH  24  25
ENDBRANCH   1  24
TORSDOF 14
ENDMDL
