MODEL 1
REMARK VINA RESULT:     -12.7      0.000      0.000
REMARK SMILES N#Cc1cccnc1N1CC[NH+]([C@@H](C(=O)NCCCCNC(=O)c2ccc(-c3c4nc(c(-c5c(F)cccc5F)c5ccc([nH]5)c(-c5c(F)cccc5F)c5nc(c(-c6c(F)cccc6F)c6ccc3[nH]6)C=C5)C=C4)cc2)c2c[nH]c3cc(CO)ccc23)CC1
REMARK SMILES IDX 18 1 17 2 16 3 14 4 15 5 13 7 12 8 9 9 10 10 90 11 11 12
REMARK SMILES IDX 89 13 8 15 3 16 4 17 5 18 7 19 6 20 2 21 1 22 78 23 79 24
REMARK SMILES IDX 88 25 80 26 81 27 87 28 82 30 86 31 83 32 84 33 85 34 19 36
REMARK SMILES IDX 20 37 21 38 22 39 23 41 24 42 25 43 77 44 26 45 76 46 27 47
REMARK SMILES IDX 28 48 29 49 70 50 30 51 75 52 69 53 71 54 31 55 74 56 68 57
REMARK SMILES IDX 67 58 32 60 58 61 41 62 57 63 42 64 45 65 56 66 72 67 43 68
REMARK SMILES IDX 44 69 55 71 73 72 46 73 33 74 34 75 39 76 35 77 36 78 38 79
REMARK SMILES IDX 40 80 37 81 59 82 60 83 65 84 61 85 62 86 64 87 66 88 63 89
REMARK SMILES IDX 47 90 48 91 53 92 49 93 50 94 52 95 54 96 51 97
REMARK H PARENT 16 6 12 14 80 29 85 35 21 40 71 59 45 70
REMARK Flexibility Score: inf
ROOT
ATOM      1  C   UNL A   1      31.402  31.022  25.798  1.00  0.00     0.023 C 
ENDROOT
BRANCH   1   2
ATOM      2  C   UNL A   1      32.161  29.664  25.839  1.00  0.00     0.116 C 
BRANCH   2   3
ATOM      3  N   UNL A   1      31.390  28.494  26.260  1.00  0.00    -0.351 N 
ATOM      4  C   UNL A   1      31.198  27.205  25.816  1.00  0.00     0.283 C 
ATOM      5  O   UNL A   1      30.529  26.523  26.602  1.00  0.00    -0.268 OA
ATOM      6  H   UNL A   1      30.874  28.677  27.078  1.00  0.00     0.163 HD
BRANCH   4   7
ATOM      7  C   UNL A   1      31.793  26.637  24.493  1.00  0.00     0.307 C 
BRANCH   7   8
ATOM      8  N   UNL A   1      33.296  26.388  24.444  1.00  0.00    -0.318 N 
ATOM      9  N   UNL A   1      34.081  23.525  24.683  1.00  0.00    -0.344 N 
ATOM     10  C   UNL A   1      33.652  24.306  25.852  1.00  0.00     0.179 C 
ATOM     11  C   UNL A   1      33.647  24.086  23.392  1.00  0.00     0.179 C 
ATOM     12  C   UNL A   1      33.986  25.783  25.604  1.00  0.00     0.284 C 
ATOM     13  C   UNL A   1      33.801  25.632  23.301  1.00  0.00     0.284 C 
ATOM     14  H   UNL A   1      33.521  27.381  24.400  1.00  0.00     0.349 HD
BRANCH   9  15
ATOM     15  C   UNL A   1      33.876  22.142  24.791  1.00  0.00     0.146 A 
ATOM     16  C   UNL A   1      34.950  21.244  24.813  1.00  0.00     0.095 A 
ATOM     17  C   UNL A   1      34.695  19.868  24.830  1.00  0.00     0.025 A 
ATOM     18  C   UNL A   1      33.384  19.412  24.830  1.00  0.00     0.022 A 
ATOM     19  N   UNL A   1      32.598  21.689  24.826  1.00  0.00    -0.238 NA
ATOM     20  C   UNL A   1      32.376  20.355  24.834  1.00  0.00     0.113 A 
BRANCH  16  21
ATOM     21  C   UNL A   1      36.312  21.703  24.838  1.00  0.00     0.103 C 
ATOM     22  N   UNL A   1      37.393  22.097  24.890  1.00  0.00    -0.192 NA
ENDBRANCH  16  21
ENDBRANCH   9  15
ENDBRANCH   7   8
BRANCH   7  23
ATOM     23  C   UNL A   1      31.398  27.396  23.194  1.00  0.00     0.044 A 
ATOM     24  C   UNL A   1      32.306  28.006  22.334  1.00  0.00     0.094 A 
ATOM     25  C   UNL A   1      30.145  28.014  22.830  1.00  0.00     0.009 A 
ATOM     26  N   UNL A   1      31.831  29.297  22.201  1.00  0.00    -0.361 N 
ATOM     27  C   UNL A   1      30.502  29.340  22.564  1.00  0.00     0.046 A 
ATOM     28  C   UNL A   1      28.776  27.727  22.971  1.00  0.00     0.011 A 
ATOM     29  H   UNL A   1      32.360  30.067  21.895  1.00  0.00     0.166 HD
ATOM     30  C   UNL A   1      29.635  30.412  22.835  1.00  0.00     0.032 A 
ATOM     31  C   UNL A   1      27.865  28.781  23.098  1.00  0.00     0.007 A 
ATOM     32  C   UNL A   1      28.316  30.100  23.205  1.00  0.00    -0.021 A 
BRANCH  32  33
ATOM     33  C   UNL A   1      27.398  31.158  23.771  1.00  0.00     0.191 C 
BRANCH  33  34
ATOM     34  O   UNL A   1      27.572  32.414  23.112  1.00  0.00    -0.392 OA
ATOM     35  H   UNL A   1      28.188  32.965  23.622  1.00  0.00     0.211 HD
ENDBRANCH  33  34
ENDBRANCH  32  33
ENDBRANCH   7  23
ENDBRANCH   4   7
ENDBRANCH   2   3
ENDBRANCH   1   2
BRANCH   1  36
ATOM     36  C   UNL A   1      31.533  31.947  27.015  1.00  0.00     0.023 C 
BRANCH  36  37
ATOM     37  C   UNL A   1      32.752  32.844  26.983  1.00  0.00     0.116 C 
BRANCH  37  38
ATOM     38  N   UNL A   1      32.524  34.130  27.624  1.00  0.00    -0.352 N 
ATOM     39  C   UNL A   1      33.173  34.689  28.700  1.00  0.00     0.251 C 
ATOM     40  H   UNL A   1      31.804  34.677  27.233  1.00  0.00     0.163 HD
ATOM     41  O   UNL A   1      32.761  35.739  29.185  1.00  0.00    -0.269 OA
BRANCH  39  42
ATOM     42  C   UNL A   1      34.347  34.010  29.302  1.00  0.00     0.039 A 
ATOM     43  C   UNL A   1      34.135  32.973  30.216  1.00  0.00     0.014 A 
ATOM     44  C   UNL A   1      35.650  34.389  28.973  1.00  0.00     0.014 A 
ATOM     45  C   UNL A   1      35.228  32.292  30.758  1.00  0.00     0.010 A 
ATOM     46  C   UNL A   1      36.729  33.641  29.424  1.00  0.00     0.010 A 
ATOM     47  C   UNL A   1      36.532  32.604  30.343  1.00  0.00    -0.014 A 
BRANCH  47  48
ATOM     48  C   UNL A   1      37.709  31.889  30.890  1.00  0.00     0.031 A 
ATOM     49  C   UNL A   1      38.206  32.213  32.273  1.00  0.00     0.074 A 
ATOM     50  C   UNL A   1      38.363  30.999  30.120  1.00  0.00     0.049 A 
ATOM     51  N   UNL A   1      39.232  31.724  32.920  1.00  0.00    -0.248 NA
ATOM     52  C   UNL A   1      37.473  33.253  33.014  1.00  0.00     0.031 C 
ATOM     53  C   UNL A   1      38.011  30.653  28.742  1.00  0.00     0.029 A 
ATOM     54  N   UNL A   1      39.460  30.222  30.389  1.00  0.00    -0.354 N 
ATOM     55  C   UNL A   1      39.280  32.413  34.127  1.00  0.00     0.074 A 
ATOM     56  C   UNL A   1      38.223  33.398  34.094  1.00  0.00     0.031 C 
ATOM     57  C   UNL A   1      38.845  29.697  28.303  1.00  0.00     0.029 A 
ATOM     58  C   UNL A   1      39.809  29.391  29.355  1.00  0.00     0.049 A 
ATOM     59  H   UNL A   1      39.950  30.258  31.243  1.00  0.00     0.167 HD
ATOM     60  C   UNL A   1      40.110  32.221  35.179  1.00  0.00     0.037 A 
ATOM     61  C   UNL A   1      40.791  28.474  29.273  1.00  0.00     0.037 A 
ATOM     62  C   UNL A   1      41.135  31.213  35.213  1.00  0.00     0.049 A 
ATOM     63  C   UNL A   1      41.687  28.262  30.459  1.00  0.00     0.074 A 
ATOM     64  C   UNL A   1      41.980  30.873  36.254  1.00  0.00     0.029 A 
ATOM     65  N   UNL A   1      41.454  30.381  34.149  1.00  0.00    -0.354 N 
ATOM     66  N   UNL A   1      41.670  28.861  31.627  1.00  0.00    -0.248 NA
ATOM     67  C   UNL A   1      42.737  27.244  30.318  1.00  0.00     0.031 C 
ATOM     68  C   UNL A   1      42.842  29.867  35.803  1.00  0.00     0.029 A 
ATOM     69  C   UNL A   1      42.503  29.546  34.497  1.00  0.00     0.049 A 
ATOM     70  H   UNL A   1      41.002  30.384  33.274  1.00  0.00     0.167 HD
ATOM     71  C   UNL A   1      42.688  28.277  32.368  1.00  0.00     0.074 A 
ATOM     72  C   UNL A   1      43.291  27.266  31.523  1.00  0.00     0.031 C 
ATOM     73  C   UNL A   1      43.090  28.553  33.634  1.00  0.00     0.037 A 
BRANCH  60  74
ATOM     74  C   UNL A   1      39.935  33.125  36.368  1.00  0.00     0.057 A 
ATOM     75  C   UNL A   1      39.018  32.841  37.390  1.00  0.00     0.134 A 
ATOM     76  C   UNL A   1      40.685  34.302  36.486  1.00  0.00     0.134 A 
ATOM     77  F   UNL A   1      38.255  31.739  37.333  1.00  0.00    -0.206 F 
ATOM     78  C   UNL A   1      38.822  33.715  38.461  1.00  0.00     0.040 A 
ATOM     79  C   UNL A   1      40.521  35.167  37.570  1.00  0.00     0.040 A 
ATOM     80  F   UNL A   1      41.584  34.635  35.549  1.00  0.00    -0.206 F 
ATOM     81  C   UNL A   1      39.579  34.881  38.555  1.00  0.00     0.006 A 
ENDBRANCH  60  74
BRANCH  61  82
ATOM     82  C   UNL A   1      40.930  27.649  28.046  1.00  0.00     0.057 A 
ATOM     83  C   UNL A   1      40.277  26.416  27.935  1.00  0.00     0.134 A 
ATOM     84  C   UNL A   1      41.691  28.076  26.952  1.00  0.00     0.134 A 
ATOM     85  F   UNL A   1      39.544  25.947  28.955  1.00  0.00    -0.206 F 
ATOM     86  C   UNL A   1      40.381  25.632  26.785  1.00  0.00     0.040 A 
ATOM     87  C   UNL A   1      41.787  27.314  25.787  1.00  0.00     0.040 A 
ATOM     88  F   UNL A   1      42.332  29.254  26.990  1.00  0.00    -0.206 F 
ATOM     89  C   UNL A   1      41.135  26.085  25.703  1.00  0.00     0.006 A 
ENDBRANCH  61  82
BRANCH  73  90
ATOM     90  C   UNL A   1      44.224  27.733  34.178  1.00  0.00     0.057 A 
ATOM     91  C   UNL A   1      45.555  28.159  34.081  1.00  0.00     0.134 A 
ATOM     92  C   UNL A   1      43.977  26.519  34.829  1.00  0.00     0.134 A 
ATOM     93  F   UNL A   1      45.858  29.307  33.458  1.00  0.00    -0.206 F 
ATOM     94  C   UNL A   1      46.603  27.389  34.587  1.00  0.00     0.040 A 
ATOM     95  C   UNL A   1      45.013  25.753  35.363  1.00  0.00     0.040 A 
ATOM     96  F   UNL A   1      42.723  26.059  34.964  1.00  0.00    -0.206 F 
ATOM     97  C   UNL A   1      46.333  26.185  35.236  1.00  0.00     0.006 A 
ENDBRANCH  73  90
ENDBRANCH  47  48
ENDBRANCH  39  42
ENDBRANCH  37  38
ENDBRANCH  36  37
ENDBRANCH   1  36
TORSDOF 17
ENDMDL
MODEL 2
REMARK VINA RESULT:     -12.7      4.160      9.824
REMARK SMILES N#Cc1cccnc1N1CC[NH+]([C@@H](C(=O)NCCCCNC(=O)c2ccc(-c3c4nc(c(-c5c(F)cccc5F)c5ccc([nH]5)c(-c5c(F)cccc5F)c5nc(c(-c6c(F)cccc6F)c6ccc3[nH]6)C=C5)C=C4)cc2)c2c[nH]c3cc(CO)ccc23)CC1
REMARK SMILES IDX 18 1 17 2 16 3 14 4 15 5 13 7 12 8 9 9 10 10 90 11 11 12
REMARK SMILES IDX 89 13 8 15 3 16 4 17 5 18 7 19 6 20 2 21 1 22 78 23 79 24
REMARK SMILES IDX 88 25 80 26 81 27 87 28 82 30 86 31 83 32 84 33 85 34 19 36
REMARK SMILES IDX 20 37 21 38 22 39 23 41 24 42 25 43 77 44 26 45 76 46 27 47
REMARK SMILES IDX 28 48 29 49 70 50 30 51 75 52 69 53 71 54 31 55 74 56 68 57
REMARK SMILES IDX 67 58 32 60 58 61 41 62 57 63 42 64 45 65 56 66 72 67 43 68
REMARK SMILES IDX 44 69 55 71 73 72 46 73 33 74 34 75 39 76 35 77 36 78 38 79
REMARK SMILES IDX 40 80 37 81 59 82 60 83 65 84 61 85 62 86 64 87 66 88 63 89
REMARK SMILES IDX 47 90 48 91 53 92 49 93 50 94 52 95 54 96 51 97
REMARK H PARENT 16 6 12 14 80 29 85 35 21 40 71 59 45 70
REMARK Flexibility Score: inf
ROOT
ATOM      1  C   UNL A   1      36.808  20.188  24.977  1.00  0.00     0.023 C 
ENDROOT
BRANCH   1   2
ATOM      2  C   UNL A   1      36.282  21.651  25.059  1.00  0.00     0.116 C 
BRANCH   2   3
ATOM      3  N   UNL A   1      35.680  22.201  23.844  1.00  0.00    -0.351 N 
ATOM      4  C   UNL A   1      34.529  22.878  23.510  1.00  0.00     0.283 C 
ATOM      5  O   UNL A   1      34.520  23.257  22.333  1.00  0.00    -0.268 OA
ATOM      6  H   UNL A   1      36.251  22.047  23.057  1.00  0.00     0.163 HD
BRANCH   4   7
ATOM      7  C   UNL A   1      33.374  23.185  24.510  1.00  0.00     0.307 C 
BRANCH   7   8
ATOM      8  N   UNL A   1      33.623  24.251  25.571  1.00  0.00    -0.318 N 
ATOM      9  N   UNL A   1      32.269  26.852  25.049  1.00  0.00    -0.344 N 
ATOM     10  C   UNL A   1      33.480  26.455  24.319  1.00  0.00     0.179 C 
ATOM     11  C   UNL A   1      31.540  25.728  25.662  1.00  0.00     0.179 C 
ATOM     12  C   UNL A   1      34.303  25.514  25.210  1.00  0.00     0.284 C 
ATOM     13  C   UNL A   1      32.467  24.686  26.351  1.00  0.00     0.284 C 
ATOM     14  H   UNL A   1      34.266  23.662  26.099  1.00  0.00     0.349 HD
BRANCH   9  15
ATOM     15  C   UNL A   1      31.439  27.754  24.368  1.00  0.00     0.146 A 
ATOM     16  C   UNL A   1      31.370  29.103  24.734  1.00  0.00     0.095 A 
ATOM     17  C   UNL A   1      30.461  29.946  24.085  1.00  0.00     0.025 A 
ATOM     18  C   UNL A   1      29.645  29.436  23.085  1.00  0.00     0.022 A 
ATOM     19  N   UNL A   1      30.662  27.271  23.365  1.00  0.00    -0.238 NA
ATOM     20  C   UNL A   1      29.786  28.102  22.757  1.00  0.00     0.113 A 
BRANCH  16  21
ATOM     21  C   UNL A   1      32.226  29.650  25.751  1.00  0.00     0.103 C 
ATOM     22  N   UNL A   1      32.878  30.100  26.588  1.00  0.00    -0.192 NA
ENDBRANCH  16  21
ENDBRANCH   9  15
ENDBRANCH   7   8
BRANCH   7  23
ATOM     23  C   UNL A   1      32.747  21.951  25.219  1.00  0.00     0.044 A 
ATOM     24  C   UNL A   1      32.771  21.739  26.595  1.00  0.00     0.094 A 
ATOM     25  C   UNL A   1      32.450  20.638  24.697  1.00  0.00     0.009 A 
ATOM     26  N   UNL A   1      33.295  20.468  26.732  1.00  0.00    -0.361 N 
ATOM     27  C   UNL A   1      33.163  19.783  25.544  1.00  0.00     0.046 A 
ATOM     28  C   UNL A   1      31.945  20.095  23.503  1.00  0.00     0.011 A 
ATOM     29  H   UNL A   1      33.701  20.107  27.552  1.00  0.00     0.166 HD
ATOM     30  C   UNL A   1      33.726  18.581  25.084  1.00  0.00     0.032 A 
ATOM     31  C   UNL A   1      32.378  18.831  23.088  1.00  0.00     0.007 A 
ATOM     32  C   UNL A   1      33.390  18.164  23.784  1.00  0.00    -0.021 A 
BRANCH  32  33
ATOM     33  C   UNL A   1      34.145  17.044  23.109  1.00  0.00     0.191 C 
BRANCH  33  34
ATOM     34  O   UNL A   1      33.955  15.799  23.782  1.00  0.00    -0.392 OA
ATOM     35  H   UNL A   1      34.697  15.205  23.581  1.00  0.00     0.211 HD
ENDBRANCH  33  34
ENDBRANCH  32  33
ENDBRANCH   7  23
ENDBRANCH   4   7
ENDBRANCH   2   3
ENDBRANCH   1   2
BRANCH   1  36
ATOM     36  C   UNL A   1      38.306  19.985  24.719  1.00  0.00     0.023 C 
BRANCH  36  37
ATOM     37  C   UNL A   1      39.156  19.978  25.971  1.00  0.00     0.116 C 
BRANCH  37  38
ATOM     38  N   UNL A   1      40.359  19.171  25.833  1.00  0.00    -0.352 N 
ATOM     39  C   UNL A   1      41.671  19.530  26.040  1.00  0.00     0.251 C 
ATOM     40  H   UNL A   1      40.214  18.239  25.552  1.00  0.00     0.163 HD
ATOM     41  O   UNL A   1      42.571  18.746  25.754  1.00  0.00    -0.269 OA
BRANCH  39  42
ATOM     42  C   UNL A   1      42.004  20.874  26.572  1.00  0.00     0.039 A 
ATOM     43  C   UNL A   1      42.299  21.905  25.675  1.00  0.00     0.014 A 
ATOM     44  C   UNL A   1      42.031  21.123  27.946  1.00  0.00     0.014 A 
ATOM     45  C   UNL A   1      42.571  23.188  26.156  1.00  0.00     0.010 A 
ATOM     46  C   UNL A   1      42.190  22.419  28.418  1.00  0.00     0.010 A 
ATOM     47  C   UNL A   1      42.491  23.459  27.531  1.00  0.00    -0.014 A 
BRANCH  47  48
ATOM     48  C   UNL A   1      42.761  24.813  28.069  1.00  0.00     0.031 A 
ATOM     49  C   UNL A   1      44.165  25.207  28.437  1.00  0.00     0.074 A 
ATOM     50  C   UNL A   1      41.736  25.659  28.283  1.00  0.00     0.049 A 
ATOM     51  N   UNL A   1      44.604  26.328  28.949  1.00  0.00    -0.248 NA
ATOM     52  C   UNL A   1      45.212  24.190  28.238  1.00  0.00     0.031 C 
ATOM     53  C   UNL A   1      40.325  25.362  28.025  1.00  0.00     0.029 A 
ATOM     54  N   UNL A   1      41.723  26.942  28.766  1.00  0.00    -0.354 N 
ATOM     55  C   UNL A   1      45.966  26.140  29.153  1.00  0.00     0.074 A 
ATOM     56  C   UNL A   1      46.268  24.779  28.775  1.00  0.00     0.031 C 
ATOM     57  C   UNL A   1      39.590  26.450  28.306  1.00  0.00     0.029 A 
ATOM     58  C   UNL A   1      40.471  27.505  28.795  1.00  0.00     0.049 A 
ATOM     59  H   UNL A   1      42.535  27.414  29.063  1.00  0.00     0.167 HD
ATOM     60  C   UNL A   1      46.888  27.032  29.588  1.00  0.00     0.037 A 
ATOM     61  C   UNL A   1      40.084  28.740  29.164  1.00  0.00     0.037 A 
ATOM     62  C   UNL A   1      46.580  28.395  29.928  1.00  0.00     0.049 A 
ATOM     63  C   UNL A   1      41.125  29.720  29.624  1.00  0.00     0.074 A 
ATOM     64  C   UNL A   1      47.444  29.409  30.302  1.00  0.00     0.029 A 
ATOM     65  N   UNL A   1      45.302  28.933  29.937  1.00  0.00    -0.354 N 
ATOM     66  N   UNL A   1      42.422  29.558  29.733  1.00  0.00    -0.248 NA
ATOM     67  C   UNL A   1      40.648  31.056  30.007  1.00  0.00     0.031 C 
ATOM     68  C   UNL A   1      46.681  30.549  30.582  1.00  0.00     0.029 A 
ATOM     69  C   UNL A   1      45.347  30.258  30.336  1.00  0.00     0.049 A 
ATOM     70  H   UNL A   1      44.481  28.445  29.695  1.00  0.00     0.167 HD
ATOM     71  C   UNL A   1      42.921  30.776  30.175  1.00  0.00     0.074 A 
ATOM     72  C   UNL A   1      41.787  31.671  30.295  1.00  0.00     0.031 C 
ATOM     73  C   UNL A   1      44.201  31.125  30.456  1.00  0.00     0.037 A 
BRANCH  60  74
ATOM     74  C   UNL A   1      48.306  26.549  29.719  1.00  0.00     0.057 A 
ATOM     75  C   UNL A   1      49.229  26.656  28.669  1.00  0.00     0.134 A 
ATOM     76  C   UNL A   1      48.752  25.956  30.907  1.00  0.00     0.134 A 
ATOM     77  F   UNL A   1      48.865  27.199  27.496  1.00  0.00    -0.206 F 
ATOM     78  C   UNL A   1      50.526  26.153  28.780  1.00  0.00     0.040 A 
ATOM     79  C   UNL A   1      50.057  25.479  31.042  1.00  0.00     0.040 A 
ATOM     80  F   UNL A   1      47.926  25.824  31.955  1.00  0.00    -0.206 F 
ATOM     81  C   UNL A   1      50.945  25.566  29.972  1.00  0.00     0.006 A 
ENDBRANCH  60  74
BRANCH  61  82
ATOM     82  C   UNL A   1      38.656  29.130  29.049  1.00  0.00     0.057 A 
ATOM     83  C   UNL A   1      38.132  29.578  27.831  1.00  0.00     0.134 A 
ATOM     84  C   UNL A   1      37.779  29.044  30.136  1.00  0.00     0.134 A 
ATOM     85  F   UNL A   1      38.926  29.694  26.757  1.00  0.00    -0.206 F 
ATOM     86  C   UNL A   1      36.789  29.935  27.698  1.00  0.00     0.040 A 
ATOM     87  C   UNL A   1      36.429  29.377  30.013  1.00  0.00     0.040 A 
ATOM     88  F   UNL A   1      38.216  28.611  31.328  1.00  0.00    -0.206 F 
ATOM     89  C   UNL A   1      35.931  29.828  28.792  1.00  0.00     0.006 A 
ENDBRANCH  61  82
BRANCH  73  90
ATOM     90  C   UNL A   1      44.436  32.538  30.904  1.00  0.00     0.057 A 
ATOM     91  C   UNL A   1      44.454  32.889  32.260  1.00  0.00     0.134 A 
ATOM     92  C   UNL A   1      44.671  33.553  29.969  1.00  0.00     0.134 A 
ATOM     93  F   UNL A   1      44.223  31.965  33.205  1.00  0.00    -0.206 F 
ATOM     94  C   UNL A   1      44.670  34.206  32.668  1.00  0.00     0.040 A 
ATOM     95  C   UNL A   1      44.915  34.868  30.365  1.00  0.00     0.040 A 
ATOM     96  F   UNL A   1      44.676  33.281  28.654  1.00  0.00    -0.206 F 
ATOM     97  C   UNL A   1      44.907  35.199  31.718  1.00  0.00     0.006 A 
ENDBRANCH  73  90
ENDBRANCH  47  48
ENDBRANCH  39  42
ENDBRANCH  37  38
ENDBRANCH  36  37
ENDBRANCH   1  36
TORSDOF 17
ENDMDL
MODEL 3
REMARK VINA RESULT:     -12.6      4.032      9.684
REMARK SMILES N#Cc1cccnc1N1CC[NH+]([C@@H](C(=O)NCCCCNC(=O)c2ccc(-c3c4nc(c(-c5c(F)cccc5F)c5ccc([nH]5)c(-c5c(F)cccc5F)c5nc(c(-c6c(F)cccc6F)c6ccc3[nH]6)C=C5)C=C4)cc2)c2c[nH]c3cc(CO)ccc23)CC1
REMARK SMILES IDX 18 1 17 2 16 3 14 4 15 5 13 7 12 8 9 9 10 10 90 11 11 12
REMARK SMILES IDX 89 13 8 15 3 16 4 17 5 18 7 19 6 20 2 21 1 22 78 23 79 24
REMARK SMILES IDX 88 25 80 26 81 27 87 28 82 30 86 31 83 32 84 33 85 34 19 36
REMARK SMILES IDX 20 37 21 38 22 39 23 41 24 42 25 43 77 44 26 45 76 46 27 47
REMARK SMILES IDX 28 48 29 49 70 50 30 51 75 52 69 53 71 54 31 55 74 56 68 57
REMARK SMILES IDX 67 58 32 60 58 61 41 62 57 63 42 64 45 65 56 66 72 67 43 68
REMARK SMILES IDX 44 69 55 71 73 72 46 73 33 74 34 75 39 76 35 77 36 78 38 79
REMARK SMILES IDX 40 80 37 81 59 82 60 83 65 84 61 85 62 86 64 87 66 88 63 89
REMARK SMILES IDX 47 90 48 91 53 92 49 93 50 94 52 95 54 96 51 97
REMARK H PARENT 16 6 12 14 80 29 85 35 21 40 71 59 45 70
REMARK Flexibility Score: inf
ROOT
ATOM      1  C   UNL A   1      36.660  20.683  24.757  1.00  0.00     0.023 C 
ENDROOT
BRANCH   1   2
ATOM      2  C   UNL A   1      37.032  22.140  24.358  1.00  0.00     0.116 C 
BRANCH   2   3
ATOM      3  N   UNL A   1      36.123  23.196  24.806  1.00  0.00    -0.351 N 
ATOM      4  C   UNL A   1      34.783  23.487  24.683  1.00  0.00     0.283 C 
ATOM      5  O   UNL A   1      34.440  24.460  25.365  1.00  0.00    -0.268 OA
ATOM      6  H   UNL A   1      36.595  23.877  25.336  1.00  0.00     0.163 HD
BRANCH   4   7
ATOM      7  C   UNL A   1      33.783  22.660  23.819  1.00  0.00     0.307 C 
BRANCH   7   8
ATOM      8  N   UNL A   1      32.836  23.429  22.907  1.00  0.00    -0.318 N 
ATOM      9  N   UNL A   1      31.963  26.068  23.976  1.00  0.00    -0.344 N 
ATOM     10  C   UNL A   1      31.399  24.809  24.480  1.00  0.00     0.179 C 
ATOM     11  C   UNL A   1      33.263  25.917  23.299  1.00  0.00     0.179 C 
ATOM     12  C   UNL A   1      31.468  23.759  23.363  1.00  0.00     0.284 C 
ATOM     13  C   UNL A   1      33.333  24.686  22.351  1.00  0.00     0.284 C 
ATOM     14  H   UNL A   1      32.789  22.678  22.219  1.00  0.00     0.349 HD
BRANCH   9  15
ATOM     15  C   UNL A   1      31.923  27.137  24.883  1.00  0.00     0.146 A 
ATOM     16  C   UNL A   1      31.437  28.395  24.509  1.00  0.00     0.095 A 
ATOM     17  C   UNL A   1      31.500  29.455  25.421  1.00  0.00     0.025 A 
ATOM     18  C   UNL A   1      32.039  29.245  26.683  1.00  0.00     0.022 A 
ATOM     19  N   UNL A   1      32.416  26.931  26.131  1.00  0.00    -0.238 NA
ATOM     20  C   UNL A   1      32.475  27.972  26.992  1.00  0.00     0.113 A 
BRANCH  16  21
ATOM     21  C   UNL A   1      30.854  28.620  23.216  1.00  0.00     0.103 C 
ATOM     22  N   UNL A   1      30.408  28.838  22.176  1.00  0.00    -0.192 NA
ENDBRANCH  16  21
ENDBRANCH   9  15
ENDBRANCH   7   8
BRANCH   7  23
ATOM     23  C   UNL A   1      32.943  21.600  24.587  1.00  0.00     0.044 A 
ATOM     24  C   UNL A   1      32.761  21.592  25.967  1.00  0.00     0.094 A 
ATOM     25  C   UNL A   1      32.582  20.255  24.207  1.00  0.00     0.009 A 
ATOM     26  N   UNL A   1      33.127  20.315  26.348  1.00  0.00    -0.361 N 
ATOM     27  C   UNL A   1      33.083  19.476  25.256  1.00  0.00     0.046 A 
ATOM     28  C   UNL A   1      32.187  19.587  23.035  1.00  0.00     0.011 A 
ATOM     29  H   UNL A   1      33.379  20.046  27.260  1.00  0.00     0.166 HD
ATOM     30  C   UNL A   1      33.575  18.176  25.048  1.00  0.00     0.032 A 
ATOM     31  C   UNL A   1      32.537  18.244  22.861  1.00  0.00     0.007 A 
ATOM     32  C   UNL A   1      33.373  17.603  23.781  1.00  0.00    -0.021 A 
BRANCH  32  33
ATOM     33  C   UNL A   1      34.090  16.336  23.379  1.00  0.00     0.191 C 
BRANCH  33  34
ATOM     34  O   UNL A   1      34.684  15.687  24.505  1.00  0.00    -0.392 OA
ATOM     35  H   UNL A   1      35.594  16.004  24.620  1.00  0.00     0.211 HD
ENDBRANCH  33  34
ENDBRANCH  32  33
ENDBRANCH   7  23
ENDBRANCH   4   7
ENDBRANCH   2   3
ENDBRANCH   1   2
BRANCH   1  36
ATOM     36  C   UNL A   1      37.804  19.673  24.908  1.00  0.00     0.023 C 
BRANCH  36  37
ATOM     37  C   UNL A   1      38.917  20.131  25.827  1.00  0.00     0.116 C 
BRANCH  37  38
ATOM     38  N   UNL A   1      40.089  19.270  25.766  1.00  0.00    -0.352 N 
ATOM     39  C   UNL A   1      41.401  19.572  26.052  1.00  0.00     0.251 C 
ATOM     40  H   UNL A   1      39.920  18.343  25.479  1.00  0.00     0.163 HD
ATOM     41  O   UNL A   1      42.281  18.746  25.825  1.00  0.00    -0.269 OA
BRANCH  39  42
ATOM     42  C   UNL A   1      41.761  20.902  26.600  1.00  0.00     0.039 A 
ATOM     43  C   UNL A   1      42.086  21.934  25.714  1.00  0.00     0.014 A 
ATOM     44  C   UNL A   1      41.782  21.138  27.976  1.00  0.00     0.014 A 
ATOM     45  C   UNL A   1      42.384  23.206  26.210  1.00  0.00     0.010 A 
ATOM     46  C   UNL A   1      41.967  22.425  28.461  1.00  0.00     0.010 A 
ATOM     47  C   UNL A   1      42.299  23.466  27.586  1.00  0.00    -0.014 A 
BRANCH  47  48
ATOM     48  C   UNL A   1      42.595  24.809  28.140  1.00  0.00     0.031 A 
ATOM     49  C   UNL A   1      44.006  25.167  28.521  1.00  0.00     0.074 A 
ATOM     50  C   UNL A   1      41.588  25.676  28.355  1.00  0.00     0.049 A 
ATOM     51  N   UNL A   1      44.466  26.273  29.047  1.00  0.00    -0.248 NA
ATOM     52  C   UNL A   1      45.030  24.129  28.320  1.00  0.00     0.031 C 
ATOM     53  C   UNL A   1      40.173  25.413  28.084  1.00  0.00     0.029 A 
ATOM     54  N   UNL A   1      41.600  26.954  28.849  1.00  0.00    -0.354 N 
ATOM     55  C   UNL A   1      45.822  26.053  29.259  1.00  0.00     0.074 A 
ATOM     56  C   UNL A   1      46.095  24.688  28.870  1.00  0.00     0.031 C 
ATOM     57  C   UNL A   1      39.460  26.515  28.369  1.00  0.00     0.029 A 
ATOM     58  C   UNL A   1      40.362  27.545  28.875  1.00  0.00     0.049 A 
ATOM     59  H   UNL A   1      42.421  27.405  29.156  1.00  0.00     0.167 HD
ATOM     60  C   UNL A   1      46.760  26.919  29.709  1.00  0.00     0.037 A 
ATOM     61  C   UNL A   1      40.000  28.785  29.252  1.00  0.00     0.037 A 
ATOM     62  C   UNL A   1      46.481  28.286  30.060  1.00  0.00     0.049 A 
ATOM     63  C   UNL A   1      41.060  29.737  29.729  1.00  0.00     0.074 A 
ATOM     64  C   UNL A   1      47.364  29.276  30.449  1.00  0.00     0.029 A 
ATOM     65  N   UNL A   1      45.215  28.852  30.065  1.00  0.00    -0.354 N 
ATOM     66  N   UNL A   1      42.352  29.545  29.846  1.00  0.00    -0.248 NA
ATOM     67  C   UNL A   1      40.610  31.079  30.121  1.00  0.00     0.031 C 
ATOM     68  C   UNL A   1      46.625  30.430  30.735  1.00  0.00     0.029 A 
ATOM     69  C   UNL A   1      45.287  30.172  30.477  1.00  0.00     0.049 A 
ATOM     70  H   UNL A   1      44.386  28.385  29.812  1.00  0.00     0.167 HD
ATOM     71  C   UNL A   1      42.875  30.747  30.303  1.00  0.00     0.074 A 
ATOM     72  C   UNL A   1      41.760  31.666  30.424  1.00  0.00     0.031 C 
ATOM     73  C   UNL A   1      44.161  31.063  30.597  1.00  0.00     0.037 A 
BRANCH  60  74
ATOM     74  C   UNL A   1      48.166  26.402  29.846  1.00  0.00     0.057 A 
ATOM     75  C   UNL A   1      48.632  25.818  31.032  1.00  0.00     0.134 A 
ATOM     76  C   UNL A   1      49.070  26.502  28.781  1.00  0.00     0.134 A 
ATOM     77  F   UNL A   1      47.824  25.705  32.098  1.00  0.00    -0.206 F 
ATOM     78  C   UNL A   1      49.955  25.394  31.169  1.00  0.00     0.040 A 
ATOM     79  C   UNL A   1      50.387  26.050  28.894  1.00  0.00     0.040 A 
ATOM     80  F   UNL A   1      48.693  27.044  27.614  1.00  0.00    -0.206 F 
ATOM     81  C   UNL A   1      50.836  25.505  30.095  1.00  0.00     0.006 A 
ENDBRANCH  60  74
BRANCH  61  82
ATOM     82  C   UNL A   1      38.583  29.209  29.131  1.00  0.00     0.057 A 
ATOM     83  C   UNL A   1      37.735  29.200  30.245  1.00  0.00     0.134 A 
ATOM     84  C   UNL A   1      38.047  29.654  27.917  1.00  0.00     0.134 A 
ATOM     85  F   UNL A   1      38.187  28.771  31.433  1.00  0.00    -0.206 F 
ATOM     86  C   UNL A   1      36.403  29.610  30.156  1.00  0.00     0.040 A 
ATOM     87  C   UNL A   1      36.724  30.088  27.818  1.00  0.00     0.040 A 
ATOM     88  F   UNL A   1      38.810  29.698  26.815  1.00  0.00    -0.206 F 
ATOM     89  C   UNL A   1      35.896  30.062  28.939  1.00  0.00     0.006 A 
ENDBRANCH  61  82
BRANCH  73  90
ATOM     90  C   UNL A   1      44.424  32.467  31.060  1.00  0.00     0.057 A 
ATOM     91  C   UNL A   1      44.698  33.502  30.157  1.00  0.00     0.134 A 
ATOM     92  C   UNL A   1      44.376  32.789  32.422  1.00  0.00     0.134 A 
ATOM     93  F   UNL A   1      44.771  33.255  28.841  1.00  0.00    -0.206 F 
ATOM     94  C   UNL A   1      44.945  34.803  30.596  1.00  0.00     0.040 A 
ATOM     95  C   UNL A   1      44.593  34.092  32.871  1.00  0.00     0.040 A 
ATOM     96  F   UNL A   1      44.108  31.846  33.337  1.00  0.00    -0.206 F 
ATOM     97  C   UNL A   1      44.887  35.102  31.957  1.00  0.00     0.006 A 
ENDBRANCH  73  90
ENDBRANCH  47  48
ENDBRANCH  39  42
ENDBRANCH  37  38
ENDBRANCH  36  37
ENDBRANCH   1  36
TORSDOF 17
ENDMDL
