MODEL 1
REMARK VINA RESULT:     -10.0      0.000      0.000
REMARK SMILES CC(=O)Nc1ccc(/N=C2\C(=O)N(c3ccc(NC(C)=O)cc3)[C@H](c3ccccc3)[C@H]2CC(=O)NCCCCNC(=O)c2ccc(-c3c4nc(c(-c5c(F)cccc5F)c5ccc([nH]5)c(-c5c(F)cccc5F)c5nc(c(-c6c(F)cccc6F)c6ccc3[nH]6)C=C5)C=C4)cc2)cc1
REMARK SMILES IDX 37 1 36 2 35 3 33 4 34 5 32 7 31 8 9 9 10 10 11 11 12 12
REMARK SMILES IDX 13 13 24 14 8 15 5 16 6 17 98 18 7 19 97 20 4 21 1 22 2 23
REMARK SMILES IDX 3 24 14 26 15 27 23 28 16 29 22 30 17 31 18 32 19 33 20 35
REMARK SMILES IDX 21 36 25 37 26 38 30 39 27 40 29 41 28 42 38 43 39 44 40 45
REMARK SMILES IDX 41 46 42 48 43 49 44 50 96 51 45 52 95 53 46 54 47 55 48 56
REMARK SMILES IDX 89 57 49 58 94 59 88 60 90 61 50 62 93 63 87 64 86 65 51 67
REMARK SMILES IDX 77 68 60 69 76 70 61 71 64 72 75 73 91 74 62 75 63 76 74 78
REMARK SMILES IDX 92 79 65 80 52 81 53 82 58 83 54 84 55 85 57 86 59 87 56 88
REMARK SMILES IDX 78 89 79 90 84 91 80 92 81 93 83 94 85 95 82 96 66 97 67 98
REMARK SMILES IDX 72 99 68 100 69 101 71 102 73 103 70 104
REMARK H PARENT 35 6 4 25 18 34 40 47 90 66 64 77
REMARK Flexibility Score: inf
ROOT
ATOM      1  C   UNL A   1      35.013  31.915  30.865  1.00  0.00     0.023 C 
ENDROOT
BRANCH   1   2
ATOM      2  C   UNL A   1      35.186  32.522  32.258  1.00  0.00     0.116 C 
BRANCH   2   3
ATOM      3  N   UNL A   1      35.030  33.967  32.219  1.00  0.00    -0.356 N 
ATOM      4  C   UNL A   1      35.530  34.913  33.061  1.00  0.00     0.220 C 
ATOM      5  O   UNL A   1      35.209  36.091  32.892  1.00  0.00    -0.275 OA
ATOM      6  H   UNL A   1      34.485  34.311  31.474  1.00  0.00     0.163 HD
BRANCH   4   7
ATOM      7  C   UNL A   1      36.495  34.523  34.164  1.00  0.00     0.112 C 
BRANCH   7   8
ATOM      8  C   UNL A   1      37.953  34.760  33.732  1.00  0.00     0.081 C 
ATOM      9  N   UNL A   1      39.298  35.796  35.522  1.00  0.00    -0.247 NA
ATOM     10  C   UNL A   1      38.827  34.729  34.951  1.00  0.00     0.112 C 
ATOM     11  C   UNL A   1      39.163  33.293  35.236  1.00  0.00     0.273 C 
ATOM     12  O   UNL A   1      39.299  32.843  36.352  1.00  0.00    -0.267 OA
ATOM     13  N   UNL A   1      39.278  32.724  33.976  1.00  0.00    -0.299 N 
ATOM     14  C   UNL A   1      38.568  33.535  32.976  1.00  0.00     0.131 C 
BRANCH   9  15
ATOM     15  C   UNL A   1      40.156  35.718  36.636  1.00  0.00     0.064 A 
ATOM     16  C   UNL A   1      41.708  35.375  38.986  1.00  0.00     0.041 A 
ATOM     17  C   UNL A   1      40.359  35.739  39.060  1.00  0.00     0.028 A 
ATOM     18  C   UNL A   1      42.299  35.298  37.729  1.00  0.00     0.028 A 
ATOM     19  C   UNL A   1      39.601  35.913  37.899  1.00  0.00     0.030 A 
ATOM     20  C   UNL A   1      41.534  35.495  36.566  1.00  0.00     0.030 A 
BRANCH  16  21
ATOM     21  N   UNL A   1      42.358  35.155  40.211  1.00  0.00    -0.326 N 
ATOM     22  C   UNL A   1      41.116  33.213  41.182  1.00  0.00     0.114 C 
ATOM     23  C   UNL A   1      42.232  34.218  41.192  1.00  0.00     0.221 C 
ATOM     24  O   UNL A   1      43.051  34.229  42.116  1.00  0.00    -0.275 OA
ATOM     25  H   UNL A   1      43.056  35.823  40.403  1.00  0.00     0.169 HD
ENDBRANCH  16  21
ENDBRANCH   9  15
BRANCH  13  26
ATOM     26  C   UNL A   1      39.974  31.504  33.755  1.00  0.00     0.045 A 
ATOM     27  C   UNL A   1      41.340  31.405  34.050  1.00  0.00     0.028 A 
ATOM     28  C   UNL A   1      39.387  30.427  33.087  1.00  0.00     0.028 A 
ATOM     29  C   UNL A   1      42.104  30.305  33.636  1.00  0.00     0.028 A 
ATOM     30  C   UNL A   1      40.154  29.338  32.647  1.00  0.00     0.028 A 
ATOM     31  C   UNL A   1      41.526  29.281  32.891  1.00  0.00     0.041 A 
BRANCH  31  32
ATOM     32  N   UNL A   1      42.244  28.222  32.302  1.00  0.00    -0.326 N 
ATOM     33  C   UNL A   1      43.545  28.256  31.837  1.00  0.00     0.221 C 
ATOM     34  H   UNL A   1      41.768  27.365  32.213  1.00  0.00     0.169 HD
ATOM     35  C   UNL A   1      43.933  27.000  31.092  1.00  0.00     0.114 C 
ATOM     36  O   UNL A   1      44.352  29.167  31.986  1.00  0.00    -0.275 OA
ENDBRANCH  31  32
ENDBRANCH  13  26
BRANCH  14  37
ATOM     37  C   UNL A   1      39.330  33.974  31.740  1.00  0.00    -0.024 A 
ATOM     38  C   UNL A   1      40.727  34.149  31.823  1.00  0.00     0.006 A 
ATOM     39  C   UNL A   1      38.699  34.197  30.508  1.00  0.00     0.006 A 
ATOM     40  C   UNL A   1      41.468  34.550  30.711  1.00  0.00     0.000 A 
ATOM     41  C   UNL A   1      39.448  34.583  29.393  1.00  0.00     0.000 A 
ATOM     42  C   UNL A   1      40.827  34.763  29.495  1.00  0.00     0.000 A 
ENDBRANCH  14  37
ENDBRANCH   7   8
ENDBRANCH   4   7
ENDBRANCH   2   3
ENDBRANCH   1   2
BRANCH   1  43
ATOM     43  C   UNL A   1      35.704  32.711  29.752  1.00  0.00     0.023 C 
BRANCH  43  44
ATOM     44  C   UNL A   1      35.080  32.509  28.372  1.00  0.00     0.116 C 
BRANCH  44  45
ATOM     45  N   UNL A   1      34.435  31.208  28.238  1.00  0.00    -0.352 N 
ATOM     46  C   UNL A   1      34.944  29.942  28.072  1.00  0.00     0.251 C 
ATOM     47  H   UNL A   1      33.452  31.243  28.272  1.00  0.00     0.163 HD
ATOM     48  O   UNL A   1      34.179  29.027  27.777  1.00  0.00    -0.269 OA
BRANCH  46  49
ATOM     49  C   UNL A   1      36.392  29.649  28.198  1.00  0.00     0.039 A 
ATOM     50  C   UNL A   1      36.867  29.181  29.431  1.00  0.00     0.014 A 
ATOM     51  C   UNL A   1      37.297  29.883  27.164  1.00  0.00     0.014 A 
ATOM     52  C   UNL A   1      38.218  28.856  29.591  1.00  0.00     0.010 A 
ATOM     53  C   UNL A   1      38.631  29.499  27.302  1.00  0.00     0.010 A 
ATOM     54  C   UNL A   1      39.102  28.958  28.507  1.00  0.00    -0.014 A 
BRANCH  54  55
ATOM     55  C   UNL A   1      40.508  28.489  28.584  1.00  0.00     0.031 A 
ATOM     56  C   UNL A   1      41.613  29.466  28.856  1.00  0.00     0.074 A 
ATOM     57  C   UNL A   1      40.822  27.209  28.306  1.00  0.00     0.049 A 
ATOM     58  N   UNL A   1      42.883  29.370  28.559  1.00  0.00    -0.248 NA
ATOM     59  C   UNL A   1      41.236  30.725  29.516  1.00  0.00     0.031 C 
ATOM     60  C   UNL A   1      39.873  26.132  28.025  1.00  0.00     0.029 A 
ATOM     61  N   UNL A   1      42.052  26.606  28.193  1.00  0.00    -0.354 N 
ATOM     62  C   UNL A   1      43.439  30.594  28.897  1.00  0.00     0.074 A 
ATOM     63  C   UNL A   1      42.385  31.389  29.496  1.00  0.00     0.031 C 
ATOM     64  C   UNL A   1      40.552  24.996  27.797  1.00  0.00     0.029 A 
ATOM     65  C   UNL A   1      41.982  25.279  27.854  1.00  0.00     0.049 A 
ATOM     66  H   UNL A   1      42.901  27.082  28.342  1.00  0.00     0.167 HD
ATOM     67  C   UNL A   1      44.703  31.025  28.674  1.00  0.00     0.037 A 
ATOM     68  C   UNL A   1      42.958  24.396  27.580  1.00  0.00     0.037 A 
ATOM     69  C   UNL A   1      45.752  30.211  28.122  1.00  0.00     0.049 A 
ATOM     70  C   UNL A   1      44.387  24.846  27.548  1.00  0.00     0.074 A 
ATOM     71  C   UNL A   1      47.014  30.581  27.693  1.00  0.00     0.029 A 
ATOM     72  N   UNL A   1      45.670  28.835  27.986  1.00  0.00    -0.354 N 
ATOM     73  N   UNL A   1      44.864  26.060  27.649  1.00  0.00    -0.248 NA
ATOM     74  C   UNL A   1      45.407  23.809  27.334  1.00  0.00     0.031 C 
ATOM     75  C   UNL A   1      47.713  29.417  27.336  1.00  0.00     0.029 A 
ATOM     76  C   UNL A   1      46.880  28.330  27.547  1.00  0.00     0.049 A 
ATOM     77  H   UNL A   1      44.869  28.295  28.175  1.00  0.00     0.167 HD
ATOM     78  C   UNL A   1      46.233  25.944  27.463  1.00  0.00     0.074 A 
ATOM     79  C   UNL A   1      46.519  24.534  27.293  1.00  0.00     0.031 C 
ATOM     80  C   UNL A   1      47.161  26.928  27.396  1.00  0.00     0.037 A 
BRANCH  67  81
ATOM     81  C   UNL A   1      44.989  32.462  28.961  1.00  0.00     0.057 A 
ATOM     82  C   UNL A   1      44.732  33.466  28.023  1.00  0.00     0.134 A 
ATOM     83  C   UNL A   1      45.516  32.842  30.201  1.00  0.00     0.134 A 
ATOM     84  F   UNL A   1      44.243  33.158  26.813  1.00  0.00    -0.206 F 
ATOM     85  C   UNL A   1      44.994  34.806  28.310  1.00  0.00     0.040 A 
ATOM     86  C   UNL A   1      45.778  34.179  30.501  1.00  0.00     0.040 A 
ATOM     87  F   UNL A   1      45.790  31.919  31.136  1.00  0.00    -0.206 F 
ATOM     88  C   UNL A   1      45.517  35.166  29.553  1.00  0.00     0.006 A 
ENDBRANCH  67  81
BRANCH  68  89
ATOM     89  C   UNL A   1      42.607  22.995  27.271  1.00  0.00     0.057 A 
ATOM     90  C   UNL A   1      42.275  22.099  28.292  1.00  0.00     0.134 A 
ATOM     91  C   UNL A   1      42.570  22.529  25.953  1.00  0.00     0.134 A 
ATOM     92  F   UNL A   1      42.308  22.494  29.573  1.00  0.00    -0.206 F 
ATOM     93  C   UNL A   1      41.918  20.781  28.013  1.00  0.00     0.040 A 
ATOM     94  C   UNL A   1      42.209  21.214  25.659  1.00  0.00     0.040 A 
ATOM     95  F   UNL A   1      42.877  23.349  24.937  1.00  0.00    -0.206 F 
ATOM     96  C   UNL A   1      41.881  20.336  26.691  1.00  0.00     0.006 A 
ENDBRANCH  68  89
BRANCH  80  97
ATOM     97  C   UNL A   1      48.566  26.512  27.112  1.00  0.00     0.057 A 
ATOM     98  C   UNL A   1      49.463  26.256  28.155  1.00  0.00     0.134 A 
ATOM     99  C   UNL A   1      49.024  26.356  25.801  1.00  0.00     0.134 A 
ATOM    100  F   UNL A   1      49.079  26.399  29.433  1.00  0.00    -0.206 F 
ATOM    101  C   UNL A   1      50.776  25.859  27.902  1.00  0.00     0.040 A 
ATOM    102  C   UNL A   1      50.335  25.961  25.534  1.00  0.00     0.040 A 
ATOM    103  F   UNL A   1      48.212  26.601  24.762  1.00  0.00    -0.206 F 
ATOM    104  C   UNL A   1      51.215  25.711  26.587  1.00  0.00     0.006 A 
ENDBRANCH  80  97
ENDBRANCH  54  55
ENDBRANCH  46  49
ENDBRANCH  44  45
ENDBRANCH  43  44
ENDBRANCH   1  43
TORSDOF 17
ENDMDL
MODEL 2
REMARK VINA RESULT:     -10.0      2.838      7.363
REMARK SMILES CC(=O)Nc1ccc(/N=C2\C(=O)N(c3ccc(NC(C)=O)cc3)[C@H](c3ccccc3)[C@H]2CC(=O)NCCCCNC(=O)c2ccc(-c3c4nc(c(-c5c(F)cccc5F)c5ccc([nH]5)c(-c5c(F)cccc5F)c5nc(c(-c6c(F)cccc6F)c6ccc3[nH]6)C=C5)C=C4)cc2)cc1
REMARK SMILES IDX 37 1 36 2 35 3 33 4 34 5 32 7 31 8 9 9 10 10 11 11 12 12
REMARK SMILES IDX 13 13 24 14 8 15 5 16 6 17 98 18 7 19 97 20 4 21 1 22 2 23
REMARK SMILES IDX 3 24 14 26 15 27 23 28 16 29 22 30 17 31 18 32 19 33 20 35
REMARK SMILES IDX 21 36 25 37 26 38 30 39 27 40 29 41 28 42 38 43 39 44 40 45
REMARK SMILES IDX 41 46 42 48 43 49 44 50 96 51 45 52 95 53 46 54 47 55 48 56
REMARK SMILES IDX 89 57 49 58 94 59 88 60 90 61 50 62 93 63 87 64 86 65 51 67
REMARK SMILES IDX 77 68 60 69 76 70 61 71 64 72 75 73 91 74 62 75 63 76 74 78
REMARK SMILES IDX 92 79 65 80 52 81 53 82 58 83 54 84 55 85 57 86 59 87 56 88
REMARK SMILES IDX 78 89 79 90 84 91 80 92 81 93 83 94 85 95 82 96 66 97 67 98
REMARK SMILES IDX 72 99 68 100 69 101 71 102 73 103 70 104
REMARK H PARENT 35 6 4 25 18 34 40 47 90 66 64 77
REMARK Flexibility Score: inf
ROOT
ATOM      1  C   UNL A   1      38.762  33.809  37.621  1.00  0.00     0.023 C 
ENDROOT
BRANCH   1   2
ATOM      2  C   UNL A   1      38.196  32.848  36.575  1.00  0.00     0.116 C 
BRANCH   2   3
ATOM      3  N   UNL A   1      38.823  31.541  36.676  1.00  0.00    -0.356 N 
ATOM      4  C   UNL A   1      39.730  30.951  35.847  1.00  0.00     0.220 C 
ATOM      5  O   UNL A   1      40.079  29.791  36.076  1.00  0.00    -0.275 OA
ATOM      6  H   UNL A   1      38.556  31.004  37.457  1.00  0.00     0.163 HD
BRANCH   4   7
ATOM      7  C   UNL A   1      40.323  31.726  34.686  1.00  0.00     0.112 C 
BRANCH   7   8
ATOM      8  C   UNL A   1      39.778  31.212  33.343  1.00  0.00     0.081 C 
ATOM      9  N   UNL A   1      37.339  31.522  33.148  1.00  0.00    -0.247 NA
ATOM     10  C   UNL A   1      38.542  31.988  32.997  1.00  0.00     0.112 C 
ATOM     11  C   UNL A   1      38.973  33.256  32.318  1.00  0.00     0.273 C 
ATOM     12  O   UNL A   1      38.394  34.313  32.439  1.00  0.00    -0.267 OA
ATOM     13  N   UNL A   1      40.085  32.875  31.582  1.00  0.00    -0.299 N 
ATOM     14  C   UNL A   1      40.665  31.639  32.125  1.00  0.00     0.131 C 
BRANCH   9  15
ATOM     15  C   UNL A   1      36.206  32.267  32.764  1.00  0.00     0.064 A 
ATOM     16  C   UNL A   1      34.044  33.985  32.114  1.00  0.00     0.041 A 
ATOM     17  C   UNL A   1      34.461  33.819  33.440  1.00  0.00     0.028 A 
ATOM     18  C   UNL A   1      34.642  33.197  31.136  1.00  0.00     0.028 A 
ATOM     19  C   UNL A   1      35.522  32.966  33.755  1.00  0.00     0.030 A 
ATOM     20  C   UNL A   1      35.696  32.327  31.464  1.00  0.00     0.030 A 
BRANCH  16  21
ATOM     21  N   UNL A   1      33.018  34.919  31.899  1.00  0.00    -0.326 N 
ATOM     22  C   UNL A   1      34.028  37.072  32.672  1.00  0.00     0.114 C 
ATOM     23  C   UNL A   1      32.928  36.271  32.037  1.00  0.00     0.221 C 
ATOM     24  O   UNL A   1      31.898  36.828  31.647  1.00  0.00    -0.275 OA
ATOM     25  H   UNL A   1      32.182  34.507  31.580  1.00  0.00     0.169 HD
ENDBRANCH  16  21
ENDBRANCH   9  15
BRANCH  13  26
ATOM     26  C   UNL A   1      40.566  33.639  30.484  1.00  0.00     0.045 A 
ATOM     27  C   UNL A   1      41.934  33.913  30.355  1.00  0.00     0.028 A 
ATOM     28  C   UNL A   1      39.702  34.286  29.597  1.00  0.00     0.028 A 
ATOM     29  C   UNL A   1      42.414  34.844  29.425  1.00  0.00     0.028 A 
ATOM     30  C   UNL A   1      40.176  35.239  28.683  1.00  0.00     0.028 A 
ATOM     31  C   UNL A   1      41.533  35.548  28.609  1.00  0.00     0.041 A 
BRANCH  31  32
ATOM     32  N   UNL A   1      41.910  36.608  27.761  1.00  0.00    -0.326 N 
ATOM     33  C   UNL A   1      42.471  37.815  28.135  1.00  0.00     0.221 C 
ATOM     34  H   UNL A   1      41.757  36.476  26.798  1.00  0.00     0.169 HD
ATOM     35  C   UNL A   1      42.569  38.795  26.990  1.00  0.00     0.114 C 
ATOM     36  O   UNL A   1      42.875  38.119  29.252  1.00  0.00    -0.275 OA
ENDBRANCH  31  32
ENDBRANCH  13  26
BRANCH  14  37
ATOM     37  C   UNL A   1      40.894  30.478  31.175  1.00  0.00    -0.024 A 
ATOM     38  C   UNL A   1      41.408  30.738  29.888  1.00  0.00     0.006 A 
ATOM     39  C   UNL A   1      40.629  29.150  31.534  1.00  0.00     0.006 A 
ATOM     40  C   UNL A   1      41.636  29.702  28.982  1.00  0.00     0.000 A 
ATOM     41  C   UNL A   1      40.874  28.113  30.629  1.00  0.00     0.000 A 
ATOM     42  C   UNL A   1      41.371  28.389  29.356  1.00  0.00     0.000 A 
ENDBRANCH  14  37
ENDBRANCH   7   8
ENDBRANCH   4   7
ENDBRANCH   2   3
ENDBRANCH   1   2
BRANCH   1  43
ATOM     43  C   UNL A   1      39.650  34.911  37.032  1.00  0.00     0.023 C 
BRANCH  43  44
ATOM     44  C   UNL A   1      40.950  35.132  37.803  1.00  0.00     0.116 C 
BRANCH  44  45
ATOM     45  N   UNL A   1      41.643  36.347  37.390  1.00  0.00    -0.352 N 
ATOM     46  C   UNL A   1      42.650  36.567  36.481  1.00  0.00     0.251 C 
ATOM     47  H   UNL A   1      41.333  37.160  37.849  1.00  0.00     0.163 HD
ATOM     48  O   UNL A   1      43.207  37.663  36.464  1.00  0.00    -0.269 OA
BRANCH  46  49
ATOM     49  C   UNL A   1      43.115  35.515  35.545  1.00  0.00     0.039 A 
ATOM     50  C   UNL A   1      44.368  34.932  35.775  1.00  0.00     0.014 A 
ATOM     51  C   UNL A   1      42.384  35.139  34.418  1.00  0.00     0.014 A 
ATOM     52  C   UNL A   1      44.837  33.911  34.942  1.00  0.00     0.010 A 
ATOM     53  C   UNL A   1      42.821  34.077  33.625  1.00  0.00     0.010 A 
ATOM     54  C   UNL A   1      44.039  33.435  33.892  1.00  0.00    -0.014 A 
BRANCH  54  55
ATOM     55  C   UNL A   1      44.426  32.259  33.072  1.00  0.00     0.031 A 
ATOM     56  C   UNL A   1      45.001  32.455  31.701  1.00  0.00     0.074 A 
ATOM     57  C   UNL A   1      44.168  31.008  33.499  1.00  0.00     0.049 A 
ATOM     58  N   UNL A   1      45.012  31.625  30.690  1.00  0.00    -0.248 NA
ATOM     59  C   UNL A   1      45.613  33.762  31.420  1.00  0.00     0.031 C 
ATOM     60  C   UNL A   1      43.616  30.641  34.803  1.00  0.00     0.029 A 
ATOM     61  N   UNL A   1      44.322  29.805  32.853  1.00  0.00    -0.354 N 
ATOM     62  C   UNL A   1      45.532  32.342  29.624  1.00  0.00     0.074 A 
ATOM     63  C   UNL A   1      45.900  33.649  30.129  1.00  0.00     0.031 C 
ATOM     64  C   UNL A   1      43.501  29.305  34.871  1.00  0.00     0.029 A 
ATOM     65  C   UNL A   1      43.911  28.728  33.596  1.00  0.00     0.049 A 
ATOM     66  H   UNL A   1      44.693  29.725  31.944  1.00  0.00     0.167 HD
ATOM     67  C   UNL A   1      45.639  31.953  28.331  1.00  0.00     0.037 A 
ATOM     68  C   UNL A   1      43.836  27.424  33.275  1.00  0.00     0.037 A 
ATOM     69  C   UNL A   1      45.314  30.636  27.852  1.00  0.00     0.049 A 
ATOM     70  C   UNL A   1      44.167  26.976  31.884  1.00  0.00     0.074 A 
ATOM     71  C   UNL A   1      45.217  30.178  26.550  1.00  0.00     0.029 A 
ATOM     72  N   UNL A   1      45.095  29.546  28.677  1.00  0.00    -0.354 N 
ATOM     73  N   UNL A   1      44.439  27.706  30.833  1.00  0.00    -0.248 NA
ATOM     74  C   UNL A   1      44.152  25.528  31.630  1.00  0.00     0.031 C 
ATOM     75  C   UNL A   1      44.981  28.795  26.590  1.00  0.00     0.029 A 
ATOM     76  C   UNL A   1      44.933  28.402  27.917  1.00  0.00     0.049 A 
ATOM     77  H   UNL A   1      45.060  29.580  29.660  1.00  0.00     0.167 HD
ATOM     78  C   UNL A   1      44.579  26.814  29.780  1.00  0.00     0.074 A 
ATOM     79  C   UNL A   1      44.413  25.483  30.329  1.00  0.00     0.031 C 
ATOM     80  C   UNL A   1      44.785  27.083  28.469  1.00  0.00     0.037 A 
BRANCH  67  81
ATOM     81  C   UNL A   1      46.056  32.991  27.344  1.00  0.00     0.057 A 
ATOM     82  C   UNL A   1      45.123  33.780  26.667  1.00  0.00     0.134 A 
ATOM     83  C   UNL A   1      47.414  33.209  27.081  1.00  0.00     0.134 A 
ATOM     84  F   UNL A   1      43.808  33.603  26.866  1.00  0.00    -0.206 F 
ATOM     85  C   UNL A   1      45.529  34.755  25.754  1.00  0.00     0.040 A 
ATOM     86  C   UNL A   1      47.832  34.184  26.175  1.00  0.00     0.040 A 
ATOM     87  F   UNL A   1      48.353  32.475  27.697  1.00  0.00    -0.206 F 
ATOM     88  C   UNL A   1      46.887  34.960  25.508  1.00  0.00     0.006 A 
ENDBRANCH  67  81
BRANCH  68  89
ATOM     89  C   UNL A   1      43.382  26.450  34.288  1.00  0.00     0.057 A 
ATOM     90  C   UNL A   1      44.303  25.644  34.966  1.00  0.00     0.134 A 
ATOM     91  C   UNL A   1      42.030  26.322  34.619  1.00  0.00     0.134 A 
ATOM     92  F   UNL A   1      45.609  25.720  34.676  1.00  0.00    -0.206 F 
ATOM     93  C   UNL A   1      43.892  24.737  35.941  1.00  0.00     0.040 A 
ATOM     94  C   UNL A   1      41.606  25.423  35.597  1.00  0.00     0.040 A 
ATOM     95  F   UNL A   1      41.108  27.074  34.000  1.00  0.00    -0.206 F 
ATOM     96  C   UNL A   1      42.539  24.627  36.262  1.00  0.00     0.006 A 
ENDBRANCH  68  89
BRANCH  80  97
ATOM     97  C   UNL A   1      44.824  25.916  27.539  1.00  0.00     0.057 A 
ATOM     98  C   UNL A   1      46.036  25.289  27.226  1.00  0.00     0.134 A 
ATOM     99  C   UNL A   1      43.655  25.408  26.964  1.00  0.00     0.134 A 
ATOM    100  F   UNL A   1      47.189  25.740  27.743  1.00  0.00    -0.206 F 
ATOM    101  C   UNL A   1      46.084  24.193  26.364  1.00  0.00     0.040 A 
ATOM    102  C   UNL A   1      43.691  24.314  26.100  1.00  0.00     0.040 A 
ATOM    103  F   UNL A   1      42.468  25.978  27.219  1.00  0.00    -0.206 F 
ATOM    104  C   UNL A   1      44.908  23.703  25.799  1.00  0.00     0.006 A 
ENDBRANCH  80  97
ENDBRANCH  54  55
ENDBRANCH  46  49
ENDBRANCH  44  45
ENDBRANCH  43  44
ENDBRANCH   1  43
TORSDOF 17
ENDMDL
MODEL 3
REMARK VINA RESULT:     -10.0      3.990     12.477
REMARK SMILES CC(=O)Nc1ccc(/N=C2\C(=O)N(c3ccc(NC(C)=O)cc3)[C@H](c3ccccc3)[C@H]2CC(=O)NCCCCNC(=O)c2ccc(-c3c4nc(c(-c5c(F)cccc5F)c5ccc([nH]5)c(-c5c(F)cccc5F)c5nc(c(-c6c(F)cccc6F)c6ccc3[nH]6)C=C5)C=C4)cc2)cc1
REMARK SMILES IDX 37 1 36 2 35 3 33 4 34 5 32 7 31 8 9 9 10 10 11 11 12 12
REMARK SMILES IDX 13 13 24 14 8 15 5 16 6 17 98 18 7 19 97 20 4 21 1 22 2 23
REMARK SMILES IDX 3 24 14 26 15 27 23 28 16 29 22 30 17 31 18 32 19 33 20 35
REMARK SMILES IDX 21 36 25 37 26 38 30 39 27 40 29 41 28 42 38 43 39 44 40 45
REMARK SMILES IDX 41 46 42 48 43 49 44 50 96 51 45 52 95 53 46 54 47 55 48 56
REMARK SMILES IDX 89 57 49 58 94 59 88 60 90 61 50 62 93 63 87 64 86 65 51 67
REMARK SMILES IDX 77 68 60 69 76 70 61 71 64 72 75 73 91 74 62 75 63 76 74 78
REMARK SMILES IDX 92 79 65 80 52 81 53 82 58 83 54 84 55 85 57 86 59 87 56 88
REMARK SMILES IDX 78 89 79 90 84 91 80 92 81 93 83 94 85 95 82 96 66 97 67 98
REMARK SMILES IDX 72 99 68 100 69 101 71 102 73 103 70 104
REMARK H PARENT 35 6 4 25 18 34 40 47 90 66 64 77
REMARK Flexibility Score: inf
ROOT
ATOM      1  C   UNL A   1      42.844  23.520  26.947  1.00  0.00     0.023 C 
ENDROOT
BRANCH   1   2
ATOM      2  C   UNL A   1      44.145  23.192  27.681  1.00  0.00     0.116 C 
BRANCH   2   3
ATOM      3  N   UNL A   1      45.037  22.414  26.837  1.00  0.00    -0.356 N 
ATOM      4  C   UNL A   1      45.697  22.784  25.704  1.00  0.00     0.220 C 
ATOM      5  O   UNL A   1      46.348  21.937  25.091  1.00  0.00    -0.275 OA
ATOM      6  H   UNL A   1      45.186  21.484  27.126  1.00  0.00     0.163 HD
BRANCH   4   7
ATOM      7  C   UNL A   1      45.659  24.225  25.233  1.00  0.00     0.112 C 
BRANCH   7   8
ATOM      8  C   UNL A   1      46.779  25.051  25.888  1.00  0.00     0.081 C 
ATOM      9  N   UNL A   1      48.556  25.648  24.284  1.00  0.00    -0.247 NA
ATOM     10  C   UNL A   1      47.414  25.917  24.841  1.00  0.00     0.112 C 
ATOM     11  C   UNL A   1      46.588  27.167  24.720  1.00  0.00     0.273 C 
ATOM     12  O   UNL A   1      46.414  27.758  23.677  1.00  0.00    -0.267 OA
ATOM     13  N   UNL A   1      46.165  27.410  26.018  1.00  0.00    -0.299 N 
ATOM     14  C   UNL A   1      46.233  26.182  26.822  1.00  0.00     0.131 C 
BRANCH   9  15
ATOM     15  C   UNL A   1      49.138  26.516  23.340  1.00  0.00     0.064 A 
ATOM     16  C   UNL A   1      50.556  28.162  21.516  1.00  0.00     0.041 A 
ATOM     17  C   UNL A   1      50.848  28.183  22.884  1.00  0.00     0.028 A 
ATOM     18  C   UNL A   1      49.475  27.398  21.088  1.00  0.00     0.028 A 
ATOM     19  C   UNL A   1      50.142  27.376  23.779  1.00  0.00     0.030 A 
ATOM     20  C   UNL A   1      48.757  26.603  21.997  1.00  0.00     0.030 A 
BRANCH  16  21
ATOM     21  N   UNL A   1      51.373  28.957  20.696  1.00  0.00    -0.326 N 
ATOM     22  C   UNL A   1      51.482  27.658  18.561  1.00  0.00     0.114 C 
ATOM     23  C   UNL A   1      51.775  28.871  19.396  1.00  0.00     0.221 C 
ATOM     24  O   UNL A   1      52.417  29.814  18.923  1.00  0.00    -0.275 OA
ATOM     25  H   UNL A   1      51.733  29.747  21.160  1.00  0.00     0.169 HD
ENDBRANCH  16  21
ENDBRANCH   9  15
BRANCH  13  26
ATOM     26  C   UNL A   1      45.709  28.689  26.440  1.00  0.00     0.045 A 
ATOM     27  C   UNL A   1      44.358  28.895  26.745  1.00  0.00     0.028 A 
ATOM     28  C   UNL A   1      46.533  29.817  26.403  1.00  0.00     0.028 A 
ATOM     29  C   UNL A   1      43.835  30.180  26.939  1.00  0.00     0.028 A 
ATOM     30  C   UNL A   1      46.007  31.108  26.570  1.00  0.00     0.028 A 
ATOM     31  C   UNL A   1      44.648  31.302  26.810  1.00  0.00     0.041 A 
BRANCH  31  32
ATOM     32  N   UNL A   1      44.179  32.631  26.833  1.00  0.00    -0.326 N 
ATOM     33  C   UNL A   1      43.998  33.469  25.749  1.00  0.00     0.221 C 
ATOM     34  H   UNL A   1      43.957  33.003  27.717  1.00  0.00     0.169 HD
ATOM     35  C   UNL A   1      43.666  34.886  26.154  1.00  0.00     0.114 C 
ATOM     36  O   UNL A   1      44.072  33.160  24.565  1.00  0.00    -0.275 OA
ENDBRANCH  31  32
ENDBRANCH  13  26
BRANCH  14  37
ATOM     37  C   UNL A   1      46.991  26.228  28.135  1.00  0.00    -0.024 A 
ATOM     38  C   UNL A   1      48.317  26.709  28.144  1.00  0.00     0.006 A 
ATOM     39  C   UNL A   1      46.417  25.827  29.349  1.00  0.00     0.006 A 
ATOM     40  C   UNL A   1      49.050  26.772  29.329  1.00  0.00     0.000 A 
ATOM     41  C   UNL A   1      47.150  25.906  30.537  1.00  0.00     0.000 A 
ATOM     42  C   UNL A   1      48.464  26.372  30.526  1.00  0.00     0.000 A 
ENDBRANCH  14  37
ENDBRANCH   7   8
ENDBRANCH   4   7
ENDBRANCH   2   3
ENDBRANCH   1   2
BRANCH   1  43
ATOM     43  C   UNL A   1      42.143  22.294  26.352  1.00  0.00     0.023 C 
BRANCH  43  44
ATOM     44  C   UNL A   1      40.790  21.988  26.992  1.00  0.00     0.116 C 
BRANCH  44  45
ATOM     45  N   UNL A   1      39.672  22.482  26.197  1.00  0.00    -0.352 N 
ATOM     46  C   UNL A   1      38.959  23.655  26.243  1.00  0.00     0.251 C 
ATOM     47  H   UNL A   1      39.373  21.858  25.496  1.00  0.00     0.163 HD
ATOM     48  O   UNL A   1      37.921  23.747  25.591  1.00  0.00    -0.269 OA
BRANCH  46  49
ATOM     49  C   UNL A   1      39.376  24.802  27.084  1.00  0.00     0.039 A 
ATOM     50  C   UNL A   1      40.150  25.809  26.493  1.00  0.00     0.014 A 
ATOM     51  C   UNL A   1      39.083  24.878  28.446  1.00  0.00     0.014 A 
ATOM     52  C   UNL A   1      40.539  26.930  27.234  1.00  0.00     0.010 A 
ATOM     53  C   UNL A   1      39.415  26.025  29.169  1.00  0.00     0.010 A 
ATOM     54  C   UNL A   1      40.124  27.074  28.566  1.00  0.00    -0.014 A 
BRANCH  54  55
ATOM     55  C   UNL A   1      40.387  28.308  29.349  1.00  0.00     0.031 A 
ATOM     56  C   UNL A   1      41.622  28.416  30.191  1.00  0.00     0.074 A 
ATOM     57  C   UNL A   1      39.473  29.296  29.401  1.00  0.00     0.049 A 
ATOM     58  N   UNL A   1      41.839  29.172  31.236  1.00  0.00    -0.248 NA
ATOM     59  C   UNL A   1      42.746  27.537  29.834  1.00  0.00     0.031 C 
ATOM     60  C   UNL A   1      38.222  29.352  28.643  1.00  0.00     0.029 A 
ATOM     61  N   UNL A   1      39.457  30.446  30.153  1.00  0.00    -0.354 N 
ATOM     62  C   UNL A   1      43.078  28.788  31.725  1.00  0.00     0.074 A 
ATOM     63  C   UNL A   1      43.602  27.787  30.817  1.00  0.00     0.031 C 
ATOM     64  C   UNL A   1      37.573  30.487  28.951  1.00  0.00     0.029 A 
ATOM     65  C   UNL A   1      38.330  31.205  29.970  1.00  0.00     0.049 A 
ATOM     66  H   UNL A   1      40.186  30.699  30.765  1.00  0.00     0.167 HD
ATOM     67  C   UNL A   1      43.690  29.201  32.860  1.00  0.00     0.037 A 
ATOM     68  C   UNL A   1      37.930  32.334  30.581  1.00  0.00     0.037 A 
ATOM     69  C   UNL A   1      43.182  30.229  33.727  1.00  0.00     0.049 A 
ATOM     70  C   UNL A   1      38.739  32.904  31.706  1.00  0.00     0.074 A 
ATOM     71  C   UNL A   1      43.619  30.611  34.984  1.00  0.00     0.029 A 
ATOM     72  N   UNL A   1      42.150  31.087  33.385  1.00  0.00    -0.354 N 
ATOM     73  N   UNL A   1      39.789  32.394  32.298  1.00  0.00    -0.248 NA
ATOM     74  C   UNL A   1      38.292  34.188  32.265  1.00  0.00     0.031 C 
ATOM     75  C   UNL A   1      42.875  31.732  35.383  1.00  0.00     0.029 A 
ATOM     76  C   UNL A   1      41.980  32.041  34.372  1.00  0.00     0.049 A 
ATOM     77  H   UNL A   1      41.616  31.027  32.560  1.00  0.00     0.167 HD
ATOM     78  C   UNL A   1      40.101  33.266  33.330  1.00  0.00     0.074 A 
ATOM     79  C   UNL A   1      39.160  34.366  33.253  1.00  0.00     0.031 C 
ATOM     80  C   UNL A   1      41.057  33.138  34.281  1.00  0.00     0.037 A 
BRANCH  67  81
ATOM     81  C   UNL A   1      44.936  28.482  33.257  1.00  0.00     0.057 A 
ATOM     82  C   UNL A   1      46.205  28.994  32.974  1.00  0.00     0.134 A 
ATOM     83  C   UNL A   1      44.859  27.265  33.946  1.00  0.00     0.134 A 
ATOM     84  F   UNL A   1      46.339  30.147  32.301  1.00  0.00    -0.206 F 
ATOM     85  C   UNL A   1      47.361  28.315  33.362  1.00  0.00     0.040 A 
ATOM     86  C   UNL A   1      46.007  26.580  34.343  1.00  0.00     0.040 A 
ATOM     87  F   UNL A   1      43.667  26.723  34.238  1.00  0.00    -0.206 F 
ATOM     88  C   UNL A   1      47.264  27.106  34.051  1.00  0.00     0.006 A 
ENDBRANCH  67  81
BRANCH  68  89
ATOM     89  C   UNL A   1      36.668  32.980  30.164  1.00  0.00     0.057 A 
ATOM     90  C   UNL A   1      35.498  32.808  30.910  1.00  0.00     0.134 A 
ATOM     91  C   UNL A   1      36.610  33.798  29.032  1.00  0.00     0.134 A 
ATOM     92  F   UNL A   1      35.499  32.022  31.996  1.00  0.00    -0.206 F 
ATOM     93  C   UNL A   1      34.306  33.430  30.542  1.00  0.00     0.040 A 
ATOM     94  C   UNL A   1      35.426  34.431  28.656  1.00  0.00     0.040 A 
ATOM     95  F   UNL A   1      37.706  33.997  28.285  1.00  0.00    -0.206 F 
ATOM     96  C   UNL A   1      34.269  34.247  29.412  1.00  0.00     0.006 A 
ENDBRANCH  68  89
BRANCH  80  97
ATOM     97  C   UNL A   1      41.119  34.207  35.321  1.00  0.00     0.057 A 
ATOM     98  C   UNL A   1      41.928  35.335  35.143  1.00  0.00     0.134 A 
ATOM     99  C   UNL A   1      40.366  34.119  36.496  1.00  0.00     0.134 A 
ATOM    100  F   UNL A   1      42.678  35.466  34.038  1.00  0.00    -0.206 F 
ATOM    101  C   UNL A   1      41.988  36.344  36.105  1.00  0.00     0.040 A 
ATOM    102  C   UNL A   1      40.420  35.121  37.466  1.00  0.00     0.040 A 
ATOM    103  F   UNL A   1      39.584  33.054  36.725  1.00  0.00    -0.206 F 
ATOM    104  C   UNL A   1      41.232  36.237  37.271  1.00  0.00     0.006 A 
ENDBRANCH  80  97
ENDBRANCH  54  55
ENDBRANCH  46  49
ENDBRANCH  44  45
ENDBRANCH  43  44
ENDBRANCH   1  43
TORSDOF 17
ENDMDL
