MODEL 1
REMARK VINA RESULT:     -13.4      0.000      0.000
REMARK SMILES CC(C)[C@H](NC(=O)[C@H](Cc1ccccc1)n1c(=O)[nH]c2ccccc2c1=O)C(=O)NCCCCNC(=O)c1ccc(-c2c3nc(c(-c4c(F)cccc4F)c4ccc([nH]4)c(-c4c(F)cccc4F)c4nc(c(-c5c(F)cccc5F)c5ccc2[nH]5)C=C4)C=C3)cc1
REMARK SMILES IDX 31 1 30 2 28 3 29 4 4 6 2 7 1 8 3 9 5 10 6 11 7 13 8 14
REMARK SMILES IDX 16 15 17 16 26 17 18 18 19 19 25 20 27 21 20 22 24 24 21 25
REMARK SMILES IDX 23 26 22 27 9 28 10 29 11 30 15 31 12 32 14 33 13 34 32 35
REMARK SMILES IDX 33 36 34 37 35 38 36 39 37 41 38 42 39 43 91 44 40 45 90 46
REMARK SMILES IDX 41 47 42 48 43 49 84 50 44 51 89 52 83 53 85 54 45 55 88 56
REMARK SMILES IDX 82 57 81 58 46 60 72 61 55 62 71 63 56 64 59 65 70 66 86 67
REMARK SMILES IDX 57 68 58 69 69 71 87 72 60 73 47 74 48 75 53 76 49 77 50 78
REMARK SMILES IDX 52 79 54 80 51 81 73 82 74 83 79 84 75 85 76 86 78 87 80 88
REMARK SMILES IDX 77 89 61 90 62 91 67 92 63 93 64 94 66 95 68 96 65 97
REMARK H PARENT 30 5 5 12 19 23 35 40 85 59 59 70
REMARK Flexibility Score: inf
ROOT
ATOM      1  C   UNL A   1      35.924  21.330  25.673  1.00  0.00     0.116 C 
ENDROOT
BRANCH   1   2
ATOM      2  N   UNL A   1      34.803  20.805  24.944  1.00  0.00    -0.354 N 
ATOM      3  C   UNL A   1      33.728  21.462  24.437  1.00  0.00     0.242 C 
ATOM      4  O   UNL A   1      32.959  20.791  23.737  1.00  0.00    -0.273 OA
ATOM      5  H   UNL A   1      34.816  19.833  24.789  1.00  0.00     0.163 HD
BRANCH   3   6
ATOM      6  C   UNL A   1      33.493  22.997  24.601  1.00  0.00     0.173 C 
BRANCH   6   7
ATOM      7  C   UNL A   1      32.344  23.416  25.521  1.00  0.00     0.015 C 
ATOM      8  C   UNL A   1      30.954  22.889  25.154  1.00  0.00     0.010 C 
ATOM      9  C   UNL A   1      32.673  23.036  26.972  1.00  0.00     0.010 C 
ENDBRANCH   6   7
BRANCH   6  10
ATOM     10  N   UNL A   1      33.628  23.789  23.354  1.00  0.00    -0.342 N 
ATOM     11  C   UNL A   1      33.570  25.043  22.850  1.00  0.00     0.244 C 
ATOM     12  H   UNL A   1      33.838  23.170  22.618  1.00  0.00     0.164 HD
ATOM     13  O   UNL A   1      33.404  24.995  21.620  1.00  0.00    -0.273 OA
BRANCH  11  14
ATOM     14  C   UNL A   1      33.420  26.411  23.603  1.00  0.00     0.189 C 
BRANCH  14  15
ATOM     15  N   UNL A   1      32.392  27.393  23.212  1.00  0.00    -0.247 N 
ATOM     16  C   UNL A   1      32.794  28.629  22.746  1.00  0.00     0.329 A 
ATOM     17  C   UNL A   1      31.050  26.998  23.236  1.00  0.00     0.264 A 
ATOM     18  O   UNL A   1      33.926  29.083  22.879  1.00  0.00    -0.248 OA
ATOM     19  N   UNL A   1      31.844  29.399  22.131  1.00  0.00    -0.307 N 
ATOM     20  C   UNL A   1      30.046  28.028  22.915  1.00  0.00     0.064 A 
ATOM     21  O   UNL A   1      30.660  25.874  23.545  1.00  0.00    -0.268 OA
ATOM     22  C   UNL A   1      30.477  29.164  22.248  1.00  0.00     0.055 A 
ATOM     23  H   UNL A   1      32.142  30.158  21.579  1.00  0.00     0.171 HD
ATOM     24  C   UNL A   1      28.706  27.894  23.291  1.00  0.00     0.016 A 
ATOM     25  C   UNL A   1      29.555  30.114  21.815  1.00  0.00     0.027 A 
ATOM     26  C   UNL A   1      27.792  28.886  22.935  1.00  0.00     0.001 A 
ATOM     27  C   UNL A   1      28.210  29.974  22.164  1.00  0.00     0.002 A 
ENDBRANCH  14  15
BRANCH  14  28
ATOM     28  C   UNL A   1      33.613  26.319  25.158  1.00  0.00     0.071 C 
BRANCH  28  29
ATOM     29  C   UNL A   1      33.288  27.524  26.007  1.00  0.00    -0.045 A 
ATOM     30  C   UNL A   1      34.216  28.552  26.199  1.00  0.00     0.004 A 
ATOM     31  C   UNL A   1      32.019  27.653  26.594  1.00  0.00     0.004 A 
ATOM     32  C   UNL A   1      33.838  29.734  26.837  1.00  0.00     0.000 A 
ATOM     33  C   UNL A   1      31.642  28.830  27.235  1.00  0.00     0.000 A 
ATOM     34  C   UNL A   1      32.545  29.883  27.333  1.00  0.00     0.000 A 
ENDBRANCH  28  29
ENDBRANCH  14  28
ENDBRANCH  11  14
ENDBRANCH   6  10
ENDBRANCH   3   6
ENDBRANCH   1   2
BRANCH   1  35
ATOM     35  C   UNL A   1      37.205  21.332  24.833  1.00  0.00     0.023 C 
BRANCH  35  36
ATOM     36  C   UNL A   1      38.064  20.082  25.010  1.00  0.00     0.023 C 
BRANCH  36  37
ATOM     37  C   UNL A   1      39.284  20.283  25.901  1.00  0.00     0.116 C 
BRANCH  37  38
ATOM     38  N   UNL A   1      40.271  19.216  25.813  1.00  0.00    -0.352 N 
ATOM     39  C   UNL A   1      41.619  19.283  26.084  1.00  0.00     0.251 C 
ATOM     40  H   UNL A   1      39.932  18.338  25.525  1.00  0.00     0.163 HD
ATOM     41  O   UNL A   1      42.341  18.307  25.899  1.00  0.00    -0.269 OA
BRANCH  39  42
ATOM     42  C   UNL A   1      42.203  20.562  26.541  1.00  0.00     0.039 A 
ATOM     43  C   UNL A   1      42.647  21.477  25.585  1.00  0.00     0.014 A 
ATOM     44  C   UNL A   1      42.249  20.888  27.900  1.00  0.00     0.014 A 
ATOM     45  C   UNL A   1      43.063  22.747  25.988  1.00  0.00     0.010 A 
ATOM     46  C   UNL A   1      42.571  22.185  28.289  1.00  0.00     0.010 A 
ATOM     47  C   UNL A   1      42.985  23.129  27.339  1.00  0.00    -0.014 A 
BRANCH  47  48
ATOM     48  C   UNL A   1      43.320  24.517  27.751  1.00  0.00     0.031 A 
ATOM     49  C   UNL A   1      44.749  24.987  27.777  1.00  0.00     0.074 A 
ATOM     50  C   UNL A   1      42.332  25.350  28.135  1.00  0.00     0.049 A 
ATOM     51  N   UNL A   1      45.221  26.175  28.061  1.00  0.00    -0.248 NA
ATOM     52  C   UNL A   1      45.786  23.989  27.475  1.00  0.00     0.031 C 
ATOM     53  C   UNL A   1      40.915  24.993  28.235  1.00  0.00     0.029 A 
ATOM     54  N   UNL A   1      42.367  26.672  28.503  1.00  0.00    -0.354 N 
ATOM     55  C   UNL A   1      46.603  26.064  27.974  1.00  0.00     0.074 A 
ATOM     56  C   UNL A   1      46.897  24.678  27.682  1.00  0.00     0.031 C 
ATOM     57  C   UNL A   1      40.211  26.081  28.590  1.00  0.00     0.029 A 
ATOM     58  C   UNL A   1      41.128  27.203  28.769  1.00  0.00     0.049 A 
ATOM     59  H   UNL A   1      43.201  27.191  28.570  1.00  0.00     0.167 HD
ATOM     60  C   UNL A   1      47.542  27.033  28.094  1.00  0.00     0.037 A 
ATOM     61  C   UNL A   1      40.768  28.455  29.105  1.00  0.00     0.037 A 
ATOM     62  C   UNL A   1      47.248  28.415  28.368  1.00  0.00     0.049 A 
ATOM     63  C   UNL A   1      41.825  29.519  29.204  1.00  0.00     0.074 A 
ATOM     64  C   UNL A   1      48.122  29.484  28.448  1.00  0.00     0.029 A 
ATOM     65  N   UNL A   1      45.978  28.918  28.610  1.00  0.00    -0.354 N 
ATOM     66  N   UNL A   1      43.120  29.419  29.027  1.00  0.00    -0.248 NA
ATOM     67  C   UNL A   1      41.367  30.877  29.533  1.00  0.00     0.031 C 
ATOM     68  C   UNL A   1      47.386  30.627  28.786  1.00  0.00     0.029 A 
ATOM     69  C   UNL A   1      46.048  30.280  28.860  1.00  0.00     0.049 A 
ATOM     70  H   UNL A   1      45.149  28.386  28.605  1.00  0.00     0.167 HD
ATOM     71  C   UNL A   1      43.627  30.701  29.193  1.00  0.00     0.074 A 
ATOM     72  C   UNL A   1      42.496  31.565  29.463  1.00  0.00     0.031 C 
ATOM     73  C   UNL A   1      44.914  31.127  29.129  1.00  0.00     0.037 A 
BRANCH  60  74
ATOM     74  C   UNL A   1      48.979  26.628  27.920  1.00  0.00     0.057 A 
ATOM     75  C   UNL A   1      49.781  26.265  29.011  1.00  0.00     0.134 A 
ATOM     76  C   UNL A   1      49.560  26.574  26.647  1.00  0.00     0.134 A 
ATOM     77  F   UNL A   1      49.293  26.307  30.260  1.00  0.00    -0.206 F 
ATOM     78  C   UNL A   1      51.116  25.891  28.844  1.00  0.00     0.040 A 
ATOM     79  C   UNL A   1      50.885  26.173  26.466  1.00  0.00     0.040 A 
ATOM     80  F   UNL A   1      48.849  26.904  25.559  1.00  0.00    -0.206 F 
ATOM     81  C   UNL A   1      51.669  25.836  27.567  1.00  0.00     0.006 A 
ENDBRANCH  60  74
BRANCH  61  82
ATOM     82  C   UNL A   1      39.336  28.786  29.324  1.00  0.00     0.057 A 
ATOM     83  C   UNL A   1      38.740  28.625  30.581  1.00  0.00     0.134 A 
ATOM     84  C   UNL A   1      38.527  29.258  28.285  1.00  0.00     0.134 A 
ATOM     85  F   UNL A   1      39.458  28.158  31.614  1.00  0.00    -0.206 F 
ATOM     86  C   UNL A   1      37.388  28.898  30.791  1.00  0.00     0.040 A 
ATOM     87  C   UNL A   1      37.179  29.562  28.486  1.00  0.00     0.040 A 
ATOM     88  F   UNL A   1      39.039  29.443  27.059  1.00  0.00    -0.206 F 
ATOM     89  C   UNL A   1      36.604  29.373  29.742  1.00  0.00     0.006 A 
ENDBRANCH  61  82
BRANCH  73  90
ATOM     90  C   UNL A   1      45.156  32.597  29.322  1.00  0.00     0.057 A 
ATOM     91  C   UNL A   1      45.128  33.502  28.253  1.00  0.00     0.134 A 
ATOM     92  C   UNL A   1      45.416  33.113  30.597  1.00  0.00     0.134 A 
ATOM     93  F   UNL A   1      44.895  33.073  27.003  1.00  0.00    -0.206 F 
ATOM     94  C   UNL A   1      45.391  34.860  28.440  1.00  0.00     0.040 A 
ATOM     95  C   UNL A   1      45.650  34.474  30.802  1.00  0.00     0.040 A 
ATOM     96  F   UNL A   1      45.446  32.303  31.668  1.00  0.00    -0.206 F 
ATOM     97  C   UNL A   1      45.649  35.349  29.718  1.00  0.00     0.006 A 
ENDBRANCH  73  90
ENDBRANCH  47  48
ENDBRANCH  39  42
ENDBRANCH  37  38
ENDBRANCH  36  37
ENDBRANCH  35  36
ENDBRANCH   1  35
TORSDOF 17
ENDMDL
MODEL 2
REMARK VINA RESULT:     -13.2      3.910      9.403
REMARK SMILES CC(C)[C@H](NC(=O)[C@H](Cc1ccccc1)n1c(=O)[nH]c2ccccc2c1=O)C(=O)NCCCCNC(=O)c1ccc(-c2c3nc(c(-c4c(F)cccc4F)c4ccc([nH]4)c(-c4c(F)cccc4F)c4nc(c(-c5c(F)cccc5F)c5ccc2[nH]5)C=C4)C=C3)cc1
REMARK SMILES IDX 31 1 30 2 28 3 29 4 4 6 2 7 1 8 3 9 5 10 6 11 7 13 8 14
REMARK SMILES IDX 16 15 17 16 26 17 18 18 19 19 25 20 27 21 20 22 24 24 21 25
REMARK SMILES IDX 23 26 22 27 9 28 10 29 11 30 15 31 12 32 14 33 13 34 32 35
REMARK SMILES IDX 33 36 34 37 35 38 36 39 37 41 38 42 39 43 91 44 40 45 90 46
REMARK SMILES IDX 41 47 42 48 43 49 84 50 44 51 89 52 83 53 85 54 45 55 88 56
REMARK SMILES IDX 82 57 81 58 46 60 72 61 55 62 71 63 56 64 59 65 70 66 86 67
REMARK SMILES IDX 57 68 58 69 69 71 87 72 60 73 47 74 48 75 53 76 49 77 50 78
REMARK SMILES IDX 52 79 54 80 51 81 73 82 74 83 79 84 75 85 76 86 78 87 80 88
REMARK SMILES IDX 77 89 61 90 62 91 67 92 63 93 64 94 66 95 68 96 65 97
REMARK H PARENT 30 5 5 12 19 23 35 40 85 59 59 70
REMARK Flexibility Score: inf
ROOT
ATOM      1  C   UNL A   1      33.956  29.336  26.949  1.00  0.00     0.116 C 
ENDROOT
BRANCH   1   2
ATOM      2  N   UNL A   1      32.741  29.087  27.673  1.00  0.00    -0.354 N 
ATOM      3  C   UNL A   1      31.802  28.128  27.466  1.00  0.00     0.242 C 
ATOM      4  O   UNL A   1      30.905  28.051  28.314  1.00  0.00    -0.273 OA
ATOM      5  H   UNL A   1      32.563  29.698  28.425  1.00  0.00     0.163 HD
BRANCH   3   6
ATOM      6  C   UNL A   1      31.871  27.084  26.307  1.00  0.00     0.173 C 
BRANCH   6   7
ATOM      7  C   UNL A   1      31.555  27.602  24.903  1.00  0.00     0.015 C 
ATOM      8  C   UNL A   1      32.691  27.524  23.879  1.00  0.00     0.010 C 
ATOM      9  C   UNL A   1      30.312  26.889  24.350  1.00  0.00     0.010 C 
ENDBRANCH   6   7
BRANCH   6  10
ATOM     10  N   UNL A   1      31.309  25.749  26.632  1.00  0.00    -0.342 N 
ATOM     11  C   UNL A   1      31.578  24.423  26.620  1.00  0.00     0.244 C 
ATOM     12  H   UNL A   1      30.400  25.876  26.988  1.00  0.00     0.164 HD
ATOM     13  O   UNL A   1      30.518  23.778  26.674  1.00  0.00    -0.273 OA
BRANCH  11  14
ATOM     14  C   UNL A   1      32.923  23.685  26.294  1.00  0.00     0.189 C 
BRANCH  14  15
ATOM     15  N   UNL A   1      32.947  22.253  25.943  1.00  0.00    -0.247 N 
ATOM     16  C   UNL A   1      33.470  21.353  26.849  1.00  0.00     0.329 A 
ATOM     17  C   UNL A   1      32.348  21.852  24.743  1.00  0.00     0.264 A 
ATOM     18  O   UNL A   1      34.162  21.665  27.813  1.00  0.00    -0.248 OA
ATOM     19  N   UNL A   1      33.219  20.026  26.621  1.00  0.00    -0.307 N 
ATOM     20  C   UNL A   1      32.459  20.427  24.387  1.00  0.00     0.064 A 
ATOM     21  O   UNL A   1      31.780  22.611  23.960  1.00  0.00    -0.268 OA
ATOM     22  C   UNL A   1      32.780  19.532  25.396  1.00  0.00     0.055 A 
ATOM     23  H   UNL A   1      33.357  19.390  27.359  1.00  0.00     0.171 HD
ATOM     24  C   UNL A   1      32.281  19.980  23.075  1.00  0.00     0.016 A 
ATOM     25  C   UNL A   1      32.783  18.162  25.143  1.00  0.00     0.027 A 
ATOM     26  C   UNL A   1      32.368  18.614  22.799  1.00  0.00     0.001 A 
ATOM     27  C   UNL A   1      32.579  17.705  23.838  1.00  0.00     0.002 A 
ENDBRANCH  14  15
BRANCH  14  28
ATOM     28  C   UNL A   1      33.941  24.535  25.454  1.00  0.00     0.071 C 
BRANCH  28  29
ATOM     29  C   UNL A   1      35.221  23.886  24.985  1.00  0.00    -0.045 A 
ATOM     30  C   UNL A   1      36.266  23.609  25.872  1.00  0.00     0.004 A 
ATOM     31  C   UNL A   1      35.370  23.510  23.641  1.00  0.00     0.004 A 
ATOM     32  C   UNL A   1      37.363  22.854  25.456  1.00  0.00     0.000 A 
ATOM     33  C   UNL A   1      36.466  22.760  23.223  1.00  0.00     0.000 A 
ATOM     34  C   UNL A   1      37.452  22.408  24.139  1.00  0.00     0.000 A 
ENDBRANCH  28  29
ENDBRANCH  14  28
ENDBRANCH  11  14
ENDBRANCH   6  10
ENDBRANCH   3   6
ENDBRANCH   1   2
BRANCH   1  35
ATOM     35  C   UNL A   1      34.567  30.695  27.304  1.00  0.00     0.023 C 
BRANCH  35  36
ATOM     36  C   UNL A   1      33.599  31.646  28.005  1.00  0.00     0.023 C 
BRANCH  36  37
ATOM     37  C   UNL A   1      33.317  32.931  27.233  1.00  0.00     0.116 C 
BRANCH  37  38
ATOM     38  N   UNL A   1      32.758  34.004  28.044  1.00  0.00    -0.352 N 
ATOM     39  C   UNL A   1      33.315  34.614  29.144  1.00  0.00     0.251 C 
ATOM     40  H   UNL A   1      31.872  34.334  27.769  1.00  0.00     0.163 HD
ATOM     41  O   UNL A   1      32.690  35.466  29.768  1.00  0.00    -0.269 OA
BRANCH  39  42
ATOM     42  C   UNL A   1      34.654  34.188  29.608  1.00  0.00     0.039 A 
ATOM     43  C   UNL A   1      34.747  33.400  30.756  1.00  0.00     0.014 A 
ATOM     44  C   UNL A   1      35.803  34.506  28.879  1.00  0.00     0.014 A 
ATOM     45  C   UNL A   1      35.982  32.865  31.126  1.00  0.00     0.010 A 
ATOM     46  C   UNL A   1      37.013  33.893  29.194  1.00  0.00     0.010 A 
ATOM     47  C   UNL A   1      37.118  33.068  30.323  1.00  0.00    -0.014 A 
BRANCH  47  48
ATOM     48  C   UNL A   1      38.406  32.406  30.655  1.00  0.00     0.031 A 
ATOM     49  C   UNL A   1      39.328  32.995  31.687  1.00  0.00     0.074 A 
ATOM     50  C   UNL A   1      38.761  31.283  30.000  1.00  0.00     0.049 A 
ATOM     51  N   UNL A   1      40.465  32.528  32.140  1.00  0.00    -0.248 NA
ATOM     52  C   UNL A   1      38.942  34.290  32.267  1.00  0.00     0.031 C 
ATOM     53  C   UNL A   1      37.997  30.656  28.919  1.00  0.00     0.029 A 
ATOM     54  N   UNL A   1      39.851  30.463  30.153  1.00  0.00    -0.354 N 
ATOM     55  C   UNL A   1      40.927  33.470  33.050  1.00  0.00     0.074 A 
ATOM     56  C   UNL A   1      39.986  34.568  33.033  1.00  0.00     0.031 C 
ATOM     57  C   UNL A   1      38.615  29.525  28.541  1.00  0.00     0.029 A 
ATOM     58  C   UNL A   1      39.831  29.361  29.331  1.00  0.00     0.049 A 
ATOM     59  H   UNL A   1      40.578  30.646  30.791  1.00  0.00     0.167 HD
ATOM     60  C   UNL A   1      42.018  33.414  33.851  1.00  0.00     0.037 A 
ATOM     61  C   UNL A   1      40.689  28.328  29.235  1.00  0.00     0.037 A 
ATOM     62  C   UNL A   1      42.945  32.313  33.879  1.00  0.00     0.049 A 
ATOM     63  C   UNL A   1      41.876  28.274  30.155  1.00  0.00     0.074 A 
ATOM     64  C   UNL A   1      44.046  32.132  34.696  1.00  0.00     0.029 A 
ATOM     65  N   UNL A   1      42.879  31.205  33.046  1.00  0.00    -0.354 N 
ATOM     66  N   UNL A   1      42.250  29.128  31.077  1.00  0.00    -0.248 NA
ATOM     67  C   UNL A   1      42.754  27.101  30.031  1.00  0.00     0.031 C 
ATOM     68  C   UNL A   1      44.675  30.937  34.327  1.00  0.00     0.029 A 
ATOM     69  C   UNL A   1      43.933  30.347  33.318  1.00  0.00     0.049 A 
ATOM     70  H   UNL A   1      42.187  31.052  32.363  1.00  0.00     0.167 HD
ATOM     71  C   UNL A   1      43.385  28.583  31.662  1.00  0.00     0.074 A 
ATOM     72  C   UNL A   1      43.625  27.315  31.005  1.00  0.00     0.031 C 
ATOM     73  C   UNL A   1      44.161  29.088  32.655  1.00  0.00     0.037 A 
BRANCH  60  74
ATOM     74  C   UNL A   1      42.261  34.577  34.770  1.00  0.00     0.057 A 
ATOM     75  C   UNL A   1      43.042  35.675  34.383  1.00  0.00     0.134 A 
ATOM     76  C   UNL A   1      41.686  34.616  36.047  1.00  0.00     0.134 A 
ATOM     77  F   UNL A   1      43.635  35.698  33.179  1.00  0.00    -0.206 F 
ATOM     78  C   UNL A   1      43.266  36.753  35.241  1.00  0.00     0.040 A 
ATOM     79  C   UNL A   1      41.878  35.702  36.902  1.00  0.00     0.040 A 
ATOM     80  F   UNL A   1      40.922  33.602  36.481  1.00  0.00    -0.206 F 
ATOM     81  C   UNL A   1      42.676  36.772  36.503  1.00  0.00     0.006 A 
ENDBRANCH  60  74
BRANCH  61  82
ATOM     82  C   UNL A   1      40.430  27.234  28.264  1.00  0.00     0.057 A 
ATOM     83  C   UNL A   1      39.592  26.160  28.589  1.00  0.00     0.134 A 
ATOM     84  C   UNL A   1      41.021  27.228  26.995  1.00  0.00     0.134 A 
ATOM     85  F   UNL A   1      39.011  26.099  29.797  1.00  0.00    -0.206 F 
ATOM     86  C   UNL A   1      39.370  25.108  27.699  1.00  0.00     0.040 A 
ATOM     87  C   UNL A   1      40.786  26.197  26.084  1.00  0.00     0.040 A 
ATOM     88  F   UNL A   1      41.826  28.232  26.618  1.00  0.00    -0.206 F 
ATOM     89  C   UNL A   1      39.965  25.128  26.439  1.00  0.00     0.006 A 
ENDBRANCH  61  82
BRANCH  73  90
ATOM     90  C   UNL A   1      45.319  28.246  33.108  1.00  0.00     0.057 A 
ATOM     91  C   UNL A   1      46.593  28.364  32.537  1.00  0.00     0.134 A 
ATOM     92  C   UNL A   1      45.156  27.306  34.134  1.00  0.00     0.134 A 
ATOM     93  F   UNL A   1      46.815  29.237  31.543  1.00  0.00    -0.206 F 
ATOM     94  C   UNL A   1      47.652  27.549  32.942  1.00  0.00     0.040 A 
ATOM     95  C   UNL A   1      46.216  26.507  34.569  1.00  0.00     0.040 A 
ATOM     96  F   UNL A   1      43.965  27.148  34.733  1.00  0.00    -0.206 F 
ATOM     97  C   UNL A   1      47.465  26.621  33.963  1.00  0.00     0.006 A 
ENDBRANCH  73  90
ENDBRANCH  47  48
ENDBRANCH  39  42
ENDBRANCH  37  38
ENDBRANCH  36  37
ENDBRANCH  35  36
ENDBRANCH   1  35
TORSDOF 17
ENDMDL
MODEL 3
REMARK VINA RESULT:     -13.1      1.361      6.050
REMARK SMILES CC(C)[C@H](NC(=O)[C@H](Cc1ccccc1)n1c(=O)[nH]c2ccccc2c1=O)C(=O)NCCCCNC(=O)c1ccc(-c2c3nc(c(-c4c(F)cccc4F)c4ccc([nH]4)c(-c4c(F)cccc4F)c4nc(c(-c5c(F)cccc5F)c5ccc2[nH]5)C=C4)C=C3)cc1
REMARK SMILES IDX 31 1 30 2 28 3 29 4 4 6 2 7 1 8 3 9 5 10 6 11 7 13 8 14
REMARK SMILES IDX 16 15 17 16 26 17 18 18 19 19 25 20 27 21 20 22 24 24 21 25
REMARK SMILES IDX 23 26 22 27 9 28 10 29 11 30 15 31 12 32 14 33 13 34 32 35
REMARK SMILES IDX 33 36 34 37 35 38 36 39 37 41 38 42 39 43 91 44 40 45 90 46
REMARK SMILES IDX 41 47 42 48 43 49 84 50 44 51 89 52 83 53 85 54 45 55 88 56
REMARK SMILES IDX 82 57 81 58 46 60 72 61 55 62 71 63 56 64 59 65 70 66 86 67
REMARK SMILES IDX 57 68 58 69 69 71 87 72 60 73 47 74 48 75 53 76 49 77 50 78
REMARK SMILES IDX 52 79 54 80 51 81 73 82 74 83 79 84 75 85 76 86 78 87 80 88
REMARK SMILES IDX 77 89 61 90 62 91 67 92 63 93 64 94 66 95 68 96 65 97
REMARK H PARENT 30 5 5 12 19 23 35 40 85 59 59 70
REMARK Flexibility Score: inf
ROOT
ATOM      1  C   UNL A   1      36.520  23.127  24.260  1.00  0.00     0.116 C 
ENDROOT
BRANCH   1   2
ATOM      2  N   UNL A   1      35.671  23.229  25.415  1.00  0.00    -0.354 N 
ATOM      3  C   UNL A   1      34.316  23.166  25.490  1.00  0.00     0.242 C 
ATOM      4  O   UNL A   1      33.834  23.156  26.630  1.00  0.00    -0.273 OA
ATOM      5  H   UNL A   1      36.137  23.362  26.272  1.00  0.00     0.163 HD
BRANCH   3   6
ATOM      6  C   UNL A   1      33.386  22.997  24.248  1.00  0.00     0.173 C 
BRANCH   6   7
ATOM      7  C   UNL A   1      33.022  21.563  23.860  1.00  0.00     0.015 C 
ATOM      8  C   UNL A   1      32.327  20.723  24.935  1.00  0.00     0.010 C 
ATOM      9  C   UNL A   1      32.173  21.568  22.580  1.00  0.00     0.010 C 
ENDBRANCH   6   7
BRANCH   6  10
ATOM     10  N   UNL A   1      33.683  23.906  23.114  1.00  0.00    -0.342 N 
ATOM     11  C   UNL A   1      33.662  25.202  22.724  1.00  0.00     0.244 C 
ATOM     12  H   UNL A   1      34.021  23.364  22.366  1.00  0.00     0.164 HD
ATOM     13  O   UNL A   1      33.685  25.268  21.484  1.00  0.00    -0.273 OA
BRANCH  11  14
ATOM     14  C   UNL A   1      33.357  26.489  23.567  1.00  0.00     0.189 C 
BRANCH  14  15
ATOM     15  N   UNL A   1      32.279  27.419  23.183  1.00  0.00    -0.247 N 
ATOM     16  C   UNL A   1      32.617  28.662  22.686  1.00  0.00     0.329 A 
ATOM     17  C   UNL A   1      30.956  26.967  23.247  1.00  0.00     0.264 A 
ATOM     18  O   UNL A   1      33.731  29.166  22.784  1.00  0.00    -0.248 OA
ATOM     19  N   UNL A   1      31.620  29.379  22.081  1.00  0.00    -0.307 N 
ATOM     20  C   UNL A   1      29.902  27.948  22.932  1.00  0.00     0.064 A 
ATOM     21  O   UNL A   1      30.622  25.834  23.585  1.00  0.00    -0.268 OA
ATOM     22  C   UNL A   1      30.267  29.088  22.235  1.00  0.00     0.055 A 
ATOM     23  H   UNL A   1      31.873  30.139  21.508  1.00  0.00     0.171 HD
ATOM     24  C   UNL A   1      28.578  27.763  23.343  1.00  0.00     0.016 A 
ATOM     25  C   UNL A   1      29.296  29.991  21.808  1.00  0.00     0.027 A 
ATOM     26  C   UNL A   1      27.614  28.709  22.991  1.00  0.00     0.001 A 
ATOM     27  C   UNL A   1      27.966  29.799  22.192  1.00  0.00     0.002 A 
ENDBRANCH  14  15
BRANCH  14  28
ATOM     28  C   UNL A   1      33.462  26.286  25.120  1.00  0.00     0.071 C 
BRANCH  28  29
ATOM     29  C   UNL A   1      33.116  27.439  26.031  1.00  0.00    -0.045 A 
ATOM     30  C   UNL A   1      33.915  28.585  26.091  1.00  0.00     0.004 A 
ATOM     31  C   UNL A   1      31.954  27.394  26.816  1.00  0.00     0.004 A 
ATOM     32  C   UNL A   1      33.487  29.707  26.803  1.00  0.00     0.000 A 
ATOM     33  C   UNL A   1      31.527  28.511  27.531  1.00  0.00     0.000 A 
ATOM     34  C   UNL A   1      32.282  29.678  27.503  1.00  0.00     0.000 A 
ENDBRANCH  28  29
ENDBRANCH  14  28
ENDBRANCH  11  14
ENDBRANCH   6  10
ENDBRANCH   3   6
ENDBRANCH   1   2
BRANCH   1  35
ATOM     35  C   UNL A   1      36.784  21.670  23.869  1.00  0.00     0.023 C 
BRANCH  35  36
ATOM     36  C   UNL A   1      37.190  20.777  25.039  1.00  0.00     0.023 C 
BRANCH  36  37
ATOM     37  C   UNL A   1      38.589  21.053  25.579  1.00  0.00     0.116 C 
BRANCH  37  38
ATOM     38  N   UNL A   1      39.475  19.899  25.559  1.00  0.00    -0.352 N 
ATOM     39  C   UNL A   1      40.778  19.821  25.996  1.00  0.00     0.251 C 
ATOM     40  H   UNL A   1      39.095  19.070  25.188  1.00  0.00     0.163 HD
ATOM     41  O   UNL A   1      41.425  18.788  25.852  1.00  0.00    -0.269 OA
BRANCH  39  42
ATOM     42  C   UNL A   1      41.416  21.019  26.586  1.00  0.00     0.039 A 
ATOM     43  C   UNL A   1      42.024  21.944  25.735  1.00  0.00     0.014 A 
ATOM     44  C   UNL A   1      41.356  21.264  27.961  1.00  0.00     0.014 A 
ATOM     45  C   UNL A   1      42.499  23.149  26.254  1.00  0.00     0.010 A 
ATOM     46  C   UNL A   1      41.741  22.505  28.459  1.00  0.00     0.010 A 
ATOM     47  C   UNL A   1      42.321  23.461  27.613  1.00  0.00    -0.014 A 
BRANCH  47  48
ATOM     48  C   UNL A   1      42.724  24.790  28.142  1.00  0.00     0.031 A 
ATOM     49  C   UNL A   1      41.696  25.859  28.397  1.00  0.00     0.074 A 
ATOM     50  C   UNL A   1      44.029  25.046  28.363  1.00  0.00     0.049 A 
ATOM     51  N   UNL A   1      41.860  27.056  28.901  1.00  0.00    -0.248 NA
ATOM     52  C   UNL A   1      40.309  25.559  28.009  1.00  0.00     0.031 C 
ATOM     53  C   UNL A   1      45.132  24.126  28.078  1.00  0.00     0.029 A 
ATOM     54  N   UNL A   1      44.648  26.153  28.888  1.00  0.00    -0.354 N 
ATOM     55  C   UNL A   1      40.603  27.648  28.888  1.00  0.00     0.074 A 
ATOM     56  C   UNL A   1      39.701  26.708  28.260  1.00  0.00     0.031 C 
ATOM     57  C   UNL A   1      46.286  24.686  28.476  1.00  0.00     0.029 A 
ATOM     58  C   UNL A   1      46.009  26.013  29.018  1.00  0.00     0.049 A 
ATOM     59  H   UNL A   1      44.163  26.970  29.147  1.00  0.00     0.167 HD
ATOM     60  C   UNL A   1      40.226  28.852  29.381  1.00  0.00     0.037 A 
ATOM     61  C   UNL A   1      46.928  26.852  29.530  1.00  0.00     0.037 A 
ATOM     62  C   UNL A   1      41.121  29.780  30.021  1.00  0.00     0.049 A 
ATOM     63  C   UNL A   1      46.481  28.170  30.098  1.00  0.00     0.074 A 
ATOM     64  C   UNL A   1      40.827  30.998  30.608  1.00  0.00     0.029 A 
ATOM     65  N   UNL A   1      42.489  29.593  30.153  1.00  0.00    -0.354 N 
ATOM     66  N   UNL A   1      45.273  28.677  30.163  1.00  0.00    -0.248 NA
ATOM     67  C   UNL A   1      47.524  29.026  30.680  1.00  0.00     0.031 C 
ATOM     68  C   UNL A   1      42.024  31.569  31.055  1.00  0.00     0.029 A 
ATOM     69  C   UNL A   1      43.056  30.683  30.796  1.00  0.00     0.049 A 
ATOM     70  H   UNL A   1      42.984  28.803  29.838  1.00  0.00     0.167 HD
ATOM     71  C   UNL A   1      45.407  29.895  30.817  1.00  0.00     0.074 A 
ATOM     72  C   UNL A   1      46.810  30.038  31.148  1.00  0.00     0.031 C 
ATOM     73  C   UNL A   1      44.454  30.813  31.118  1.00  0.00     0.037 A 
BRANCH  60  74
ATOM     74  C   UNL A   1      38.777  29.228  29.254  1.00  0.00     0.057 A 
ATOM     75  C   UNL A   1      38.231  29.668  28.040  1.00  0.00     0.134 A 
ATOM     76  C   UNL A   1      37.909  29.122  30.349  1.00  0.00     0.134 A 
ATOM     77  F   UNL A   1      39.007  29.806  26.955  1.00  0.00    -0.206 F 
ATOM     78  C   UNL A   1      36.884  30.017  27.928  1.00  0.00     0.040 A 
ATOM     79  C   UNL A   1      36.554  29.440  30.240  1.00  0.00     0.040 A 
ATOM     80  F   UNL A   1      38.363  28.702  31.540  1.00  0.00    -0.206 F 
ATOM     81  C   UNL A   1      36.039  29.896  29.028  1.00  0.00     0.006 A 
ENDBRANCH  60  74
BRANCH  61  82
ATOM     82  C   UNL A   1      48.358  26.453  29.575  1.00  0.00     0.057 A 
ATOM     83  C   UNL A   1      48.872  25.722  30.653  1.00  0.00     0.134 A 
ATOM     84  C   UNL A   1      49.246  26.799  28.551  1.00  0.00     0.134 A 
ATOM     85  F   UNL A   1      48.075  25.375  31.675  1.00  0.00    -0.206 F 
ATOM     86  C   UNL A   1      50.222  25.371  30.724  1.00  0.00     0.040 A 
ATOM     87  C   UNL A   1      50.593  26.432  28.594  1.00  0.00     0.040 A 
ATOM     88  F   UNL A   1      48.816  27.491  27.486  1.00  0.00    -0.206 F 
ATOM     89  C   UNL A   1      51.085  25.723  29.689  1.00  0.00     0.006 A 
ENDBRANCH  61  82
BRANCH  73  90
ATOM     90  C   UNL A   1      44.899  32.035  31.870  1.00  0.00     0.057 A 
ATOM     91  C   UNL A   1      44.920  32.080  33.270  1.00  0.00     0.134 A 
ATOM     92  C   UNL A   1      45.315  33.181  31.181  1.00  0.00     0.134 A 
ATOM     93  F   UNL A   1      44.523  31.020  33.991  1.00  0.00    -0.206 F 
ATOM     94  C   UNL A   1      45.299  33.234  33.957  1.00  0.00     0.040 A 
ATOM     95  C   UNL A   1      45.727  34.331  31.857  1.00  0.00     0.040 A 
ATOM     96  F   UNL A   1      45.332  33.203  29.839  1.00  0.00    -0.206 F 
ATOM     97  C   UNL A   1      45.709  34.362  33.250  1.00  0.00     0.006 A 
ENDBRANCH  73  90
ENDBRANCH  47  48
ENDBRANCH  39  42
ENDBRANCH  37  38
ENDBRANCH  36  37
ENDBRANCH  35  36
ENDBRANCH   1  35
TORSDOF 17
ENDMDL
