MODEL 1
REMARK VINA RESULT:     -11.4      0.000      0.000
REMARK SMILES CC[C@@H](C)[C@@H](C(=O)NCCCCNC(=O)c1ccc(-c2c3nc(c(-c4c(F)cccc4F)c4ccc([nH]4)c(-c4c(F)cccc4F)c4nc(c(-c5c(F)cccc5F)c5ccc2[nH]5)C=C4)C=C3)cc1)S(=O)(=O)c1ccc(OC)cc1
REMARK SMILES IDX 10 1 9 2 8 3 6 4 7 5 5 7 3 8 4 9 2 10 1 11 70 12 71 13 72 14
REMARK SMILES IDX 73 15 74 16 80 17 75 18 79 19 76 20 77 21 78 22 11 23 12 24
REMARK SMILES IDX 13 25 14 26 15 28 16 29 17 30 69 31 18 32 68 33 19 34 20 35
REMARK SMILES IDX 21 36 62 37 22 38 67 39 61 40 63 41 23 42 66 43 60 44 59 45
REMARK SMILES IDX 24 47 50 48 33 49 49 50 34 51 37 52 48 53 64 54 35 55 36 56
REMARK SMILES IDX 47 58 65 59 38 60 25 61 26 62 31 63 27 64 28 65 30 66 32 67
REMARK SMILES IDX 29 68 51 69 52 70 57 71 53 72 54 73 56 74 58 75 55 76 39 77
REMARK SMILES IDX 40 78 45 79 41 80 42 81 44 82 46 83 43 84
REMARK H PARENT 8 6 13 27 63 46 37 57
REMARK Flexibility Score: inf
ROOT
ATOM      1  C   UNL A   1      37.278  21.123  24.622  1.00  0.00     0.023 C 
ENDROOT
BRANCH   1   2
ATOM      2  C   UNL A   1      36.825  21.942  25.843  1.00  0.00     0.116 C 
BRANCH   2   3
ATOM      3  N   UNL A   1      35.686  21.296  26.464  1.00  0.00    -0.355 N 
ATOM      4  C   UNL A   1      34.357  21.606  26.394  1.00  0.00     0.239 C 
ATOM      5  O   UNL A   1      33.698  21.326  27.396  1.00  0.00    -0.274 OA
ATOM      6  H   UNL A   1      35.903  20.512  27.019  1.00  0.00     0.163 HD
BRANCH   4   7
ATOM      7  C   UNL A   1      33.733  22.257  25.154  1.00  0.00     0.205 C 
BRANCH   7   8
ATOM      8  C   UNL A   1      33.213  23.716  25.389  1.00  0.00     0.014 C 
ATOM      9  C   UNL A   1      32.288  24.229  24.277  1.00  0.00     0.009 C 
BRANCH   8  10
ATOM     10  C   UNL A   1      34.374  24.718  25.525  1.00  0.00     0.002 C 
ATOM     11  C   UNL A   1      33.983  26.187  25.579  1.00  0.00     0.004 C 
ENDBRANCH   8  10
ENDBRANCH   7   8
BRANCH   7  12
ATOM     12  S   UNL A   1      32.484  21.066  24.575  1.00  0.00     0.190 S 
ATOM     13  O   UNL A   1      31.282  21.182  25.382  1.00  0.00    -0.223 OA
ATOM     14  O   UNL A   1      32.353  21.255  23.138  1.00  0.00    -0.223 OA
BRANCH  12  15
ATOM     15  C   UNL A   1      33.097  19.407  24.839  1.00  0.00     0.068 A 
ATOM     16  C   UNL A   1      32.401  18.544  25.689  1.00  0.00     0.024 A 
ATOM     17  C   UNL A   1      34.236  18.952  24.170  1.00  0.00     0.024 A 
ATOM     18  C   UNL A   1      32.801  17.208  25.794  1.00  0.00     0.048 A 
ATOM     19  C   UNL A   1      34.605  17.605  24.247  1.00  0.00     0.048 A 
ATOM     20  C   UNL A   1      33.872  16.723  25.040  1.00  0.00     0.118 A 
BRANCH  20  21
ATOM     21  O   UNL A   1      34.131  15.386  25.175  1.00  0.00    -0.497 OA
ATOM     22  C   UNL A   1      33.002  14.562  25.449  1.00  0.00     0.278 C 
ENDBRANCH  20  21
ENDBRANCH  12  15
ENDBRANCH   7  12
ENDBRANCH   4   7
ENDBRANCH   2   3
ENDBRANCH   1   2
BRANCH   1  23
ATOM     23  C   UNL A   1      38.119  19.896  24.934  1.00  0.00     0.023 C 
BRANCH  23  24
ATOM     24  C   UNL A   1      39.336  20.177  25.794  1.00  0.00     0.116 C 
BRANCH  24  25
ATOM     25  N   UNL A   1      40.256  19.048  25.875  1.00  0.00    -0.352 N 
ATOM     26  C   UNL A   1      41.609  19.047  26.120  1.00  0.00     0.251 C 
ATOM     27  H   UNL A   1      39.852  18.161  25.735  1.00  0.00     0.163 HD
ATOM     28  O   UNL A   1      42.260  18.010  26.046  1.00  0.00    -0.269 OA
BRANCH  26  29
ATOM     29  C   UNL A   1      42.276  20.327  26.430  1.00  0.00     0.039 A 
ATOM     30  C   UNL A   1      42.864  21.056  25.394  1.00  0.00     0.014 A 
ATOM     31  C   UNL A   1      42.222  20.845  27.724  1.00  0.00     0.014 A 
ATOM     32  C   UNL A   1      43.302  22.359  25.639  1.00  0.00     0.010 A 
ATOM     33  C   UNL A   1      42.557  22.173  27.939  1.00  0.00     0.010 A 
ATOM     34  C   UNL A   1      43.095  22.946  26.897  1.00  0.00    -0.014 A 
BRANCH  34  35
ATOM     35  C   UNL A   1      43.427  24.367  27.164  1.00  0.00     0.031 A 
ATOM     36  C   UNL A   1      44.855  24.824  27.066  1.00  0.00     0.074 A 
ATOM     37  C   UNL A   1      42.471  25.210  27.600  1.00  0.00     0.049 A 
ATOM     38  N   UNL A   1      45.381  25.973  27.404  1.00  0.00    -0.248 NA
ATOM     39  C   UNL A   1      45.830  23.842  26.562  1.00  0.00     0.031 C 
ATOM     40  C   UNL A   1      41.060  24.870  27.799  1.00  0.00     0.029 A 
ATOM     41  N   UNL A   1      42.548  26.529  27.973  1.00  0.00    -0.354 N 
ATOM     42  C   UNL A   1      46.746  25.837  27.189  1.00  0.00     0.074 A 
ATOM     43  C   UNL A   1      46.975  24.482  26.741  1.00  0.00     0.031 C 
ATOM     44  C   UNL A   1      40.402  25.956  28.236  1.00  0.00     0.029 A 
ATOM     45  C   UNL A   1      41.348  27.056  28.386  1.00  0.00     0.049 A 
ATOM     46  H   UNL A   1      43.384  27.047  27.949  1.00  0.00     0.167 HD
ATOM     47  C   UNL A   1      47.718  26.768  27.327  1.00  0.00     0.037 A 
ATOM     48  C   UNL A   1      41.048  28.287  28.844  1.00  0.00     0.037 A 
ATOM     49  C   UNL A   1      47.479  28.131  27.715  1.00  0.00     0.049 A 
ATOM     50  C   UNL A   1      42.142  29.312  28.957  1.00  0.00     0.074 A 
ATOM     51  C   UNL A   1      48.382  29.175  27.792  1.00  0.00     0.029 A 
ATOM     52  N   UNL A   1      46.242  28.638  28.082  1.00  0.00    -0.354 N 
ATOM     53  N   UNL A   1      43.418  29.191  28.683  1.00  0.00    -0.248 NA
ATOM     54  C   UNL A   1      41.754  30.644  29.443  1.00  0.00     0.031 C 
ATOM     55  C   UNL A   1      47.696  30.311  28.236  1.00  0.00     0.029 A 
ATOM     56  C   UNL A   1      46.360  29.979  28.403  1.00  0.00     0.049 A 
ATOM     57  H   UNL A   1      45.405  28.121  28.111  1.00  0.00     0.167 HD
ATOM     58  C   UNL A   1      43.982  30.432  28.945  1.00  0.00     0.074 A 
ATOM     59  C   UNL A   1      42.907  31.297  29.385  1.00  0.00     0.031 C 
ATOM     60  C   UNL A   1      45.275  30.821  28.832  1.00  0.00     0.037 A 
BRANCH  47  61
ATOM     61  C   UNL A   1      49.126  26.340  27.038  1.00  0.00     0.057 A 
ATOM     62  C   UNL A   1      49.653  26.365  25.741  1.00  0.00     0.134 A 
ATOM     63  C   UNL A   1      49.970  25.916  28.072  1.00  0.00     0.134 A 
ATOM     64  F   UNL A   1      48.890  26.746  24.705  1.00  0.00    -0.206 F 
ATOM     65  C   UNL A   1      50.962  25.959  25.477  1.00  0.00     0.040 A 
ATOM     66  C   UNL A   1      51.288  25.531  27.824  1.00  0.00     0.040 A 
ATOM     67  F   UNL A   1      49.528  25.871  29.338  1.00  0.00    -0.206 F 
ATOM     68  C   UNL A   1      51.785  25.545  26.522  1.00  0.00     0.006 A 
ENDBRANCH  47  61
BRANCH  48  69
ATOM     69  C   UNL A   1      39.652  28.626  29.210  1.00  0.00     0.057 A 
ATOM     70  C   UNL A   1      39.179  28.411  30.509  1.00  0.00     0.134 A 
ATOM     71  C   UNL A   1      38.758  29.165  28.277  1.00  0.00     0.134 A 
ATOM     72  F   UNL A   1      39.984  27.879  31.440  1.00  0.00    -0.206 F 
ATOM     73  C   UNL A   1      37.861  28.703  30.866  1.00  0.00     0.040 A 
ATOM     74  C   UNL A   1      37.443  29.482  28.626  1.00  0.00     0.040 A 
ATOM     75  F   UNL A   1      39.153  29.401  27.019  1.00  0.00    -0.206 F 
ATOM     76  C   UNL A   1      36.990  29.245  29.922  1.00  0.00     0.006 A 
ENDBRANCH  48  69
BRANCH  60  77
ATOM     77  C   UNL A   1      45.593  32.246  29.167  1.00  0.00     0.057 A 
ATOM     78  C   UNL A   1      45.478  33.266  28.215  1.00  0.00     0.134 A 
ATOM     79  C   UNL A   1      45.963  32.608  30.468  1.00  0.00     0.134 A 
ATOM     80  F   UNL A   1      45.139  32.979  26.949  1.00  0.00    -0.206 F 
ATOM     81  C   UNL A   1      45.731  34.598  28.544  1.00  0.00     0.040 A 
ATOM     82  C   UNL A   1      46.199  33.938  30.814  1.00  0.00     0.040 A 
ATOM     83  F   UNL A   1      46.084  31.676  31.426  1.00  0.00    -0.206 F 
ATOM     84  C   UNL A   1      46.086  34.937  29.849  1.00  0.00     0.006 A 
ENDBRANCH  60  77
ENDBRANCH  34  35
ENDBRANCH  26  29
ENDBRANCH  24  25
ENDBRANCH  23  24
ENDBRANCH   1  23
TORSDOF 16
ENDMDL
MODEL 2
REMARK VINA RESULT:     -11.2      2.617      7.591
REMARK SMILES CC[C@@H](C)[C@@H](C(=O)NCCCCNC(=O)c1ccc(-c2c3nc(c(-c4c(F)cccc4F)c4ccc([nH]4)c(-c4c(F)cccc4F)c4nc(c(-c5c(F)cccc5F)c5ccc2[nH]5)C=C4)C=C3)cc1)S(=O)(=O)c1ccc(OC)cc1
REMARK SMILES IDX 10 1 9 2 8 3 6 4 7 5 5 7 3 8 4 9 2 10 1 11 70 12 71 13 72 14
REMARK SMILES IDX 73 15 74 16 80 17 75 18 79 19 76 20 77 21 78 22 11 23 12 24
REMARK SMILES IDX 13 25 14 26 15 28 16 29 17 30 69 31 18 32 68 33 19 34 20 35
REMARK SMILES IDX 21 36 62 37 22 38 67 39 61 40 63 41 23 42 66 43 60 44 59 45
REMARK SMILES IDX 24 47 50 48 33 49 49 50 34 51 37 52 48 53 64 54 35 55 36 56
REMARK SMILES IDX 47 58 65 59 38 60 25 61 26 62 31 63 27 64 28 65 30 66 32 67
REMARK SMILES IDX 29 68 51 69 52 70 57 71 53 72 54 73 56 74 58 75 55 76 39 77
REMARK SMILES IDX 40 78 45 79 41 80 42 81 44 82 46 83 43 84
REMARK H PARENT 8 6 13 27 63 46 37 57
REMARK Flexibility Score: inf
ROOT
ATOM      1  C   UNL A   1      37.007  22.666  24.041  1.00  0.00     0.023 C 
ENDROOT
BRANCH   1   2
ATOM      2  C   UNL A   1      35.596  23.238  24.260  1.00  0.00     0.116 C 
BRANCH   2   3
ATOM      3  N   UNL A   1      34.873  23.235  23.003  1.00  0.00    -0.355 N 
ATOM      4  C   UNL A   1      33.559  23.510  22.747  1.00  0.00     0.239 C 
ATOM      5  O   UNL A   1      33.070  22.904  21.793  1.00  0.00    -0.274 OA
ATOM      6  H   UNL A   1      35.412  23.001  22.212  1.00  0.00     0.163 HD
BRANCH   4   7
ATOM      7  C   UNL A   1      32.752  24.504  23.592  1.00  0.00     0.205 C 
BRANCH   7   8
ATOM      8  C   UNL A   1      31.348  23.974  24.039  1.00  0.00     0.014 C 
ATOM      9  C   UNL A   1      30.572  24.953  24.930  1.00  0.00     0.009 C 
BRANCH   8  10
ATOM     10  C   UNL A   1      31.461  22.641  24.802  1.00  0.00     0.002 C 
ATOM     11  C   UNL A   1      30.658  22.542  26.091  1.00  0.00     0.004 C 
ENDBRANCH   8  10
ENDBRANCH   7   8
BRANCH   7  12
ATOM     12  S   UNL A   1      32.733  26.041  22.617  1.00  0.00     0.190 S 
ATOM     13  O   UNL A   1      34.000  26.202  21.926  1.00  0.00    -0.223 OA
ATOM     14  O   UNL A   1      31.522  26.016  21.811  1.00  0.00    -0.223 OA
BRANCH  12  15
ATOM     15  C   UNL A   1      32.599  27.434  23.732  1.00  0.00     0.068 A 
ATOM     16  C   UNL A   1      31.522  28.315  23.606  1.00  0.00     0.024 A 
ATOM     17  C   UNL A   1      33.534  27.623  24.752  1.00  0.00     0.024 A 
ATOM     18  C   UNL A   1      31.343  29.326  24.555  1.00  0.00     0.048 A 
ATOM     19  C   UNL A   1      33.324  28.609  25.723  1.00  0.00     0.048 A 
ATOM     20  C   UNL A   1      32.213  29.447  25.641  1.00  0.00     0.118 A 
BRANCH  20  21
ATOM     21  O   UNL A   1      31.901  30.430  26.540  1.00  0.00    -0.497 OA
ATOM     22  C   UNL A   1      33.009  31.095  27.139  1.00  0.00     0.278 C 
ENDBRANCH  20  21
ENDBRANCH  12  15
ENDBRANCH   7  12
ENDBRANCH   4   7
ENDBRANCH   2   3
ENDBRANCH   1   2
BRANCH   1  23
ATOM     23  C   UNL A   1      37.271  21.315  24.686  1.00  0.00     0.023 C 
BRANCH  23  24
ATOM     24  C   UNL A   1      38.424  21.309  25.669  1.00  0.00     0.116 C 
BRANCH  24  25
ATOM     25  N   UNL A   1      39.243  20.103  25.590  1.00  0.00    -0.352 N 
ATOM     26  C   UNL A   1      40.564  19.927  25.929  1.00  0.00     0.251 C 
ATOM     27  H   UNL A   1      38.785  19.303  25.245  1.00  0.00     0.163 HD
ATOM     28  O   UNL A   1      41.135  18.867  25.695  1.00  0.00    -0.269 OA
BRANCH  26  29
ATOM     29  C   UNL A   1      41.297  21.053  26.538  1.00  0.00     0.039 A 
ATOM     30  C   UNL A   1      41.932  21.980  25.708  1.00  0.00     0.014 A 
ATOM     31  C   UNL A   1      41.262  21.242  27.920  1.00  0.00     0.014 A 
ATOM     32  C   UNL A   1      42.439  23.157  26.261  1.00  0.00     0.010 A 
ATOM     33  C   UNL A   1      41.668  22.456  28.450  1.00  0.00     0.010 A 
ATOM     34  C   UNL A   1      42.256  23.429  27.626  1.00  0.00    -0.014 A 
BRANCH  34  35
ATOM     35  C   UNL A   1      42.664  24.722  28.230  1.00  0.00     0.031 A 
ATOM     36  C   UNL A   1      41.630  25.787  28.463  1.00  0.00     0.074 A 
ATOM     37  C   UNL A   1      43.967  24.975  28.459  1.00  0.00     0.049 A 
ATOM     38  N   UNL A   1      41.794  27.032  28.831  1.00  0.00    -0.248 NA
ATOM     39  C   UNL A   1      40.229  25.417  28.203  1.00  0.00     0.031 C 
ATOM     40  C   UNL A   1      45.072  24.046  28.214  1.00  0.00     0.029 A 
ATOM     41  N   UNL A   1      44.585  26.103  28.937  1.00  0.00    -0.354 N 
ATOM     42  C   UNL A   1      40.527  27.598  28.811  1.00  0.00     0.074 A 
ATOM     43  C   UNL A   1      39.612  26.580  28.347  1.00  0.00     0.031 C 
ATOM     44  C   UNL A   1      46.228  24.633  28.562  1.00  0.00     0.029 A 
ATOM     45  C   UNL A   1      45.952  25.991  29.018  1.00  0.00     0.049 A 
ATOM     46  H   UNL A   1      44.095  26.917  29.197  1.00  0.00     0.167 HD
ATOM     47  C   UNL A   1      40.155  28.847  29.174  1.00  0.00     0.037 A 
ATOM     48  C   UNL A   1      46.878  26.888  29.407  1.00  0.00     0.037 A 
ATOM     49  C   UNL A   1      41.058  29.838  29.693  1.00  0.00     0.049 A 
ATOM     50  C   UNL A   1      46.435  28.259  29.836  1.00  0.00     0.074 A 
ATOM     51  C   UNL A   1      40.766  31.099  30.177  1.00  0.00     0.029 A 
ATOM     52  N   UNL A   1      42.430  29.670  29.801  1.00  0.00    -0.354 N 
ATOM     53  N   UNL A   1      45.224  28.759  29.879  1.00  0.00    -0.248 NA
ATOM     54  C   UNL A   1      47.486  29.191  30.270  1.00  0.00     0.031 C 
ATOM     55  C   UNL A   1      41.969  31.709  30.553  1.00  0.00     0.029 A 
ATOM     56  C   UNL A   1      43.003  30.813  30.331  1.00  0.00     0.049 A 
ATOM     57  H   UNL A   1      42.923  28.859  29.540  1.00  0.00     0.167 HD
ATOM     58  C   UNL A   1      45.364  30.054  30.361  1.00  0.00     0.074 A 
ATOM     59  C   UNL A   1      46.777  30.258  30.610  1.00  0.00     0.031 C 
ATOM     60  C   UNL A   1      44.410  30.990  30.577  1.00  0.00     0.037 A 
BRANCH  47  61
ATOM     61  C   UNL A   1      38.704  29.200  29.036  1.00  0.00     0.057 A 
ATOM     62  C   UNL A   1      38.153  29.592  27.809  1.00  0.00     0.134 A 
ATOM     63  C   UNL A   1      37.844  29.129  30.139  1.00  0.00     0.134 A 
ATOM     64  F   UNL A   1      38.929  29.695  26.719  1.00  0.00    -0.206 F 
ATOM     65  C   UNL A   1      36.804  29.927  27.689  1.00  0.00     0.040 A 
ATOM     66  C   UNL A   1      36.488  29.438  30.026  1.00  0.00     0.040 A 
ATOM     67  F   UNL A   1      38.308  28.759  31.342  1.00  0.00    -0.206 F 
ATOM     68  C   UNL A   1      35.966  29.844  28.799  1.00  0.00     0.006 A 
ENDBRANCH  47  61
BRANCH  48  69
ATOM     69  C   UNL A   1      48.313  26.515  29.429  1.00  0.00     0.057 A 
ATOM     70  C   UNL A   1      49.147  26.805  28.344  1.00  0.00     0.134 A 
ATOM     71  C   UNL A   1      48.885  25.860  30.527  1.00  0.00     0.134 A 
ATOM     72  F   UNL A   1      48.651  27.415  27.257  1.00  0.00    -0.206 F 
ATOM     73  C   UNL A   1      50.495  26.441  28.338  1.00  0.00     0.040 A 
ATOM     74  C   UNL A   1      50.237  25.509  30.543  1.00  0.00     0.040 A 
ATOM     75  F   UNL A   1      48.141  25.561  31.600  1.00  0.00    -0.206 F 
ATOM     76  C   UNL A   1      51.044  25.794  29.444  1.00  0.00     0.006 A 
ENDBRANCH  48  69
BRANCH  60  77
ATOM     77  C   UNL A   1      44.857  32.309  31.129  1.00  0.00     0.057 A 
ATOM     78  C   UNL A   1      45.184  33.381  30.290  1.00  0.00     0.134 A 
ATOM     79  C   UNL A   1      44.904  32.525  32.511  1.00  0.00     0.134 A 
ATOM     80  F   UNL A   1      45.169  33.231  28.957  1.00  0.00    -0.206 F 
ATOM     81  C   UNL A   1      45.555  34.622  30.809  1.00  0.00     0.040 A 
ATOM     82  C   UNL A   1      45.253  33.767  33.042  1.00  0.00     0.040 A 
ATOM     83  F   UNL A   1      44.594  31.538  33.366  1.00  0.00    -0.206 F 
ATOM     84  C   UNL A   1      45.583  34.819  32.189  1.00  0.00     0.006 A 
ENDBRANCH  60  77
ENDBRANCH  34  35
ENDBRANCH  26  29
ENDBRANCH  24  25
ENDBRANCH  23  24
ENDBRANCH   1  23
TORSDOF 16
ENDMDL
MODEL 3
REMARK VINA RESULT:     -11.1      1.799      6.546
REMARK SMILES CC[C@@H](C)[C@@H](C(=O)NCCCCNC(=O)c1ccc(-c2c3nc(c(-c4c(F)cccc4F)c4ccc([nH]4)c(-c4c(F)cccc4F)c4nc(c(-c5c(F)cccc5F)c5ccc2[nH]5)C=C4)C=C3)cc1)S(=O)(=O)c1ccc(OC)cc1
REMARK SMILES IDX 10 1 9 2 8 3 6 4 7 5 5 7 3 8 4 9 2 10 1 11 70 12 71 13 72 14
REMARK SMILES IDX 73 15 74 16 80 17 75 18 79 19 76 20 77 21 78 22 11 23 12 24
REMARK SMILES IDX 13 25 14 26 15 28 16 29 17 30 69 31 18 32 68 33 19 34 20 35
REMARK SMILES IDX 21 36 62 37 22 38 67 39 61 40 63 41 23 42 66 43 60 44 59 45
REMARK SMILES IDX 24 47 50 48 33 49 49 50 34 51 37 52 48 53 64 54 35 55 36 56
REMARK SMILES IDX 47 58 65 59 38 60 25 61 26 62 31 63 27 64 28 65 30 66 32 67
REMARK SMILES IDX 29 68 51 69 52 70 57 71 53 72 54 73 56 74 58 75 55 76 39 77
REMARK SMILES IDX 40 78 45 79 41 80 42 81 44 82 46 83 43 84
REMARK H PARENT 8 6 13 27 63 46 37 57
REMARK Flexibility Score: inf
ROOT
ATOM      1  C   UNL A   1      36.114  21.985  25.052  1.00  0.00     0.023 C 
ENDROOT
BRANCH   1   2
ATOM      2  C   UNL A   1      35.839  23.409  24.540  1.00  0.00     0.116 C 
BRANCH   2   3
ATOM      3  N   UNL A   1      35.058  24.134  25.524  1.00  0.00    -0.355 N 
ATOM      4  C   UNL A   1      33.770  24.585  25.461  1.00  0.00     0.239 C 
ATOM      5  O   UNL A   1      33.540  25.611  26.102  1.00  0.00    -0.274 OA
ATOM      6  H   UNL A   1      35.529  24.331  26.366  1.00  0.00     0.163 HD
BRANCH   4   7
ATOM      7  C   UNL A   1      32.689  23.861  24.649  1.00  0.00     0.205 C 
BRANCH   7   8
ATOM      8  C   UNL A   1      31.525  24.788  24.162  1.00  0.00     0.014 C 
ATOM      9  C   UNL A   1      30.518  24.084  23.241  1.00  0.00     0.009 C 
BRANCH   8  10
ATOM     10  C   UNL A   1      32.057  26.022  23.411  1.00  0.00     0.002 C 
ATOM     11  C   UNL A   1      31.668  26.128  21.944  1.00  0.00     0.004 C 
ENDBRANCH   8  10
ENDBRANCH   7   8
BRANCH   7  12
ATOM     12  S   UNL A   1      32.185  22.453  25.687  1.00  0.00     0.190 S 
ATOM     13  O   UNL A   1      33.008  22.403  26.882  1.00  0.00    -0.223 OA
ATOM     14  O   UNL A   1      30.744  22.551  25.863  1.00  0.00    -0.223 OA
BRANCH  12  15
ATOM     15  C   UNL A   1      32.509  20.933  24.801  1.00  0.00     0.068 A 
ATOM     16  C   UNL A   1      32.968  19.814  25.501  1.00  0.00     0.024 A 
ATOM     17  C   UNL A   1      32.266  20.841  23.429  1.00  0.00     0.024 A 
ATOM     18  C   UNL A   1      33.096  18.590  24.837  1.00  0.00     0.048 A 
ATOM     19  C   UNL A   1      32.354  19.604  22.782  1.00  0.00     0.048 A 
ATOM     20  C   UNL A   1      32.745  18.469  23.490  1.00  0.00     0.118 A 
BRANCH  20  21
ATOM     21  O   UNL A   1      32.849  17.210  22.965  1.00  0.00    -0.497 OA
ATOM     22  C   UNL A   1      34.046  16.506  23.277  1.00  0.00     0.278 C 
ENDBRANCH  20  21
ENDBRANCH  12  15
ENDBRANCH   7  12
ENDBRANCH   4   7
ENDBRANCH   2   3
ENDBRANCH   1   2
BRANCH   1  23
ATOM     23  C   UNL A   1      37.438  21.379  24.617  1.00  0.00     0.023 C 
BRANCH  23  24
ATOM     24  C   UNL A   1      38.485  21.318  25.712  1.00  0.00     0.116 C 
BRANCH  24  25
ATOM     25  N   UNL A   1      39.314  20.119  25.650  1.00  0.00    -0.352 N 
ATOM     26  C   UNL A   1      40.635  19.959  25.996  1.00  0.00     0.251 C 
ATOM     27  H   UNL A   1      38.865  19.311  25.313  1.00  0.00     0.163 HD
ATOM     28  O   UNL A   1      41.218  18.902  25.778  1.00  0.00    -0.269 OA
BRANCH  26  29
ATOM     29  C   UNL A   1      41.356  21.099  26.595  1.00  0.00     0.039 A 
ATOM     30  C   UNL A   1      41.918  22.064  25.757  1.00  0.00     0.014 A 
ATOM     31  C   UNL A   1      41.379  21.259  27.981  1.00  0.00     0.014 A 
ATOM     32  C   UNL A   1      42.409  23.248  26.311  1.00  0.00     0.010 A 
ATOM     33  C   UNL A   1      41.767  22.477  28.518  1.00  0.00     0.010 A 
ATOM     34  C   UNL A   1      42.280  23.487  27.688  1.00  0.00    -0.014 A 
BRANCH  34  35
ATOM     35  C   UNL A   1      42.669  24.781  28.299  1.00  0.00     0.031 A 
ATOM     36  C   UNL A   1      41.626  25.841  28.514  1.00  0.00     0.074 A 
ATOM     37  C   UNL A   1      43.966  25.041  28.553  1.00  0.00     0.049 A 
ATOM     38  N   UNL A   1      41.776  27.086  28.886  1.00  0.00    -0.248 NA
ATOM     39  C   UNL A   1      40.232  25.463  28.228  1.00  0.00     0.031 C 
ATOM     40  C   UNL A   1      45.082  24.119  28.327  1.00  0.00     0.029 A 
ATOM     41  N   UNL A   1      44.570  26.173  29.043  1.00  0.00    -0.354 N 
ATOM     42  C   UNL A   1      40.506  27.645  28.843  1.00  0.00     0.074 A 
ATOM     43  C   UNL A   1      39.606  26.622  28.361  1.00  0.00     0.031 C 
ATOM     44  C   UNL A   1      46.228  24.713  28.697  1.00  0.00     0.029 A 
ATOM     45  C   UNL A   1      45.935  26.069  29.148  1.00  0.00     0.049 A 
ATOM     46  H   UNL A   1      44.070  26.984  29.294  1.00  0.00     0.167 HD
ATOM     47  C   UNL A   1      40.121  28.892  29.199  1.00  0.00     0.037 A 
ATOM     48  C   UNL A   1      46.849  26.971  29.555  1.00  0.00     0.037 A 
ATOM     49  C   UNL A   1      41.009  29.888  29.735  1.00  0.00     0.049 A 
ATOM     50  C   UNL A   1      46.391  28.339  29.976  1.00  0.00     0.074 A 
ATOM     51  C   UNL A   1      40.701  31.147  30.215  1.00  0.00     0.029 A 
ATOM     52  N   UNL A   1      42.379  29.727  29.869  1.00  0.00    -0.354 N 
ATOM     53  N   UNL A   1      45.176  28.832  29.997  1.00  0.00    -0.248 NA
ATOM     54  C   UNL A   1      47.429  29.276  30.430  1.00  0.00     0.031 C 
ATOM     55  C   UNL A   1      41.893  31.763  30.612  1.00  0.00     0.029 A 
ATOM     56  C   UNL A   1      42.936  30.873  30.409  1.00  0.00     0.049 A 
ATOM     57  H   UNL A   1      42.882  28.920  29.616  1.00  0.00     0.167 HD
ATOM     58  C   UNL A   1      45.301  30.127  30.482  1.00  0.00     0.074 A 
ATOM     59  C   UNL A   1      46.707  30.339  30.757  1.00  0.00     0.031 C 
ATOM     60  C   UNL A   1      44.338  31.058  30.681  1.00  0.00     0.037 A 
BRANCH  47  61
ATOM     61  C   UNL A   1      38.671  29.238  29.035  1.00  0.00     0.057 A 
ATOM     62  C   UNL A   1      37.776  29.197  30.112  1.00  0.00     0.134 A 
ATOM     63  C   UNL A   1      38.168  29.634  27.790  1.00  0.00     0.134 A 
ATOM     64  F   UNL A   1      38.194  28.810  31.327  1.00  0.00    -0.206 F 
ATOM     65  C   UNL A   1      36.426  29.513  29.951  1.00  0.00     0.040 A 
ATOM     66  C   UNL A   1      36.825  29.975  27.622  1.00  0.00     0.040 A 
ATOM     67  F   UNL A   1      38.972  29.695  26.718  1.00  0.00    -0.206 F 
ATOM     68  C   UNL A   1      35.949  29.908  28.704  1.00  0.00     0.006 A 
ENDBRANCH  47  61
BRANCH  48  69
ATOM     69  C   UNL A   1      48.286  26.605  29.603  1.00  0.00     0.057 A 
ATOM     70  C   UNL A   1      49.141  26.913  28.539  1.00  0.00     0.134 A 
ATOM     71  C   UNL A   1      48.838  25.941  30.705  1.00  0.00     0.134 A 
ATOM     72  F   UNL A   1      48.664  27.532  27.449  1.00  0.00    -0.206 F 
ATOM     73  C   UNL A   1      50.491  26.556  28.557  1.00  0.00     0.040 A 
ATOM     74  C   UNL A   1      50.192  25.598  30.746  1.00  0.00     0.040 A 
ATOM     75  F   UNL A   1      48.073  25.625  31.759  1.00  0.00    -0.206 F 
ATOM     76  C   UNL A   1      51.020  25.900  29.667  1.00  0.00     0.006 A 
ENDBRANCH  48  69
BRANCH  60  77
ATOM     77  C   UNL A   1      44.767  32.380  31.241  1.00  0.00     0.057 A 
ATOM     78  C   UNL A   1      45.110  33.452  30.409  1.00  0.00     0.134 A 
ATOM     79  C   UNL A   1      44.781  32.597  32.624  1.00  0.00     0.134 A 
ATOM     80  F   UNL A   1      45.127  33.300  29.076  1.00  0.00    -0.206 F 
ATOM     81  C   UNL A   1      45.464  34.694  30.935  1.00  0.00     0.040 A 
ATOM     82  C   UNL A   1      45.113  33.841  33.161  1.00  0.00     0.040 A 
ATOM     83  F   UNL A   1      44.455  31.610  33.473  1.00  0.00    -0.206 F 
ATOM     84  C   UNL A   1      45.459  34.893  32.315  1.00  0.00     0.006 A 
ENDBRANCH  60  77
ENDBRANCH  34  35
ENDBRANCH  26  29
ENDBRANCH  24  25
ENDBRANCH  23  24
ENDBRANCH   1  23
TORSDOF 16
ENDMDL
