MODEL 1
REMARK VINA RESULT:     -12.0      0.000      0.000
REMARK SMILES O=C(NCCCCNC(=O)c1cccc2cccc(C(=O)NC3COC3)c12)c1ccc(-c2c3nc(c(-c4c(F)cccc4F)c4ccc([nH]4)c(-c4c(F)cccc4F)c4nc(c(-c5c(F)cccc5F)c5ccc2[nH]5)C=C4)C=C3)cc1
REMARK SMILES IDX 5 1 4 2 3 3 1 4 2 5 28 7 29 8 81 9 30 10 80 11 31 12 32 13
REMARK SMILES IDX 33 14 74 15 34 16 79 17 73 18 75 19 35 20 78 21 72 22 71 23
REMARK SMILES IDX 36 25 62 26 45 27 61 28 46 29 49 30 60 31 76 32 47 33 48 34
REMARK SMILES IDX 59 36 77 37 50 38 37 39 38 40 43 41 39 42 40 43 42 44 44 45
REMARK SMILES IDX 41 46 63 47 64 48 69 49 65 50 66 51 68 52 70 53 67 54 51 55
REMARK SMILES IDX 52 56 57 57 53 58 54 59 56 60 58 61 55 62 6 63 7 64 8 65
REMARK SMILES IDX 9 66 10 68 11 69 12 70 27 71 13 72 15 73 19 74 14 75 16 76
REMARK SMILES IDX 18 77 17 78 20 79 21 80 22 81 23 83 24 84 26 85 25 86
REMARK H PARENT 3 6 75 24 49 35 8 67 22 82
REMARK Flexibility Score: inf
ROOT
ATOM      1  C   UNL A   1      31.209  32.327  26.491  1.00  0.00     0.023 C 
ENDROOT
BRANCH   1   2
ATOM      2  C   UNL A   1      32.504  32.841  27.102  1.00  0.00     0.116 C 
BRANCH   2   3
ATOM      3  N   UNL A   1      32.395  34.195  27.627  1.00  0.00    -0.352 N 
ATOM      4  O   UNL A   1      32.740  35.926  29.026  1.00  0.00    -0.269 OA
ATOM      5  C   UNL A   1      33.088  34.808  28.642  1.00  0.00     0.251 C 
ATOM      6  H   UNL A   1      31.718  34.758  27.186  1.00  0.00     0.163 HD
BRANCH   5   7
ATOM      7  C   UNL A   1      34.237  34.139  29.292  1.00  0.00     0.039 A 
ATOM      8  C   UNL A   1      34.043  33.169  30.276  1.00  0.00     0.014 A 
ATOM      9  C   UNL A   1      35.537  34.455  28.878  1.00  0.00     0.014 A 
ATOM     10  C   UNL A   1      35.135  32.625  30.944  1.00  0.00     0.010 A 
ATOM     11  C   UNL A   1      36.635  33.832  29.480  1.00  0.00     0.010 A 
ATOM     12  C   UNL A   1      36.443  32.926  30.535  1.00  0.00    -0.014 A 
BRANCH  12  13
ATOM     13  C   UNL A   1      37.585  32.215  31.165  1.00  0.00     0.031 A 
ATOM     14  C   UNL A   1      38.321  31.123  30.444  1.00  0.00     0.074 A 
ATOM     15  C   UNL A   1      37.961  32.579  32.408  1.00  0.00     0.049 A 
ATOM     16  N   UNL A   1      39.328  30.395  30.858  1.00  0.00    -0.248 NA
ATOM     17  C   UNL A   1      37.866  30.796  29.084  1.00  0.00     0.031 C 
ATOM     18  C   UNL A   1      37.315  33.621  33.210  1.00  0.00     0.029 A 
ATOM     19  N   UNL A   1      38.978  32.128  33.208  1.00  0.00    -0.354 N 
ATOM     20  C   UNL A   1      39.616  29.515  29.823  1.00  0.00     0.074 A 
ATOM     21  C   UNL A   1      38.658  29.780  28.770  1.00  0.00     0.031 C 
ATOM     22  C   UNL A   1      37.976  33.758  34.368  1.00  0.00     0.029 A 
ATOM     23  C   UNL A   1      39.041  32.765  34.423  1.00  0.00     0.049 A 
ATOM     24  H   UNL A   1      39.602  31.415  32.939  1.00  0.00     0.167 HD
ATOM     25  C   UNL A   1      40.594  28.578  29.757  1.00  0.00     0.037 A 
ATOM     26  C   UNL A   1      39.848  32.559  35.480  1.00  0.00     0.037 A 
ATOM     27  C   UNL A   1      41.543  28.324  30.812  1.00  0.00     0.049 A 
ATOM     28  C   UNL A   1      40.891  31.483  35.397  1.00  0.00     0.074 A 
ATOM     29  C   UNL A   1      42.590  27.418  30.831  1.00  0.00     0.029 A 
ATOM     30  N   UNL A   1      41.555  28.970  32.040  1.00  0.00    -0.354 N 
ATOM     31  N   UNL A   1      41.173  30.683  34.398  1.00  0.00    -0.248 NA
ATOM     32  C   UNL A   1      41.726  31.282  36.588  1.00  0.00     0.031 C 
ATOM     33  C   UNL A   1      43.197  27.475  32.090  1.00  0.00     0.029 A 
ATOM     34  C   UNL A   1      42.572  28.462  32.834  1.00  0.00     0.049 A 
ATOM     35  H   UNL A   1      40.933  29.685  32.309  1.00  0.00     0.167 HD
ATOM     36  C   UNL A   1      42.233  29.897  34.830  1.00  0.00     0.074 A 
ATOM     37  C   UNL A   1      42.553  30.332  36.175  1.00  0.00     0.031 C 
ATOM     38  C   UNL A   1      42.881  28.907  34.171  1.00  0.00     0.037 A 
BRANCH  25  39
ATOM     39  C   UNL A   1      40.670  27.736  28.513  1.00  0.00     0.057 A 
ATOM     40  C   UNL A   1      39.982  26.521  28.392  1.00  0.00     0.134 A 
ATOM     41  C   UNL A   1      41.415  28.165  27.406  1.00  0.00     0.134 A 
ATOM     42  F   UNL A   1      39.256  26.046  29.414  1.00  0.00    -0.206 F 
ATOM     43  C   UNL A   1      40.054  25.752  27.227  1.00  0.00     0.040 A 
ATOM     44  C   UNL A   1      41.472  27.420  26.227  1.00  0.00     0.040 A 
ATOM     45  F   UNL A   1      42.092  29.323  27.448  1.00  0.00    -0.206 F 
ATOM     46  C   UNL A   1      40.797  26.205  26.139  1.00  0.00     0.006 A 
ENDBRANCH  25  39
BRANCH  26  47
ATOM     47  C   UNL A   1      39.683  33.381  36.706  1.00  0.00     0.057 A 
ATOM     48  C   UNL A   1      40.429  34.549  36.901  1.00  0.00     0.134 A 
ATOM     49  C   UNL A   1      38.768  33.025  37.705  1.00  0.00     0.134 A 
ATOM     50  F   UNL A   1      41.333  34.934  35.989  1.00  0.00    -0.206 F 
ATOM     51  C   UNL A   1      40.281  35.325  38.052  1.00  0.00     0.040 A 
ATOM     52  C   UNL A   1      38.588  33.808  38.845  1.00  0.00     0.040 A 
ATOM     53  F   UNL A   1      38.015  31.923  37.572  1.00  0.00    -0.206 F 
ATOM     54  C   UNL A   1      39.353  34.958  39.025  1.00  0.00     0.006 A 
ENDBRANCH  26  47
BRANCH  38  55
ATOM     55  C   UNL A   1      44.030  28.253  34.882  1.00  0.00     0.057 A 
ATOM     56  C   UNL A   1      43.873  27.076  35.626  1.00  0.00     0.134 A 
ATOM     57  C   UNL A   1      45.320  28.796  34.798  1.00  0.00     0.134 A 
ATOM     58  F   UNL A   1      42.663  26.513  35.761  1.00  0.00    -0.206 F 
ATOM     59  C   UNL A   1      44.952  26.477  36.280  1.00  0.00     0.040 A 
ATOM     60  C   UNL A   1      46.410  28.191  35.421  1.00  0.00     0.040 A 
ATOM     61  F   UNL A   1      45.541  29.918  34.096  1.00  0.00    -0.206 F 
ATOM     62  C   UNL A   1      46.226  27.032  36.172  1.00  0.00     0.006 A 
ENDBRANCH  38  55
ENDBRANCH  12  13
ENDBRANCH   5   7
ENDBRANCH   2   3
ENDBRANCH   1   2
BRANCH   1  63
ATOM     63  C   UNL A   1      31.304  30.980  25.783  1.00  0.00     0.023 C 
BRANCH  63  64
ATOM     64  C   UNL A   1      32.579  30.160  26.000  1.00  0.00     0.116 C 
BRANCH  64  65
ATOM     65  N   UNL A   1      33.277  29.702  24.797  1.00  0.00    -0.352 N 
ATOM     66  C   UNL A   1      32.898  28.887  23.739  1.00  0.00     0.251 C 
ATOM     67  H   UNL A   1      34.198  30.041  24.723  1.00  0.00     0.163 HD
ATOM     68  O   UNL A   1      33.662  28.746  22.791  1.00  0.00    -0.269 OA
BRANCH  66  69
ATOM     69  C   UNL A   1      31.589  28.199  23.736  1.00  0.00     0.048 A 
ATOM     70  C   UNL A   1      30.668  28.738  22.817  1.00  0.00     0.014 A 
ATOM     71  C   UNL A   1      31.258  27.063  24.576  1.00  0.00     0.007 A 
ATOM     72  C   UNL A   1      29.354  28.313  22.795  1.00  0.00     0.001 A 
ATOM     73  C   UNL A   1      29.883  26.664  24.506  1.00  0.00    -0.017 A 
ATOM     74  C   UNL A   1      32.067  26.258  25.471  1.00  0.00     0.048 A 
ATOM     75  C   UNL A   1      28.966  27.300  23.655  1.00  0.00     0.009 A 
ATOM     76  C   UNL A   1      29.369  25.605  25.270  1.00  0.00     0.009 A 
ATOM     77  C   UNL A   1      31.513  25.178  26.202  1.00  0.00     0.014 A 
ATOM     78  C   UNL A   1      30.172  24.859  26.113  1.00  0.00     0.001 A 
BRANCH  74  79
ATOM     79  C   UNL A   1      33.533  26.314  25.696  1.00  0.00     0.252 C 
ATOM     80  O   UNL A   1      33.983  27.204  26.418  1.00  0.00    -0.269 OA
ATOM     81  N   UNL A   1      34.403  25.583  24.920  1.00  0.00    -0.345 N 
ATOM     82  H   UNL A   1      35.314  25.949  24.842  1.00  0.00     0.164 HD
BRANCH  81  83
ATOM     83  C   UNL A   1      34.157  24.338  24.198  1.00  0.00     0.134 C 
ATOM     84  C   UNL A   1      33.655  24.403  22.755  1.00  0.00     0.187 C 
ATOM     85  C   UNL A   1      35.352  23.616  23.575  1.00  0.00     0.187 C 
ATOM     86  O   UNL A   1      34.567  23.334  22.377  1.00  0.00    -0.377 OA
ENDBRANCH  81  83
ENDBRANCH  74  79
ENDBRANCH  66  69
ENDBRANCH  64  65
ENDBRANCH  63  64
ENDBRANCH   1  63
TORSDOF 13
ENDMDL
MODEL 2
REMARK VINA RESULT:     -12.0      5.164     10.230
REMARK SMILES O=C(NCCCCNC(=O)c1cccc2cccc(C(=O)NC3COC3)c12)c1ccc(-c2c3nc(c(-c4c(F)cccc4F)c4ccc([nH]4)c(-c4c(F)cccc4F)c4nc(c(-c5c(F)cccc5F)c5ccc2[nH]5)C=C4)C=C3)cc1
REMARK SMILES IDX 5 1 4 2 3 3 1 4 2 5 28 7 29 8 81 9 30 10 80 11 31 12 32 13
REMARK SMILES IDX 33 14 74 15 34 16 79 17 73 18 75 19 35 20 78 21 72 22 71 23
REMARK SMILES IDX 36 25 62 26 45 27 61 28 46 29 49 30 60 31 76 32 47 33 48 34
REMARK SMILES IDX 59 36 77 37 50 38 37 39 38 40 43 41 39 42 40 43 42 44 44 45
REMARK SMILES IDX 41 46 63 47 64 48 69 49 65 50 66 51 68 52 70 53 67 54 51 55
REMARK SMILES IDX 52 56 57 57 53 58 54 59 56 60 58 61 55 62 6 63 7 64 8 65
REMARK SMILES IDX 9 66 10 68 11 69 12 70 27 71 13 72 15 73 19 74 14 75 16 76
REMARK SMILES IDX 18 77 17 78 20 79 21 80 22 81 23 83 24 84 26 85 25 86
REMARK H PARENT 3 6 75 24 49 35 8 67 22 82
REMARK Flexibility Score: inf
ROOT
ATOM      1  C   UNL A   1      38.013  19.355  24.854  1.00  0.00     0.023 C 
ENDROOT
BRANCH   1   2
ATOM      2  C   UNL A   1      39.079  19.810  25.839  1.00  0.00     0.116 C 
BRANCH   2   3
ATOM      3  N   UNL A   1      40.228  18.917  25.896  1.00  0.00    -0.352 N 
ATOM      4  O   UNL A   1      42.394  18.304  25.982  1.00  0.00    -0.269 OA
ATOM      5  C   UNL A   1      41.555  19.197  26.115  1.00  0.00     0.251 C 
ATOM      6  H   UNL A   1      40.022  17.965  25.754  1.00  0.00     0.163 HD
BRANCH   5   7
ATOM      7  C   UNL A   1      41.994  20.559  26.494  1.00  0.00     0.039 A 
ATOM      8  C   UNL A   1      42.320  21.507  25.523  1.00  0.00     0.014 A 
ATOM      9  C   UNL A   1      42.037  20.911  27.848  1.00  0.00     0.014 A 
ATOM     10  C   UNL A   1      42.825  22.746  25.900  1.00  0.00     0.010 A 
ATOM     11  C   UNL A   1      42.449  22.194  28.225  1.00  0.00     0.010 A 
ATOM     12  C   UNL A   1      42.867  23.117  27.254  1.00  0.00    -0.014 A 
BRANCH  12  13
ATOM     13  C   UNL A   1      43.267  24.500  27.617  1.00  0.00     0.031 A 
ATOM     14  C   UNL A   1      42.250  25.528  28.022  1.00  0.00     0.074 A 
ATOM     15  C   UNL A   1      44.576  24.819  27.588  1.00  0.00     0.049 A 
ATOM     16  N   UNL A   1      42.432  26.781  28.356  1.00  0.00    -0.248 NA
ATOM     17  C   UNL A   1      40.843  25.100  28.051  1.00  0.00     0.031 C 
ATOM     18  C   UNL A   1      45.656  23.906  27.202  1.00  0.00     0.029 A 
ATOM     19  N   UNL A   1      45.226  25.986  27.897  1.00  0.00    -0.354 N 
ATOM     20  C   UNL A   1      41.169  27.296  28.616  1.00  0.00     0.074 A 
ATOM     21  C   UNL A   1      40.223  26.227  28.374  1.00  0.00     0.031 C 
ATOM     22  C   UNL A   1      46.832  24.532  27.337  1.00  0.00     0.029 A 
ATOM     23  C   UNL A   1      46.589  25.910  27.744  1.00  0.00     0.049 A 
ATOM     24  H   UNL A   1      44.761  26.800  28.198  1.00  0.00     0.167 HD
ATOM     25  C   UNL A   1      40.832  28.545  29.025  1.00  0.00     0.037 A 
ATOM     26  C   UNL A   1      47.541  26.850  27.888  1.00  0.00     0.037 A 
ATOM     27  C   UNL A   1      41.784  29.602  29.264  1.00  0.00     0.049 A 
ATOM     28  C   UNL A   1      47.135  28.236  28.296  1.00  0.00     0.074 A 
ATOM     29  C   UNL A   1      41.548  30.891  29.708  1.00  0.00     0.029 A 
ATOM     30  N   UNL A   1      43.154  29.495  29.068  1.00  0.00    -0.354 N 
ATOM     31  N   UNL A   1      45.939  28.699  28.571  1.00  0.00    -0.248 NA
ATOM     32  C   UNL A   1      48.209  29.230  28.412  1.00  0.00     0.031 C 
ATOM     33  C   UNL A   1      42.765  31.580  29.725  1.00  0.00     0.029 A 
ATOM     34  C   UNL A   1      43.771  30.702  29.354  1.00  0.00     0.049 A 
ATOM     35  H   UNL A   1      43.620  28.680  28.770  1.00  0.00     0.167 HD
ATOM     36  C   UNL A   1      46.119  30.032  28.915  1.00  0.00     0.074 A 
ATOM     37  C   UNL A   1      47.541  30.295  28.830  1.00  0.00     0.031 C 
ATOM     38  C   UNL A   1      45.189  30.951  29.269  1.00  0.00     0.037 A 
BRANCH  25  39
ATOM     39  C   UNL A   1      39.371  28.847  29.212  1.00  0.00     0.057 A 
ATOM     40  C   UNL A   1      38.729  28.683  30.447  1.00  0.00     0.134 A 
ATOM     41  C   UNL A   1      38.604  29.344  28.150  1.00  0.00     0.134 A 
ATOM     42  F   UNL A   1      39.400  28.205  31.505  1.00  0.00    -0.206 F 
ATOM     43  C   UNL A   1      37.373  28.976  30.611  1.00  0.00     0.040 A 
ATOM     44  C   UNL A   1      37.255  29.667  28.309  1.00  0.00     0.040 A 
ATOM     45  F   UNL A   1      39.155  29.535  26.942  1.00  0.00    -0.206 F 
ATOM     46  C   UNL A   1      36.634  29.475  29.540  1.00  0.00     0.006 A 
ENDBRANCH  25  39
BRANCH  26  47
ATOM     47  C   UNL A   1      48.962  26.508  27.628  1.00  0.00     0.057 A 
ATOM     48  C   UNL A   1      49.774  25.971  28.632  1.00  0.00     0.134 A 
ATOM     49  C   UNL A   1      49.537  26.697  26.365  1.00  0.00     0.134 A 
ATOM     50  F   UNL A   1      49.286  25.781  29.867  1.00  0.00    -0.206 F 
ATOM     51  C   UNL A   1      51.112  25.650  28.395  1.00  0.00     0.040 A 
ATOM     52  C   UNL A   1      50.863  26.352  26.105  1.00  0.00     0.040 A 
ATOM     53  F   UNL A   1      48.808  27.198  25.356  1.00  0.00    -0.206 F 
ATOM     54  C   UNL A   1      51.658  25.833  27.126  1.00  0.00     0.006 A 
ENDBRANCH  26  47
BRANCH  38  55
ATOM     55  C   UNL A   1      45.686  32.320  29.632  1.00  0.00     0.057 A 
ATOM     56  C   UNL A   1      45.780  33.353  28.689  1.00  0.00     0.134 A 
ATOM     57  C   UNL A   1      46.054  32.616  30.952  1.00  0.00     0.134 A 
ATOM     58  F   UNL A   1      45.460  33.132  27.405  1.00  0.00    -0.206 F 
ATOM     59  C   UNL A   1      46.242  34.621  29.042  1.00  0.00     0.040 A 
ATOM     60  C   UNL A   1      46.488  33.888  31.322  1.00  0.00     0.040 A 
ATOM     61  F   UNL A   1      45.982  31.674  31.906  1.00  0.00    -0.206 F 
ATOM     62  C   UNL A   1      46.591  34.893  30.363  1.00  0.00     0.006 A 
ENDBRANCH  38  55
ENDBRANCH  12  13
ENDBRANCH   5   7
ENDBRANCH   2   3
ENDBRANCH   1   2
BRANCH   1  63
ATOM     63  C   UNL A   1      36.654  20.031  24.996  1.00  0.00     0.023 C 
BRANCH  63  64
ATOM     64  C   UNL A   1      36.642  21.509  25.396  1.00  0.00     0.116 C 
BRANCH  64  65
ATOM     65  N   UNL A   1      35.700  21.897  26.448  1.00  0.00    -0.352 N 
ATOM     66  C   UNL A   1      34.375  21.566  26.697  1.00  0.00     0.251 C 
ATOM     67  H   UNL A   1      36.084  22.513  27.113  1.00  0.00     0.163 HD
ATOM     68  O   UNL A   1      33.845  21.962  27.729  1.00  0.00    -0.269 OA
BRANCH  66  69
ATOM     69  C   UNL A   1      33.602  20.740  25.745  1.00  0.00     0.048 A 
ATOM     70  C   UNL A   1      33.343  19.435  26.208  1.00  0.00     0.014 A 
ATOM     71  C   UNL A   1      33.127  21.204  24.455  1.00  0.00     0.007 A 
ATOM     72  C   UNL A   1      32.769  18.490  25.382  1.00  0.00     0.001 A 
ATOM     73  C   UNL A   1      32.534  20.180  23.646  1.00  0.00    -0.017 A 
ATOM     74  C   UNL A   1      33.140  22.516  23.839  1.00  0.00     0.048 A 
ATOM     75  C   UNL A   1      32.393  18.860  24.103  1.00  0.00     0.009 A 
ATOM     76  C   UNL A   1      32.045  20.432  22.355  1.00  0.00     0.009 A 
ATOM     77  C   UNL A   1      32.608  22.734  22.543  1.00  0.00     0.014 A 
ATOM     78  C   UNL A   1      32.075  21.698  21.800  1.00  0.00     0.001 A 
BRANCH  74  79
ATOM     79  C   UNL A   1      33.564  23.812  24.426  1.00  0.00     0.252 C 
ATOM     80  O   UNL A   1      34.745  24.146  24.323  1.00  0.00    -0.269 OA
ATOM     81  N   UNL A   1      32.753  24.500  25.300  1.00  0.00    -0.345 N 
ATOM     82  H   UNL A   1      33.216  25.092  25.934  1.00  0.00     0.164 HD
BRANCH  81  83
ATOM     83  C   UNL A   1      31.297  24.469  25.410  1.00  0.00     0.134 C 
ATOM     84  C   UNL A   1      30.655  23.649  26.530  1.00  0.00     0.187 C 
ATOM     85  C   UNL A   1      30.599  25.643  26.094  1.00  0.00     0.187 C 
ATOM     86  O   UNL A   1      29.703  24.720  26.784  1.00  0.00    -0.377 OA
ENDBRANCH  81  83
ENDBRANCH  74  79
ENDBRANCH  66  69
ENDBRANCH  64  65
ENDBRANCH  63  64
ENDBRANCH   1  63
TORSDOF 13
ENDMDL
MODEL 3
REMARK VINA RESULT:     -12.0      0.452      6.188
REMARK SMILES O=C(NCCCCNC(=O)c1cccc2cccc(C(=O)NC3COC3)c12)c1ccc(-c2c3nc(c(-c4c(F)cccc4F)c4ccc([nH]4)c(-c4c(F)cccc4F)c4nc(c(-c5c(F)cccc5F)c5ccc2[nH]5)C=C4)C=C3)cc1
REMARK SMILES IDX 5 1 4 2 3 3 1 4 2 5 28 7 29 8 81 9 30 10 80 11 31 12 32 13
REMARK SMILES IDX 33 14 74 15 34 16 79 17 73 18 75 19 35 20 78 21 72 22 71 23
REMARK SMILES IDX 36 25 62 26 45 27 61 28 46 29 49 30 60 31 76 32 47 33 48 34
REMARK SMILES IDX 59 36 77 37 50 38 37 39 38 40 43 41 39 42 40 43 42 44 44 45
REMARK SMILES IDX 41 46 63 47 64 48 69 49 65 50 66 51 68 52 70 53 67 54 51 55
REMARK SMILES IDX 52 56 57 57 53 58 54 59 56 60 58 61 55 62 6 63 7 64 8 65
REMARK SMILES IDX 9 66 10 68 11 69 12 70 27 71 13 72 15 73 19 74 14 75 16 76
REMARK SMILES IDX 18 77 17 78 20 79 21 80 22 81 23 83 24 84 26 85 25 86
REMARK H PARENT 3 6 75 24 49 35 8 67 22 82
REMARK Flexibility Score: inf
ROOT
ATOM      1  C   UNL A   1      31.335  32.307  26.512  1.00  0.00     0.023 C 
ENDROOT
BRANCH   1   2
ATOM      2  C   UNL A   1      32.648  32.886  27.019  1.00  0.00     0.116 C 
BRANCH   2   3
ATOM      3  N   UNL A   1      32.495  34.185  27.659  1.00  0.00    -0.352 N 
ATOM      4  O   UNL A   1      32.778  35.798  29.205  1.00  0.00    -0.269 OA
ATOM      5  C   UNL A   1      33.162  34.727  28.730  1.00  0.00     0.251 C 
ATOM      6  H   UNL A   1      31.805  34.765  27.262  1.00  0.00     0.163 HD
BRANCH   5   7
ATOM      7  C   UNL A   1      34.326  34.038  29.330  1.00  0.00     0.039 A 
ATOM      8  C   UNL A   1      34.153  32.984  30.228  1.00  0.00     0.014 A 
ATOM      9  C   UNL A   1      35.618  34.424  28.954  1.00  0.00     0.014 A 
ATOM     10  C   UNL A   1      35.256  32.416  30.856  1.00  0.00     0.010 A 
ATOM     11  C   UNL A   1      36.730  33.783  29.511  1.00  0.00     0.010 A 
ATOM     12  C   UNL A   1      36.558  32.787  30.484  1.00  0.00    -0.014 A 
BRANCH  12  13
ATOM     13  C   UNL A   1      37.716  32.057  31.062  1.00  0.00     0.031 A 
ATOM     14  C   UNL A   1      38.210  32.345  32.450  1.00  0.00     0.074 A 
ATOM     15  C   UNL A   1      38.317  31.111  30.312  1.00  0.00     0.049 A 
ATOM     16  N   UNL A   1      39.214  31.807  33.096  1.00  0.00    -0.248 NA
ATOM     17  C   UNL A   1      37.490  33.375  33.214  1.00  0.00     0.031 C 
ATOM     18  C   UNL A   1      37.931  30.750  28.945  1.00  0.00     0.029 A 
ATOM     19  N   UNL A   1      39.367  30.274  30.591  1.00  0.00    -0.354 N 
ATOM     20  C   UNL A   1      39.260  32.442  34.330  1.00  0.00     0.074 A 
ATOM     21  C   UNL A   1      38.199  33.427  34.334  1.00  0.00     0.031 C 
ATOM     22  C   UNL A   1      38.703  29.740  28.522  1.00  0.00     0.029 A 
ATOM     23  C   UNL A   1      39.686  29.433  29.553  1.00  0.00     0.049 A 
ATOM     24  H   UNL A   1      39.847  30.277  31.451  1.00  0.00     0.167 HD
ATOM     25  C   UNL A   1      40.106  32.218  35.366  1.00  0.00     0.037 A 
ATOM     26  C   UNL A   1      40.676  28.531  29.429  1.00  0.00     0.037 A 
ATOM     27  C   UNL A   1      41.160  31.233  35.351  1.00  0.00     0.049 A 
ATOM     28  C   UNL A   1      41.627  28.336  30.574  1.00  0.00     0.074 A 
ATOM     29  C   UNL A   1      42.051  30.908  36.358  1.00  0.00     0.029 A 
ATOM     30  N   UNL A   1      41.471  30.421  34.269  1.00  0.00    -0.354 N 
ATOM     31  N   UNL A   1      41.636  28.920  31.747  1.00  0.00    -0.248 NA
ATOM     32  C   UNL A   1      42.705  27.359  30.376  1.00  0.00     0.031 C 
ATOM     33  C   UNL A   1      42.937  29.943  35.868  1.00  0.00     0.029 A 
ATOM     34  C   UNL A   1      42.557  29.617  34.575  1.00  0.00     0.049 A 
ATOM     35  H   UNL A   1      40.989  30.416  33.410  1.00  0.00     0.167 HD
ATOM     36  C   UNL A   1      42.706  28.366  32.437  1.00  0.00     0.074 A 
ATOM     37  C   UNL A   1      43.309  27.388  31.555  1.00  0.00     0.031 C 
ATOM     38  C   UNL A   1      43.146  28.644  33.688  1.00  0.00     0.037 A 
BRANCH  25  39
ATOM     39  C   UNL A   1      39.949  33.072  36.593  1.00  0.00     0.057 A 
ATOM     40  C   UNL A   1      39.007  32.780  37.589  1.00  0.00     0.134 A 
ATOM     41  C   UNL A   1      40.776  34.184  36.799  1.00  0.00     0.134 A 
ATOM     42  F   UNL A   1      38.176  31.735  37.454  1.00  0.00    -0.206 F 
ATOM     43  C   UNL A   1      38.876  33.576  38.729  1.00  0.00     0.040 A 
ATOM     44  C   UNL A   1      40.675  34.972  37.948  1.00  0.00     0.040 A 
ATOM     45  F   UNL A   1      41.707  34.518  35.892  1.00  0.00    -0.206 F 
ATOM     46  C   UNL A   1      39.716  34.673  38.913  1.00  0.00     0.006 A 
ENDBRANCH  25  39
BRANCH  26  47
ATOM     47  C   UNL A   1      40.820  27.760  28.168  1.00  0.00     0.057 A 
ATOM     48  C   UNL A   1      41.566  28.259  27.094  1.00  0.00     0.134 A 
ATOM     49  C   UNL A   1      40.225  26.502  28.011  1.00  0.00     0.134 A 
ATOM     50  F   UNL A   1      42.146  29.466  27.177  1.00  0.00    -0.206 F 
ATOM     51  C   UNL A   1      41.702  27.541  25.905  1.00  0.00     0.040 A 
ATOM     52  C   UNL A   1      40.380  25.761  26.840  1.00  0.00     0.040 A 
ATOM     53  F   UNL A   1      39.507  25.963  29.007  1.00  0.00    -0.206 F 
ATOM     54  C   UNL A   1      41.114  26.285  25.778  1.00  0.00     0.006 A 
ENDBRANCH  26  47
BRANCH  38  55
ATOM     55  C   UNL A   1      44.315  27.848  34.193  1.00  0.00     0.057 A 
ATOM     56  C   UNL A   1      45.633  28.312  34.088  1.00  0.00     0.134 A 
ATOM     57  C   UNL A   1      44.114  26.609  34.816  1.00  0.00     0.134 A 
ATOM     58  F   UNL A   1      45.896  29.483  33.488  1.00  0.00    -0.206 F 
ATOM     59  C   UNL A   1      46.709  27.562  34.564  1.00  0.00     0.040 A 
ATOM     60  C   UNL A   1      45.179  25.864  35.322  1.00  0.00     0.040 A 
ATOM     61  F   UNL A   1      42.876  26.109  34.954  1.00  0.00    -0.206 F 
ATOM     62  C   UNL A   1      46.482  26.337  35.189  1.00  0.00     0.006 A 
ENDBRANCH  38  55
ENDBRANCH  12  13
ENDBRANCH   5   7
ENDBRANCH   2   3
ENDBRANCH   1   2
BRANCH   1  63
ATOM     63  C   UNL A   1      31.419  30.903  25.924  1.00  0.00     0.023 C 
BRANCH  63  64
ATOM     64  C   UNL A   1      32.710  30.115  26.164  1.00  0.00     0.116 C 
BRANCH  64  65
ATOM     65  N   UNL A   1      33.458  29.703  24.974  1.00  0.00    -0.352 N 
ATOM     66  C   UNL A   1      33.111  28.964  23.852  1.00  0.00     0.251 C 
ATOM     67  H   UNL A   1      34.392  30.013  24.969  1.00  0.00     0.163 HD
ATOM     68  O   UNL A   1      33.922  28.850  22.939  1.00  0.00    -0.269 OA
BRANCH  66  69
ATOM     69  C   UNL A   1      31.783  28.323  23.739  1.00  0.00     0.048 A 
ATOM     70  C   UNL A   1      30.951  28.913  22.769  1.00  0.00     0.014 A 
ATOM     71  C   UNL A   1      31.354  27.183  24.527  1.00  0.00     0.007 A 
ATOM     72  C   UNL A   1      29.628  28.536  22.643  1.00  0.00     0.001 A 
ATOM     73  C   UNL A   1      29.975  26.835  24.349  1.00  0.00    -0.017 A 
ATOM     74  C   UNL A   1      32.068  26.331  25.458  1.00  0.00     0.048 A 
ATOM     75  C   UNL A   1      29.145  27.521  23.449  1.00  0.00     0.009 A 
ATOM     76  C   UNL A   1      29.371  25.779  25.049  1.00  0.00     0.009 A 
ATOM     77  C   UNL A   1      31.426  25.256  26.123  1.00  0.00     0.014 A 
ATOM     78  C   UNL A   1      30.085  24.988  25.931  1.00  0.00     0.001 A 
BRANCH  74  79
ATOM     79  C   UNL A   1      33.515  26.329  25.789  1.00  0.00     0.252 C 
ATOM     80  O   UNL A   1      33.943  27.189  26.559  1.00  0.00    -0.269 OA
ATOM     81  N   UNL A   1      34.413  25.582  25.062  1.00  0.00    -0.345 N 
ATOM     82  H   UNL A   1      35.339  25.916  25.057  1.00  0.00     0.164 HD
BRANCH  81  83
ATOM     83  C   UNL A   1      34.177  24.360  24.299  1.00  0.00     0.134 C 
ATOM     84  C   UNL A   1      33.773  24.469  22.829  1.00  0.00     0.187 C 
ATOM     85  C   UNL A   1      35.387  23.612  23.740  1.00  0.00     0.187 C 
ATOM     86  O   UNL A   1      34.674  23.379  22.487  1.00  0.00    -0.377 OA
ENDBRANCH  81  83
ENDBRANCH  74  79
ENDBRANCH  66  69
ENDBRANCH  64  65
ENDBRANCH  63  64
ENDBRANCH   1  63
TORSDOF 13
ENDMDL
