MODEL 1
REMARK VINA RESULT:     -12.8      0.000      0.000
REMARK SMILES O=C(NCCCCNC(=O)c1cccc2c1ccn2Cc1ccncc1)c1ccc(-c2c3nc(c(-c4c(F)cccc4F)c4ccc([nH]4)c(-c4c(F)cccc4F)c4nc(c(-c5c(F)cccc5F)c5ccc2[nH]5)C=C4)C=C3)cc1
REMARK SMILES IDX 5 1 4 2 3 3 1 4 2 5 27 7 28 8 80 9 29 10 79 11 30 12 31 13
REMARK SMILES IDX 32 14 73 15 33 16 78 17 72 18 74 19 34 20 77 21 71 22 70 23
REMARK SMILES IDX 35 25 61 26 44 27 60 28 45 29 48 30 59 31 75 32 46 33 47 34
REMARK SMILES IDX 58 36 76 37 49 38 36 39 37 40 42 41 38 42 39 43 41 44 43 45
REMARK SMILES IDX 40 46 62 47 63 48 68 49 64 50 65 51 67 52 69 53 66 54 50 55
REMARK SMILES IDX 51 56 56 57 52 58 53 59 55 60 57 61 54 62 6 63 7 64 8 65
REMARK SMILES IDX 9 66 10 68 11 69 12 70 16 71 13 72 15 73 17 74 14 75 19 76
REMARK SMILES IDX 18 77 20 78 21 79 22 80 26 81 23 82 25 83 24 84
REMARK H PARENT 3 6 74 24 48 35 8 67
REMARK Flexibility Score: inf
ROOT
ATOM      1  C   UNL A   1      33.940  28.891  26.977  1.00  0.00     0.023 C 
ENDROOT
BRANCH   1   2
ATOM      2  C   UNL A   1      35.353  29.280  27.382  1.00  0.00     0.116 C 
BRANCH   2   3
ATOM      3  N   UNL A   1      35.477  29.754  28.765  1.00  0.00    -0.352 N 
ATOM      4  O   UNL A   1      36.316  29.575  30.877  1.00  0.00    -0.269 OA
ATOM      5  C   UNL A   1      36.484  29.456  29.679  1.00  0.00     0.251 C 
ATOM      6  H   UNL A   1      34.764  30.353  29.084  1.00  0.00     0.163 HD
BRANCH   5   7
ATOM      7  C   UNL A   1      37.781  28.995  29.145  1.00  0.00     0.039 A 
ATOM      8  C   UNL A   1      38.394  29.571  28.031  1.00  0.00     0.014 A 
ATOM      9  C   UNL A   1      38.419  27.995  29.862  1.00  0.00     0.014 A 
ATOM     10  C   UNL A   1      39.695  29.177  27.718  1.00  0.00     0.010 A 
ATOM     11  C   UNL A   1      39.765  27.826  29.721  1.00  0.00     0.010 A 
ATOM     12  C   UNL A   1      40.390  28.319  28.591  1.00  0.00    -0.014 A 
BRANCH  12  13
ATOM     13  C   UNL A   1      41.789  27.965  28.379  1.00  0.00     0.031 A 
ATOM     14  C   UNL A   1      41.985  26.720  27.599  1.00  0.00     0.074 A 
ATOM     15  C   UNL A   1      42.830  28.756  28.729  1.00  0.00     0.049 A 
ATOM     16  N   UNL A   1      42.326  25.566  28.066  1.00  0.00    -0.248 NA
ATOM     17  C   UNL A   1      41.585  26.697  26.184  1.00  0.00     0.031 C 
ATOM     18  C   UNL A   1      42.817  30.131  29.249  1.00  0.00     0.029 A 
ATOM     19  N   UNL A   1      44.165  28.505  28.618  1.00  0.00    -0.354 N 
ATOM     20  C   UNL A   1      42.428  24.727  26.964  1.00  0.00     0.074 A 
ATOM     21  C   UNL A   1      41.764  25.407  25.884  1.00  0.00     0.031 C 
ATOM     22  C   UNL A   1      44.055  30.665  29.181  1.00  0.00     0.029 A 
ATOM     23  C   UNL A   1      44.982  29.616  28.810  1.00  0.00     0.049 A 
ATOM     24  H   UNL A   1      44.523  27.610  28.419  1.00  0.00     0.167 HD
ATOM     25  C   UNL A   1      43.310  23.689  26.981  1.00  0.00     0.037 A 
ATOM     26  C   UNL A   1      46.330  29.672  28.694  1.00  0.00     0.037 A 
ATOM     27  C   UNL A   1      43.734  23.402  28.335  1.00  0.00     0.049 A 
ATOM     28  C   UNL A   1      46.834  28.286  28.827  1.00  0.00     0.074 A 
ATOM     29  C   UNL A   1      43.096  23.056  29.512  1.00  0.00     0.029 A 
ATOM     30  N   UNL A   1      44.981  23.842  28.706  1.00  0.00    -0.354 N 
ATOM     31  N   UNL A   1      46.792  27.606  29.938  1.00  0.00    -0.248 NA
ATOM     32  C   UNL A   1      46.968  27.496  27.615  1.00  0.00     0.031 C 
ATOM     33  C   UNL A   1      43.810  23.747  30.539  1.00  0.00     0.029 A 
ATOM     34  C   UNL A   1      44.883  24.415  29.946  1.00  0.00     0.049 A 
ATOM     35  H   UNL A   1      45.804  23.761  28.172  1.00  0.00     0.167 HD
ATOM     36  C   UNL A   1      46.431  26.325  29.548  1.00  0.00     0.074 A 
ATOM     37  C   UNL A   1      46.663  26.291  28.104  1.00  0.00     0.031 C 
ATOM     38  C   UNL A   1      45.707  25.520  30.380  1.00  0.00     0.037 A 
BRANCH  25  39
ATOM     39  C   UNL A   1      44.143  23.267  25.788  1.00  0.00     0.057 A 
ATOM     40  C   UNL A   1      45.092  24.083  25.138  1.00  0.00     0.134 A 
ATOM     41  C   UNL A   1      44.253  21.892  25.504  1.00  0.00     0.134 A 
ATOM     42  F   UNL A   1      45.146  25.409  25.301  1.00  0.00    -0.206 F 
ATOM     43  C   UNL A   1      46.122  23.567  24.349  1.00  0.00     0.040 A 
ATOM     44  C   UNL A   1      45.309  21.362  24.754  1.00  0.00     0.040 A 
ATOM     45  F   UNL A   1      43.397  21.008  26.039  1.00  0.00    -0.206 F 
ATOM     46  C   UNL A   1      46.262  22.198  24.191  1.00  0.00     0.006 A 
ENDBRANCH  25  39
BRANCH  26  47
ATOM     47  C   UNL A   1      47.190  30.787  28.241  1.00  0.00     0.057 A 
ATOM     48  C   UNL A   1      47.992  31.505  29.145  1.00  0.00     0.134 A 
ATOM     49  C   UNL A   1      47.024  31.362  26.973  1.00  0.00     0.134 A 
ATOM     50  F   UNL A   1      48.166  31.079  30.404  1.00  0.00    -0.206 F 
ATOM     51  C   UNL A   1      48.564  32.740  28.820  1.00  0.00     0.040 A 
ATOM     52  C   UNL A   1      47.588  32.599  26.635  1.00  0.00     0.040 A 
ATOM     53  F   UNL A   1      46.250  30.769  26.052  1.00  0.00    -0.206 F 
ATOM     54  C   UNL A   1      48.349  33.300  27.566  1.00  0.00     0.006 A 
ENDBRANCH  26  47
BRANCH  38  55
ATOM     55  C   UNL A   1      45.590  25.937  31.822  1.00  0.00     0.057 A 
ATOM     56  C   UNL A   1      44.465  26.669  32.214  1.00  0.00     0.134 A 
ATOM     57  C   UNL A   1      46.583  25.737  32.794  1.00  0.00     0.134 A 
ATOM     58  F   UNL A   1      43.497  26.948  31.326  1.00  0.00    -0.206 F 
ATOM     59  C   UNL A   1      44.319  27.165  33.512  1.00  0.00     0.040 A 
ATOM     60  C   UNL A   1      46.435  26.197  34.107  1.00  0.00     0.040 A 
ATOM     61  F   UNL A   1      47.739  25.132  32.494  1.00  0.00    -0.206 F 
ATOM     62  C   UNL A   1      45.299  26.917  34.469  1.00  0.00     0.006 A 
ENDBRANCH  38  55
ENDBRANCH  12  13
ENDBRANCH   5   7
ENDBRANCH   2   3
ENDBRANCH   1   2
BRANCH   1  63
ATOM     63  C   UNL A   1      33.733  28.626  25.480  1.00  0.00     0.023 C 
BRANCH  63  64
ATOM     64  C   UNL A   1      33.721  27.166  25.017  1.00  0.00     0.116 C 
BRANCH  64  65
ATOM     65  N   UNL A   1      33.866  27.006  23.581  1.00  0.00    -0.352 N 
ATOM     66  C   UNL A   1      33.493  25.953  22.775  1.00  0.00     0.251 C 
ATOM     67  H   UNL A   1      34.292  27.761  23.114  1.00  0.00     0.163 HD
ATOM     68  O   UNL A   1      33.770  25.974  21.579  1.00  0.00    -0.269 OA
BRANCH  66  69
ATOM     69  C   UNL A   1      32.780  24.797  23.353  1.00  0.00     0.049 A 
ATOM     70  C   UNL A   1      31.380  24.788  23.434  1.00  0.00     0.014 A 
ATOM     71  C   UNL A   1      33.521  23.690  23.824  1.00  0.00     0.012 A 
ATOM     72  C   UNL A   1      30.723  23.727  24.052  1.00  0.00     0.003 A 
ATOM     73  C   UNL A   1      32.834  22.619  24.416  1.00  0.00     0.049 A 
ATOM     74  C   UNL A   1      34.907  23.384  23.881  1.00  0.00     0.029 A 
ATOM     75  C   UNL A   1      31.434  22.633  24.557  1.00  0.00     0.027 A 
ATOM     76  N   UNL A   1      33.788  21.680  24.777  1.00  0.00    -0.343 N 
ATOM     77  C   UNL A   1      35.044  22.183  24.532  1.00  0.00     0.087 A 
BRANCH  76  78
ATOM     78  C   UNL A   1      33.540  20.384  25.407  1.00  0.00     0.157 C 
BRANCH  78  79
ATOM     79  C   UNL A   1      33.461  19.249  24.410  1.00  0.00    -0.025 A 
ATOM     80  C   UNL A   1      34.371  18.185  24.439  1.00  0.00     0.025 A 
ATOM     81  C   UNL A   1      32.451  19.213  23.443  1.00  0.00     0.025 A 
ATOM     82  C   UNL A   1      34.254  17.167  23.506  1.00  0.00     0.111 A 
ATOM     83  C   UNL A   1      32.405  18.140  22.561  1.00  0.00     0.111 A 
ATOM     84  N   UNL A   1      33.286  17.119  22.570  1.00  0.00    -0.265 NA
ENDBRANCH  78  79
ENDBRANCH  76  78
ENDBRANCH  66  69
ENDBRANCH  64  65
ENDBRANCH  63  64
ENDBRANCH   1  63
TORSDOF 13
ENDMDL
MODEL 2
REMARK VINA RESULT:     -12.5      1.560      2.053
REMARK SMILES O=C(NCCCCNC(=O)c1cccc2c1ccn2Cc1ccncc1)c1ccc(-c2c3nc(c(-c4c(F)cccc4F)c4ccc([nH]4)c(-c4c(F)cccc4F)c4nc(c(-c5c(F)cccc5F)c5ccc2[nH]5)C=C4)C=C3)cc1
REMARK SMILES IDX 5 1 4 2 3 3 1 4 2 5 27 7 28 8 80 9 29 10 79 11 30 12 31 13
REMARK SMILES IDX 32 14 73 15 33 16 78 17 72 18 74 19 34 20 77 21 71 22 70 23
REMARK SMILES IDX 35 25 61 26 44 27 60 28 45 29 48 30 59 31 75 32 46 33 47 34
REMARK SMILES IDX 58 36 76 37 49 38 36 39 37 40 42 41 38 42 39 43 41 44 43 45
REMARK SMILES IDX 40 46 62 47 63 48 68 49 64 50 65 51 67 52 69 53 66 54 50 55
REMARK SMILES IDX 51 56 56 57 52 58 53 59 55 60 57 61 54 62 6 63 7 64 8 65
REMARK SMILES IDX 9 66 10 68 11 69 12 70 16 71 13 72 15 73 17 74 14 75 19 76
REMARK SMILES IDX 18 77 20 78 21 79 22 80 26 81 23 82 25 83 24 84
REMARK H PARENT 3 6 74 24 48 35 8 67
REMARK Flexibility Score: inf
ROOT
ATOM      1  C   UNL A   1      33.961  28.676  27.036  1.00  0.00     0.023 C 
ENDROOT
BRANCH   1   2
ATOM      2  C   UNL A   1      35.317  29.280  27.367  1.00  0.00     0.116 C 
BRANCH   2   3
ATOM      3  N   UNL A   1      35.453  29.736  28.755  1.00  0.00    -0.352 N 
ATOM      4  O   UNL A   1      36.300  29.525  30.861  1.00  0.00    -0.269 OA
ATOM      5  C   UNL A   1      36.462  29.418  29.661  1.00  0.00     0.251 C 
ATOM      6  H   UNL A   1      34.747  30.339  29.084  1.00  0.00     0.163 HD
BRANCH   5   7
ATOM      7  C   UNL A   1      37.751  28.952  29.114  1.00  0.00     0.039 A 
ATOM      8  C   UNL A   1      38.362  29.531  28.001  1.00  0.00     0.014 A 
ATOM      9  C   UNL A   1      38.385  27.940  29.820  1.00  0.00     0.014 A 
ATOM     10  C   UNL A   1      39.658  29.130  27.677  1.00  0.00     0.010 A 
ATOM     11  C   UNL A   1      39.729  27.761  29.669  1.00  0.00     0.010 A 
ATOM     12  C   UNL A   1      40.350  28.259  28.539  1.00  0.00    -0.014 A 
BRANCH  12  13
ATOM     13  C   UNL A   1      41.745  27.895  28.315  1.00  0.00     0.031 A 
ATOM     14  C   UNL A   1      41.926  26.636  27.554  1.00  0.00     0.074 A 
ATOM     15  C   UNL A   1      42.794  28.687  28.640  1.00  0.00     0.049 A 
ATOM     16  N   UNL A   1      42.268  25.489  28.035  1.00  0.00    -0.248 NA
ATOM     17  C   UNL A   1      41.509  26.592  26.144  1.00  0.00     0.031 C 
ATOM     18  C   UNL A   1      42.793  30.070  29.137  1.00  0.00     0.029 A 
ATOM     19  N   UNL A   1      44.126  28.428  28.516  1.00  0.00    -0.354 N 
ATOM     20  C   UNL A   1      42.353  24.632  26.946  1.00  0.00     0.074 A 
ATOM     21  C   UNL A   1      41.678  25.297  25.863  1.00  0.00     0.031 C 
ATOM     22  C   UNL A   1      44.033  30.598  29.045  1.00  0.00     0.029 A 
ATOM     23  C   UNL A   1      44.951  29.538  28.680  1.00  0.00     0.049 A 
ATOM     24  H   UNL A   1      44.478  27.529  28.327  1.00  0.00     0.167 HD
ATOM     25  C   UNL A   1      43.231  23.590  26.969  1.00  0.00     0.037 A 
ATOM     26  C   UNL A   1      46.298  29.586  28.546  1.00  0.00     0.037 A 
ATOM     27  C   UNL A   1      43.670  23.323  28.322  1.00  0.00     0.049 A 
ATOM     28  C   UNL A   1      46.797  28.201  28.695  1.00  0.00     0.074 A 
ATOM     29  C   UNL A   1      43.046  22.999  29.512  1.00  0.00     0.029 A 
ATOM     30  N   UNL A   1      44.923  23.764  28.669  1.00  0.00    -0.354 N 
ATOM     31  N   UNL A   1      46.766  27.538  29.818  1.00  0.00    -0.248 NA
ATOM     32  C   UNL A   1      46.912  27.390  27.495  1.00  0.00     0.031 C 
ATOM     33  C   UNL A   1      43.776  23.704  30.518  1.00  0.00     0.029 A 
ATOM     34  C   UNL A   1      44.844  24.357  29.902  1.00  0.00     0.049 A 
ATOM     35  H   UNL A   1      45.740  23.670  28.127  1.00  0.00     0.167 HD
ATOM     36  C   UNL A   1      46.395  26.253  29.453  1.00  0.00     0.074 A 
ATOM     37  C   UNL A   1      46.609  26.195  28.007  1.00  0.00     0.031 C 
ATOM     38  C   UNL A   1      45.678  25.465  30.307  1.00  0.00     0.037 A 
BRANCH  25  39
ATOM     39  C   UNL A   1      44.047  23.145  25.772  1.00  0.00     0.057 A 
ATOM     40  C   UNL A   1      44.990  23.947  25.097  1.00  0.00     0.134 A 
ATOM     41  C   UNL A   1      44.149  21.765  25.510  1.00  0.00     0.134 A 
ATOM     42  F   UNL A   1      45.051  25.275  25.236  1.00  0.00    -0.206 F 
ATOM     43  C   UNL A   1      46.009  23.414  24.303  1.00  0.00     0.040 A 
ATOM     44  C   UNL A   1      45.194  21.218  24.756  1.00  0.00     0.040 A 
ATOM     45  F   UNL A   1      43.297  20.893  26.071  1.00  0.00    -0.206 F 
ATOM     46  C   UNL A   1      46.142  22.042  24.167  1.00  0.00     0.006 A 
ENDBRANCH  25  39
BRANCH  26  47
ATOM     47  C   UNL A   1      47.157  30.690  28.064  1.00  0.00     0.057 A 
ATOM     48  C   UNL A   1      48.059  31.342  28.923  1.00  0.00     0.134 A 
ATOM     49  C   UNL A   1      46.904  31.324  26.840  1.00  0.00     0.134 A 
ATOM     50  F   UNL A   1      48.325  30.856  30.144  1.00  0.00    -0.206 F 
ATOM     51  C   UNL A   1      48.647  32.569  28.598  1.00  0.00     0.040 A 
ATOM     52  C   UNL A   1      47.483  32.555  26.503  1.00  0.00     0.040 A 
ATOM     53  F   UNL A   1      46.033  30.797  25.967  1.00  0.00    -0.206 F 
ATOM     54  C   UNL A   1      48.346  33.189  27.391  1.00  0.00     0.006 A 
ENDBRANCH  26  47
BRANCH  38  55
ATOM     55  C   UNL A   1      45.581  25.906  31.743  1.00  0.00     0.057 A 
ATOM     56  C   UNL A   1      44.452  26.628  32.144  1.00  0.00     0.134 A 
ATOM     57  C   UNL A   1      46.594  25.739  32.700  1.00  0.00     0.134 A 
ATOM     58  F   UNL A   1      43.463  26.875  31.268  1.00  0.00    -0.206 F 
ATOM     59  C   UNL A   1      44.322  27.144  33.435  1.00  0.00     0.040 A 
ATOM     60  C   UNL A   1      46.463  26.220  34.007  1.00  0.00     0.040 A 
ATOM     61  F   UNL A   1      47.754  25.147  32.389  1.00  0.00    -0.206 F 
ATOM     62  C   UNL A   1      45.323  26.928  34.378  1.00  0.00     0.006 A 
ENDBRANCH  38  55
ENDBRANCH  12  13
ENDBRANCH   5   7
ENDBRANCH   2   3
ENDBRANCH   1   2
BRANCH   1  63
ATOM     63  C   UNL A   1      33.033  29.563  26.196  1.00  0.00     0.023 C 
BRANCH  63  64
ATOM     64  C   UNL A   1      33.007  29.325  24.683  1.00  0.00     0.116 C 
BRANCH  64  65
ATOM     65  N   UNL A   1      31.677  29.386  24.103  1.00  0.00    -0.352 N 
ATOM     66  C   UNL A   1      30.765  28.376  23.897  1.00  0.00     0.251 C 
ATOM     67  H   UNL A   1      31.385  30.281  23.814  1.00  0.00     0.163 HD
ATOM     68  O   UNL A   1      29.710  28.617  23.318  1.00  0.00    -0.269 OA
BRANCH  66  69
ATOM     69  C   UNL A   1      31.065  27.005  24.355  1.00  0.00     0.049 A 
ATOM     70  C   UNL A   1      30.710  26.588  25.646  1.00  0.00     0.014 A 
ATOM     71  C   UNL A   1      31.715  26.107  23.479  1.00  0.00     0.012 A 
ATOM     72  C   UNL A   1      31.067  25.319  26.094  1.00  0.00     0.003 A 
ATOM     73  C   UNL A   1      32.038  24.823  23.942  1.00  0.00     0.049 A 
ATOM     74  C   UNL A   1      32.189  26.204  22.142  1.00  0.00     0.029 A 
ATOM     75  C   UNL A   1      31.739  24.421  25.257  1.00  0.00     0.027 A 
ATOM     76  N   UNL A   1      32.652  24.159  22.892  1.00  0.00    -0.343 N 
ATOM     77  C   UNL A   1      32.821  25.024  21.837  1.00  0.00     0.087 A 
BRANCH  76  78
ATOM     78  C   UNL A   1      33.142  22.781  22.901  1.00  0.00     0.157 C 
BRANCH  78  79
ATOM     79  C   UNL A   1      34.379  22.600  23.752  1.00  0.00    -0.025 A 
ATOM     80  C   UNL A   1      35.549  23.328  23.506  1.00  0.00     0.025 A 
ATOM     81  C   UNL A   1      34.380  21.716  24.837  1.00  0.00     0.025 A 
ATOM     82  C   UNL A   1      36.655  23.130  24.317  1.00  0.00     0.111 A 
ATOM     83  C   UNL A   1      35.533  21.598  25.604  1.00  0.00     0.111 A 
ATOM     84  N   UNL A   1      36.670  22.284  25.366  1.00  0.00    -0.265 NA
ENDBRANCH  78  79
ENDBRANCH  76  78
ENDBRANCH  66  69
ENDBRANCH  64  65
ENDBRANCH  63  64
ENDBRANCH   1  63
TORSDOF 13
ENDMDL
MODEL 3
REMARK VINA RESULT:     -12.1      4.897      9.372
REMARK SMILES O=C(NCCCCNC(=O)c1cccc2c1ccn2Cc1ccncc1)c1ccc(-c2c3nc(c(-c4c(F)cccc4F)c4ccc([nH]4)c(-c4c(F)cccc4F)c4nc(c(-c5c(F)cccc5F)c5ccc2[nH]5)C=C4)C=C3)cc1
REMARK SMILES IDX 5 1 4 2 3 3 1 4 2 5 27 7 28 8 80 9 29 10 79 11 30 12 31 13
REMARK SMILES IDX 32 14 73 15 33 16 78 17 72 18 74 19 34 20 77 21 71 22 70 23
REMARK SMILES IDX 35 25 61 26 44 27 60 28 45 29 48 30 59 31 75 32 46 33 47 34
REMARK SMILES IDX 58 36 76 37 49 38 36 39 37 40 42 41 38 42 39 43 41 44 43 45
REMARK SMILES IDX 40 46 62 47 63 48 68 49 64 50 65 51 67 52 69 53 66 54 50 55
REMARK SMILES IDX 51 56 56 57 52 58 53 59 55 60 57 61 54 62 6 63 7 64 8 65
REMARK SMILES IDX 9 66 10 68 11 69 12 70 16 71 13 72 15 73 17 74 14 75 19 76
REMARK SMILES IDX 18 77 20 78 21 79 22 80 26 81 23 82 25 83 24 84
REMARK H PARENT 3 6 74 24 48 35 8 67
REMARK Flexibility Score: inf
ROOT
ATOM      1  C   UNL A   1      33.631  36.032  28.901  1.00  0.00     0.023 C 
ENDROOT
BRANCH   1   2
ATOM      2  C   UNL A   1      32.661  35.451  29.918  1.00  0.00     0.116 C 
BRANCH   2   3
ATOM      3  N   UNL A   1      32.462  36.286  31.108  1.00  0.00    -0.352 N 
ATOM      4  O   UNL A   1      32.385  36.566  33.370  1.00  0.00    -0.269 OA
ATOM      5  C   UNL A   1      32.904  36.037  32.405  1.00  0.00     0.251 C 
ATOM      6  H   UNL A   1      31.956  37.120  30.974  1.00  0.00     0.163 HD
BRANCH   5   7
ATOM      7  C   UNL A   1      34.038  35.109  32.577  1.00  0.00     0.039 A 
ATOM      8  C   UNL A   1      33.889  33.722  32.617  1.00  0.00     0.014 A 
ATOM      9  C   UNL A   1      35.299  35.684  32.618  1.00  0.00     0.014 A 
ATOM     10  C   UNL A   1      35.041  32.934  32.606  1.00  0.00     0.010 A 
ATOM     11  C   UNL A   1      36.392  34.920  32.328  1.00  0.00     0.010 A 
ATOM     12  C   UNL A   1      36.297  33.545  32.431  1.00  0.00    -0.014 A 
BRANCH  12  13
ATOM     13  C   UNL A   1      37.524  32.767  32.296  1.00  0.00     0.031 A 
ATOM     14  C   UNL A   1      38.300  32.639  33.552  1.00  0.00     0.074 A 
ATOM     15  C   UNL A   1      37.873  32.097  31.173  1.00  0.00     0.049 A 
ATOM     16  N   UNL A   1      39.379  33.277  33.858  1.00  0.00    -0.248 NA
ATOM     17  C   UNL A   1      37.728  31.866  34.665  1.00  0.00     0.031 C 
ATOM     18  C   UNL A   1      37.100  31.882  29.942  1.00  0.00     0.029 A 
ATOM     19  N   UNL A   1      39.007  31.382  30.926  1.00  0.00    -0.354 N 
ATOM     20  C   UNL A   1      39.762  32.798  35.104  1.00  0.00     0.074 A 
ATOM     21  C   UNL A   1      38.616  32.108  35.633  1.00  0.00     0.031 C 
ATOM     22  C   UNL A   1      37.674  30.914  29.195  1.00  0.00     0.029 A 
ATOM     23  C   UNL A   1      38.955  30.586  29.785  1.00  0.00     0.049 A 
ATOM     24  H   UNL A   1      39.800  31.426  31.508  1.00  0.00     0.167 HD
ATOM     25  C   UNL A   1      41.081  32.765  35.442  1.00  0.00     0.037 A 
ATOM     26  C   UNL A   1      39.904  29.729  29.339  1.00  0.00     0.037 A 
ATOM     27  C   UNL A   1      41.855  33.615  34.562  1.00  0.00     0.049 A 
ATOM     28  C   UNL A   1      41.184  30.139  29.960  1.00  0.00     0.074 A 
ATOM     29  C   UNL A   1      41.836  34.956  34.222  1.00  0.00     0.029 A 
ATOM     30  N   UNL A   1      42.584  32.995  33.577  1.00  0.00    -0.354 N 
ATOM     31  N   UNL A   1      41.808  31.244  29.666  1.00  0.00    -0.248 NA
ATOM     32  C   UNL A   1      41.537  29.543  31.237  1.00  0.00     0.031 C 
ATOM     33  C   UNL A   1      42.141  34.990  32.827  1.00  0.00     0.029 A 
ATOM     34  C   UNL A   1      42.400  33.685  32.408  1.00  0.00     0.049 A 
ATOM     35  H   UNL A   1      43.142  32.192  33.690  1.00  0.00     0.167 HD
ATOM     36  C   UNL A   1      42.269  31.719  30.885  1.00  0.00     0.074 A 
ATOM     37  C   UNL A   1      42.171  30.578  31.794  1.00  0.00     0.031 C 
ATOM     38  C   UNL A   1      42.406  33.060  31.105  1.00  0.00     0.037 A 
BRANCH  25  39
ATOM     39  C   UNL A   1      41.728  31.634  36.216  1.00  0.00     0.057 A 
ATOM     40  C   UNL A   1      41.755  30.287  35.802  1.00  0.00     0.134 A 
ATOM     41  C   UNL A   1      42.655  31.962  37.225  1.00  0.00     0.134 A 
ATOM     42  F   UNL A   1      40.957  29.802  34.846  1.00  0.00    -0.206 F 
ATOM     43  C   UNL A   1      42.688  29.365  36.282  1.00  0.00     0.040 A 
ATOM     44  C   UNL A   1      43.623  31.059  37.678  1.00  0.00     0.040 A 
ATOM     45  F   UNL A   1      42.718  33.206  37.724  1.00  0.00    -0.206 F 
ATOM     46  C   UNL A   1      43.656  29.760  37.190  1.00  0.00     0.006 A 
ENDBRANCH  25  39
BRANCH  26  47
ATOM     47  C   UNL A   1      39.750  28.449  28.614  1.00  0.00     0.057 A 
ATOM     48  C   UNL A   1      39.309  27.287  29.270  1.00  0.00     0.134 A 
ATOM     49  C   UNL A   1      40.310  28.263  27.342  1.00  0.00     0.134 A 
ATOM     50  F   UNL A   1      38.815  27.341  30.515  1.00  0.00    -0.206 F 
ATOM     51  C   UNL A   1      39.448  26.012  28.710  1.00  0.00     0.040 A 
ATOM     52  C   UNL A   1      40.460  26.992  26.771  1.00  0.00     0.040 A 
ATOM     53  F   UNL A   1      40.791  29.307  26.651  1.00  0.00    -0.206 F 
ATOM     54  C   UNL A   1      40.042  25.860  27.463  1.00  0.00     0.006 A 
ENDBRANCH  26  47
BRANCH  38  55
ATOM     55  C   UNL A   1      42.347  33.970  29.907  1.00  0.00     0.057 A 
ATOM     56  C   UNL A   1      43.537  34.258  29.230  1.00  0.00     0.134 A 
ATOM     57  C   UNL A   1      41.195  34.645  29.473  1.00  0.00     0.134 A 
ATOM     58  F   UNL A   1      44.690  33.692  29.623  1.00  0.00    -0.206 F 
ATOM     59  C   UNL A   1      43.582  35.156  28.162  1.00  0.00     0.040 A 
ATOM     60  C   UNL A   1      41.219  35.520  28.382  1.00  0.00     0.040 A 
ATOM     61  F   UNL A   1      40.028  34.512  30.114  1.00  0.00    -0.206 F 
ATOM     62  C   UNL A   1      42.418  35.780  27.723  1.00  0.00     0.006 A 
ENDBRANCH  38  55
ENDBRANCH  12  13
ENDBRANCH   5   7
ENDBRANCH   2   3
ENDBRANCH   1   2
BRANCH   1  63
ATOM     63  C   UNL A   1      34.615  35.030  28.283  1.00  0.00     0.023 C 
BRANCH  63  64
ATOM     64  C   UNL A   1      34.137  33.585  28.112  1.00  0.00     0.116 C 
BRANCH  64  65
ATOM     65  N   UNL A   1      32.781  33.472  27.606  1.00  0.00    -0.352 N 
ATOM     66  C   UNL A   1      32.145  32.389  27.042  1.00  0.00     0.251 C 
ATOM     67  H   UNL A   1      32.235  34.288  27.678  1.00  0.00     0.163 HD
ATOM     68  O   UNL A   1      31.005  32.513  26.603  1.00  0.00    -0.269 OA
BRANCH  66  69
ATOM     69  C   UNL A   1      32.839  31.090  26.948  1.00  0.00     0.049 A 
ATOM     70  C   UNL A   1      33.950  30.812  27.757  1.00  0.00     0.014 A 
ATOM     71  C   UNL A   1      32.374  30.118  26.033  1.00  0.00     0.012 A 
ATOM     72  C   UNL A   1      34.644  29.615  27.604  1.00  0.00     0.003 A 
ATOM     73  C   UNL A   1      33.072  28.907  25.918  1.00  0.00     0.049 A 
ATOM     74  C   UNL A   1      31.302  30.077  25.100  1.00  0.00     0.029 A 
ATOM     75  C   UNL A   1      34.224  28.649  26.683  1.00  0.00     0.027 A 
ATOM     76  N   UNL A   1      32.405  28.147  24.970  1.00  0.00    -0.343 N 
ATOM     77  C   UNL A   1      31.390  28.890  24.415  1.00  0.00     0.087 A 
BRANCH  76  78
ATOM     78  C   UNL A   1      32.755  26.795  24.534  1.00  0.00     0.157 C 
BRANCH  78  79
ATOM     79  C   UNL A   1      32.147  25.719  25.406  1.00  0.00    -0.025 A 
ATOM     80  C   UNL A   1      32.945  24.796  26.093  1.00  0.00     0.025 A 
ATOM     81  C   UNL A   1      30.761  25.634  25.578  1.00  0.00     0.025 A 
ATOM     82  C   UNL A   1      32.340  23.831  26.882  1.00  0.00     0.111 A 
ATOM     83  C   UNL A   1      30.248  24.641  26.405  1.00  0.00     0.111 A 
ATOM     84  N   UNL A   1      31.007  23.738  27.058  1.00  0.00    -0.265 NA
ENDBRANCH  78  79
ENDBRANCH  76  78
ENDBRANCH  66  69
ENDBRANCH  64  65
ENDBRANCH  63  64
ENDBRANCH   1  63
TORSDOF 13
ENDMDL
