MODEL 1
REMARK VINA RESULT:     -14.7      0.000      0.000
REMARK SMILES Cc1ccc([C@@]23C[C@@H]4C[C@@H](C[C@@](C(=O)N5CCC(C(=O)NCCCCNC(=O)c6ccc(-c7c8nc(c(-c9c(F)cccc9F)c9ccc([nH]9)c(-c9c(F)cccc9F)c9nc(c(-c%10c(F)cccc%10F)c%10ccc7[nH]%10)C=C9)C=C8)cc6)CC5)(C4)C2)C3)cc1
REMARK SMILES IDX 23 1 22 2 21 3 19 4 20 5 18 7 13 8 14 9 15 10 16 11 84 12
REMARK SMILES IDX 17 13 83 14 12 15 6 16 7 17 86 18 87 19 8 20 10 21 9 22
REMARK SMILES IDX 85 23 11 24 5 25 1 26 2 27 3 28 89 29 4 30 88 31 24 32 25 33
REMARK SMILES IDX 26 34 27 35 28 37 29 38 30 39 82 40 31 41 81 42 32 43 33 44
REMARK SMILES IDX 34 45 75 46 35 47 80 48 74 49 76 50 36 51 79 52 73 53 72 54
REMARK SMILES IDX 37 56 63 57 46 58 62 59 47 60 50 61 61 62 77 63 48 64 49 65
REMARK SMILES IDX 60 67 78 68 51 69 38 70 39 71 44 72 40 73 41 74 43 75 45 76
REMARK SMILES IDX 42 77 64 78 65 79 70 80 66 81 67 82 69 83 71 84 68 85 52 86
REMARK SMILES IDX 53 87 58 88 54 89 55 90 57 91 59 92 56 93
REMARK H PARENT 21 6 26 36 76 55 50 66
REMARK Flexibility Score: inf
ROOT
ATOM      1  C   UNL A   1      32.225  30.043  26.862  1.00  0.00     0.023 C 
ENDROOT
BRANCH   1   2
ATOM      2  C   UNL A   1      32.290  29.832  25.342  1.00  0.00     0.116 C 
BRANCH   2   3
ATOM      3  N   UNL A   1      31.071  29.259  24.784  1.00  0.00    -0.356 N 
ATOM      4  C   UNL A   1      30.861  28.323  23.817  1.00  0.00     0.223 C 
ATOM      5  O   UNL A   1      29.693  28.016  23.563  1.00  0.00    -0.275 OA
ATOM      6  H   UNL A   1      30.244  29.616  25.182  1.00  0.00     0.163 HD
BRANCH   4   7
ATOM      7  C   UNL A   1      32.006  27.671  23.056  1.00  0.00     0.082 C 
ATOM      8  C   UNL A   1      32.984  23.840  23.137  1.00  0.00     0.228 C 
ATOM      9  O   UNL A   1      31.985  23.241  22.729  1.00  0.00    -0.274 OA
ATOM     10  N   UNL A   1      33.256  25.135  22.697  1.00  0.00    -0.342 N 
ATOM     11  C   UNL A   1      32.516  25.658  21.557  1.00  0.00     0.120 C 
ATOM     12  C   UNL A   1      34.030  26.172  23.377  1.00  0.00     0.120 C 
ATOM     13  C   UNL A   1      31.476  26.671  22.009  1.00  0.00     0.035 C 
ATOM     14  C   UNL A   1      33.071  27.150  24.031  1.00  0.00     0.035 C 
BRANCH   8  15
ATOM     15  C   UNL A   1      33.957  23.130  24.106  1.00  0.00     0.051 C 
ATOM     16  C   UNL A   1      34.475  20.828  25.141  1.00  0.00    -0.003 C 
ATOM     17  C   UNL A   1      35.929  21.028  24.612  1.00  0.00     0.015 C 
ATOM     18  C   UNL A   1      33.541  21.653  24.228  1.00  0.00     0.028 C 
ATOM     19  C   UNL A   1      34.373  21.445  26.558  1.00  0.00     0.015 C 
ATOM     20  C   UNL A   1      36.343  22.512  24.633  1.00  0.00    -0.009 C 
ATOM     21  C   UNL A   1      34.754  22.940  26.527  1.00  0.00    -0.009 C 
ATOM     22  C   UNL A   1      36.211  23.067  26.058  1.00  0.00     0.007 C 
ATOM     23  C   UNL A   1      35.432  23.313  23.696  1.00  0.00     0.020 C 
ATOM     24  C   UNL A   1      33.835  23.710  25.550  1.00  0.00     0.020 C 
BRANCH  16  25
ATOM     25  C   UNL A   1      34.086  19.338  25.139  1.00  0.00    -0.042 A 
ATOM     26  C   UNL A   1      33.085  15.116  25.359  1.00  0.00     0.044 C 
ATOM     27  C   UNL A   1      33.403  16.578  25.268  1.00  0.00    -0.051 A 
ATOM     28  C   UNL A   1      34.607  16.983  24.698  1.00  0.00     0.004 A 
ATOM     29  C   UNL A   1      32.528  17.554  25.750  1.00  0.00     0.004 A 
ATOM     30  C   UNL A   1      34.936  18.338  24.628  1.00  0.00     0.004 A 
ATOM     31  C   UNL A   1      32.862  18.913  25.681  1.00  0.00     0.004 A 
ENDBRANCH  16  25
ENDBRANCH   8  15
ENDBRANCH   4   7
ENDBRANCH   2   3
ENDBRANCH   1   2
BRANCH   1  32
ATOM     32  C   UNL A   1      33.536  29.827  27.620  1.00  0.00     0.023 C 
BRANCH  32  33
ATOM     33  C   UNL A   1      34.545  30.956  27.468  1.00  0.00     0.116 C 
BRANCH  33  34
ATOM     34  N   UNL A   1      34.992  31.549  28.722  1.00  0.00    -0.352 N 
ATOM     35  C   UNL A   1      35.947  31.089  29.614  1.00  0.00     0.251 C 
ATOM     36  H   UNL A   1      34.553  32.396  28.970  1.00  0.00     0.163 HD
ATOM     37  O   UNL A   1      36.168  31.700  30.650  1.00  0.00    -0.269 OA
BRANCH  35  38
ATOM     38  C   UNL A   1      36.799  29.932  29.237  1.00  0.00     0.039 A 
ATOM     39  C   UNL A   1      37.029  28.953  30.210  1.00  0.00     0.014 A 
ATOM     40  C   UNL A   1      37.530  29.927  28.053  1.00  0.00     0.014 A 
ATOM     41  C   UNL A   1      38.165  28.155  30.117  1.00  0.00     0.010 A 
ATOM     42  C   UNL A   1      38.707  29.206  28.002  1.00  0.00     0.010 A 
ATOM     43  C   UNL A   1      39.063  28.385  29.075  1.00  0.00    -0.014 A 
BRANCH  43  44
ATOM     44  C   UNL A   1      40.441  27.913  29.104  1.00  0.00     0.031 A 
ATOM     45  C   UNL A   1      40.786  26.568  28.606  1.00  0.00     0.074 A 
ATOM     46  C   UNL A   1      41.411  28.733  29.569  1.00  0.00     0.049 A 
ATOM     47  N   UNL A   1      41.847  25.920  28.949  1.00  0.00    -0.248 NA
ATOM     48  C   UNL A   1      39.896  25.797  27.746  1.00  0.00     0.031 C 
ATOM     49  C   UNL A   1      42.855  28.549  29.459  1.00  0.00     0.029 A 
ATOM     50  N   UNL A   1      41.261  29.804  30.461  1.00  0.00    -0.354 N 
ATOM     51  C   UNL A   1      41.933  24.802  28.151  1.00  0.00     0.074 A 
ATOM     52  C   UNL A   1      40.632  24.701  27.541  1.00  0.00     0.031 C 
ATOM     53  C   UNL A   1      43.453  29.240  30.441  1.00  0.00     0.029 A 
ATOM     54  C   UNL A   1      42.404  29.777  31.291  1.00  0.00     0.049 A 
ATOM     55  H   UNL A   1      40.514  30.443  30.502  1.00  0.00     0.167 HD
ATOM     56  C   UNL A   1      43.146  24.196  28.005  1.00  0.00     0.037 A 
ATOM     57  C   UNL A   1      42.310  29.577  32.637  1.00  0.00     0.037 A 
ATOM     58  C   UNL A   1      44.100  24.703  29.000  1.00  0.00     0.049 A 
ATOM     59  C   UNL A   1      43.071  28.374  33.138  1.00  0.00     0.074 A 
ATOM     60  C   UNL A   1      45.171  25.579  28.930  1.00  0.00     0.029 A 
ATOM     61  N   UNL A   1      43.845  24.504  30.356  1.00  0.00    -0.354 N 
ATOM     62  N   UNL A   1      43.489  27.407  32.370  1.00  0.00    -0.248 NA
ATOM     63  C   UNL A   1      43.391  28.147  34.545  1.00  0.00     0.031 C 
ATOM     64  C   UNL A   1      45.510  25.965  30.253  1.00  0.00     0.029 A 
ATOM     65  C   UNL A   1      44.669  25.297  31.129  1.00  0.00     0.049 A 
ATOM     66  H   UNL A   1      43.171  23.882  30.713  1.00  0.00     0.167 HD
ATOM     67  C   UNL A   1      44.088  26.440  33.134  1.00  0.00     0.074 A 
ATOM     68  C   UNL A   1      44.026  26.963  34.487  1.00  0.00     0.031 C 
ATOM     69  C   UNL A   1      44.567  25.286  32.583  1.00  0.00     0.037 A 
BRANCH  56  70
ATOM     70  C   UNL A   1      43.573  23.335  26.819  1.00  0.00     0.057 A 
ATOM     71  C   UNL A   1      43.109  22.005  26.707  1.00  0.00     0.134 A 
ATOM     72  C   UNL A   1      44.513  23.681  25.828  1.00  0.00     0.134 A 
ATOM     73  F   UNL A   1      42.173  21.513  27.530  1.00  0.00    -0.206 F 
ATOM     74  C   UNL A   1      43.592  21.094  25.751  1.00  0.00     0.040 A 
ATOM     75  C   UNL A   1      44.991  22.787  24.857  1.00  0.00     0.040 A 
ATOM     76  F   UNL A   1      45.052  24.896  25.730  1.00  0.00    -0.206 F 
ATOM     77  C   UNL A   1      44.546  21.481  24.826  1.00  0.00     0.006 A 
ENDBRANCH  56  70
BRANCH  57  78
ATOM     78  C   UNL A   1      41.055  30.107  33.228  1.00  0.00     0.057 A 
ATOM     79  C   UNL A   1      40.962  31.488  33.471  1.00  0.00     0.134 A 
ATOM     80  C   UNL A   1      39.861  29.382  33.201  1.00  0.00     0.134 A 
ATOM     81  F   UNL A   1      42.074  32.239  33.514  1.00  0.00    -0.206 F 
ATOM     82  C   UNL A   1      39.731  32.140  33.566  1.00  0.00     0.040 A 
ATOM     83  C   UNL A   1      38.622  30.023  33.309  1.00  0.00     0.040 A 
ATOM     84  F   UNL A   1      39.868  28.064  32.954  1.00  0.00    -0.206 F 
ATOM     85  C   UNL A   1      38.553  31.409  33.451  1.00  0.00     0.006 A 
ENDBRANCH  57  78
BRANCH  69  86
ATOM     86  C   UNL A   1      45.055  24.071  33.339  1.00  0.00     0.057 A 
ATOM     87  C   UNL A   1      46.308  23.972  33.964  1.00  0.00     0.134 A 
ATOM     88  C   UNL A   1      44.182  22.985  33.581  1.00  0.00     0.134 A 
ATOM     89  F   UNL A   1      47.196  24.972  33.919  1.00  0.00    -0.206 F 
ATOM     90  C   UNL A   1      46.685  22.854  34.723  1.00  0.00     0.040 A 
ATOM     91  C   UNL A   1      44.529  21.891  34.380  1.00  0.00     0.040 A 
ATOM     92  F   UNL A   1      42.943  22.949  33.070  1.00  0.00    -0.206 F 
ATOM     93  C   UNL A   1      45.791  21.814  34.943  1.00  0.00     0.006 A 
ENDBRANCH  69  86
ENDBRANCH  43  44
ENDBRANCH  35  38
ENDBRANCH  33  34
ENDBRANCH  32  33
ENDBRANCH   1  32
TORSDOF 13
ENDMDL
MODEL 2
REMARK VINA RESULT:     -14.4      2.460      4.232
REMARK SMILES Cc1ccc([C@@]23C[C@@H]4C[C@@H](C[C@@](C(=O)N5CCC(C(=O)NCCCCNC(=O)c6ccc(-c7c8nc(c(-c9c(F)cccc9F)c9ccc([nH]9)c(-c9c(F)cccc9F)c9nc(c(-c%10c(F)cccc%10F)c%10ccc7[nH]%10)C=C9)C=C8)cc6)CC5)(C4)C2)C3)cc1
REMARK SMILES IDX 23 1 22 2 21 3 19 4 20 5 18 7 13 8 14 9 15 10 16 11 84 12
REMARK SMILES IDX 17 13 83 14 12 15 6 16 7 17 86 18 87 19 8 20 10 21 9 22
REMARK SMILES IDX 85 23 11 24 5 25 1 26 2 27 3 28 89 29 4 30 88 31 24 32 25 33
REMARK SMILES IDX 26 34 27 35 28 37 29 38 30 39 82 40 31 41 81 42 32 43 33 44
REMARK SMILES IDX 34 45 75 46 35 47 80 48 74 49 76 50 36 51 79 52 73 53 72 54
REMARK SMILES IDX 37 56 63 57 46 58 62 59 47 60 50 61 61 62 77 63 48 64 49 65
REMARK SMILES IDX 60 67 78 68 51 69 38 70 39 71 44 72 40 73 41 74 43 75 45 76
REMARK SMILES IDX 42 77 64 78 65 79 70 80 66 81 67 82 69 83 71 84 68 85 52 86
REMARK SMILES IDX 53 87 58 88 54 89 55 90 57 91 59 92 56 93
REMARK H PARENT 21 6 26 36 76 55 50 66
REMARK Flexibility Score: inf
ROOT
ATOM      1  C   UNL A   1      33.651  33.208  27.626  1.00  0.00     0.023 C 
ENDROOT
BRANCH   1   2
ATOM      2  C   UNL A   1      33.017  31.809  27.641  1.00  0.00     0.116 C 
BRANCH   2   3
ATOM      3  N   UNL A   1      33.988  30.736  27.823  1.00  0.00    -0.356 N 
ATOM      4  C   UNL A   1      34.110  29.508  27.247  1.00  0.00     0.223 C 
ATOM      5  O   UNL A   1      35.065  28.807  27.592  1.00  0.00    -0.275 OA
ATOM      6  H   UNL A   1      34.686  30.937  28.488  1.00  0.00     0.163 HD
BRANCH   4   7
ATOM      7  C   UNL A   1      33.116  28.991  26.219  1.00  0.00     0.082 C 
ATOM      8  C   UNL A   1      31.919  25.245  25.802  1.00  0.00     0.228 C 
ATOM      9  O   UNL A   1      31.402  24.947  26.883  1.00  0.00    -0.274 OA
ATOM     10  N   UNL A   1      31.897  26.564  25.352  1.00  0.00    -0.342 N 
ATOM     11  C   UNL A   1      31.028  27.520  26.023  1.00  0.00     0.120 C 
ATOM     12  C   UNL A   1      32.824  27.214  24.428  1.00  0.00     0.120 C 
ATOM     13  C   UNL A   1      31.839  28.461  26.901  1.00  0.00     0.035 C 
ATOM     14  C   UNL A   1      33.810  28.047  25.227  1.00  0.00     0.035 C 
BRANCH   8  15
ATOM     15  C   UNL A   1      32.554  24.138  24.929  1.00  0.00     0.051 C 
ATOM     16  C   UNL A   1      34.765  22.874  24.540  1.00  0.00    -0.003 C 
ATOM     17  C   UNL A   1      33.935  21.567  24.723  1.00  0.00     0.015 C 
ATOM     18  C   UNL A   1      34.035  23.990  25.320  1.00  0.00     0.028 C 
ATOM     19  C   UNL A   1      34.731  23.279  23.045  1.00  0.00     0.015 C 
ATOM     20  C   UNL A   1      32.496  21.727  24.196  1.00  0.00    -0.009 C 
ATOM     21  C   UNL A   1      33.275  23.471  22.569  1.00  0.00    -0.009 C 
ATOM     22  C   UNL A   1      32.529  22.137  22.718  1.00  0.00     0.007 C 
ATOM     23  C   UNL A   1      31.772  22.811  25.001  1.00  0.00     0.020 C 
ATOM     24  C   UNL A   1      32.567  24.549  23.422  1.00  0.00     0.020 C 
BRANCH  16  25
ATOM     25  C   UNL A   1      36.207  22.689  25.046  1.00  0.00    -0.042 A 
ATOM     26  C   UNL A   1      40.185  22.074  26.681  1.00  0.00     0.044 C 
ATOM     27  C   UNL A   1      38.824  22.278  26.089  1.00  0.00    -0.051 A 
ATOM     28  C   UNL A   1      38.179  23.501  26.257  1.00  0.00     0.004 A 
ATOM     29  C   UNL A   1      38.172  21.269  25.376  1.00  0.00     0.004 A 
ATOM     30  C   UNL A   1      36.899  23.703  25.737  1.00  0.00     0.004 A 
ATOM     31  C   UNL A   1      36.886  21.474  24.858  1.00  0.00     0.004 A 
ENDBRANCH  16  25
ENDBRANCH   8  15
ENDBRANCH   4   7
ENDBRANCH   2   3
ENDBRANCH   1   2
BRANCH   1  32
ATOM     32  C   UNL A   1      32.919  34.278  28.439  1.00  0.00     0.023 C 
BRANCH  32  33
ATOM     33  C   UNL A   1      33.810  35.402  28.946  1.00  0.00     0.116 C 
BRANCH  33  34
ATOM     34  N   UNL A   1      34.028  35.406  30.387  1.00  0.00    -0.352 N 
ATOM     35  C   UNL A   1      34.758  34.520  31.163  1.00  0.00     0.251 C 
ATOM     36  H   UNL A   1      33.595  36.142  30.879  1.00  0.00     0.163 HD
ATOM     37  O   UNL A   1      34.799  34.653  32.378  1.00  0.00    -0.269 OA
BRANCH  35  38
ATOM     38  C   UNL A   1      35.604  33.496  30.498  1.00  0.00     0.039 A 
ATOM     39  C   UNL A   1      35.586  32.200  31.025  1.00  0.00     0.014 A 
ATOM     40  C   UNL A   1      36.552  33.850  29.542  1.00  0.00     0.014 A 
ATOM     41  C   UNL A   1      36.674  31.360  30.804  1.00  0.00     0.010 A 
ATOM     42  C   UNL A   1      37.676  33.060  29.398  1.00  0.00     0.010 A 
ATOM     43  C   UNL A   1      37.770  31.854  30.097  1.00  0.00    -0.014 A 
BRANCH  43  44
ATOM     44  C   UNL A   1      39.089  31.237  30.156  1.00  0.00     0.031 A 
ATOM     45  C   UNL A   1      39.332  29.923  29.533  1.00  0.00     0.074 A 
ATOM     46  C   UNL A   1      40.100  31.895  30.766  1.00  0.00     0.049 A 
ATOM     47  N   UNL A   1      40.295  29.132  29.864  1.00  0.00    -0.248 NA
ATOM     48  C   UNL A   1      38.432  29.345  28.541  1.00  0.00     0.031 C 
ATOM     49  C   UNL A   1      41.523  31.570  30.724  1.00  0.00     0.029 A 
ATOM     50  N   UNL A   1      39.996  32.877  31.762  1.00  0.00    -0.354 N 
ATOM     51  C   UNL A   1      40.326  28.101  28.954  1.00  0.00     0.074 A 
ATOM     52  C   UNL A   1      39.068  28.204  28.259  1.00  0.00     0.031 C 
ATOM     53  C   UNL A   1      42.115  32.087  31.811  1.00  0.00     0.029 A 
ATOM     54  C   UNL A   1      41.068  32.641  32.650  1.00  0.00     0.049 A 
ATOM     55  H   UNL A   1      39.315  33.585  31.829  1.00  0.00     0.167 HD
ATOM     56  C   UNL A   1      41.479  27.386  28.813  1.00  0.00     0.037 A 
ATOM     57  C   UNL A   1      40.859  32.313  33.957  1.00  0.00     0.037 A 
ATOM     58  C   UNL A   1      42.405  27.682  29.914  1.00  0.00     0.049 A 
ATOM     59  C   UNL A   1      41.458  30.989  34.367  1.00  0.00     0.074 A 
ATOM     60  C   UNL A   1      43.561  28.440  30.006  1.00  0.00     0.029 A 
ATOM     61  N   UNL A   1      42.037  27.370  31.221  1.00  0.00    -0.354 N 
ATOM     62  N   UNL A   1      41.831  30.068  33.522  1.00  0.00    -0.248 NA
ATOM     63  C   UNL A   1      41.654  30.584  35.756  1.00  0.00     0.031 C 
ATOM     64  C   UNL A   1      43.842  28.647  31.382  1.00  0.00     0.029 A 
ATOM     65  C   UNL A   1      42.879  27.986  32.126  1.00  0.00     0.049 A 
ATOM     66  H   UNL A   1      41.280  26.790  31.466  1.00  0.00     0.167 HD
ATOM     67  C   UNL A   1      42.275  28.968  34.208  1.00  0.00     0.074 A 
ATOM     68  C   UNL A   1      42.169  29.351  35.604  1.00  0.00     0.031 C 
ATOM     69  C   UNL A   1      42.674  27.833  33.561  1.00  0.00     0.037 A 
BRANCH  56  70
ATOM     70  C   UNL A   1      41.900  26.614  27.567  1.00  0.00     0.057 A 
ATOM     71  C   UNL A   1      42.247  25.248  27.665  1.00  0.00     0.134 A 
ATOM     72  C   UNL A   1      42.110  27.149  26.280  1.00  0.00     0.134 A 
ATOM     73  F   UNL A   1      42.069  24.554  28.797  1.00  0.00    -0.206 F 
ATOM     74  C   UNL A   1      42.814  24.514  26.608  1.00  0.00     0.040 A 
ATOM     75  C   UNL A   1      42.658  26.424  25.211  1.00  0.00     0.040 A 
ATOM     76  F   UNL A   1      41.816  28.409  25.961  1.00  0.00    -0.206 F 
ATOM     77  C   UNL A   1      43.032  25.105  25.376  1.00  0.00     0.006 A 
ENDBRANCH  56  70
BRANCH  57  78
ATOM     78  C   UNL A   1      39.625  32.909  34.528  1.00  0.00     0.057 A 
ATOM     79  C   UNL A   1      38.448  32.142  34.526  1.00  0.00     0.134 A 
ATOM     80  C   UNL A   1      39.665  34.013  35.385  1.00  0.00     0.134 A 
ATOM     81  F   UNL A   1      38.346  31.072  33.720  1.00  0.00    -0.206 F 
ATOM     82  C   UNL A   1      37.403  32.388  35.417  1.00  0.00     0.040 A 
ATOM     83  C   UNL A   1      38.617  34.278  36.274  1.00  0.00     0.040 A 
ATOM     84  F   UNL A   1      40.762  34.780  35.459  1.00  0.00    -0.206 F 
ATOM     85  C   UNL A   1      37.501  33.442  36.321  1.00  0.00     0.006 A 
ENDBRANCH  57  78
BRANCH  69  86
ATOM     86  C   UNL A   1      42.982  26.501  34.205  1.00  0.00     0.057 A 
ATOM     87  C   UNL A   1      42.047  25.714  34.895  1.00  0.00     0.134 A 
ATOM     88  C   UNL A   1      44.244  25.893  34.014  1.00  0.00     0.134 A 
ATOM     89  F   UNL A   1      40.778  26.110  35.054  1.00  0.00    -0.206 F 
ATOM     90  C   UNL A   1      42.360  24.446  35.408  1.00  0.00     0.040 A 
ATOM     91  C   UNL A   1      44.550  24.608  34.473  1.00  0.00     0.040 A 
ATOM     92  F   UNL A   1      45.232  26.512  33.351  1.00  0.00    -0.206 F 
ATOM     93  C   UNL A   1      43.611  23.883  35.187  1.00  0.00     0.006 A 
ENDBRANCH  69  86
ENDBRANCH  43  44
ENDBRANCH  35  38
ENDBRANCH  33  34
ENDBRANCH  32  33
ENDBRANCH   1  32
TORSDOF 13
ENDMDL
MODEL 3
REMARK VINA RESULT:     -14.3      1.772      2.888
REMARK SMILES Cc1ccc([C@@]23C[C@@H]4C[C@@H](C[C@@](C(=O)N5CCC(C(=O)NCCCCNC(=O)c6ccc(-c7c8nc(c(-c9c(F)cccc9F)c9ccc([nH]9)c(-c9c(F)cccc9F)c9nc(c(-c%10c(F)cccc%10F)c%10ccc7[nH]%10)C=C9)C=C8)cc6)CC5)(C4)C2)C3)cc1
REMARK SMILES IDX 23 1 22 2 21 3 19 4 20 5 18 7 13 8 14 9 15 10 16 11 84 12
REMARK SMILES IDX 17 13 83 14 12 15 6 16 7 17 86 18 87 19 8 20 10 21 9 22
REMARK SMILES IDX 85 23 11 24 5 25 1 26 2 27 3 28 89 29 4 30 88 31 24 32 25 33
REMARK SMILES IDX 26 34 27 35 28 37 29 38 30 39 82 40 31 41 81 42 32 43 33 44
REMARK SMILES IDX 34 45 75 46 35 47 80 48 74 49 76 50 36 51 79 52 73 53 72 54
REMARK SMILES IDX 37 56 63 57 46 58 62 59 47 60 50 61 61 62 77 63 48 64 49 65
REMARK SMILES IDX 60 67 78 68 51 69 38 70 39 71 44 72 40 73 41 74 43 75 45 76
REMARK SMILES IDX 42 77 64 78 65 79 70 80 66 81 67 82 69 83 71 84 68 85 52 86
REMARK SMILES IDX 53 87 58 88 54 89 55 90 57 91 59 92 56 93
REMARK H PARENT 21 6 26 36 76 55 50 66
REMARK Flexibility Score: inf
ROOT
ATOM      1  C   UNL A   1      33.681  33.150  28.372  1.00  0.00     0.023 C 
ENDROOT
BRANCH   1   2
ATOM      2  C   UNL A   1      33.257  31.886  27.608  1.00  0.00     0.116 C 
BRANCH   2   3
ATOM      3  N   UNL A   1      34.157  30.757  27.813  1.00  0.00    -0.356 N 
ATOM      4  C   UNL A   1      34.187  29.505  27.278  1.00  0.00     0.223 C 
ATOM      5  O   UNL A   1      35.099  28.753  27.634  1.00  0.00    -0.275 OA
ATOM      6  H   UNL A   1      34.877  30.933  28.461  1.00  0.00     0.163 HD
BRANCH   4   7
ATOM      7  C   UNL A   1      33.144  29.022  26.282  1.00  0.00     0.082 C 
ATOM      8  C   UNL A   1      31.872  25.303  25.848  1.00  0.00     0.228 C 
ATOM      9  O   UNL A   1      31.395  24.992  26.943  1.00  0.00    -0.274 OA
ATOM     10  N   UNL A   1      31.853  26.630  25.423  1.00  0.00    -0.342 N 
ATOM     11  C   UNL A   1      31.027  27.586  26.146  1.00  0.00     0.120 C 
ATOM     12  C   UNL A   1      32.752  27.283  24.473  1.00  0.00     0.120 C 
ATOM     13  C   UNL A   1      31.888  28.499  27.007  1.00  0.00     0.035 C 
ATOM     14  C   UNL A   1      33.782  28.086  25.246  1.00  0.00     0.035 C 
BRANCH   8  15
ATOM     15  C   UNL A   1      32.453  24.203  24.930  1.00  0.00     0.051 C 
ATOM     16  C   UNL A   1      34.611  22.871  24.469  1.00  0.00    -0.003 C 
ATOM     17  C   UNL A   1      33.734  21.590  24.620  1.00  0.00     0.015 C 
ATOM     18  C   UNL A   1      33.933  23.986  25.295  1.00  0.00     0.028 C 
ATOM     19  C   UNL A   1      34.572  23.327  22.988  1.00  0.00     0.015 C 
ATOM     20  C   UNL A   1      32.295  21.821  24.118  1.00  0.00    -0.009 C 
ATOM     21  C   UNL A   1      33.119  23.589  22.540  1.00  0.00    -0.009 C 
ATOM     22  C   UNL A   1      32.325  22.280  22.654  1.00  0.00     0.007 C 
ATOM     23  C   UNL A   1      31.623  22.905  24.969  1.00  0.00     0.020 C 
ATOM     24  C   UNL A   1      32.463  24.663  23.438  1.00  0.00     0.020 C 
BRANCH  16  25
ATOM     25  C   UNL A   1      36.051  22.615  24.948  1.00  0.00    -0.042 A 
ATOM     26  C   UNL A   1      40.025  21.828  26.519  1.00  0.00     0.044 C 
ATOM     27  C   UNL A   1      38.663  22.088  25.949  1.00  0.00    -0.051 A 
ATOM     28  C   UNL A   1      38.124  23.370  26.019  1.00  0.00     0.004 A 
ATOM     29  C   UNL A   1      37.907  21.075  25.355  1.00  0.00     0.004 A 
ATOM     30  C   UNL A   1      36.846  23.628  25.519  1.00  0.00     0.004 A 
ATOM     31  C   UNL A   1      36.624  21.336  24.857  1.00  0.00     0.004 A 
ENDBRANCH  16  25
ENDBRANCH   8  15
ENDBRANCH   4   7
ENDBRANCH   2   3
ENDBRANCH   1   2
BRANCH   1  32
ATOM     32  C   UNL A   1      35.051  33.721  28.002  1.00  0.00     0.023 C 
BRANCH  32  33
ATOM     33  C   UNL A   1      36.203  33.189  28.843  1.00  0.00     0.116 C 
BRANCH  33  34
ATOM     34  N   UNL A   1      35.839  32.795  30.197  1.00  0.00    -0.352 N 
ATOM     35  C   UNL A   1      36.032  31.580  30.837  1.00  0.00     0.251 C 
ATOM     36  H   UNL A   1      35.392  33.490  30.735  1.00  0.00     0.163 HD
ATOM     37  O   UNL A   1      35.620  31.410  31.975  1.00  0.00    -0.269 OA
BRANCH  35  38
ATOM     38  C   UNL A   1      36.865  30.539  30.183  1.00  0.00     0.039 A 
ATOM     39  C   UNL A   1      37.030  29.324  30.858  1.00  0.00     0.014 A 
ATOM     40  C   UNL A   1      37.642  30.829  29.065  1.00  0.00     0.014 A 
ATOM     41  C   UNL A   1      38.146  28.539  30.584  1.00  0.00     0.010 A 
ATOM     42  C   UNL A   1      38.800  30.106  28.855  1.00  0.00     0.010 A 
ATOM     43  C   UNL A   1      39.091  29.011  29.673  1.00  0.00    -0.014 A 
BRANCH  43  44
ATOM     44  C   UNL A   1      40.453  28.499  29.613  1.00  0.00     0.031 A 
ATOM     45  C   UNL A   1      40.734  27.176  29.024  1.00  0.00     0.074 A 
ATOM     46  C   UNL A   1      41.468  29.261  30.081  1.00  0.00     0.049 A 
ATOM     47  N   UNL A   1      41.787  26.477  29.282  1.00  0.00    -0.248 NA
ATOM     48  C   UNL A   1      39.784  26.483  28.162  1.00  0.00     0.031 C 
ATOM     49  C   UNL A   1      42.899  29.042  29.898  1.00  0.00     0.029 A 
ATOM     50  N   UNL A   1      41.390  30.282  31.040  1.00  0.00    -0.354 N 
ATOM     51  C   UNL A   1      41.804  25.407  28.419  1.00  0.00     0.074 A 
ATOM     52  C   UNL A   1      40.476  25.379  27.861  1.00  0.00     0.031 C 
ATOM     53  C   UNL A   1      43.560  29.656  30.891  1.00  0.00     0.029 A 
ATOM     54  C   UNL A   1      42.566  30.172  31.815  1.00  0.00     0.049 A 
ATOM     55  H   UNL A   1      40.666  30.939  31.150  1.00  0.00     0.167 HD
ATOM     56  C   UNL A   1      42.990  24.775  28.184  1.00  0.00     0.037 A 
ATOM     57  C   UNL A   1      42.522  29.896  33.150  1.00  0.00     0.037 A 
ATOM     58  C   UNL A   1      44.000  25.195  29.163  1.00  0.00     0.049 A 
ATOM     59  C   UNL A   1      43.265  28.645  33.547  1.00  0.00     0.074 A 
ATOM     60  C   UNL A   1      45.095  26.041  29.096  1.00  0.00     0.029 A 
ATOM     61  N   UNL A   1      43.798  24.923  30.515  1.00  0.00    -0.354 N 
ATOM     62  N   UNL A   1      43.620  27.712  32.707  1.00  0.00    -0.248 NA
ATOM     63  C   UNL A   1      43.638  28.326  34.923  1.00  0.00     0.031 C 
ATOM     64  C   UNL A   1      45.502  26.339  30.423  1.00  0.00     0.029 A 
ATOM     65  C   UNL A   1      44.679  25.646  31.295  1.00  0.00     0.049 A 
ATOM     66  H   UNL A   1      43.120  24.302  30.865  1.00  0.00     0.167 HD
ATOM     67  C   UNL A   1      44.220  26.685  33.387  1.00  0.00     0.074 A 
ATOM     68  C   UNL A   1      44.232  27.129  34.769  1.00  0.00     0.031 C 
ATOM     69  C   UNL A   1      44.638  25.552  32.749  1.00  0.00     0.037 A 
BRANCH  56  70
ATOM     70  C   UNL A   1      43.338  23.974  26.933  1.00  0.00     0.057 A 
ATOM     71  C   UNL A   1      43.402  22.563  26.991  1.00  0.00     0.134 A 
ATOM     72  C   UNL A   1      43.738  24.497  25.687  1.00  0.00     0.134 A 
ATOM     73  F   UNL A   1      43.012  21.883  28.078  1.00  0.00    -0.206 F 
ATOM     74  C   UNL A   1      43.887  21.766  25.940  1.00  0.00     0.040 A 
ATOM     75  C   UNL A   1      44.208  23.711  24.623  1.00  0.00     0.040 A 
ATOM     76  F   UNL A   1      43.721  25.799  25.407  1.00  0.00    -0.206 F 
ATOM     77  C   UNL A   1      44.303  22.340  24.751  1.00  0.00     0.006 A 
ENDBRANCH  56  70
BRANCH  57  78
ATOM     78  C   UNL A   1      41.312  30.427  33.826  1.00  0.00     0.057 A 
ATOM     79  C   UNL A   1      41.301  31.777  34.215  1.00  0.00     0.134 A 
ATOM     80  C   UNL A   1      40.078  29.775  33.753  1.00  0.00     0.134 A 
ATOM     81  F   UNL A   1      42.454  32.458  34.309  1.00  0.00    -0.206 F 
ATOM     82  C   UNL A   1      40.111  32.481  34.410  1.00  0.00     0.040 A 
ATOM     83  C   UNL A   1      38.879  30.466  33.960  1.00  0.00     0.040 A 
ATOM     84  F   UNL A   1      40.006  28.492  33.368  1.00  0.00    -0.206 F 
ATOM     85  C   UNL A   1      38.891  31.831  34.249  1.00  0.00     0.006 A 
ENDBRANCH  57  78
BRANCH  69  86
ATOM     86  C   UNL A   1      45.119  24.281  33.412  1.00  0.00     0.057 A 
ATOM     87  C   UNL A   1      46.417  24.082  33.906  1.00  0.00     0.134 A 
ATOM     88  C   UNL A   1      44.207  23.240  33.702  1.00  0.00     0.134 A 
ATOM     89  F   UNL A   1      47.359  25.029  33.807  1.00  0.00    -0.206 F 
ATOM     90  C   UNL A   1      46.795  22.914  34.586  1.00  0.00     0.040 A 
ATOM     91  C   UNL A   1      44.559  22.096  34.426  1.00  0.00     0.040 A 
ATOM     92  F   UNL A   1      42.924  23.298  33.316  1.00  0.00    -0.206 F 
ATOM     93  C   UNL A   1      45.863  21.921  34.859  1.00  0.00     0.006 A 
ENDBRANCH  69  86
ENDBRANCH  43  44
ENDBRANCH  35  38
ENDBRANCH  33  34
ENDBRANCH  32  33
ENDBRANCH   1  32
TORSDOF 13
ENDMDL
