MODEL 1
REMARK VINA RESULT:     -11.6      0.000      0.000
REMARK SMILES N#Cc1cnc2cc(C(=O)NCCCCNC(=O)c3ccc(-c4c5nc(c(-c6c(F)cccc6F)c6ccc([nH]6)c(-c6c(F)cccc6F)c6nc(c(-c7c(F)cccc7F)c7ccc4[nH]7)C=C6)C=C5)cc3)[nH]c2c1
REMARK SMILES IDX 14 1 13 2 12 3 11 4 9 5 10 6 8 8 3 9 4 10 75 11 5 12 74 13
REMARK SMILES IDX 6 14 73 15 7 16 2 18 1 19 15 20 16 21 17 22 18 24 19 25
REMARK SMILES IDX 20 26 72 27 21 28 71 29 22 30 23 31 24 32 65 33 25 34 70 35
REMARK SMILES IDX 64 36 66 37 26 38 69 39 63 40 62 41 27 43 53 44 36 45 52 46
REMARK SMILES IDX 37 47 40 48 51 49 67 50 38 51 39 52 50 54 68 55 41 56 28 57
REMARK SMILES IDX 29 58 34 59 30 60 31 61 33 62 35 63 32 64 54 65 55 66 60 67
REMARK SMILES IDX 56 68 57 69 59 70 61 71 58 72 42 73 43 74 48 75 44 76 45 77
REMARK SMILES IDX 47 78 49 79 46 80
REMARK H PARENT 11 7 73 17 16 23 66 42 40 53
REMARK Flexibility Score: inf
ROOT
ATOM      1  C   UNL A   1      42.275  19.914  27.194  1.00  0.00     0.023 C 
ENDROOT
BRANCH   1   2
ATOM      2  C   UNL A   1      41.152  20.906  27.522  1.00  0.00     0.023 C 
BRANCH   2   3
ATOM      3  C   UNL A   1      40.072  21.073  26.450  1.00  0.00     0.116 C 
BRANCH   3   4
ATOM      4  N   UNL A   1      39.554  22.425  26.340  1.00  0.00    -0.351 N 
ATOM      5  C   UNL A   1      38.327  22.925  25.982  1.00  0.00     0.267 C 
ATOM      6  O   UNL A   1      38.201  24.151  26.027  1.00  0.00    -0.268 OA
ATOM      7  H   UNL A   1      40.214  23.120  26.566  1.00  0.00     0.163 HD
BRANCH   5   8
ATOM      8  C   UNL A   1      37.241  22.094  25.505  1.00  0.00     0.107 A 
ATOM      9  C   UNL A   1      34.722  18.395  24.572  1.00  0.00     0.072 A 
ATOM     10  C   UNL A   1      33.753  19.362  24.810  1.00  0.00     0.131 A 
ATOM     11  C   UNL A   1      36.074  18.757  24.584  1.00  0.00     0.049 A 
ATOM     12  N   UNL A   1      33.993  20.671  25.037  1.00  0.00    -0.253 NA
ATOM     13  C   UNL A   1      36.337  20.096  24.883  1.00  0.00     0.066 A 
ATOM     14  C   UNL A   1      35.303  21.000  25.082  1.00  0.00     0.089 A 
ATOM     15  N   UNL A   1      37.503  20.801  25.058  1.00  0.00    -0.349 N 
ATOM     16  C   UNL A   1      35.875  22.258  25.352  1.00  0.00     0.062 A 
ATOM     17  H   UNL A   1      38.403  20.441  24.889  1.00  0.00     0.167 HD
BRANCH   9  18
ATOM     18  C   UNL A   1      34.320  17.042  24.333  1.00  0.00     0.101 C 
ATOM     19  N   UNL A   1      34.007  15.949  24.129  1.00  0.00    -0.192 NA
ENDBRANCH   9  18
ENDBRANCH   5   8
ENDBRANCH   3   4
ENDBRANCH   2   3
ENDBRANCH   1   2
BRANCH   1  20
ATOM     20  C   UNL A   1      42.301  19.425  25.751  1.00  0.00     0.116 C 
BRANCH  20  21
ATOM     21  N   UNL A   1      43.641  19.170  25.227  1.00  0.00    -0.352 N 
ATOM     22  C   UNL A   1      44.535  20.105  24.728  1.00  0.00     0.251 C 
ATOM     23  H   UNL A   1      43.941  18.233  25.227  1.00  0.00     0.163 HD
ATOM     24  O   UNL A   1      45.424  19.773  23.953  1.00  0.00    -0.269 OA
BRANCH  22  25
ATOM     25  C   UNL A   1      44.417  21.512  25.169  1.00  0.00     0.039 A 
ATOM     26  C   UNL A   1      43.463  22.379  24.633  1.00  0.00     0.014 A 
ATOM     27  C   UNL A   1      45.298  21.960  26.154  1.00  0.00     0.014 A 
ATOM     28  C   UNL A   1      43.383  23.679  25.138  1.00  0.00     0.010 A 
ATOM     29  C   UNL A   1      45.096  23.167  26.775  1.00  0.00     0.010 A 
ATOM     30  C   UNL A   1      44.195  24.064  26.226  1.00  0.00    -0.014 A 
BRANCH  30  31
ATOM     31  C   UNL A   1      43.940  25.302  26.967  1.00  0.00     0.031 A 
ATOM     32  C   UNL A   1      44.964  26.323  26.624  1.00  0.00     0.074 A 
ATOM     33  C   UNL A   1      42.826  25.551  27.704  1.00  0.00     0.049 A 
ATOM     34  N   UNL A   1      45.960  26.678  27.362  1.00  0.00    -0.248 NA
ATOM     35  C   UNL A   1      45.069  26.812  25.234  1.00  0.00     0.031 C 
ATOM     36  C   UNL A   1      41.650  24.686  27.869  1.00  0.00     0.029 A 
ATOM     37  N   UNL A   1      42.458  26.673  28.412  1.00  0.00    -0.354 N 
ATOM     38  C   UNL A   1      46.607  27.683  26.651  1.00  0.00     0.074 A 
ATOM     39  C   UNL A   1      46.192  27.535  25.286  1.00  0.00     0.031 C 
ATOM     40  C   UNL A   1      40.623  25.386  28.408  1.00  0.00     0.029 A 
ATOM     41  C   UNL A   1      41.097  26.703  28.783  1.00  0.00     0.049 A 
ATOM     42  H   UNL A   1      43.090  27.391  28.641  1.00  0.00     0.167 HD
ATOM     43  C   UNL A   1      47.077  28.766  27.331  1.00  0.00     0.037 A 
ATOM     44  C   UNL A   1      40.431  27.737  29.373  1.00  0.00     0.037 A 
ATOM     45  C   UNL A   1      47.116  28.469  28.742  1.00  0.00     0.049 A 
ATOM     46  C   UNL A   1      41.456  28.568  30.035  1.00  0.00     0.074 A 
ATOM     47  C   UNL A   1      47.851  27.660  29.582  1.00  0.00     0.029 A 
ATOM     48  N   UNL A   1      45.913  28.708  29.350  1.00  0.00    -0.354 N 
ATOM     49  N   UNL A   1      42.148  28.166  31.063  1.00  0.00    -0.248 NA
ATOM     50  C   UNL A   1      42.006  29.695  29.295  1.00  0.00     0.031 C 
ATOM     51  C   UNL A   1      46.986  27.332  30.669  1.00  0.00     0.029 A 
ATOM     52  C   UNL A   1      45.788  28.027  30.522  1.00  0.00     0.049 A 
ATOM     53  H   UNL A   1      45.220  29.304  28.984  1.00  0.00     0.167 HD
ATOM     54  C   UNL A   1      43.412  28.668  30.825  1.00  0.00     0.074 A 
ATOM     55  C   UNL A   1      43.233  29.715  29.819  1.00  0.00     0.031 C 
ATOM     56  C   UNL A   1      44.513  27.955  31.195  1.00  0.00     0.037 A 
BRANCH  43  57
ATOM     57  C   UNL A   1      46.914  30.205  26.868  1.00  0.00     0.057 A 
ATOM     58  C   UNL A   1      48.017  31.076  26.970  1.00  0.00     0.134 A 
ATOM     59  C   UNL A   1      45.679  30.846  26.641  1.00  0.00     0.134 A 
ATOM     60  F   UNL A   1      49.246  30.601  27.231  1.00  0.00    -0.206 F 
ATOM     61  C   UNL A   1      47.891  32.469  26.895  1.00  0.00     0.040 A 
ATOM     62  C   UNL A   1      45.548  32.232  26.519  1.00  0.00     0.040 A 
ATOM     63  F   UNL A   1      44.514  30.191  26.631  1.00  0.00    -0.206 F 
ATOM     64  C   UNL A   1      46.652  33.054  26.668  1.00  0.00     0.006 A 
ENDBRANCH  43  57
BRANCH  44  65
ATOM     65  C   UNL A   1      39.048  28.267  29.179  1.00  0.00     0.057 A 
ATOM     66  C   UNL A   1      38.148  28.383  30.259  1.00  0.00     0.134 A 
ATOM     67  C   UNL A   1      38.706  28.995  28.030  1.00  0.00     0.134 A 
ATOM     68  F   UNL A   1      38.387  27.751  31.418  1.00  0.00    -0.206 F 
ATOM     69  C   UNL A   1      37.019  29.218  30.219  1.00  0.00     0.040 A 
ATOM     70  C   UNL A   1      37.583  29.834  27.977  1.00  0.00     0.040 A 
ATOM     71  F   UNL A   1      39.507  28.995  26.955  1.00  0.00    -0.206 F 
ATOM     72  C   UNL A   1      36.746  29.967  29.081  1.00  0.00     0.006 A 
ENDBRANCH  44  65
BRANCH  56  73
ATOM     73  C   UNL A   1      44.388  26.940  32.284  1.00  0.00     0.057 A 
ATOM     74  C   UNL A   1      44.257  25.560  32.093  1.00  0.00     0.134 A 
ATOM     75  C   UNL A   1      44.619  27.392  33.588  1.00  0.00     0.134 A 
ATOM     76  F   UNL A   1      44.088  25.039  30.869  1.00  0.00    -0.206 F 
ATOM     77  C   UNL A   1      44.370  24.668  33.166  1.00  0.00     0.040 A 
ATOM     78  C   UNL A   1      44.769  26.514  34.657  1.00  0.00     0.040 A 
ATOM     79  F   UNL A   1      44.783  28.705  33.826  1.00  0.00    -0.206 F 
ATOM     80  C   UNL A   1      44.647  25.145  34.448  1.00  0.00     0.006 A 
ENDBRANCH  56  73
ENDBRANCH  30  31
ENDBRANCH  22  25
ENDBRANCH  20  21
ENDBRANCH   1  20
TORSDOF 12
ENDMDL
MODEL 2
REMARK VINA RESULT:     -11.4      1.123      1.610
REMARK SMILES N#Cc1cnc2cc(C(=O)NCCCCNC(=O)c3ccc(-c4c5nc(c(-c6c(F)cccc6F)c6ccc([nH]6)c(-c6c(F)cccc6F)c6nc(c(-c7c(F)cccc7F)c7ccc4[nH]7)C=C6)C=C5)cc3)[nH]c2c1
REMARK SMILES IDX 14 1 13 2 12 3 11 4 9 5 10 6 8 8 3 9 4 10 75 11 5 12 74 13
REMARK SMILES IDX 6 14 73 15 7 16 2 18 1 19 15 20 16 21 17 22 18 24 19 25
REMARK SMILES IDX 20 26 72 27 21 28 71 29 22 30 23 31 24 32 65 33 25 34 70 35
REMARK SMILES IDX 64 36 66 37 26 38 69 39 63 40 62 41 27 43 53 44 36 45 52 46
REMARK SMILES IDX 37 47 40 48 51 49 67 50 38 51 39 52 50 54 68 55 41 56 28 57
REMARK SMILES IDX 29 58 34 59 30 60 31 61 33 62 35 63 32 64 54 65 55 66 60 67
REMARK SMILES IDX 56 68 57 69 59 70 61 71 58 72 42 73 43 74 48 75 44 76 45 77
REMARK SMILES IDX 47 78 49 79 46 80
REMARK H PARENT 11 7 73 17 16 23 66 42 40 53
REMARK Flexibility Score: inf
ROOT
ATOM      1  C   UNL A   1      41.776  19.240  25.887  1.00  0.00     0.023 C 
ENDROOT
BRANCH   1   2
ATOM      2  C   UNL A   1      41.201  20.515  26.519  1.00  0.00     0.023 C 
BRANCH   2   3
ATOM      3  C   UNL A   1      39.753  20.851  26.150  1.00  0.00     0.116 C 
BRANCH   3   4
ATOM      4  N   UNL A   1      39.486  22.273  26.046  1.00  0.00    -0.351 N 
ATOM      5  C   UNL A   1      38.323  22.998  25.970  1.00  0.00     0.267 C 
ATOM      6  O   UNL A   1      38.444  24.225  25.926  1.00  0.00    -0.268 OA
ATOM      7  H   UNL A   1      40.300  22.827  26.024  1.00  0.00     0.163 HD
BRANCH   5   8
ATOM      8  C   UNL A   1      37.014  22.388  25.874  1.00  0.00     0.107 A 
ATOM      9  C   UNL A   1      32.470  21.889  25.877  1.00  0.00     0.072 A 
ATOM     10  C   UNL A   1      32.869  20.962  24.921  1.00  0.00     0.131 A 
ATOM     11  C   UNL A   1      33.438  22.604  26.591  1.00  0.00     0.049 A 
ATOM     12  N   UNL A   1      34.148  20.655  24.617  1.00  0.00    -0.253 NA
ATOM     13  C   UNL A   1      34.764  22.341  26.237  1.00  0.00     0.066 A 
ATOM     14  C   UNL A   1      35.073  21.378  25.287  1.00  0.00     0.089 A 
ATOM     15  N   UNL A   1      35.962  22.878  26.643  1.00  0.00    -0.349 N 
ATOM     16  C   UNL A   1      36.474  21.335  25.155  1.00  0.00     0.062 A 
ATOM     17  H   UNL A   1      36.063  23.523  27.379  1.00  0.00     0.167 HD
BRANCH   9  18
ATOM     18  C   UNL A   1      31.073  22.104  26.105  1.00  0.00     0.101 C 
ATOM     19  N   UNL A   1      29.949  22.282  26.303  1.00  0.00    -0.192 NA
ENDBRANCH   9  18
ENDBRANCH   5   8
ENDBRANCH   3   4
ENDBRANCH   2   3
ENDBRANCH   1   2
BRANCH   1  20
ATOM     20  C   UNL A   1      43.218  18.928  26.265  1.00  0.00     0.116 C 
BRANCH  20  21
ATOM     21  N   UNL A   1      44.132  18.839  25.128  1.00  0.00    -0.352 N 
ATOM     22  C   UNL A   1      44.537  19.874  24.299  1.00  0.00     0.251 C 
ATOM     23  H   UNL A   1      44.498  17.947  24.928  1.00  0.00     0.163 HD
ATOM     24  O   UNL A   1      44.947  19.648  23.167  1.00  0.00    -0.269 OA
BRANCH  22  25
ATOM     25  C   UNL A   1      44.494  21.260  24.814  1.00  0.00     0.039 A 
ATOM     26  C   UNL A   1      43.626  22.219  24.289  1.00  0.00     0.014 A 
ATOM     27  C   UNL A   1      45.356  21.592  25.859  1.00  0.00     0.014 A 
ATOM     28  C   UNL A   1      43.609  23.492  24.863  1.00  0.00     0.010 A 
ATOM     29  C   UNL A   1      45.207  22.775  26.539  1.00  0.00     0.010 A 
ATOM     30  C   UNL A   1      44.395  23.760  26.004  1.00  0.00    -0.014 A 
BRANCH  30  31
ATOM     31  C   UNL A   1      44.189  24.971  26.803  1.00  0.00     0.031 A 
ATOM     32  C   UNL A   1      45.251  25.967  26.503  1.00  0.00     0.074 A 
ATOM     33  C   UNL A   1      43.087  25.229  27.555  1.00  0.00     0.049 A 
ATOM     34  N   UNL A   1      46.262  26.249  27.253  1.00  0.00    -0.248 NA
ATOM     35  C   UNL A   1      45.372  26.516  25.137  1.00  0.00     0.031 C 
ATOM     36  C   UNL A   1      41.879  24.403  27.685  1.00  0.00     0.029 A 
ATOM     37  N   UNL A   1      42.764  26.330  28.316  1.00  0.00    -0.354 N 
ATOM     38  C   UNL A   1      46.945  27.261  26.587  1.00  0.00     0.074 A 
ATOM     39  C   UNL A   1      46.522  27.192  25.217  1.00  0.00     0.031 C 
ATOM     40  C   UNL A   1      40.882  25.116  28.259  1.00  0.00     0.029 A 
ATOM     41  C   UNL A   1      41.407  26.396  28.693  1.00  0.00     0.049 A 
ATOM     42  H   UNL A   1      43.424  27.012  28.575  1.00  0.00     0.167 HD
ATOM     43  C   UNL A   1      47.458  28.291  27.314  1.00  0.00     0.037 A 
ATOM     44  C   UNL A   1      40.782  27.425  29.334  1.00  0.00     0.037 A 
ATOM     45  C   UNL A   1      47.489  27.928  28.710  1.00  0.00     0.049 A 
ATOM     46  C   UNL A   1      41.841  28.185  30.029  1.00  0.00     0.074 A 
ATOM     47  C   UNL A   1      48.194  27.053  29.508  1.00  0.00     0.029 A 
ATOM     48  N   UNL A   1      46.298  28.184  29.333  1.00  0.00    -0.354 N 
ATOM     49  N   UNL A   1      42.519  27.709  31.034  1.00  0.00    -0.248 NA
ATOM     50  C   UNL A   1      42.432  29.322  29.339  1.00  0.00     0.031 C 
ATOM     51  C   UNL A   1      47.320  26.709  30.582  1.00  0.00     0.029 A 
ATOM     52  C   UNL A   1      46.149  27.455  30.473  1.00  0.00     0.049 A 
ATOM     53  H   UNL A   1      45.628  28.823  28.998  1.00  0.00     0.167 HD
ATOM     54  C   UNL A   1      43.800  28.173  30.815  1.00  0.00     0.074 A 
ATOM     55  C   UNL A   1      43.659  29.271  29.859  1.00  0.00     0.031 C 
ATOM     56  C   UNL A   1      44.874  27.401  31.146  1.00  0.00     0.037 A 
BRANCH  43  57
ATOM     57  C   UNL A   1      47.350  29.756  26.918  1.00  0.00     0.057 A 
ATOM     58  C   UNL A   1      48.456  30.599  27.145  1.00  0.00     0.134 A 
ATOM     59  C   UNL A   1      46.144  30.430  26.640  1.00  0.00     0.134 A 
ATOM     60  F   UNL A   1      49.656  30.090  27.468  1.00  0.00    -0.206 F 
ATOM     61  C   UNL A   1      48.355  31.997  27.137  1.00  0.00     0.040 A 
ATOM     62  C   UNL A   1      46.042  31.824  26.583  1.00  0.00     0.040 A 
ATOM     63  F   UNL A   1      44.973  29.799  26.512  1.00  0.00    -0.206 F 
ATOM     64  C   UNL A   1      47.145  32.615  26.855  1.00  0.00     0.006 A 
ENDBRANCH  43  57
BRANCH  44  65
ATOM     65  C   UNL A   1      39.421  28.017  29.170  1.00  0.00     0.057 A 
ATOM     66  C   UNL A   1      38.535  28.132  30.261  1.00  0.00     0.134 A 
ATOM     67  C   UNL A   1      39.099  28.796  28.049  1.00  0.00     0.134 A 
ATOM     68  F   UNL A   1      38.756  27.452  31.396  1.00  0.00    -0.206 F 
ATOM     69  C   UNL A   1      37.440  29.013  30.259  1.00  0.00     0.040 A 
ATOM     70  C   UNL A   1      38.010  29.680  28.034  1.00  0.00     0.040 A 
ATOM     71  F   UNL A   1      39.891  28.800  26.967  1.00  0.00    -0.206 F 
ATOM     72  C   UNL A   1      37.188  29.810  29.149  1.00  0.00     0.006 A 
ENDBRANCH  44  65
BRANCH  56  73
ATOM     73  C   UNL A   1      44.713  26.342  32.188  1.00  0.00     0.057 A 
ATOM     74  C   UNL A   1      44.448  24.991  31.934  1.00  0.00     0.134 A 
ATOM     75  C   UNL A   1      45.047  26.700  33.499  1.00  0.00     0.134 A 
ATOM     76  F   UNL A   1      44.172  24.555  30.697  1.00  0.00    -0.206 F 
ATOM     77  C   UNL A   1      44.534  24.035  32.953  1.00  0.00     0.040 A 
ATOM     78  C   UNL A   1      45.171  25.754  34.512  1.00  0.00     0.040 A 
ATOM     79  F   UNL A   1      45.340  27.978  33.794  1.00  0.00    -0.206 F 
ATOM     80  C   UNL A   1      44.916  24.415  34.241  1.00  0.00     0.006 A 
ENDBRANCH  56  73
ENDBRANCH  30  31
ENDBRANCH  22  25
ENDBRANCH  20  21
ENDBRANCH   1  20
TORSDOF 12
ENDMDL
MODEL 3
REMARK VINA RESULT:     -11.3      5.529     10.683
REMARK SMILES N#Cc1cnc2cc(C(=O)NCCCCNC(=O)c3ccc(-c4c5nc(c(-c6c(F)cccc6F)c6ccc([nH]6)c(-c6c(F)cccc6F)c6nc(c(-c7c(F)cccc7F)c7ccc4[nH]7)C=C6)C=C5)cc3)[nH]c2c1
REMARK SMILES IDX 14 1 13 2 12 3 11 4 9 5 10 6 8 8 3 9 4 10 75 11 5 12 74 13
REMARK SMILES IDX 6 14 73 15 7 16 2 18 1 19 15 20 16 21 17 22 18 24 19 25
REMARK SMILES IDX 20 26 72 27 21 28 71 29 22 30 23 31 24 32 65 33 25 34 70 35
REMARK SMILES IDX 64 36 66 37 26 38 69 39 63 40 62 41 27 43 53 44 36 45 52 46
REMARK SMILES IDX 37 47 40 48 51 49 67 50 38 51 39 52 50 54 68 55 41 56 28 57
REMARK SMILES IDX 29 58 34 59 30 60 31 61 33 62 35 63 32 64 54 65 55 66 60 67
REMARK SMILES IDX 56 68 57 69 59 70 61 71 58 72 42 73 43 74 48 75 44 76 45 77
REMARK SMILES IDX 47 78 49 79 46 80
REMARK H PARENT 11 7 73 17 16 23 66 42 40 53
REMARK Flexibility Score: inf
ROOT
ATOM      1  C   UNL A   1      32.878  34.916  28.799  1.00  0.00     0.023 C 
ENDROOT
BRANCH   1   2
ATOM      2  C   UNL A   1      33.963  33.909  28.395  1.00  0.00     0.023 C 
BRANCH   2   3
ATOM      3  C   UNL A   1      33.467  32.612  27.752  1.00  0.00     0.116 C 
BRANCH   3   4
ATOM      4  N   UNL A   1      34.139  31.419  28.233  1.00  0.00    -0.351 N 
ATOM      5  C   UNL A   1      34.304  30.165  27.701  1.00  0.00     0.267 C 
ATOM      6  O   UNL A   1      34.975  29.372  28.365  1.00  0.00    -0.268 OA
ATOM      7  H   UNL A   1      34.560  31.533  29.116  1.00  0.00     0.163 HD
BRANCH   5   8
ATOM      8  C   UNL A   1      33.678  29.740  26.466  1.00  0.00     0.107 A 
ATOM      9  C   UNL A   1      32.767  27.323  22.695  1.00  0.00     0.072 A 
ATOM     10  C   UNL A   1      31.507  27.777  23.068  1.00  0.00     0.131 A 
ATOM     11  C   UNL A   1      33.891  27.735  23.420  1.00  0.00     0.049 A 
ATOM     12  N   UNL A   1      31.252  28.628  24.084  1.00  0.00    -0.253 NA
ATOM     13  C   UNL A   1      33.631  28.563  24.514  1.00  0.00     0.066 A 
ATOM     14  C   UNL A   1      32.341  28.990  24.799  1.00  0.00     0.089 A 
ATOM     15  N   UNL A   1      34.436  29.102  25.488  1.00  0.00    -0.349 N 
ATOM     16  C   UNL A   1      32.399  29.811  25.940  1.00  0.00     0.062 A 
ATOM     17  H   UNL A   1      35.419  29.046  25.494  1.00  0.00     0.167 HD
BRANCH   9  18
ATOM     18  C   UNL A   1      32.890  26.429  21.583  1.00  0.00     0.101 C 
ATOM     19  N   UNL A   1      32.999  25.718  20.680  1.00  0.00    -0.192 NA
ENDBRANCH   9  18
ENDBRANCH   5   8
ENDBRANCH   3   4
ENDBRANCH   2   3
ENDBRANCH   1   2
BRANCH   1  20
ATOM     20  C   UNL A   1      33.374  36.106  29.612  1.00  0.00     0.116 C 
BRANCH  20  21
ATOM     21  N   UNL A   1      32.728  36.255  30.914  1.00  0.00    -0.352 N 
ATOM     22  C   UNL A   1      32.854  35.416  32.010  1.00  0.00     0.251 C 
ATOM     23  H   UNL A   1      32.138  37.035  31.024  1.00  0.00     0.163 HD
ATOM     24  O   UNL A   1      31.988  35.380  32.876  1.00  0.00    -0.269 OA
BRANCH  22  25
ATOM     25  C   UNL A   1      34.068  34.580  32.134  1.00  0.00     0.039 A 
ATOM     26  C   UNL A   1      34.029  33.191  31.993  1.00  0.00     0.014 A 
ATOM     27  C   UNL A   1      35.276  35.225  32.398  1.00  0.00     0.014 A 
ATOM     28  C   UNL A   1      35.228  32.478  32.074  1.00  0.00     0.010 A 
ATOM     29  C   UNL A   1      36.467  34.550  32.291  1.00  0.00     0.010 A 
ATOM     30  C   UNL A   1      36.451  33.168  32.208  1.00  0.00    -0.014 A 
BRANCH  30  31
ATOM     31  C   UNL A   1      37.734  32.490  32.003  1.00  0.00     0.031 A 
ATOM     32  C   UNL A   1      38.423  32.299  33.306  1.00  0.00     0.074 A 
ATOM     33  C   UNL A   1      38.145  31.941  30.831  1.00  0.00     0.049 A 
ATOM     34  N   UNL A   1      39.425  32.984  33.743  1.00  0.00    -0.248 NA
ATOM     35  C   UNL A   1      37.795  31.461  34.348  1.00  0.00     0.031 C 
ATOM     36  C   UNL A   1      37.396  31.861  29.569  1.00  0.00     0.029 A 
ATOM     37  N   UNL A   1      39.300  31.258  30.522  1.00  0.00    -0.354 N 
ATOM     38  C   UNL A   1      39.753  32.417  34.971  1.00  0.00     0.074 A 
ATOM     39  C   UNL A   1      38.590  31.694  35.398  1.00  0.00     0.031 C 
ATOM     40  C   UNL A   1      37.989  30.982  28.726  1.00  0.00     0.029 A 
ATOM     41  C   UNL A   1      39.247  30.550  29.303  1.00  0.00     0.049 A 
ATOM     42  H   UNL A   1      40.095  31.263  31.102  1.00  0.00     0.167 HD
ATOM     43  C   UNL A   1      41.068  32.267  35.291  1.00  0.00     0.037 A 
ATOM     44  C   UNL A   1      40.186  29.692  28.811  1.00  0.00     0.037 A 
ATOM     45  C   UNL A   1      41.874  33.074  34.409  1.00  0.00     0.049 A 
ATOM     46  C   UNL A   1      41.458  30.046  29.473  1.00  0.00     0.074 A 
ATOM     47  C   UNL A   1      42.109  34.417  34.204  1.00  0.00     0.029 A 
ATOM     48  N   UNL A   1      42.166  32.424  33.240  1.00  0.00    -0.354 N 
ATOM     49  N   UNL A   1      42.085  31.168  29.263  1.00  0.00    -0.248 NA
ATOM     50  C   UNL A   1      41.821  29.326  30.685  1.00  0.00     0.031 C 
ATOM     51  C   UNL A   1      42.444  34.552  32.824  1.00  0.00     0.029 A 
ATOM     52  C   UNL A   1      42.507  33.286  32.245  1.00  0.00     0.049 A 
ATOM     53  H   UNL A   1      42.134  31.445  33.133  1.00  0.00     0.167 HD
ATOM     54  C   UNL A   1      42.562  31.515  30.511  1.00  0.00     0.074 A 
ATOM     55  C   UNL A   1      42.506  30.288  31.306  1.00  0.00     0.031 C 
ATOM     56  C   UNL A   1      42.620  32.825  30.882  1.00  0.00     0.037 A 
BRANCH  43  57
ATOM     57  C   UNL A   1      41.659  31.013  35.917  1.00  0.00     0.057 A 
ATOM     58  C   UNL A   1      42.663  31.155  36.894  1.00  0.00     0.134 A 
ATOM     59  C   UNL A   1      41.531  29.711  35.390  1.00  0.00     0.134 A 
ATOM     60  F   UNL A   1      42.923  32.353  37.444  1.00  0.00    -0.206 F 
ATOM     61  C   UNL A   1      43.498  30.098  37.282  1.00  0.00     0.040 A 
ATOM     62  C   UNL A   1      42.327  28.638  35.803  1.00  0.00     0.040 A 
ATOM     63  F   UNL A   1      40.712  29.416  34.376  1.00  0.00    -0.206 F 
ATOM     64  C   UNL A   1      43.331  28.832  36.736  1.00  0.00     0.006 A 
ENDBRANCH  43  57
BRANCH  44  65
ATOM     65  C   UNL A   1      40.061  28.403  28.067  1.00  0.00     0.057 A 
ATOM     66  C   UNL A   1      40.724  28.197  26.840  1.00  0.00     0.134 A 
ATOM     67  C   UNL A   1      39.598  27.242  28.703  1.00  0.00     0.134 A 
ATOM     68  F   UNL A   1      41.232  29.233  26.155  1.00  0.00    -0.206 F 
ATOM     69  C   UNL A   1      40.965  26.917  26.313  1.00  0.00     0.040 A 
ATOM     70  C   UNL A   1      39.832  25.958  28.189  1.00  0.00     0.040 A 
ATOM     71  F   UNL A   1      38.989  27.310  29.895  1.00  0.00    -0.206 F 
ATOM     72  C   UNL A   1      40.539  25.788  27.003  1.00  0.00     0.006 A 
ENDBRANCH  44  65
BRANCH  56  73
ATOM     73  C   UNL A   1      42.681  33.878  29.824  1.00  0.00     0.057 A 
ATOM     74  C   UNL A   1      43.779  34.125  28.991  1.00  0.00     0.134 A 
ATOM     75  C   UNL A   1      41.479  34.526  29.518  1.00  0.00     0.134 A 
ATOM     76  F   UNL A   1      44.952  33.505  29.181  1.00  0.00    -0.206 F 
ATOM     77  C   UNL A   1      43.668  34.977  27.885  1.00  0.00     0.040 A 
ATOM     78  C   UNL A   1      41.347  35.346  28.401  1.00  0.00     0.040 A 
ATOM     79  F   UNL A   1      40.385  34.302  30.266  1.00  0.00    -0.206 F 
ATOM     80  C   UNL A   1      42.444  35.572  27.578  1.00  0.00     0.006 A 
ENDBRANCH  56  73
ENDBRANCH  30  31
ENDBRANCH  22  25
ENDBRANCH  20  21
ENDBRANCH   1  20
TORSDOF 12
ENDMDL
