MODEL 1
REMARK VINA RESULT:     -11.9      0.000      0.000
REMARK SMILES C[C@H]([C@@H]1CCCO1)n1c(SCC(=O)NCCCCNC(=O)c2ccc(-c3c4nc(c(-c5c(F)cccc5F)c5ccc([nH]5)c(-c5c(F)cccc5F)c5nc(c(-c6c(F)cccc6F)c6ccc3[nH]6)C=C5)C=C4)cc2)nc2cnccc21
REMARK SMILES IDX 15 1 14 2 12 3 13 4 11 6 10 7 9 8 8 9 82 10 76 11 77 12
REMARK SMILES IDX 81 13 78 14 80 15 79 16 2 17 1 18 3 19 4 20 7 21 5 22 6 23
REMARK SMILES IDX 16 24 17 25 18 26 19 27 20 28 21 30 22 31 23 32 75 33 24 34
REMARK SMILES IDX 74 35 25 36 26 37 27 38 68 39 28 40 73 41 67 42 69 43 29 44
REMARK SMILES IDX 72 45 66 46 65 47 30 49 56 50 39 51 55 52 40 53 43 54 54 55
REMARK SMILES IDX 70 56 41 57 42 58 53 60 71 61 44 62 31 63 32 64 37 65 33 66
REMARK SMILES IDX 34 67 36 68 38 69 35 70 57 71 58 72 63 73 59 74 60 75 62 76
REMARK SMILES IDX 64 77 61 78 45 79 46 80 51 81 47 82 48 83 50 84 52 85 49 86
REMARK H PARENT 14 5 19 29 69 48 43 59
REMARK Flexibility Score: inf
ROOT
ATOM      1  C   UNL A   1      40.113  21.461  26.435  1.00  0.00     0.116 C 
ENDROOT
BRANCH   1   2
ATOM      2  N   UNL A   1      39.215  20.510  25.835  1.00  0.00    -0.355 N 
ATOM      3  C   UNL A   1      38.039  20.760  25.228  1.00  0.00     0.230 C 
ATOM      4  O   UNL A   1      37.500  19.848  24.632  1.00  0.00    -0.274 OA
ATOM      5  H   UNL A   1      39.494  19.567  25.873  1.00  0.00     0.163 HD
BRANCH   3   6
ATOM      6  C   UNL A   1      37.506  22.162  25.180  1.00  0.00     0.178 C 
BRANCH   6   7
ATOM      7  S   UNL A   1      36.335  22.636  23.899  1.00  0.00    -0.078 SA
BRANCH   7   8
ATOM      8  C   UNL A   1      34.735  22.971  24.455  1.00  0.00     0.169 A 
ATOM      9  N   UNL A   1      33.612  22.184  24.475  1.00  0.00    -0.313 N 
ATOM     10  C   UNL A   1      32.731  22.767  25.379  1.00  0.00     0.072 A 
ATOM     11  N   UNL A   1      34.484  24.144  25.005  1.00  0.00    -0.221 NA
ATOM     12  C   UNL A   1      33.259  24.028  25.613  1.00  0.00     0.108 A 
ATOM     13  C   UNL A   1      31.559  22.327  26.002  1.00  0.00     0.049 A 
ATOM     14  C   UNL A   1      32.543  24.918  26.420  1.00  0.00     0.141 A 
ATOM     15  C   UNL A   1      30.949  23.260  26.829  1.00  0.00     0.113 A 
ATOM     16  N   UNL A   1      31.391  24.522  27.028  1.00  0.00    -0.262 NA
BRANCH   9  17
ATOM     17  C   UNL A   1      33.341  20.892  23.856  1.00  0.00     0.116 C 
ATOM     18  C   UNL A   1      32.208  21.077  22.840  1.00  0.00     0.034 C 
BRANCH  17  19
ATOM     19  C   UNL A   1      33.509  19.621  24.777  1.00  0.00     0.141 C 
ATOM     20  C   UNL A   1      34.411  18.401  24.512  1.00  0.00     0.036 C 
ATOM     21  O   UNL A   1      32.180  19.038  24.916  1.00  0.00    -0.376 OA
ATOM     22  C   UNL A   1      33.605  17.202  24.929  1.00  0.00     0.031 C 
ATOM     23  C   UNL A   1      32.240  17.666  24.502  1.00  0.00     0.160 C 
ENDBRANCH  17  19
ENDBRANCH   9  17
ENDBRANCH   7   8
ENDBRANCH   6   7
ENDBRANCH   3   6
ENDBRANCH   1   2
BRANCH   1  24
ATOM     24  C   UNL A   1      41.488  20.841  26.665  1.00  0.00     0.023 C 
BRANCH  24  25
ATOM     25  C   UNL A   1      41.636  19.465  26.011  1.00  0.00     0.023 C 
BRANCH  25  26
ATOM     26  C   UNL A   1      43.067  18.929  26.075  1.00  0.00     0.116 C 
BRANCH  26  27
ATOM     27  N   UNL A   1      43.754  19.014  24.807  1.00  0.00    -0.352 N 
ATOM     28  C   UNL A   1      44.520  19.966  24.219  1.00  0.00     0.251 C 
ATOM     29  H   UNL A   1      43.641  18.210  24.251  1.00  0.00     0.163 HD
ATOM     30  O   UNL A   1      45.039  19.672  23.143  1.00  0.00    -0.269 OA
BRANCH  28  31
ATOM     31  C   UNL A   1      44.646  21.340  24.742  1.00  0.00     0.039 A 
ATOM     32  C   UNL A   1      45.515  21.742  25.752  1.00  0.00     0.014 A 
ATOM     33  C   UNL A   1      43.717  22.260  24.243  1.00  0.00     0.014 A 
ATOM     34  C   UNL A   1      45.227  22.877  26.478  1.00  0.00     0.010 A 
ATOM     35  C   UNL A   1      43.563  23.490  24.844  1.00  0.00     0.010 A 
ATOM     36  C   UNL A   1      44.184  23.708  26.060  1.00  0.00    -0.014 A 
BRANCH  36  37
ATOM     37  C   UNL A   1      43.945  24.944  26.781  1.00  0.00     0.031 A 
ATOM     38  C   UNL A   1      45.050  25.899  26.514  1.00  0.00     0.074 A 
ATOM     39  C   UNL A   1      42.872  25.180  27.572  1.00  0.00     0.049 A 
ATOM     40  N   UNL A   1      46.006  26.176  27.334  1.00  0.00    -0.248 NA
ATOM     41  C   UNL A   1      45.317  26.335  25.133  1.00  0.00     0.031 C 
ATOM     42  C   UNL A   1      41.684  24.360  27.832  1.00  0.00     0.029 A 
ATOM     43  N   UNL A   1      42.625  26.294  28.332  1.00  0.00    -0.354 N 
ATOM     44  C   UNL A   1      46.866  27.026  26.656  1.00  0.00     0.074 A 
ATOM     45  C   UNL A   1      46.497  26.948  25.268  1.00  0.00     0.031 C 
ATOM     46  C   UNL A   1      40.740  25.103  28.467  1.00  0.00     0.029 A 
ATOM     47  C   UNL A   1      41.302  26.399  28.797  1.00  0.00     0.049 A 
ATOM     48  H   UNL A   1      43.316  26.964  28.535  1.00  0.00     0.167 HD
ATOM     49  C   UNL A   1      47.630  27.900  27.365  1.00  0.00     0.037 A 
ATOM     50  C   UNL A   1      40.762  27.485  29.425  1.00  0.00     0.037 A 
ATOM     51  C   UNL A   1      47.689  27.496  28.751  1.00  0.00     0.049 A 
ATOM     52  C   UNL A   1      41.904  28.237  30.017  1.00  0.00     0.074 A 
ATOM     53  C   UNL A   1      48.227  26.422  29.430  1.00  0.00     0.029 A 
ATOM     54  N   UNL A   1      46.737  28.042  29.579  1.00  0.00    -0.354 N 
ATOM     55  N   UNL A   1      42.621  27.749  30.994  1.00  0.00    -0.248 NA
ATOM     56  C   UNL A   1      42.578  29.191  29.146  1.00  0.00     0.031 C 
ATOM     57  C   UNL A   1      47.259  26.094  30.425  1.00  0.00     0.029 A 
ATOM     58  C   UNL A   1      46.246  27.052  30.390  1.00  0.00     0.049 A 
ATOM     59  H   UNL A   1      46.455  28.985  29.587  1.00  0.00     0.167 HD
ATOM     60  C   UNL A   1      43.932  27.949  30.588  1.00  0.00     0.074 A 
ATOM     61  C   UNL A   1      43.841  28.859  29.440  1.00  0.00     0.031 C 
ATOM     62  C   UNL A   1      44.934  27.112  30.988  1.00  0.00     0.037 A 
BRANCH  49  63
ATOM     63  C   UNL A   1      47.881  29.327  26.953  1.00  0.00     0.057 A 
ATOM     64  C   UNL A   1      46.869  30.292  26.797  1.00  0.00     0.134 A 
ATOM     65  C   UNL A   1      49.187  29.836  27.079  1.00  0.00     0.134 A 
ATOM     66  F   UNL A   1      45.574  29.971  26.700  1.00  0.00    -0.206 F 
ATOM     67  C   UNL A   1      47.125  31.664  26.841  1.00  0.00     0.040 A 
ATOM     68  C   UNL A   1      49.448  31.207  27.167  1.00  0.00     0.040 A 
ATOM     69  F   UNL A   1      50.237  29.012  27.223  1.00  0.00    -0.206 F 
ATOM     70  C   UNL A   1      48.412  32.126  27.067  1.00  0.00     0.006 A 
ENDBRANCH  49  63
BRANCH  50  71
ATOM     71  C   UNL A   1      39.434  28.131  29.218  1.00  0.00     0.057 A 
ATOM     72  C   UNL A   1      39.169  28.864  28.050  1.00  0.00     0.134 A 
ATOM     73  C   UNL A   1      38.508  28.309  30.264  1.00  0.00     0.134 A 
ATOM     74  F   UNL A   1      40.017  28.833  27.013  1.00  0.00    -0.206 F 
ATOM     75  C   UNL A   1      38.076  29.734  27.933  1.00  0.00     0.040 A 
ATOM     76  C   UNL A   1      37.402  29.173  30.158  1.00  0.00     0.040 A 
ATOM     77  F   UNL A   1      38.688  27.700  31.446  1.00  0.00    -0.206 F 
ATOM     78  C   UNL A   1      37.192  29.901  28.991  1.00  0.00     0.006 A 
ENDBRANCH  50  71
BRANCH  62  79
ATOM     79  C   UNL A   1      44.613  26.080  32.033  1.00  0.00     0.057 A 
ATOM     80  C   UNL A   1      44.749  26.441  33.374  1.00  0.00     0.134 A 
ATOM     81  C   UNL A   1      44.317  24.732  31.768  1.00  0.00     0.134 A 
ATOM     82  F   UNL A   1      45.110  27.692  33.700  1.00  0.00    -0.206 F 
ATOM     83  C   UNL A   1      44.568  25.523  34.410  1.00  0.00     0.040 A 
ATOM     84  C   UNL A   1      44.101  23.807  32.797  1.00  0.00     0.040 A 
ATOM     85  F   UNL A   1      44.287  24.263  30.515  1.00  0.00    -0.206 F 
ATOM     86  C   UNL A   1      44.223  24.206  34.125  1.00  0.00     0.006 A 
ENDBRANCH  62  79
ENDBRANCH  36  37
ENDBRANCH  28  31
ENDBRANCH  26  27
ENDBRANCH  25  26
ENDBRANCH  24  25
ENDBRANCH   1  24
TORSDOF 15
ENDMDL
MODEL 2
REMARK VINA RESULT:     -11.6      1.352      2.503
REMARK SMILES C[C@H]([C@@H]1CCCO1)n1c(SCC(=O)NCCCCNC(=O)c2ccc(-c3c4nc(c(-c5c(F)cccc5F)c5ccc([nH]5)c(-c5c(F)cccc5F)c5nc(c(-c6c(F)cccc6F)c6ccc3[nH]6)C=C5)C=C4)cc2)nc2cnccc21
REMARK SMILES IDX 15 1 14 2 12 3 13 4 11 6 10 7 9 8 8 9 82 10 76 11 77 12
REMARK SMILES IDX 81 13 78 14 80 15 79 16 2 17 1 18 3 19 4 20 7 21 5 22 6 23
REMARK SMILES IDX 16 24 17 25 18 26 19 27 20 28 21 30 22 31 23 32 75 33 24 34
REMARK SMILES IDX 74 35 25 36 26 37 27 38 68 39 28 40 73 41 67 42 69 43 29 44
REMARK SMILES IDX 72 45 66 46 65 47 30 49 56 50 39 51 55 52 40 53 43 54 54 55
REMARK SMILES IDX 70 56 41 57 42 58 53 60 71 61 44 62 31 63 32 64 37 65 33 66
REMARK SMILES IDX 34 67 36 68 38 69 35 70 57 71 58 72 63 73 59 74 60 75 62 76
REMARK SMILES IDX 64 77 61 78 45 79 46 80 51 81 47 82 48 83 50 84 52 85 49 86
REMARK H PARENT 14 5 19 29 69 48 43 59
REMARK Flexibility Score: inf
ROOT
ATOM      1  C   UNL A   1      39.622  22.352  26.559  1.00  0.00     0.116 C 
ENDROOT
BRANCH   1   2
ATOM      2  N   UNL A   1      38.772  21.494  25.778  1.00  0.00    -0.355 N 
ATOM      3  C   UNL A   1      37.535  21.760  25.316  1.00  0.00     0.230 C 
ATOM      4  O   UNL A   1      37.038  20.976  24.531  1.00  0.00    -0.274 OA
ATOM      5  H   UNL A   1      39.138  20.608  25.554  1.00  0.00     0.163 HD
BRANCH   3   6
ATOM      6  C   UNL A   1      36.873  23.061  25.662  1.00  0.00     0.178 C 
BRANCH   6   7
ATOM      7  S   UNL A   1      35.256  23.066  26.452  1.00  0.00    -0.078 SA
BRANCH   7   8
ATOM      8  C   UNL A   1      34.116  21.947  25.797  1.00  0.00     0.169 A 
ATOM      9  N   UNL A   1      33.360  22.006  24.654  1.00  0.00    -0.313 N 
ATOM     10  C   UNL A   1      32.940  20.708  24.384  1.00  0.00     0.072 A 
ATOM     11  N   UNL A   1      33.917  20.801  26.421  1.00  0.00    -0.221 NA
ATOM     12  C   UNL A   1      33.218  20.006  25.548  1.00  0.00     0.108 A 
ATOM     13  C   UNL A   1      32.365  20.094  23.268  1.00  0.00     0.049 A 
ATOM     14  C   UNL A   1      32.819  18.668  25.637  1.00  0.00     0.141 A 
ATOM     15  C   UNL A   1      32.056  18.752  23.431  1.00  0.00     0.113 A 
ATOM     16  N   UNL A   1      32.244  18.048  24.570  1.00  0.00    -0.262 NA
BRANCH   9  17
ATOM     17  C   UNL A   1      33.114  23.105  23.729  1.00  0.00     0.116 C 
ATOM     18  C   UNL A   1      34.359  23.278  22.850  1.00  0.00     0.034 C 
BRANCH  17  19
ATOM     19  C   UNL A   1      32.238  24.300  24.273  1.00  0.00     0.141 C 
ATOM     20  C   UNL A   1      32.718  25.475  25.145  1.00  0.00     0.036 C 
ATOM     21  O   UNL A   1      31.174  23.699  25.067  1.00  0.00    -0.376 OA
ATOM     22  C   UNL A   1      31.629  25.700  26.158  1.00  0.00     0.031 C 
ATOM     23  C   UNL A   1      31.207  24.275  26.381  1.00  0.00     0.160 C 
ENDBRANCH  17  19
ENDBRANCH   9  17
ENDBRANCH   7   8
ENDBRANCH   6   7
ENDBRANCH   3   6
ENDBRANCH   1   2
BRANCH   1  24
ATOM     24  C   UNL A   1      40.895  21.625  26.977  1.00  0.00     0.023 C 
BRANCH  24  25
ATOM     25  C   UNL A   1      41.142  20.347  26.169  1.00  0.00     0.023 C 
BRANCH  25  26
ATOM     26  C   UNL A   1      42.509  19.723  26.450  1.00  0.00     0.116 C 
BRANCH  26  27
ATOM     27  N   UNL A   1      43.382  19.746  25.299  1.00  0.00    -0.352 N 
ATOM     28  C   UNL A   1      44.242  20.665  24.793  1.00  0.00     0.251 C 
ATOM     29  H   UNL A   1      43.343  18.919  24.768  1.00  0.00     0.163 HD
ATOM     30  O   UNL A   1      44.913  20.318  23.822  1.00  0.00    -0.269 OA
BRANCH  28  31
ATOM     31  C   UNL A   1      44.305  22.060  25.269  1.00  0.00     0.039 A 
ATOM     32  C   UNL A   1      45.073  22.514  26.338  1.00  0.00     0.014 A 
ATOM     33  C   UNL A   1      43.419  22.947  24.648  1.00  0.00     0.014 A 
ATOM     34  C   UNL A   1      44.708  23.673  26.986  1.00  0.00     0.010 A 
ATOM     35  C   UNL A   1      43.199  24.199  25.181  1.00  0.00     0.010 A 
ATOM     36  C   UNL A   1      43.701  24.473  26.439  1.00  0.00    -0.014 A 
BRANCH  36  37
ATOM     37  C   UNL A   1      43.384  25.733  27.084  1.00  0.00     0.031 A 
ATOM     38  C   UNL A   1      44.405  26.749  26.721  1.00  0.00     0.074 A 
ATOM     39  C   UNL A   1      42.316  25.941  27.889  1.00  0.00     0.049 A 
ATOM     40  N   UNL A   1      45.356  27.154  27.492  1.00  0.00    -0.248 NA
ATOM     41  C   UNL A   1      44.603  27.109  25.306  1.00  0.00     0.031 C 
ATOM     42  C   UNL A   1      41.203  25.053  28.239  1.00  0.00     0.029 A 
ATOM     43  N   UNL A   1      42.002  27.082  28.580  1.00  0.00    -0.354 N 
ATOM     44  C   UNL A   1      46.131  28.019  26.734  1.00  0.00     0.074 A 
ATOM     45  C   UNL A   1      45.734  27.818  25.366  1.00  0.00     0.031 C 
ATOM     46  C   UNL A   1      40.220  25.763  28.850  1.00  0.00     0.029 A 
ATOM     47  C   UNL A   1      40.687  27.118  29.077  1.00  0.00     0.049 A 
ATOM     48  H   UNL A   1      42.644  27.816  28.718  1.00  0.00     0.167 HD
ATOM     49  C   UNL A   1      46.841  28.994  27.360  1.00  0.00     0.037 A 
ATOM     50  C   UNL A   1      40.079  28.200  29.648  1.00  0.00     0.037 A 
ATOM     51  C   UNL A   1      46.966  28.692  28.767  1.00  0.00     0.049 A 
ATOM     52  C   UNL A   1      41.174  29.076  30.154  1.00  0.00     0.074 A 
ATOM     53  C   UNL A   1      47.602  27.711  29.500  1.00  0.00     0.029 A 
ATOM     54  N   UNL A   1      45.995  29.219  29.585  1.00  0.00    -0.354 N 
ATOM     55  N   UNL A   1      41.950  28.712  31.139  1.00  0.00    -0.248 NA
ATOM     56  C   UNL A   1      41.750  30.017  29.202  1.00  0.00     0.031 C 
ATOM     57  C   UNL A   1      46.687  27.379  30.543  1.00  0.00     0.029 A 
ATOM     58  C   UNL A   1      45.603  28.253  30.474  1.00  0.00     0.049 A 
ATOM     59  H   UNL A   1      45.641  30.137  29.539  1.00  0.00     0.167 HD
ATOM     60  C   UNL A   1      43.231  28.983  30.682  1.00  0.00     0.074 A 
ATOM     61  C   UNL A   1      43.041  29.802  29.479  1.00  0.00     0.031 C 
ATOM     62  C   UNL A   1      44.305  28.254  31.107  1.00  0.00     0.037 A 
BRANCH  49  63
ATOM     63  C   UNL A   1      46.970  30.404  26.847  1.00  0.00     0.057 A 
ATOM     64  C   UNL A   1      45.879  31.265  26.626  1.00  0.00     0.134 A 
ATOM     65  C   UNL A   1      48.227  31.032  26.933  1.00  0.00     0.134 A 
ATOM     66  F   UNL A   1      44.617  30.828  26.555  1.00  0.00    -0.206 F 
ATOM     67  C   UNL A   1      46.017  32.654  26.571  1.00  0.00     0.040 A 
ATOM     68  C   UNL A   1      48.369  32.422  26.922  1.00  0.00     0.040 A 
ATOM     69  F   UNL A   1      49.343  30.313  27.132  1.00  0.00    -0.206 F 
ATOM     70  C   UNL A   1      47.258  33.239  26.760  1.00  0.00     0.006 A 
ENDBRANCH  49  63
BRANCH  50  71
ATOM     71  C   UNL A   1      38.700  28.727  29.438  1.00  0.00     0.057 A 
ATOM     72  C   UNL A   1      38.357  29.376  28.240  1.00  0.00     0.134 A 
ATOM     73  C   UNL A   1      37.783  28.886  30.494  1.00  0.00     0.134 A 
ATOM     74  F   UNL A   1      39.185  29.358  27.188  1.00  0.00    -0.206 F 
ATOM     75  C   UNL A   1      37.195  30.149  28.104  1.00  0.00     0.040 A 
ATOM     76  C   UNL A   1      36.610  29.654  30.370  1.00  0.00     0.040 A 
ATOM     77  F   UNL A   1      38.032  28.356  31.701  1.00  0.00    -0.206 F 
ATOM     78  C   UNL A   1      36.320  30.301  29.172  1.00  0.00     0.006 A 
ENDBRANCH  50  71
BRANCH  62  79
ATOM     79  C   UNL A   1      44.092  27.274  32.226  1.00  0.00     0.057 A 
ATOM     80  C   UNL A   1      44.154  27.752  33.536  1.00  0.00     0.134 A 
ATOM     81  C   UNL A   1      43.968  25.883  32.067  1.00  0.00     0.134 A 
ATOM     82  F   UNL A   1      44.353  29.060  33.765  1.00  0.00    -0.206 F 
ATOM     83  C   UNL A   1      44.066  26.902  34.640  1.00  0.00     0.040 A 
ATOM     84  C   UNL A   1      43.846  25.021  33.163  1.00  0.00     0.040 A 
ATOM     85  F   UNL A   1      44.022  25.318  30.855  1.00  0.00    -0.206 F 
ATOM     86  C   UNL A   1      43.891  25.534  34.457  1.00  0.00     0.006 A 
ENDBRANCH  62  79
ENDBRANCH  36  37
ENDBRANCH  28  31
ENDBRANCH  26  27
ENDBRANCH  25  26
ENDBRANCH  24  25
ENDBRANCH   1  24
TORSDOF 15
ENDMDL
MODEL 3
REMARK VINA RESULT:     -11.4      5.566     10.623
REMARK SMILES C[C@H]([C@@H]1CCCO1)n1c(SCC(=O)NCCCCNC(=O)c2ccc(-c3c4nc(c(-c5c(F)cccc5F)c5ccc([nH]5)c(-c5c(F)cccc5F)c5nc(c(-c6c(F)cccc6F)c6ccc3[nH]6)C=C5)C=C4)cc2)nc2cnccc21
REMARK SMILES IDX 15 1 14 2 12 3 13 4 11 6 10 7 9 8 8 9 82 10 76 11 77 12
REMARK SMILES IDX 81 13 78 14 80 15 79 16 2 17 1 18 3 19 4 20 7 21 5 22 6 23
REMARK SMILES IDX 16 24 17 25 18 26 19 27 20 28 21 30 22 31 23 32 75 33 24 34
REMARK SMILES IDX 74 35 25 36 26 37 27 38 68 39 28 40 73 41 67 42 69 43 29 44
REMARK SMILES IDX 72 45 66 46 65 47 30 49 56 50 39 51 55 52 40 53 43 54 54 55
REMARK SMILES IDX 70 56 41 57 42 58 53 60 71 61 44 62 31 63 32 64 37 65 33 66
REMARK SMILES IDX 34 67 36 68 38 69 35 70 57 71 58 72 63 73 59 74 60 75 62 76
REMARK SMILES IDX 64 77 61 78 45 79 46 80 51 81 47 82 48 83 50 84 52 85 49 86
REMARK H PARENT 14 5 19 29 69 48 43 59
REMARK Flexibility Score: inf
ROOT
ATOM      1  C   UNL A   1      33.300  32.817  27.716  1.00  0.00     0.116 C 
ENDROOT
BRANCH   1   2
ATOM      2  N   UNL A   1      34.203  31.700  27.787  1.00  0.00    -0.355 N 
ATOM      3  C   UNL A   1      33.966  30.426  27.418  1.00  0.00     0.230 C 
ATOM      4  O   UNL A   1      34.906  29.655  27.395  1.00  0.00    -0.274 OA
ATOM      5  H   UNL A   1      35.100  31.889  28.146  1.00  0.00     0.163 HD
BRANCH   3   6
ATOM      6  C   UNL A   1      32.607  30.033  26.919  1.00  0.00     0.178 C 
BRANCH   6   7
ATOM      7  S   UNL A   1      32.122  28.301  26.900  1.00  0.00    -0.078 SA
BRANCH   7   8
ATOM      8  C   UNL A   1      32.531  27.439  25.462  1.00  0.00     0.169 A 
ATOM      9  N   UNL A   1      32.113  26.217  25.001  1.00  0.00    -0.313 N 
ATOM     10  C   UNL A   1      32.405  26.179  23.642  1.00  0.00     0.072 A 
ATOM     11  N   UNL A   1      33.342  28.006  24.588  1.00  0.00    -0.221 NA
ATOM     12  C   UNL A   1      33.253  27.258  23.441  1.00  0.00     0.108 A 
ATOM     13  C   UNL A   1      32.019  25.335  22.597  1.00  0.00     0.049 A 
ATOM     14  C   UNL A   1      33.814  27.445  22.173  1.00  0.00     0.141 A 
ATOM     15  C   UNL A   1      32.582  25.632  21.365  1.00  0.00     0.113 A 
ATOM     16  N   UNL A   1      33.468  26.630  21.139  1.00  0.00    -0.262 NA
BRANCH   9  17
ATOM     17  C   UNL A   1      31.355  25.159  25.657  1.00  0.00     0.116 C 
ATOM     18  C   UNL A   1      29.947  25.692  25.952  1.00  0.00     0.034 C 
BRANCH  17  19
ATOM     19  C   UNL A   1      32.164  24.207  26.623  1.00  0.00     0.141 C 
ATOM     20  C   UNL A   1      33.667  23.883  26.553  1.00  0.00     0.036 C 
ATOM     21  O   UNL A   1      31.528  22.899  26.534  1.00  0.00    -0.376 OA
ATOM     22  C   UNL A   1      33.779  22.412  26.846  1.00  0.00     0.031 C 
ATOM     23  C   UNL A   1      32.525  21.933  26.169  1.00  0.00     0.160 C 
ENDBRANCH  17  19
ENDBRANCH   9  17
ENDBRANCH   7   8
ENDBRANCH   6   7
ENDBRANCH   3   6
ENDBRANCH   1   2
BRANCH   1  24
ATOM     24  C   UNL A   1      33.779  33.962  28.602  1.00  0.00     0.023 C 
BRANCH  24  25
ATOM     25  C   UNL A   1      32.768  35.110  28.689  1.00  0.00     0.023 C 
BRANCH  25  26
ATOM     26  C   UNL A   1      33.216  36.223  29.635  1.00  0.00     0.116 C 
BRANCH  26  27
ATOM     27  N   UNL A   1      32.529  36.188  30.905  1.00  0.00    -0.352 N 
ATOM     28  C   UNL A   1      32.873  35.758  32.145  1.00  0.00     0.251 C 
ATOM     29  H   UNL A   1      31.617  36.554  30.862  1.00  0.00     0.163 HD
ATOM     30  O   UNL A   1      32.061  35.964  33.046  1.00  0.00    -0.269 OA
BRANCH  28  31
ATOM     31  C   UNL A   1      34.088  34.966  32.417  1.00  0.00     0.039 A 
ATOM     32  C   UNL A   1      35.326  35.487  32.781  1.00  0.00     0.014 A 
ATOM     33  C   UNL A   1      33.979  33.594  32.163  1.00  0.00     0.014 A 
ATOM     34  C   UNL A   1      36.464  34.748  32.542  1.00  0.00     0.010 A 
ATOM     35  C   UNL A   1      35.105  32.801  32.125  1.00  0.00     0.010 A 
ATOM     36  C   UNL A   1      36.342  33.419  32.129  1.00  0.00    -0.014 A 
BRANCH  36  37
ATOM     37  C   UNL A   1      37.546  32.626  31.964  1.00  0.00     0.031 A 
ATOM     38  C   UNL A   1      38.265  32.537  33.260  1.00  0.00     0.074 A 
ATOM     39  C   UNL A   1      37.940  32.056  30.802  1.00  0.00     0.049 A 
ATOM     40  N   UNL A   1      39.329  33.199  33.565  1.00  0.00    -0.248 NA
ATOM     41  C   UNL A   1      37.595  31.935  34.425  1.00  0.00     0.031 C 
ATOM     42  C   UNL A   1      37.272  31.995  29.498  1.00  0.00     0.029 A 
ATOM     43  N   UNL A   1      39.096  31.358  30.565  1.00  0.00    -0.354 N 
ATOM     44  C   UNL A   1      39.608  32.898  34.889  1.00  0.00     0.074 A 
ATOM     45  C   UNL A   1      38.427  32.269  35.416  1.00  0.00     0.031 C 
ATOM     46  C   UNL A   1      37.897  31.091  28.700  1.00  0.00     0.029 A 
ATOM     47  C   UNL A   1      39.096  30.620  29.369  1.00  0.00     0.049 A 
ATOM     48  H   UNL A   1      39.863  31.372  31.182  1.00  0.00     0.167 HD
ATOM     49  C   UNL A   1      40.892  32.979  35.331  1.00  0.00     0.037 A 
ATOM     50  C   UNL A   1      40.048  29.718  28.987  1.00  0.00     0.037 A 
ATOM     51  C   UNL A   1      41.685  33.760  34.411  1.00  0.00     0.049 A 
ATOM     52  C   UNL A   1      41.288  30.080  29.730  1.00  0.00     0.074 A 
ATOM     53  C   UNL A   1      41.701  35.084  34.020  1.00  0.00     0.029 A 
ATOM     54  N   UNL A   1      42.331  33.056  33.423  1.00  0.00    -0.354 N 
ATOM     55  N   UNL A   1      41.932  31.192  29.499  1.00  0.00    -0.248 NA
ATOM     56  C   UNL A   1      41.431  29.527  31.071  1.00  0.00     0.031 C 
ATOM     57  C   UNL A   1      41.937  35.049  32.614  1.00  0.00     0.029 A 
ATOM     58  C   UNL A   1      42.180  33.728  32.238  1.00  0.00     0.049 A 
ATOM     59  H   UNL A   1      42.821  32.210  33.547  1.00  0.00     0.167 HD
ATOM     60  C   UNL A   1      42.157  31.724  30.760  1.00  0.00     0.074 A 
ATOM     61  C   UNL A   1      41.834  30.639  31.695  1.00  0.00     0.031 C 
ATOM     62  C   UNL A   1      42.253  33.073  30.955  1.00  0.00     0.037 A 
BRANCH  49  63
ATOM     63  C   UNL A   1      41.528  31.978  36.260  1.00  0.00     0.057 A 
ATOM     64  C   UNL A   1      41.765  30.631  35.925  1.00  0.00     0.134 A 
ATOM     65  C   UNL A   1      42.252  32.462  37.365  1.00  0.00     0.134 A 
ATOM     66  F   UNL A   1      41.181  30.034  34.881  1.00  0.00    -0.206 F 
ATOM     67  C   UNL A   1      42.708  29.847  36.591  1.00  0.00     0.040 A 
ATOM     68  C   UNL A   1      43.229  31.698  38.009  1.00  0.00     0.040 A 
ATOM     69  F   UNL A   1      42.103  33.728  37.785  1.00  0.00    -0.206 F 
ATOM     70  C   UNL A   1      43.473  30.390  37.610  1.00  0.00     0.006 A 
ENDBRANCH  49  63
BRANCH  50  71
ATOM     71  C   UNL A   1      39.878  28.368  28.375  1.00  0.00     0.057 A 
ATOM     72  C   UNL A   1      39.393  27.293  29.138  1.00  0.00     0.134 A 
ATOM     73  C   UNL A   1      40.459  28.020  27.141  1.00  0.00     0.134 A 
ATOM     74  F   UNL A   1      38.885  27.492  30.361  1.00  0.00    -0.206 F 
ATOM     75  C   UNL A   1      39.499  25.959  28.718  1.00  0.00     0.040 A 
ATOM     76  C   UNL A   1      40.566  26.686  26.704  1.00  0.00     0.040 A 
ATOM     77  F   UNL A   1      41.003  28.959  26.353  1.00  0.00    -0.206 F 
ATOM     78  C   UNL A   1      40.095  25.648  27.503  1.00  0.00     0.006 A 
ENDBRANCH  50  71
BRANCH  62  79
ATOM     79  C   UNL A   1      42.299  33.957  29.740  1.00  0.00     0.057 A 
ATOM     80  C   UNL A   1      43.540  34.184  29.141  1.00  0.00     0.134 A 
ATOM     81  C   UNL A   1      41.211  34.687  29.234  1.00  0.00     0.134 A 
ATOM     82  F   UNL A   1      44.638  33.582  29.624  1.00  0.00    -0.206 F 
ATOM     83  C   UNL A   1      43.695  35.066  28.071  1.00  0.00     0.040 A 
ATOM     84  C   UNL A   1      41.345  35.551  28.140  1.00  0.00     0.040 A 
ATOM     85  F   UNL A   1      40.008  34.631  29.818  1.00  0.00    -0.206 F 
ATOM     86  C   UNL A   1      42.593  35.739  27.553  1.00  0.00     0.006 A 
ENDBRANCH  62  79
ENDBRANCH  36  37
ENDBRANCH  28  31
ENDBRANCH  26  27
ENDBRANCH  25  26
ENDBRANCH  24  25
ENDBRANCH   1  24
TORSDOF 15
ENDMDL
