MODEL 1
REMARK VINA RESULT:     -11.7      0.000      0.000
REMARK SMILES CC(C)=CC(=O)Nc1ccc(C(=O)NCCCCNC(=O)c2ccc(-c3c4nc(c(-c5c(F)cccc5F)c5ccc([nH]5)c(-c5c(F)cccc5F)c5nc(c(-c6c(F)cccc6F)c6ccc3[nH]6)C=C5)C=C4)cc2)cc1
REMARK SMILES IDX 16 1 15 2 14 3 12 4 13 5 11 7 8 8 9 9 77 10 10 11 76 12 7 13
REMARK SMILES IDX 5 14 6 15 4 17 1 18 2 19 3 20 17 21 18 22 19 23 20 24 21 26
REMARK SMILES IDX 22 27 23 28 75 29 24 30 74 31 25 32 26 33 27 34 68 35 28 36
REMARK SMILES IDX 73 37 67 38 69 39 29 40 72 41 66 42 65 43 30 45 56 46 39 47
REMARK SMILES IDX 55 48 40 49 43 50 54 51 70 52 41 53 42 54 53 56 71 57 44 58
REMARK SMILES IDX 31 59 32 60 37 61 33 62 34 63 36 64 38 65 35 66 57 67 58 68
REMARK SMILES IDX 63 69 59 70 60 71 62 72 64 73 61 74 45 75 46 76 51 77 47 78
REMARK SMILES IDX 48 79 50 80 52 81 49 82
REMARK H PARENT 14 6 7 16 19 25 69 44 43 55
REMARK Flexibility Score: inf
ROOT
ATOM      1  C   UNL A   1      31.438  30.510  25.819  1.00  0.00     0.023 C 
ENDROOT
BRANCH   1   2
ATOM      2  C   UNL A   1      32.905  30.075  25.760  1.00  0.00     0.116 C 
BRANCH   2   3
ATOM      3  N   UNL A   1      33.268  29.700  24.405  1.00  0.00    -0.352 N 
ATOM      4  C   UNL A   1      33.244  28.489  23.756  1.00  0.00     0.251 C 
ATOM      5  O   UNL A   1      33.601  28.453  22.579  1.00  0.00    -0.269 OA
ATOM      6  H   UNL A   1      33.589  30.449  23.851  1.00  0.00     0.163 HD
BRANCH   4   7
ATOM      7  C   UNL A   1      32.706  27.257  24.394  1.00  0.00     0.039 A 
ATOM      8  C   UNL A   1      31.471  25.288  25.937  1.00  0.00     0.041 A 
ATOM      9  C   UNL A   1      30.717  26.010  25.013  1.00  0.00     0.027 A 
ATOM     10  C   UNL A   1      32.858  25.406  25.945  1.00  0.00     0.027 A 
ATOM     11  C   UNL A   1      31.329  27.021  24.270  1.00  0.00     0.016 A 
ATOM     12  C   UNL A   1      33.475  26.364  25.142  1.00  0.00     0.016 A 
BRANCH   8  13
ATOM     13  N   UNL A   1      30.786  24.509  26.873  1.00  0.00    -0.323 N 
ATOM     14  C   UNL A   1      30.403  23.201  26.797  1.00  0.00     0.248 C 
ATOM     15  O   UNL A   1      29.617  22.744  27.627  1.00  0.00    -0.270 OA
ATOM     16  H   UNL A   1      30.546  24.970  27.709  1.00  0.00     0.170 HD
BRANCH  14  17
ATOM     17  C   UNL A   1      30.948  22.275  25.760  1.00  0.00     0.070 C 
ATOM     18  C   UNL A   1      33.278  21.812  26.688  1.00  0.00     0.039 C 
ATOM     19  C   UNL A   1      32.148  21.656  25.708  1.00  0.00    -0.071 C 
ATOM     20  C   UNL A   1      32.437  20.653  24.619  1.00  0.00     0.039 C 
ENDBRANCH  14  17
ENDBRANCH   8  13
ENDBRANCH   4   7
ENDBRANCH   2   3
ENDBRANCH   1   2
BRANCH   1  21
ATOM     21  C   UNL A   1      31.224  31.903  26.413  1.00  0.00     0.023 C 
BRANCH  21  22
ATOM     22  C   UNL A   1      32.465  32.531  27.032  1.00  0.00     0.116 C 
BRANCH  22  23
ATOM     23  N   UNL A   1      32.246  33.898  27.477  1.00  0.00    -0.352 N 
ATOM     24  C   UNL A   1      32.939  34.627  28.409  1.00  0.00     0.251 C 
ATOM     25  H   UNL A   1      31.493  34.367  27.048  1.00  0.00     0.163 HD
ATOM     26  O   UNL A   1      32.527  35.733  28.752  1.00  0.00    -0.269 OA
BRANCH  24  27
ATOM     27  C   UNL A   1      34.164  34.071  29.021  1.00  0.00     0.039 A 
ATOM     28  C   UNL A   1      34.032  33.099  30.015  1.00  0.00     0.014 A 
ATOM     29  C   UNL A   1      35.432  34.501  28.625  1.00  0.00     0.014 A 
ATOM     30  C   UNL A   1      35.174  32.528  30.579  1.00  0.00     0.010 A 
ATOM     31  C   UNL A   1      36.568  33.872  29.125  1.00  0.00     0.010 A 
ATOM     32  C   UNL A   1      36.451  32.892  30.121  1.00  0.00    -0.014 A 
BRANCH  32  33
ATOM     33  C   UNL A   1      37.667  32.266  30.695  1.00  0.00     0.031 A 
ATOM     34  C   UNL A   1      38.255  32.788  31.978  1.00  0.00     0.074 A 
ATOM     35  C   UNL A   1      38.259  31.243  30.049  1.00  0.00     0.049 A 
ATOM     36  N   UNL A   1      39.301  32.362  32.642  1.00  0.00    -0.248 NA
ATOM     37  C   UNL A   1      37.599  33.958  32.583  1.00  0.00     0.031 C 
ATOM     38  C   UNL A   1      37.822  30.685  28.767  1.00  0.00     0.029 A 
ATOM     39  N   UNL A   1      39.354  30.488  30.382  1.00  0.00    -0.354 N 
ATOM     40  C   UNL A   1      39.429  33.213  33.732  1.00  0.00     0.074 A 
ATOM     41  C   UNL A   1      38.398  34.219  33.607  1.00  0.00     0.031 C 
ATOM     42  C   UNL A   1      38.617  29.653  28.443  1.00  0.00     0.029 A 
ATOM     43  C   UNL A   1      39.636  29.496  29.475  1.00  0.00     0.049 A 
ATOM     44  H   UNL A   1      39.887  30.642  31.196  1.00  0.00     0.167 HD
ATOM     45  C   UNL A   1      40.305  33.146  34.763  1.00  0.00     0.037 A 
ATOM     46  C   UNL A   1      40.603  28.559  29.481  1.00  0.00     0.037 A 
ATOM     47  C   UNL A   1      41.319  32.133  34.895  1.00  0.00     0.049 A 
ATOM     48  C   UNL A   1      41.561  28.502  30.639  1.00  0.00     0.074 A 
ATOM     49  C   UNL A   1      42.221  31.943  35.928  1.00  0.00     0.029 A 
ATOM     50  N   UNL A   1      41.568  31.137  33.961  1.00  0.00    -0.354 N 
ATOM     51  N   UNL A   1      41.619  29.264  31.705  1.00  0.00    -0.248 NA
ATOM     52  C   UNL A   1      42.579  27.444  30.601  1.00  0.00     0.031 C 
ATOM     53  C   UNL A   1      43.045  30.863  35.597  1.00  0.00     0.029 A 
ATOM     54  C   UNL A   1      42.621  30.344  34.384  1.00  0.00     0.049 A 
ATOM     55  H   UNL A   1      41.067  31.012  33.122  1.00  0.00     0.167 HD
ATOM     56  C   UNL A   1      42.659  28.761  32.476  1.00  0.00     0.074 A 
ATOM     57  C   UNL A   1      43.188  27.615  31.765  1.00  0.00     0.031 C 
ATOM     58  C   UNL A   1      43.136  29.207  33.664  1.00  0.00     0.037 A 
BRANCH  45  59
ATOM     59  C   UNL A   1      40.199  34.198  35.830  1.00  0.00     0.057 A 
ATOM     60  C   UNL A   1      39.414  34.011  36.976  1.00  0.00     0.134 A 
ATOM     61  C   UNL A   1      40.906  35.401  35.723  1.00  0.00     0.134 A 
ATOM     62  F   UNL A   1      38.699  32.887  37.135  1.00  0.00    -0.206 F 
ATOM     63  C   UNL A   1      39.313  34.994  37.962  1.00  0.00     0.040 A 
ATOM     64  C   UNL A   1      40.838  36.380  36.717  1.00  0.00     0.040 A 
ATOM     65  F   UNL A   1      41.681  35.644  34.656  1.00  0.00    -0.206 F 
ATOM     66  C   UNL A   1      40.032  36.181  37.836  1.00  0.00     0.006 A 
ENDBRANCH  45  59
BRANCH  46  67
ATOM     67  C   UNL A   1      40.696  27.576  28.372  1.00  0.00     0.057 A 
ATOM     68  C   UNL A   1      41.492  27.826  27.248  1.00  0.00     0.134 A 
ATOM     69  C   UNL A   1      39.983  26.371  28.401  1.00  0.00     0.134 A 
ATOM     70  F   UNL A   1      42.186  28.971  27.154  1.00  0.00    -0.206 F 
ATOM     71  C   UNL A   1      41.554  26.930  26.180  1.00  0.00     0.040 A 
ATOM     72  C   UNL A   1      40.057  25.453  27.352  1.00  0.00     0.040 A 
ATOM     73  F   UNL A   1      39.211  26.067  29.453  1.00  0.00    -0.206 F 
ATOM     74  C   UNL A   1      40.838  25.736  26.233  1.00  0.00     0.006 A 
ENDBRANCH  46  67
BRANCH  58  75
ATOM     75  C   UNL A   1      44.266  28.431  34.280  1.00  0.00     0.057 A 
ATOM     76  C   UNL A   1      45.607  28.734  34.011  1.00  0.00     0.134 A 
ATOM     77  C   UNL A   1      44.007  27.374  35.162  1.00  0.00     0.134 A 
ATOM     78  F   UNL A   1      45.925  29.727  33.166  1.00  0.00    -0.206 F 
ATOM     79  C   UNL A   1      46.649  27.989  34.569  1.00  0.00     0.040 A 
ATOM     80  C   UNL A   1      45.039  26.643  35.750  1.00  0.00     0.040 A 
ATOM     81  F   UNL A   1      42.745  27.039  35.472  1.00  0.00    -0.206 F 
ATOM     82  C   UNL A   1      46.365  26.943  35.445  1.00  0.00     0.006 A 
ENDBRANCH  58  75
ENDBRANCH  32  33
ENDBRANCH  24  27
ENDBRANCH  22  23
ENDBRANCH  21  22
ENDBRANCH   1  21
TORSDOF 13
ENDMDL
MODEL 2
REMARK VINA RESULT:     -11.5      0.525      6.399
REMARK SMILES CC(C)=CC(=O)Nc1ccc(C(=O)NCCCCNC(=O)c2ccc(-c3c4nc(c(-c5c(F)cccc5F)c5ccc([nH]5)c(-c5c(F)cccc5F)c5nc(c(-c6c(F)cccc6F)c6ccc3[nH]6)C=C5)C=C4)cc2)cc1
REMARK SMILES IDX 16 1 15 2 14 3 12 4 13 5 11 7 8 8 9 9 77 10 10 11 76 12 7 13
REMARK SMILES IDX 5 14 6 15 4 17 1 18 2 19 3 20 17 21 18 22 19 23 20 24 21 26
REMARK SMILES IDX 22 27 23 28 75 29 24 30 74 31 25 32 26 33 27 34 68 35 28 36
REMARK SMILES IDX 73 37 67 38 69 39 29 40 72 41 66 42 65 43 30 45 56 46 39 47
REMARK SMILES IDX 55 48 40 49 43 50 54 51 70 52 41 53 42 54 53 56 71 57 44 58
REMARK SMILES IDX 31 59 32 60 37 61 33 62 34 63 36 64 38 65 35 66 57 67 58 68
REMARK SMILES IDX 63 69 59 70 60 71 62 72 64 73 61 74 45 75 46 76 51 77 47 78
REMARK SMILES IDX 48 79 50 80 52 81 49 82
REMARK H PARENT 14 6 7 16 19 25 69 44 43 55
REMARK Flexibility Score: inf
ROOT
ATOM      1  C   UNL A   1      31.526  30.552  25.956  1.00  0.00     0.023 C 
ENDROOT
BRANCH   1   2
ATOM      2  C   UNL A   1      32.981  30.085  25.860  1.00  0.00     0.116 C 
BRANCH   2   3
ATOM      3  N   UNL A   1      33.312  29.732  24.491  1.00  0.00    -0.352 N 
ATOM      4  C   UNL A   1      33.255  28.536  23.819  1.00  0.00     0.251 C 
ATOM      5  O   UNL A   1      33.588  28.518  22.635  1.00  0.00    -0.269 OA
ATOM      6  H   UNL A   1      33.634  30.486  23.947  1.00  0.00     0.163 HD
BRANCH   4   7
ATOM      7  C   UNL A   1      32.709  27.299  24.442  1.00  0.00     0.039 A 
ATOM      8  C   UNL A   1      31.491  25.317  25.981  1.00  0.00     0.041 A 
ATOM      9  C   UNL A   1      30.715  26.095  25.124  1.00  0.00     0.027 A 
ATOM     10  C   UNL A   1      32.879  25.390  25.920  1.00  0.00     0.027 A 
ATOM     11  C   UNL A   1      31.321  27.112  24.384  1.00  0.00     0.016 A 
ATOM     12  C   UNL A   1      33.485  26.356  25.118  1.00  0.00     0.016 A 
BRANCH   8  13
ATOM     13  N   UNL A   1      30.829  24.527  26.926  1.00  0.00    -0.323 N 
ATOM     14  C   UNL A   1      30.405  23.234  26.828  1.00  0.00     0.248 C 
ATOM     15  O   UNL A   1      29.646  22.772  27.681  1.00  0.00    -0.270 OA
ATOM     16  H   UNL A   1      30.643  24.968  27.786  1.00  0.00     0.170 HD
BRANCH  14  17
ATOM     17  C   UNL A   1      30.871  22.327  25.737  1.00  0.00     0.070 C 
ATOM     18  C   UNL A   1      33.223  21.758  26.541  1.00  0.00     0.039 C 
ATOM     19  C   UNL A   1      32.046  21.672  25.609  1.00  0.00    -0.071 C 
ATOM     20  C   UNL A   1      32.252  20.699  24.476  1.00  0.00     0.039 C 
ENDBRANCH  14  17
ENDBRANCH   8  13
ENDBRANCH   4   7
ENDBRANCH   2   3
ENDBRANCH   1   2
BRANCH   1  21
ATOM     21  C   UNL A   1      31.359  31.959  26.530  1.00  0.00     0.023 C 
BRANCH  21  22
ATOM     22  C   UNL A   1      32.622  32.557  27.133  1.00  0.00     0.116 C 
BRANCH  22  23
ATOM     23  N   UNL A   1      32.447  33.936  27.561  1.00  0.00    -0.352 N 
ATOM     24  C   UNL A   1      33.125  34.636  28.525  1.00  0.00     0.251 C 
ATOM     25  H   UNL A   1      31.743  34.439  27.091  1.00  0.00     0.163 HD
ATOM     26  O   UNL A   1      32.751  35.763  28.842  1.00  0.00    -0.269 OA
BRANCH  24  27
ATOM     27  C   UNL A   1      34.287  34.025  29.204  1.00  0.00     0.039 A 
ATOM     28  C   UNL A   1      34.061  32.983  30.107  1.00  0.00     0.014 A 
ATOM     29  C   UNL A   1      35.588  34.471  28.959  1.00  0.00     0.014 A 
ATOM     30  C   UNL A   1      35.145  32.361  30.728  1.00  0.00     0.010 A 
ATOM     31  C   UNL A   1      36.671  33.795  29.513  1.00  0.00     0.010 A 
ATOM     32  C   UNL A   1      36.460  32.745  30.418  1.00  0.00    -0.014 A 
BRANCH  32  33
ATOM     33  C   UNL A   1      37.616  32.067  31.053  1.00  0.00     0.031 A 
ATOM     34  C   UNL A   1      38.335  30.959  30.331  1.00  0.00     0.074 A 
ATOM     35  C   UNL A   1      38.004  32.428  32.291  1.00  0.00     0.049 A 
ATOM     36  N   UNL A   1      39.375  30.260  30.715  1.00  0.00    -0.248 NA
ATOM     37  C   UNL A   1      37.803  30.566  29.017  1.00  0.00     0.031 C 
ATOM     38  C   UNL A   1      37.351  33.446  33.118  1.00  0.00     0.029 A 
ATOM     39  N   UNL A   1      39.043  31.984  33.069  1.00  0.00    -0.354 N 
ATOM     40  C   UNL A   1      39.613  29.346  29.697  1.00  0.00     0.074 A 
ATOM     41  C   UNL A   1      38.573  29.533  28.709  1.00  0.00     0.031 C 
ATOM     42  C   UNL A   1      38.028  33.573  34.271  1.00  0.00     0.029 A 
ATOM     43  C   UNL A   1      39.140  32.630  34.277  1.00  0.00     0.049 A 
ATOM     44  H   UNL A   1      39.661  31.271  32.786  1.00  0.00     0.167 HD
ATOM     45  C   UNL A   1      40.624  28.453  29.578  1.00  0.00     0.037 A 
ATOM     46  C   UNL A   1      40.033  32.481  35.274  1.00  0.00     0.037 A 
ATOM     47  C   UNL A   1      41.669  28.282  30.553  1.00  0.00     0.049 A 
ATOM     48  C   UNL A   1      41.150  31.487  35.116  1.00  0.00     0.074 A 
ATOM     49  C   UNL A   1      42.769  27.445  30.501  1.00  0.00     0.029 A 
ATOM     50  N   UNL A   1      41.741  28.962  31.761  1.00  0.00    -0.354 N 
ATOM     51  N   UNL A   1      41.410  30.686  34.110  1.00  0.00    -0.248 NA
ATOM     52  C   UNL A   1      42.106  31.386  36.227  1.00  0.00     0.031 C 
ATOM     53  C   UNL A   1      43.481  27.583  31.698  1.00  0.00     0.029 A 
ATOM     54  C   UNL A   1      42.855  28.547  32.471  1.00  0.00     0.049 A 
ATOM     55  H   UNL A   1      41.095  29.640  32.066  1.00  0.00     0.167 HD
ATOM     56  C   UNL A   1      42.573  30.008  34.454  1.00  0.00     0.074 A 
ATOM     57  C   UNL A   1      42.979  30.510  35.751  1.00  0.00     0.031 C 
ATOM     58  C   UNL A   1      43.245  29.056  33.762  1.00  0.00     0.037 A 
BRANCH  45  59
ATOM     59  C   UNL A   1      40.648  27.597  28.343  1.00  0.00     0.057 A 
ATOM     60  C   UNL A   1      41.361  27.973  27.197  1.00  0.00     0.134 A 
ATOM     61  C   UNL A   1      39.972  26.373  28.307  1.00  0.00     0.134 A 
ATOM     62  F   UNL A   1      42.021  29.142  27.159  1.00  0.00    -0.206 F 
ATOM     63  C   UNL A   1      41.375  27.178  26.050  1.00  0.00     0.040 A 
ATOM     64  C   UNL A   1      40.002  25.553  27.176  1.00  0.00     0.040 A 
ATOM     65  F   UNL A   1      39.273  25.948  29.370  1.00  0.00    -0.206 F 
ATOM     66  C   UNL A   1      40.699  25.960  26.040  1.00  0.00     0.006 A 
ENDBRANCH  45  59
BRANCH  46  67
ATOM     67  C   UNL A   1      39.931  33.317  36.497  1.00  0.00     0.057 A 
ATOM     68  C   UNL A   1      39.081  32.957  37.550  1.00  0.00     0.134 A 
ATOM     69  C   UNL A   1      40.666  34.499  36.639  1.00  0.00     0.134 A 
ATOM     70  F   UNL A   1      38.338  31.843  37.467  1.00  0.00    -0.206 F 
ATOM     71  C   UNL A   1      38.943  33.755  38.687  1.00  0.00     0.040 A 
ATOM     72  C   UNL A   1      40.559  35.294  37.782  1.00  0.00     0.040 A 
ATOM     73  F   UNL A   1      41.506  34.895  35.671  1.00  0.00    -0.206 F 
ATOM     74  C   UNL A   1      39.689  34.927  38.806  1.00  0.00     0.006 A 
ENDBRANCH  46  67
BRANCH  58  75
ATOM     75  C   UNL A   1      44.504  28.521  34.383  1.00  0.00     0.057 A 
ATOM     76  C   UNL A   1      45.751  29.120  34.165  1.00  0.00     0.134 A 
ATOM     77  C   UNL A   1      44.464  27.397  35.219  1.00  0.00     0.134 A 
ATOM     78  F   UNL A   1      45.861  30.192  33.366  1.00  0.00    -0.206 F 
ATOM     79  C   UNL A   1      46.918  28.599  34.727  1.00  0.00     0.040 A 
ATOM     80  C   UNL A   1      45.619  26.885  35.811  1.00  0.00     0.040 A 
ATOM     81  F   UNL A   1      43.300  26.782  35.479  1.00  0.00    -0.206 F 
ATOM     82  C   UNL A   1      46.853  27.480  35.556  1.00  0.00     0.006 A 
ENDBRANCH  58  75
ENDBRANCH  32  33
ENDBRANCH  24  27
ENDBRANCH  22  23
ENDBRANCH  21  22
ENDBRANCH   1  21
TORSDOF 13
ENDMDL
MODEL 3
REMARK VINA RESULT:     -11.4      2.607      3.968
REMARK SMILES CC(C)=CC(=O)Nc1ccc(C(=O)NCCCCNC(=O)c2ccc(-c3c4nc(c(-c5c(F)cccc5F)c5ccc([nH]5)c(-c5c(F)cccc5F)c5nc(c(-c6c(F)cccc6F)c6ccc3[nH]6)C=C5)C=C4)cc2)cc1
REMARK SMILES IDX 16 1 15 2 14 3 12 4 13 5 11 7 8 8 9 9 77 10 10 11 76 12 7 13
REMARK SMILES IDX 5 14 6 15 4 17 1 18 2 19 3 20 17 21 18 22 19 23 20 24 21 26
REMARK SMILES IDX 22 27 23 28 75 29 24 30 74 31 25 32 26 33 27 34 68 35 28 36
REMARK SMILES IDX 73 37 67 38 69 39 29 40 72 41 66 42 65 43 30 45 56 46 39 47
REMARK SMILES IDX 55 48 40 49 43 50 54 51 70 52 41 53 42 54 53 56 71 57 44 58
REMARK SMILES IDX 31 59 32 60 37 61 33 62 34 63 36 64 38 65 35 66 57 67 58 68
REMARK SMILES IDX 63 69 59 70 60 71 62 72 64 73 61 74 45 75 46 76 51 77 47 78
REMARK SMILES IDX 48 79 50 80 52 81 49 82
REMARK H PARENT 14 6 7 16 19 25 69 44 43 55
REMARK Flexibility Score: inf
ROOT
ATOM      1  C   UNL A   1      33.628  28.755  24.297  1.00  0.00     0.023 C 
ENDROOT
BRANCH   1   2
ATOM      2  C   UNL A   1      33.467  28.118  22.915  1.00  0.00     0.116 C 
BRANCH   2   3
ATOM      3  N   UNL A   1      32.165  28.434  22.358  1.00  0.00    -0.352 N 
ATOM      4  C   UNL A   1      30.926  27.875  22.561  1.00  0.00     0.251 C 
ATOM      5  O   UNL A   1      29.966  28.355  21.959  1.00  0.00    -0.269 OA
ATOM      6  H   UNL A   1      32.170  29.184  21.720  1.00  0.00     0.163 HD
BRANCH   4   7
ATOM      7  C   UNL A   1      30.696  26.792  23.555  1.00  0.00     0.039 A 
ATOM      8  C   UNL A   1      30.743  24.910  25.614  1.00  0.00     0.041 A 
ATOM      9  C   UNL A   1      30.410  26.233  25.900  1.00  0.00     0.027 A 
ATOM     10  C   UNL A   1      30.852  24.492  24.291  1.00  0.00     0.027 A 
ATOM     11  C   UNL A   1      30.425  27.180  24.874  1.00  0.00     0.016 A 
ATOM     12  C   UNL A   1      30.788  25.430  23.262  1.00  0.00     0.016 A 
BRANCH   8  13
ATOM     13  N   UNL A   1      31.020  24.059  26.688  1.00  0.00    -0.323 N 
ATOM     14  C   UNL A   1      32.206  23.500  27.066  1.00  0.00     0.248 C 
ATOM     15  O   UNL A   1      32.219  22.602  27.908  1.00  0.00    -0.270 OA
ATOM     16  H   UNL A   1      30.247  23.831  27.253  1.00  0.00     0.170 HD
BRANCH  14  17
ATOM     17  C   UNL A   1      33.515  23.976  26.526  1.00  0.00     0.070 C 
ATOM     18  C   UNL A   1      33.910  22.300  24.645  1.00  0.00     0.039 C 
ATOM     19  C   UNL A   1      34.238  23.502  25.488  1.00  0.00    -0.071 C 
ATOM     20  C   UNL A   1      35.480  24.227  25.035  1.00  0.00     0.039 C 
ENDBRANCH  14  17
ENDBRANCH   8  13
ENDBRANCH   4   7
ENDBRANCH   2   3
ENDBRANCH   1   2
BRANCH   1  21
ATOM     21  C   UNL A   1      34.039  27.772  25.394  1.00  0.00     0.023 C 
BRANCH  21  22
ATOM     22  C   UNL A   1      33.658  28.196  26.805  1.00  0.00     0.116 C 
BRANCH  22  23
ATOM     23  N   UNL A   1      33.479  29.633  26.937  1.00  0.00    -0.352 N 
ATOM     24  C   UNL A   1      34.293  30.554  27.543  1.00  0.00     0.251 C 
ATOM     25  H   UNL A   1      32.657  29.996  26.533  1.00  0.00     0.163 HD
ATOM     26  O   UNL A   1      33.914  31.717  27.671  1.00  0.00    -0.269 OA
BRANCH  24  27
ATOM     27  C   UNL A   1      35.613  30.145  28.068  1.00  0.00     0.039 A 
ATOM     28  C   UNL A   1      35.691  29.664  29.377  1.00  0.00     0.014 A 
ATOM     29  C   UNL A   1      36.765  30.235  27.283  1.00  0.00     0.014 A 
ATOM     30  C   UNL A   1      36.918  29.231  29.880  1.00  0.00     0.010 A 
ATOM     31  C   UNL A   1      37.970  29.725  27.756  1.00  0.00     0.010 A 
ATOM     32  C   UNL A   1      38.064  29.234  29.066  1.00  0.00    -0.014 A 
BRANCH  32  33
ATOM     33  C   UNL A   1      39.364  28.747  29.587  1.00  0.00     0.031 A 
ATOM     34  C   UNL A   1      39.985  29.391  30.797  1.00  0.00     0.074 A 
ATOM     35  C   UNL A   1      40.000  27.741  28.957  1.00  0.00     0.049 A 
ATOM     36  N   UNL A   1      41.105  29.093  31.409  1.00  0.00    -0.248 NA
ATOM     37  C   UNL A   1      39.270  30.535  31.383  1.00  0.00     0.031 C 
ATOM     38  C   UNL A   1      39.531  27.075  27.740  1.00  0.00     0.029 A 
ATOM     39  N   UNL A   1      41.176  27.101  29.253  1.00  0.00    -0.354 N 
ATOM     40  C   UNL A   1      41.228  30.015  32.441  1.00  0.00     0.074 A 
ATOM     41  C   UNL A   1      40.107  30.922  32.334  1.00  0.00     0.031 C 
ATOM     42  C   UNL A   1      40.392  26.095  27.416  1.00  0.00     0.029 A 
ATOM     43  C   UNL A   1      41.484  26.084  28.383  1.00  0.00     0.049 A 
ATOM     44  H   UNL A   1      41.745  27.346  30.019  1.00  0.00     0.167 HD
ATOM     45  C   UNL A   1      42.171  30.082  33.411  1.00  0.00     0.037 A 
ATOM     46  C   UNL A   1      42.528  25.234  28.371  1.00  0.00     0.037 A 
ATOM     47  C   UNL A   1      43.276  29.167  33.526  1.00  0.00     0.049 A 
ATOM     48  C   UNL A   1      43.560  25.325  29.461  1.00  0.00     0.074 A 
ATOM     49  C   UNL A   1      44.255  29.114  34.503  1.00  0.00     0.029 A 
ATOM     50  N   UNL A   1      43.550  28.141  32.631  1.00  0.00    -0.354 N 
ATOM     51  N   UNL A   1      43.619  26.151  30.479  1.00  0.00    -0.248 NA
ATOM     52  C   UNL A   1      44.662  24.355  29.409  1.00  0.00     0.031 C 
ATOM     53  C   UNL A   1      45.148  28.088  34.173  1.00  0.00     0.029 A 
ATOM     54  C   UNL A   1      44.694  27.466  33.022  1.00  0.00     0.049 A 
ATOM     55  H   UNL A   1      43.009  27.927  31.837  1.00  0.00     0.167 HD
ATOM     56  C   UNL A   1      44.747  25.783  31.202  1.00  0.00     0.074 A 
ATOM     57  C   UNL A   1      45.327  24.645  30.518  1.00  0.00     0.031 C 
ATOM     58  C   UNL A   1      45.259  26.335  32.329  1.00  0.00     0.037 A 
BRANCH  45  59
ATOM     59  C   UNL A   1      42.042  31.182  34.425  1.00  0.00     0.057 A 
ATOM     60  C   UNL A   1      42.647  32.433  34.240  1.00  0.00     0.134 A 
ATOM     61  C   UNL A   1      41.286  30.999  35.589  1.00  0.00     0.134 A 
ATOM     62  F   UNL A   1      43.397  32.671  33.153  1.00  0.00    -0.206 F 
ATOM     63  C   UNL A   1      42.530  33.450  35.189  1.00  0.00     0.040 A 
ATOM     64  C   UNL A   1      41.136  32.019  36.532  1.00  0.00     0.040 A 
ATOM     65  F   UNL A   1      40.675  29.829  35.828  1.00  0.00    -0.206 F 
ATOM     66  C   UNL A   1      41.766  33.246  36.336  1.00  0.00     0.006 A 
ENDBRANCH  45  59
BRANCH  46  67
ATOM     67  C   UNL A   1      42.635  24.198  27.313  1.00  0.00     0.057 A 
ATOM     68  C   UNL A   1      42.159  22.898  27.522  1.00  0.00     0.134 A 
ATOM     69  C   UNL A   1      43.226  24.475  26.075  1.00  0.00     0.134 A 
ATOM     70  F   UNL A   1      41.597  22.566  28.694  1.00  0.00    -0.206 F 
ATOM     71  C   UNL A   1      42.291  21.904  26.551  1.00  0.00     0.040 A 
ATOM     72  C   UNL A   1      43.341  23.499  25.084  1.00  0.00     0.040 A 
ATOM     73  F   UNL A   1      43.693  25.703  25.807  1.00  0.00    -0.206 F 
ATOM     74  C   UNL A   1      42.880  22.206  25.325  1.00  0.00     0.006 A 
ENDBRANCH  46  67
BRANCH  58  75
ATOM     75  C   UNL A   1      46.489  25.694  32.906  1.00  0.00     0.057 A 
ATOM     76  C   UNL A   1      47.779  26.080  32.517  1.00  0.00     0.134 A 
ATOM     77  C   UNL A   1      46.380  24.685  33.871  1.00  0.00     0.134 A 
ATOM     78  F   UNL A   1      47.953  27.033  31.588  1.00  0.00    -0.206 F 
ATOM     79  C   UNL A   1      48.914  25.459  33.040  1.00  0.00     0.040 A 
ATOM     80  C   UNL A   1      47.509  24.079  34.424  1.00  0.00     0.040 A 
ATOM     81  F   UNL A   1      45.176  24.276  34.297  1.00  0.00    -0.206 F 
ATOM     82  C   UNL A   1      48.781  24.458  34.000  1.00  0.00     0.006 A 
ENDBRANCH  58  75
ENDBRANCH  32  33
ENDBRANCH  24  27
ENDBRANCH  22  23
ENDBRANCH  21  22
ENDBRANCH   1  21
TORSDOF 13
ENDMDL
