MODEL 1
REMARK VINA RESULT:     -12.6      0.000      0.000
REMARK SMILES O=C(NCCCCNC(=O)C1CC[NH+]([C@H]2CC(=O)N(c3ccc4c(c3)OCCO4)C2=O)CC1)c1ccc(-c2c3nc(c(-c4c(F)cccc4F)c4ccc([nH]4)c(-c4c(F)cccc4F)c4nc(c(-c5c(F)cccc5F)c5ccc2[nH]5)C=C4)C=C3)cc1
REMARK SMILES IDX 5 1 4 2 3 3 1 4 2 5 34 7 35 8 87 9 36 10 86 11 37 12 38 13
REMARK SMILES IDX 39 14 80 15 40 16 85 17 79 18 81 19 41 20 84 21 78 22 77 23
REMARK SMILES IDX 42 25 68 26 51 27 67 28 52 29 55 30 66 31 82 32 53 33 54 34
REMARK SMILES IDX 65 36 83 37 56 38 43 39 44 40 49 41 45 42 46 43 48 44 50 45
REMARK SMILES IDX 47 46 69 47 70 48 75 49 71 50 72 51 74 52 76 53 73 54 57 55
REMARK SMILES IDX 58 56 63 57 59 58 60 59 62 60 64 61 61 62 6 63 7 64 8 65
REMARK SMILES IDX 9 66 10 68 11 69 12 70 33 71 13 72 32 73 14 74 15 76 16 77
REMARK SMILES IDX 30 78 17 79 19 80 31 81 18 82 20 83 21 84 25 85 22 86 24 87
REMARK SMILES IDX 23 88 26 89 29 90 27 91 28 92
REMARK H PARENT 3 6 81 24 55 35 8 67 14 75
REMARK Flexibility Score: inf
ROOT
ATOM      1  C   UNL A   1      38.447  19.910  24.962  1.00  0.00     0.023 C 
ENDROOT
BRANCH   1   2
ATOM      2  C   UNL A   1      39.328  19.477  26.130  1.00  0.00     0.116 C 
BRANCH   2   3
ATOM      3  N   UNL A   1      40.634  18.945  25.752  1.00  0.00    -0.352 N 
ATOM      4  O   UNL A   1      42.888  19.045  25.528  1.00  0.00    -0.269 OA
ATOM      5  C   UNL A   1      41.859  19.561  25.899  1.00  0.00     0.251 C 
ATOM      6  H   UNL A   1      40.642  18.048  25.347  1.00  0.00     0.163 HD
BRANCH   5   7
ATOM      7  C   UNL A   1      41.856  20.922  26.476  1.00  0.00     0.039 A 
ATOM      8  C   UNL A   1      41.952  22.034  25.634  1.00  0.00     0.014 A 
ATOM      9  C   UNL A   1      41.931  21.054  27.864  1.00  0.00     0.014 A 
ATOM     10  C   UNL A   1      42.279  23.267  26.180  1.00  0.00     0.010 A 
ATOM     11  C   UNL A   1      42.191  22.307  28.411  1.00  0.00     0.010 A 
ATOM     12  C   UNL A   1      42.414  23.411  27.570  1.00  0.00    -0.014 A 
BRANCH  12  13
ATOM     13  C   UNL A   1      42.775  24.724  28.148  1.00  0.00     0.031 A 
ATOM     14  C   UNL A   1      41.724  25.768  28.401  1.00  0.00     0.074 A 
ATOM     15  C   UNL A   1      44.066  24.974  28.429  1.00  0.00     0.049 A 
ATOM     16  N   UNL A   1      41.871  27.006  28.796  1.00  0.00    -0.248 NA
ATOM     17  C   UNL A   1      40.326  25.371  28.173  1.00  0.00     0.031 C 
ATOM     18  C   UNL A   1      45.166  24.028  28.234  1.00  0.00     0.029 A 
ATOM     19  N   UNL A   1      44.670  26.096  28.927  1.00  0.00    -0.354 N 
ATOM     20  C   UNL A   1      40.592  27.548  28.831  1.00  0.00     0.074 A 
ATOM     21  C   UNL A   1      39.680  26.505  28.411  1.00  0.00     0.031 C 
ATOM     22  C   UNL A   1      46.313  24.606  28.617  1.00  0.00     0.029 A 
ATOM     23  C   UNL A   1      46.034  25.979  29.022  1.00  0.00     0.049 A 
ATOM     24  H   UNL A   1      44.177  26.907  29.189  1.00  0.00     0.167 HD
ATOM     25  C   UNL A   1      40.220  28.804  29.179  1.00  0.00     0.037 A 
ATOM     26  C   UNL A   1      46.964  26.890  29.362  1.00  0.00     0.037 A 
ATOM     27  C   UNL A   1      41.136  29.825  29.617  1.00  0.00     0.049 A 
ATOM     28  C   UNL A   1      46.531  28.276  29.723  1.00  0.00     0.074 A 
ATOM     29  C   UNL A   1      40.857  31.118  30.027  1.00  0.00     0.029 A 
ATOM     30  N   UNL A   1      42.512  29.668  29.701  1.00  0.00    -0.354 N 
ATOM     31  N   UNL A   1      45.320  28.776  29.756  1.00  0.00    -0.248 NA
ATOM     32  C   UNL A   1      47.588  29.225  30.089  1.00  0.00     0.031 C 
ATOM     33  C   UNL A   1      42.067  31.753  30.326  1.00  0.00     0.029 A 
ATOM     34  C   UNL A   1      43.098  30.844  30.138  1.00  0.00     0.049 A 
ATOM     35  H   UNL A   1      43.000  28.842  29.481  1.00  0.00     0.167 HD
ATOM     36  C   UNL A   1      45.466  30.096  30.158  1.00  0.00     0.074 A 
ATOM     37  C   UNL A   1      46.884  30.314  30.367  1.00  0.00     0.031 C 
ATOM     38  C   UNL A   1      44.510  31.039  30.340  1.00  0.00     0.037 A 
BRANCH  25  39
ATOM     39  C   UNL A   1      38.764  29.151  29.072  1.00  0.00     0.057 A 
ATOM     40  C   UNL A   1      38.176  29.524  27.858  1.00  0.00     0.134 A 
ATOM     41  C   UNL A   1      37.933  29.077  30.198  1.00  0.00     0.134 A 
ATOM     42  F   UNL A   1      38.919  29.627  26.746  1.00  0.00    -0.206 F 
ATOM     43  C   UNL A   1      36.816  29.833  27.770  1.00  0.00     0.040 A 
ATOM     44  C   UNL A   1      36.569  29.363  30.118  1.00  0.00     0.040 A 
ATOM     45  F   UNL A   1      38.431  28.722  31.390  1.00  0.00    -0.206 F 
ATOM     46  C   UNL A   1      36.008  29.748  28.902  1.00  0.00     0.006 A 
ENDBRANCH  25  39
BRANCH  26  47
ATOM     47  C   UNL A   1      48.392  26.494  29.349  1.00  0.00     0.057 A 
ATOM     48  C   UNL A   1      49.198  26.739  28.233  1.00  0.00     0.134 A 
ATOM     49  C   UNL A   1      48.998  25.934  30.481  1.00  0.00     0.134 A 
ATOM     50  F   UNL A   1      48.666  27.264  27.120  1.00  0.00    -0.206 F 
ATOM     51  C   UNL A   1      50.560  26.444  28.243  1.00  0.00     0.040 A 
ATOM     52  C   UNL A   1      50.364  25.655  30.511  1.00  0.00     0.040 A 
ATOM     53  F   UNL A   1      48.277  25.692  31.585  1.00  0.00    -0.206 F 
ATOM     54  C   UNL A   1      51.149  25.910  29.390  1.00  0.00     0.006 A 
ENDBRANCH  26  47
BRANCH  38  55
ATOM     55  C   UNL A   1      44.968  32.385  30.814  1.00  0.00     0.057 A 
ATOM     56  C   UNL A   1      45.111  32.675  32.175  1.00  0.00     0.134 A 
ATOM     57  C   UNL A   1      45.306  33.384  29.894  1.00  0.00     0.134 A 
ATOM     58  F   UNL A   1      44.789  31.761  33.103  1.00  0.00    -0.206 F 
ATOM     59  C   UNL A   1      45.567  33.920  32.607  1.00  0.00     0.040 A 
ATOM     60  C   UNL A   1      45.780  34.627  30.313  1.00  0.00     0.040 A 
ATOM     61  F   UNL A   1      45.193  33.164  28.575  1.00  0.00    -0.206 F 
ATOM     62  C   UNL A   1      45.909  34.898  31.674  1.00  0.00     0.006 A 
ENDBRANCH  38  55
ENDBRANCH  12  13
ENDBRANCH   5   7
ENDBRANCH   2   3
ENDBRANCH   1   2
BRANCH   1  63
ATOM     63  C   UNL A   1      37.770  21.269  25.110  1.00  0.00     0.023 C 
BRANCH  63  64
ATOM     64  C   UNL A   1      36.388  21.354  24.477  1.00  0.00     0.116 C 
BRANCH  64  65
ATOM     65  N   UNL A   1      35.345  20.680  25.227  1.00  0.00    -0.356 N 
ATOM     66  C   UNL A   1      34.361  21.123  26.055  1.00  0.00     0.223 C 
ATOM     67  H   UNL A   1      35.351  19.702  25.113  1.00  0.00     0.163 HD
ATOM     68  O   UNL A   1      33.394  20.360  26.179  1.00  0.00    -0.275 OA
BRANCH  66  69
ATOM     69  C   UNL A   1      34.456  22.372  26.946  1.00  0.00     0.089 C 
ATOM     70  C   UNL A   1      33.081  22.784  27.524  1.00  0.00     0.075 C 
ATOM     71  C   UNL A   1      35.130  23.616  26.403  1.00  0.00     0.075 C 
ATOM     72  C   UNL A   1      32.241  23.653  26.570  1.00  0.00     0.263 C 
ATOM     73  C   UNL A   1      34.238  24.294  25.361  1.00  0.00     0.263 C 
ATOM     74  N   UNL A   1      32.958  24.737  25.893  1.00  0.00    -0.324 N 
ATOM     75  H   UNL A   1      32.404  24.952  25.063  1.00  0.00     0.348 HD
BRANCH  74  76
ATOM     76  C   UNL A   1      32.874  26.086  26.488  1.00  0.00     0.284 C 
ATOM     77  C   UNL A   1      33.956  27.084  26.127  1.00  0.00     0.176 C 
ATOM     78  C   UNL A   1      31.615  26.819  25.997  1.00  0.00     0.292 C 
ATOM     79  C   UNL A   1      33.382  27.788  24.931  1.00  0.00     0.240 C 
ATOM     80  N   UNL A   1      32.011  27.685  24.991  1.00  0.00    -0.245 N 
ATOM     81  O   UNL A   1      30.479  26.568  26.377  1.00  0.00    -0.267 OA
ATOM     82  O   UNL A   1      34.073  28.395  24.126  1.00  0.00    -0.274 OA
BRANCH  80  83
ATOM     83  C   UNL A   1      31.122  28.328  24.091  1.00  0.00     0.056 A 
ATOM     84  C   UNL A   1      30.794  27.740  22.863  1.00  0.00     0.031 A 
ATOM     85  C   UNL A   1      30.549  29.570  24.413  1.00  0.00     0.077 A 
ATOM     86  C   UNL A   1      29.873  28.347  22.002  1.00  0.00     0.052 A 
ATOM     87  C   UNL A   1      29.668  30.201  23.530  1.00  0.00     0.163 A 
ATOM     88  C   UNL A   1      29.320  29.582  22.329  1.00  0.00     0.161 A 
ATOM     89  O   UNL A   1      29.203  31.436  23.901  1.00  0.00    -0.486 OA
ATOM     90  O   UNL A   1      28.439  30.122  21.430  1.00  0.00    -0.486 OA
ATOM     91  C   UNL A   1      28.068  31.834  23.125  1.00  0.00     0.271 C 
ATOM     92  C   UNL A   1      28.262  31.524  21.648  1.00  0.00     0.271 C 
ENDBRANCH  80  83
ENDBRANCH  74  76
ENDBRANCH  66  69
ENDBRANCH  64  65
ENDBRANCH  63  64
ENDBRANCH   1  63
TORSDOF 13
ENDMDL
MODEL 2
REMARK VINA RESULT:     -12.5      1.850      2.682
REMARK SMILES O=C(NCCCCNC(=O)C1CC[NH+]([C@H]2CC(=O)N(c3ccc4c(c3)OCCO4)C2=O)CC1)c1ccc(-c2c3nc(c(-c4c(F)cccc4F)c4ccc([nH]4)c(-c4c(F)cccc4F)c4nc(c(-c5c(F)cccc5F)c5ccc2[nH]5)C=C4)C=C3)cc1
REMARK SMILES IDX 5 1 4 2 3 3 1 4 2 5 34 7 35 8 87 9 36 10 86 11 37 12 38 13
REMARK SMILES IDX 39 14 80 15 40 16 85 17 79 18 81 19 41 20 84 21 78 22 77 23
REMARK SMILES IDX 42 25 68 26 51 27 67 28 52 29 55 30 66 31 82 32 53 33 54 34
REMARK SMILES IDX 65 36 83 37 56 38 43 39 44 40 49 41 45 42 46 43 48 44 50 45
REMARK SMILES IDX 47 46 69 47 70 48 75 49 71 50 72 51 74 52 76 53 73 54 57 55
REMARK SMILES IDX 58 56 63 57 59 58 60 59 62 60 64 61 61 62 6 63 7 64 8 65
REMARK SMILES IDX 9 66 10 68 11 69 12 70 33 71 13 72 32 73 14 74 15 76 16 77
REMARK SMILES IDX 30 78 17 79 19 80 31 81 18 82 20 83 21 84 25 85 22 86 24 87
REMARK SMILES IDX 23 88 26 89 29 90 27 91 28 92
REMARK H PARENT 3 6 81 24 55 35 8 67 14 75
REMARK Flexibility Score: inf
ROOT
ATOM      1  C   UNL A   1      39.465  21.528  25.801  1.00  0.00     0.023 C 
ENDROOT
BRANCH   1   2
ATOM      2  C   UNL A   1      39.697  20.340  26.731  1.00  0.00     0.116 C 
BRANCH   2   3
ATOM      3  N   UNL A   1      40.523  19.273  26.173  1.00  0.00    -0.352 N 
ATOM      4  O   UNL A   1      42.486  18.344  25.523  1.00  0.00    -0.269 OA
ATOM      5  C   UNL A   1      41.893  19.272  26.024  1.00  0.00     0.251 C 
ATOM      6  H   UNL A   1      40.049  18.466  25.869  1.00  0.00     0.163 HD
BRANCH   5   7
ATOM      7  C   UNL A   1      42.611  20.493  26.447  1.00  0.00     0.039 A 
ATOM      8  C   UNL A   1      42.575  20.891  27.786  1.00  0.00     0.014 A 
ATOM      9  C   UNL A   1      43.164  21.313  25.461  1.00  0.00     0.014 A 
ATOM     10  C   UNL A   1      42.957  22.184  28.117  1.00  0.00     0.010 A 
ATOM     11  C   UNL A   1      43.610  22.584  25.810  1.00  0.00     0.010 A 
ATOM     12  C   UNL A   1      43.465  23.044  27.130  1.00  0.00    -0.014 A 
BRANCH  12  13
ATOM     13  C   UNL A   1      43.860  24.426  27.483  1.00  0.00     0.031 A 
ATOM     14  C   UNL A   1      42.833  25.430  27.923  1.00  0.00     0.074 A 
ATOM     15  C   UNL A   1      45.156  24.773  27.385  1.00  0.00     0.049 A 
ATOM     16  N   UNL A   1      42.980  26.707  28.163  1.00  0.00    -0.248 NA
ATOM     17  C   UNL A   1      41.460  24.937  28.111  1.00  0.00     0.031 C 
ATOM     18  C   UNL A   1      46.238  23.873  26.980  1.00  0.00     0.029 A 
ATOM     19  N   UNL A   1      45.779  25.969  27.611  1.00  0.00    -0.354 N 
ATOM     20  C   UNL A   1      41.717  27.179  28.496  1.00  0.00     0.074 A 
ATOM     21  C   UNL A   1      40.812  26.052  28.422  1.00  0.00     0.031 C 
ATOM     22  C   UNL A   1      47.395  24.549  26.994  1.00  0.00     0.029 A 
ATOM     23  C   UNL A   1      47.125  25.938  27.347  1.00  0.00     0.049 A 
ATOM     24  H   UNL A   1      45.309  26.774  27.931  1.00  0.00     0.167 HD
ATOM     25  C   UNL A   1      41.351  28.441  28.829  1.00  0.00     0.037 A 
ATOM     26  C   UNL A   1      48.036  26.927  27.351  1.00  0.00     0.037 A 
ATOM     27  C   UNL A   1      42.266  29.549  28.922  1.00  0.00     0.049 A 
ATOM     28  C   UNL A   1      47.605  28.316  27.702  1.00  0.00     0.074 A 
ATOM     29  C   UNL A   1      42.002  30.858  29.287  1.00  0.00     0.029 A 
ATOM     30  N   UNL A   1      43.623  29.476  28.647  1.00  0.00    -0.354 N 
ATOM     31  N   UNL A   1      46.409  28.750  28.018  1.00  0.00    -0.248 NA
ATOM     32  C   UNL A   1      48.643  29.353  27.694  1.00  0.00     0.031 C 
ATOM     33  C   UNL A   1      43.194  31.585  29.198  1.00  0.00     0.029 A 
ATOM     34  C   UNL A   1      44.208  30.720  28.815  1.00  0.00     0.049 A 
ATOM     35  H   UNL A   1      44.100  28.661  28.371  1.00  0.00     0.167 HD
ATOM     36  C   UNL A   1      46.551  30.108  28.259  1.00  0.00     0.074 A 
ATOM     37  C   UNL A   1      47.952  30.424  28.062  1.00  0.00     0.031 C 
ATOM     38  C   UNL A   1      45.604  31.011  28.614  1.00  0.00     0.037 A 
BRANCH  25  39
ATOM     39  C   UNL A   1      39.894  28.695  29.089  1.00  0.00     0.057 A 
ATOM     40  C   UNL A   1      39.323  28.520  30.356  1.00  0.00     0.134 A 
ATOM     41  C   UNL A   1      39.060  29.153  28.062  1.00  0.00     0.134 A 
ATOM     42  F   UNL A   1      40.065  28.071  31.379  1.00  0.00    -0.206 F 
ATOM     43  C   UNL A   1      37.969  28.772  30.586  1.00  0.00     0.040 A 
ATOM     44  C   UNL A   1      37.710  29.428  28.285  1.00  0.00     0.040 A 
ATOM     45  F   UNL A   1      39.544  29.346  26.826  1.00  0.00    -0.206 F 
ATOM     46  C   UNL A   1      37.160  29.232  29.550  1.00  0.00     0.006 A 
ENDBRANCH  25  39
BRANCH  26  47
ATOM     47  C   UNL A   1      49.437  26.611  26.988  1.00  0.00     0.057 A 
ATOM     48  C   UNL A   1      50.352  26.178  27.952  1.00  0.00     0.134 A 
ATOM     49  C   UNL A   1      49.869  26.661  25.656  1.00  0.00     0.134 A 
ATOM     50  F   UNL A   1      49.994  26.120  29.243  1.00  0.00    -0.206 F 
ATOM     51  C   UNL A   1      51.649  25.800  27.605  1.00  0.00     0.040 A 
ATOM     52  C   UNL A   1      51.156  26.266  25.293  1.00  0.00     0.040 A 
ATOM     53  F   UNL A   1      49.030  27.054  24.686  1.00  0.00    -0.206 F 
ATOM     54  C   UNL A   1      52.050  25.834  26.269  1.00  0.00     0.006 A 
ENDBRANCH  26  47
BRANCH  38  55
ATOM     55  C   UNL A   1      46.062  32.420  28.838  1.00  0.00     0.057 A 
ATOM     56  C   UNL A   1      46.544  32.847  30.081  1.00  0.00     0.134 A 
ATOM     57  C   UNL A   1      46.057  33.344  27.787  1.00  0.00     0.134 A 
ATOM     58  F   UNL A   1      46.559  32.010  31.129  1.00  0.00    -0.206 F 
ATOM     59  C   UNL A   1      46.997  34.153  30.273  1.00  0.00     0.040 A 
ATOM     60  C   UNL A   1      46.525  34.647  27.962  1.00  0.00     0.040 A 
ATOM     61  F   UNL A   1      45.611  32.992  26.572  1.00  0.00    -0.206 F 
ATOM     62  C   UNL A   1      46.993  35.054  29.210  1.00  0.00     0.006 A 
ENDBRANCH  38  55
ENDBRANCH  12  13
ENDBRANCH   5   7
ENDBRANCH   2   3
ENDBRANCH   1   2
BRANCH   1  63
ATOM     63  C   UNL A   1      39.301  22.883  26.482  1.00  0.00     0.023 C 
BRANCH  63  64
ATOM     64  C   UNL A   1      38.095  23.681  26.008  1.00  0.00     0.116 C 
BRANCH  64  65
ATOM     65  N   UNL A   1      37.453  23.148  24.822  1.00  0.00    -0.356 N 
ATOM     66  C   UNL A   1      36.376  23.541  24.091  1.00  0.00     0.223 C 
ATOM     67  H   UNL A   1      37.887  22.334  24.475  1.00  0.00     0.163 HD
ATOM     68  O   UNL A   1      36.357  23.137  22.921  1.00  0.00    -0.275 OA
BRANCH  66  69
ATOM     69  C   UNL A   1      35.147  24.271  24.657  1.00  0.00     0.089 C 
ATOM     70  C   UNL A   1      34.629  23.620  25.961  1.00  0.00     0.075 C 
ATOM     71  C   UNL A   1      33.958  24.524  23.753  1.00  0.00     0.075 C 
ATOM     72  C   UNL A   1      33.684  22.427  25.727  1.00  0.00     0.263 C 
ATOM     73  C   UNL A   1      33.199  23.222  23.492  1.00  0.00     0.263 C 
ATOM     74  N   UNL A   1      32.657  22.616  24.699  1.00  0.00    -0.324 N 
ATOM     75  H   UNL A   1      32.389  21.676  24.407  1.00  0.00     0.348 HD
BRANCH  74  76
ATOM     76  C   UNL A   1      31.311  23.027  25.148  1.00  0.00     0.284 C 
ATOM     77  C   UNL A   1      31.207  23.806  26.444  1.00  0.00     0.176 C 
ATOM     78  C   UNL A   1      30.685  24.018  24.153  1.00  0.00     0.292 C 
ATOM     79  C   UNL A   1      31.278  25.234  25.988  1.00  0.00     0.240 C 
ATOM     80  N   UNL A   1      30.850  25.287  24.681  1.00  0.00    -0.245 N 
ATOM     81  O   UNL A   1      30.237  23.704  23.058  1.00  0.00    -0.267 OA
ATOM     82  O   UNL A   1      31.597  26.152  26.730  1.00  0.00    -0.274 OA
BRANCH  80  83
ATOM     83  C   UNL A   1      30.670  26.489  23.948  1.00  0.00     0.056 A 
ATOM     84  C   UNL A   1      31.765  27.158  23.387  1.00  0.00     0.031 A 
ATOM     85  C   UNL A   1      29.388  27.034  23.767  1.00  0.00     0.077 A 
ATOM     86  C   UNL A   1      31.580  28.312  22.616  1.00  0.00     0.052 A 
ATOM     87  C   UNL A   1      29.209  28.215  23.040  1.00  0.00     0.163 A 
ATOM     88  C   UNL A   1      30.306  28.847  22.453  1.00  0.00     0.161 A 
ATOM     89  O   UNL A   1      27.931  28.704  22.964  1.00  0.00    -0.486 OA
ATOM     90  O   UNL A   1      30.206  29.986  21.699  1.00  0.00    -0.486 OA
ATOM     91  C   UNL A   1      27.798  29.691  21.935  1.00  0.00     0.271 C 
ATOM     92  C   UNL A   1      28.968  30.663  21.936  1.00  0.00     0.271 C 
ENDBRANCH  80  83
ENDBRANCH  74  76
ENDBRANCH  66  69
ENDBRANCH  64  65
ENDBRANCH  63  64
ENDBRANCH   1  63
TORSDOF 13
ENDMDL
MODEL 3
REMARK VINA RESULT:     -12.5      4.293      9.796
REMARK SMILES O=C(NCCCCNC(=O)C1CC[NH+]([C@H]2CC(=O)N(c3ccc4c(c3)OCCO4)C2=O)CC1)c1ccc(-c2c3nc(c(-c4c(F)cccc4F)c4ccc([nH]4)c(-c4c(F)cccc4F)c4nc(c(-c5c(F)cccc5F)c5ccc2[nH]5)C=C4)C=C3)cc1
REMARK SMILES IDX 5 1 4 2 3 3 1 4 2 5 34 7 35 8 87 9 36 10 86 11 37 12 38 13
REMARK SMILES IDX 39 14 80 15 40 16 85 17 79 18 81 19 41 20 84 21 78 22 77 23
REMARK SMILES IDX 42 25 68 26 51 27 67 28 52 29 55 30 66 31 82 32 53 33 54 34
REMARK SMILES IDX 65 36 83 37 56 38 43 39 44 40 49 41 45 42 46 43 48 44 50 45
REMARK SMILES IDX 47 46 69 47 70 48 75 49 71 50 72 51 74 52 76 53 73 54 57 55
REMARK SMILES IDX 58 56 63 57 59 58 60 59 62 60 64 61 61 62 6 63 7 64 8 65
REMARK SMILES IDX 9 66 10 68 11 69 12 70 33 71 13 72 32 73 14 74 15 76 16 77
REMARK SMILES IDX 30 78 17 79 19 80 31 81 18 82 20 83 21 84 25 85 22 86 24 87
REMARK SMILES IDX 23 88 26 89 29 90 27 91 28 92
REMARK H PARENT 3 6 81 24 55 35 8 67 14 75
REMARK Flexibility Score: inf
ROOT
ATOM      1  C   UNL A   1      31.955  31.809  26.956  1.00  0.00     0.023 C 
ENDROOT
BRANCH   1   2
ATOM      2  C   UNL A   1      32.997  32.850  27.352  1.00  0.00     0.116 C 
BRANCH   2   3
ATOM      3  N   UNL A   1      32.459  34.170  27.668  1.00  0.00    -0.352 N 
ATOM      4  O   UNL A   1      32.421  36.141  28.787  1.00  0.00    -0.269 OA
ATOM      5  C   UNL A   1      32.957  35.078  28.579  1.00  0.00     0.251 C 
ATOM      6  H   UNL A   1      31.651  34.443  27.176  1.00  0.00     0.163 HD
BRANCH   5   7
ATOM      7  C   UNL A   1      34.152  34.665  29.346  1.00  0.00     0.039 A 
ATOM      8  C   UNL A   1      35.404  34.649  28.725  1.00  0.00     0.014 A 
ATOM      9  C   UNL A   1      33.968  34.134  30.624  1.00  0.00     0.014 A 
ATOM     10  C   UNL A   1      36.448  33.960  29.327  1.00  0.00     0.010 A 
ATOM     11  C   UNL A   1      35.037  33.504  31.254  1.00  0.00     0.010 A 
ATOM     12  C   UNL A   1      36.268  33.371  30.590  1.00  0.00    -0.014 A 
BRANCH  12  13
ATOM     13  C   UNL A   1      37.378  32.626  31.224  1.00  0.00     0.031 A 
ATOM     14  C   UNL A   1      37.937  33.060  32.549  1.00  0.00     0.074 A 
ATOM     15  C   UNL A   1      37.891  31.561  30.584  1.00  0.00     0.049 A 
ATOM     16  N   UNL A   1      38.975  32.598  33.197  1.00  0.00    -0.248 NA
ATOM     17  C   UNL A   1      37.245  34.164  33.232  1.00  0.00     0.031 C 
ATOM     18  C   UNL A   1      37.416  31.045  29.299  1.00  0.00     0.029 A 
ATOM     19  N   UNL A   1      38.924  30.728  30.920  1.00  0.00    -0.354 N 
ATOM     20  C   UNL A   1      39.083  33.373  34.345  1.00  0.00     0.074 A 
ATOM     21  C   UNL A   1      38.008  34.341  34.303  1.00  0.00     0.031 C 
ATOM     22  C   UNL A   1      38.150  29.977  28.958  1.00  0.00     0.029 A 
ATOM     23  C   UNL A   1      39.184  29.776  29.968  1.00  0.00     0.049 A 
ATOM     24  H   UNL A   1      39.431  30.806  31.761  1.00  0.00     0.167 HD
ATOM     25  C   UNL A   1      40.000  33.282  35.338  1.00  0.00     0.037 A 
ATOM     26  C   UNL A   1      40.169  28.863  29.895  1.00  0.00     0.037 A 
ATOM     27  C   UNL A   1      41.051  32.298  35.379  1.00  0.00     0.049 A 
ATOM     28  C   UNL A   1      41.183  28.795  30.995  1.00  0.00     0.074 A 
ATOM     29  C   UNL A   1      42.010  32.099  36.358  1.00  0.00     0.029 A 
ATOM     30  N   UNL A   1      41.282  31.349  34.394  1.00  0.00    -0.354 N 
ATOM     31  N   UNL A   1      41.273  29.530  32.076  1.00  0.00    -0.248 NA
ATOM     32  C   UNL A   1      42.233  27.778  30.864  1.00  0.00     0.031 C 
ATOM     33  C   UNL A   1      42.841  31.050  35.948  1.00  0.00     0.029 A 
ATOM     34  C   UNL A   1      42.378  30.572  34.732  1.00  0.00     0.049 A 
ATOM     35  H   UNL A   1      40.747  31.244  33.575  1.00  0.00     0.167 HD
ATOM     36  C   UNL A   1      42.382  29.058  32.763  1.00  0.00     0.074 A 
ATOM     37  C   UNL A   1      42.925  27.966  31.980  1.00  0.00     0.031 C 
ATOM     38  C   UNL A   1      42.900  29.490  33.939  1.00  0.00     0.037 A 
BRANCH  25  39
ATOM     39  C   UNL A   1      39.925  34.291  36.447  1.00  0.00     0.057 A 
ATOM     40  C   UNL A   1      39.216  34.045  37.630  1.00  0.00     0.134 A 
ATOM     41  C   UNL A   1      40.600  35.514  36.340  1.00  0.00     0.134 A 
ATOM     42  F   UNL A   1      38.538  32.899  37.789  1.00  0.00    -0.206 F 
ATOM     43  C   UNL A   1      39.165  34.988  38.659  1.00  0.00     0.040 A 
ATOM     44  C   UNL A   1      40.572  36.456  37.370  1.00  0.00     0.040 A 
ATOM     45  F   UNL A   1      41.301  35.811  35.237  1.00  0.00    -0.206 F 
ATOM     46  C   UNL A   1      39.849  36.196  38.532  1.00  0.00     0.006 A 
ENDBRANCH  25  39
BRANCH  26  47
ATOM     47  C   UNL A   1      40.230  27.967  28.718  1.00  0.00     0.057 A 
ATOM     48  C   UNL A   1      40.968  28.315  27.583  1.00  0.00     0.134 A 
ATOM     49  C   UNL A   1      39.615  26.709  28.734  1.00  0.00     0.134 A 
ATOM     50  F   UNL A   1      41.570  29.512  27.512  1.00  0.00    -0.206 F 
ATOM     51  C   UNL A   1      41.098  27.442  26.504  1.00  0.00     0.040 A 
ATOM     52  C   UNL A   1      39.754  25.817  27.671  1.00  0.00     0.040 A 
ATOM     53  F   UNL A   1      38.907  26.314  29.802  1.00  0.00    -0.206 F 
ATOM     54  C   UNL A   1      40.497  26.184  26.551  1.00  0.00     0.006 A 
ENDBRANCH  26  47
BRANCH  38  55
ATOM     55  C   UNL A   1      44.100  28.760  34.459  1.00  0.00     0.057 A 
ATOM     56  C   UNL A   1      43.976  27.614  35.254  1.00  0.00     0.134 A 
ATOM     57  C   UNL A   1      45.391  29.186  34.126  1.00  0.00     0.134 A 
ATOM     58  F   UNL A   1      42.765  27.167  35.617  1.00  0.00    -0.206 F 
ATOM     59  C   UNL A   1      45.098  26.922  35.709  1.00  0.00     0.040 A 
ATOM     60  C   UNL A   1      46.521  28.492  34.560  1.00  0.00     0.040 A 
ATOM     61  F   UNL A   1      45.574  30.275  33.364  1.00  0.00    -0.206 F 
ATOM     62  C   UNL A   1      46.375  27.358  35.357  1.00  0.00     0.006 A 
ENDBRANCH  38  55
ENDBRANCH  12  13
ENDBRANCH   5   7
ENDBRANCH   2   3
ENDBRANCH   1   2
BRANCH   1  63
ATOM     63  C   UNL A   1      32.466  30.378  26.815  1.00  0.00     0.023 C 
BRANCH  63  64
ATOM     64  C   UNL A   1      31.496  29.431  26.122  1.00  0.00     0.116 C 
BRANCH  64  65
ATOM     65  N   UNL A   1      31.430  29.592  24.682  1.00  0.00    -0.356 N 
ATOM     66  C   UNL A   1      32.092  29.005  23.649  1.00  0.00     0.223 C 
ATOM     67  H   UNL A   1      30.771  30.264  24.393  1.00  0.00     0.163 HD
ATOM     68  O   UNL A   1      31.508  29.044  22.558  1.00  0.00    -0.275 OA
BRANCH  66  69
ATOM     69  C   UNL A   1      33.536  28.481  23.714  1.00  0.00     0.089 C 
ATOM     70  C   UNL A   1      33.879  27.562  22.516  1.00  0.00     0.075 C 
ATOM     71  C   UNL A   1      34.019  27.803  24.979  1.00  0.00     0.075 C 
ATOM     72  C   UNL A   1      33.447  26.098  22.713  1.00  0.00     0.263 C 
ATOM     73  C   UNL A   1      33.394  26.413  25.113  1.00  0.00     0.263 C 
ATOM     74  N   UNL A   1      33.743  25.514  24.023  1.00  0.00    -0.324 N 
ATOM     75  H   UNL A   1      33.093  24.734  24.126  1.00  0.00     0.348 HD
BRANCH  74  76
ATOM     76  C   UNL A   1      34.974  24.705  24.147  1.00  0.00     0.284 C 
ATOM     77  C   UNL A   1      35.480  24.402  25.543  1.00  0.00     0.176 C 
ATOM     78  C   UNL A   1      34.751  23.288  23.596  1.00  0.00     0.292 C 
ATOM     79  C   UNL A   1      34.821  23.093  25.866  1.00  0.00     0.240 C 
ATOM     80  N   UNL A   1      34.532  22.456  24.682  1.00  0.00    -0.245 N 
ATOM     81  O   UNL A   1      34.678  23.015  22.405  1.00  0.00    -0.267 OA
ATOM     82  O   UNL A   1      34.671  22.692  27.011  1.00  0.00    -0.274 OA
BRANCH  80  83
ATOM     83  C   UNL A   1      34.008  21.141  24.590  1.00  0.00     0.056 A 
ATOM     84  C   UNL A   1      32.636  20.926  24.405  1.00  0.00     0.031 A 
ATOM     85  C   UNL A   1      34.854  20.023  24.680  1.00  0.00     0.077 A 
ATOM     86  C   UNL A   1      32.129  19.629  24.258  1.00  0.00     0.052 A 
ATOM     87  C   UNL A   1      34.340  18.726  24.584  1.00  0.00     0.163 A 
ATOM     88  C   UNL A   1      32.977  18.531  24.359  1.00  0.00     0.161 A 
ATOM     89  O   UNL A   1      35.231  17.697  24.741  1.00  0.00    -0.486 OA
ATOM     90  O   UNL A   1      32.406  17.294  24.220  1.00  0.00    -0.486 OA
ATOM     91  C   UNL A   1      34.692  16.451  24.288  1.00  0.00     0.271 C 
ATOM     92  C   UNL A   1      33.252  16.265  24.741  1.00  0.00     0.271 C 
ENDBRANCH  80  83
ENDBRANCH  74  76
ENDBRANCH  66  69
ENDBRANCH  64  65
ENDBRANCH  63  64
ENDBRANCH   1  63
TORSDOF 13
ENDMDL
