MODEL 1
REMARK VINA RESULT:     -12.3      0.000      0.000
REMARK SMILES Cc1cccc(OCC(=O)Nc2cc(C(=O)NCCCCNC(=O)c3ccc(-c4c5nc(c(-c6c(F)cccc6F)c6ccc([nH]6)c(-c6c(F)cccc6F)c6nc(c(-c7c(F)cccc7F)c7ccc4[nH]7)C=C6)C=C5)cc3)c(Cl)cc2Cl)c1
REMARK SMILES IDX 18 1 17 2 15 3 16 4 14 6 12 7 13 8 82 9 81 10 83 11 79 12
REMARK SMILES IDX 80 13 11 14 9 15 10 16 8 18 7 19 6 20 1 21 2 22 3 23 84 24
REMARK SMILES IDX 4 25 5 26 19 27 20 28 21 29 22 30 23 31 24 33 25 34 26 35
REMARK SMILES IDX 78 36 27 37 77 38 28 39 29 40 30 41 71 42 31 43 76 44 70 45
REMARK SMILES IDX 72 46 32 47 75 48 69 49 68 50 33 52 59 53 42 54 58 55 43 56
REMARK SMILES IDX 46 57 57 58 73 59 44 60 45 61 56 63 74 64 47 65 34 66 35 67
REMARK SMILES IDX 40 68 36 69 37 70 39 71 41 72 38 73 60 74 61 75 66 76 62 77
REMARK SMILES IDX 63 78 65 79 67 80 64 81 48 82 49 83 54 84 50 85 51 86 53 87
REMARK SMILES IDX 55 88 52 89
REMARK H PARENT 17 5 11 17 22 32 72 51 46 62
REMARK Flexibility Score: inf
ROOT
ATOM      1  C   UNL A   1      34.021  28.725  25.788  1.00  0.00     0.116 C 
ENDROOT
BRANCH   1   2
ATOM      2  N   UNL A   1      32.938  29.374  25.082  1.00  0.00    -0.352 N 
ATOM      3  C   UNL A   1      31.782  28.830  24.561  1.00  0.00     0.252 C 
ATOM      4  O   UNL A   1      30.854  29.585  24.281  1.00  0.00    -0.269 OA
ATOM      5  H   UNL A   1      33.040  30.345  24.957  1.00  0.00     0.163 HD
BRANCH   3   6
ATOM      6  C   UNL A   1      31.638  27.370  24.295  1.00  0.00     0.060 A 
ATOM      7  C   UNL A   1      30.733  25.172  24.879  1.00  0.00     0.061 A 
ATOM      8  C   UNL A   1      30.805  26.554  25.097  1.00  0.00     0.043 A 
ATOM      9  C   UNL A   1      31.424  24.638  23.768  1.00  0.00     0.066 A 
ATOM     10  C   UNL A   1      32.182  25.445  22.924  1.00  0.00     0.044 A 
ATOM     11  Cl  UNL A   1      31.359  22.943  23.405  1.00  0.00    -0.082 Cl
ATOM     12  C   UNL A   1      32.309  26.807  23.196  1.00  0.00     0.055 A 
ATOM     13  Cl  UNL A   1      33.361  27.700  22.153  1.00  0.00    -0.083 Cl
BRANCH   7  14
ATOM     14  N   UNL A   1      30.082  24.241  25.712  1.00  0.00    -0.322 N 
ATOM     15  C   UNL A   1      30.435  23.303  26.629  1.00  0.00     0.262 C 
ATOM     16  O   UNL A   1      29.523  22.595  27.076  1.00  0.00    -0.271 OA
ATOM     17  H   UNL A   1      29.105  24.281  25.599  1.00  0.00     0.170 HD
BRANCH  15  18
ATOM     18  C   UNL A   1      31.848  23.154  27.179  1.00  0.00     0.329 C 
BRANCH  18  19
ATOM     19  O   UNL A   1      32.704  22.202  26.575  1.00  0.00    -0.484 OA
BRANCH  19  20
ATOM     20  C   UNL A   1      33.883  22.619  26.028  1.00  0.00     0.120 A 
ATOM     21  C   UNL A   1      37.199  21.644  24.438  1.00  0.00     0.044 C 
ATOM     22  C   UNL A   1      36.036  22.454  24.925  1.00  0.00    -0.047 A 
ATOM     23  C   UNL A   1      36.137  23.850  24.897  1.00  0.00     0.003 A 
ATOM     24  C   UNL A   1      34.893  21.840  25.477  1.00  0.00     0.049 A 
ATOM     25  C   UNL A   1      35.149  24.624  25.475  1.00  0.00     0.004 A 
ATOM     26  C   UNL A   1      34.062  23.999  26.070  1.00  0.00     0.046 A 
ENDBRANCH  19  20
ENDBRANCH  18  19
ENDBRANCH  15  18
ENDBRANCH   7  14
ENDBRANCH   3   6
ENDBRANCH   1   2
BRANCH   1  27
ATOM     27  C   UNL A   1      34.214  29.120  27.256  1.00  0.00     0.023 C 
BRANCH  27  28
ATOM     28  C   UNL A   1      33.780  30.525  27.685  1.00  0.00     0.023 C 
BRANCH  28  29
ATOM     29  C   UNL A   1      34.813  31.655  27.618  1.00  0.00     0.116 C 
BRANCH  29  30
ATOM     30  N   UNL A   1      35.306  32.144  28.911  1.00  0.00    -0.352 N 
ATOM     31  C   UNL A   1      36.328  31.635  29.719  1.00  0.00     0.251 C 
ATOM     32  H   UNL A   1      34.853  32.946  29.260  1.00  0.00     0.163 HD
ATOM     33  O   UNL A   1      36.721  32.244  30.688  1.00  0.00    -0.269 OA
BRANCH  31  34
ATOM     34  C   UNL A   1      36.996  30.370  29.310  1.00  0.00     0.039 A 
ATOM     35  C   UNL A   1      37.007  29.287  30.195  1.00  0.00     0.014 A 
ATOM     36  C   UNL A   1      37.792  30.356  28.174  1.00  0.00     0.014 A 
ATOM     37  C   UNL A   1      38.032  28.347  30.093  1.00  0.00     0.010 A 
ATOM     38  C   UNL A   1      38.886  29.516  28.156  1.00  0.00     0.010 A 
ATOM     39  C   UNL A   1      39.049  28.558  29.164  1.00  0.00    -0.014 A 
BRANCH  39  40
ATOM     40  C   UNL A   1      40.390  27.988  29.300  1.00  0.00     0.031 A 
ATOM     41  C   UNL A   1      40.715  26.645  28.768  1.00  0.00     0.074 A 
ATOM     42  C   UNL A   1      41.378  28.784  29.768  1.00  0.00     0.049 A 
ATOM     43  N   UNL A   1      41.773  25.970  29.071  1.00  0.00    -0.248 NA
ATOM     44  C   UNL A   1      39.819  25.924  27.874  1.00  0.00     0.031 C 
ATOM     45  C   UNL A   1      42.820  28.600  29.619  1.00  0.00     0.029 A 
ATOM     46  N   UNL A   1      41.256  29.850  30.674  1.00  0.00    -0.354 N 
ATOM     47  C   UNL A   1      41.843  24.882  28.227  1.00  0.00     0.074 A 
ATOM     48  C   UNL A   1      40.567  24.866  27.551  1.00  0.00     0.031 C 
ATOM     49  C   UNL A   1      43.450  29.314  30.567  1.00  0.00     0.029 A 
ATOM     50  C   UNL A   1      42.426  29.824  31.463  1.00  0.00     0.049 A 
ATOM     51  H   UNL A   1      40.509  30.486  30.744  1.00  0.00     0.167 HD
ATOM     52  C   UNL A   1      43.023  24.204  28.103  1.00  0.00     0.037 A 
ATOM     53  C   UNL A   1      42.378  29.563  32.802  1.00  0.00     0.037 A 
ATOM     54  C   UNL A   1      44.010  24.690  29.069  1.00  0.00     0.049 A 
ATOM     55  C   UNL A   1      43.215  28.387  33.240  1.00  0.00     0.074 A 
ATOM     56  C   UNL A   1      45.080  25.564  28.961  1.00  0.00     0.029 A 
ATOM     57  N   UNL A   1      43.797  24.499  30.431  1.00  0.00    -0.354 N 
ATOM     58  N   UNL A   1      43.596  27.427  32.447  1.00  0.00    -0.248 NA
ATOM     59  C   UNL A   1      43.640  28.183  34.621  1.00  0.00     0.031 C 
ATOM     60  C   UNL A   1      45.482  25.934  30.268  1.00  0.00     0.029 A 
ATOM     61  C   UNL A   1      44.666  25.276  31.172  1.00  0.00     0.049 A 
ATOM     62  H   UNL A   1      43.120  23.894  30.813  1.00  0.00     0.167 HD
ATOM     63  C   UNL A   1      44.227  26.458  33.184  1.00  0.00     0.074 A 
ATOM     64  C   UNL A   1      44.269  26.999  34.530  1.00  0.00     0.031 C 
ATOM     65  C   UNL A   1      44.621  25.276  32.627  1.00  0.00     0.037 A 
BRANCH  52  66
ATOM     66  C   UNL A   1      43.386  23.327  26.914  1.00  0.00     0.057 A 
ATOM     67  C   UNL A   1      43.054  21.956  26.902  1.00  0.00     0.134 A 
ATOM     68  C   UNL A   1      44.131  23.733  25.793  1.00  0.00     0.134 A 
ATOM     69  F   UNL A   1      42.232  21.420  27.813  1.00  0.00    -0.206 F 
ATOM     70  C   UNL A   1      43.546  21.051  25.949  1.00  0.00     0.040 A 
ATOM     71  C   UNL A   1      44.671  22.835  24.858  1.00  0.00     0.040 A 
ATOM     72  F   UNL A   1      44.314  25.024  25.497  1.00  0.00    -0.206 F 
ATOM     73  C   UNL A   1      44.397  21.481  24.945  1.00  0.00     0.006 A 
ENDBRANCH  52  66
BRANCH  53  74
ATOM     74  C   UNL A   1      41.094  29.930  33.453  1.00  0.00     0.057 A 
ATOM     75  C   UNL A   1      40.918  31.235  33.935  1.00  0.00     0.134 A 
ATOM     76  C   UNL A   1      39.947  29.142  33.318  1.00  0.00     0.134 A 
ATOM     77  F   UNL A   1      41.984  32.027  34.117  1.00  0.00    -0.206 F 
ATOM     78  C   UNL A   1      39.652  31.774  34.163  1.00  0.00     0.040 A 
ATOM     79  C   UNL A   1      38.672  29.665  33.561  1.00  0.00     0.040 A 
ATOM     80  F   UNL A   1      40.031  27.889  32.852  1.00  0.00    -0.206 F 
ATOM     81  C   UNL A   1      38.520  30.995  33.947  1.00  0.00     0.006 A 
ENDBRANCH  53  74
BRANCH  65  82
ATOM     82  C   UNL A   1      45.059  24.047  33.386  1.00  0.00     0.057 A 
ATOM     83  C   UNL A   1      46.382  23.783  33.774  1.00  0.00     0.134 A 
ATOM     84  C   UNL A   1      44.100  23.139  33.890  1.00  0.00     0.134 A 
ATOM     85  F   UNL A   1      47.383  24.622  33.476  1.00  0.00    -0.206 F 
ATOM     86  C   UNL A   1      46.735  22.668  34.545  1.00  0.00     0.040 A 
ATOM     87  C   UNL A   1      44.434  22.054  34.707  1.00  0.00     0.040 A 
ATOM     88  F   UNL A   1      42.791  23.282  33.632  1.00  0.00    -0.206 F 
ATOM     89  C   UNL A   1      45.759  21.805  35.025  1.00  0.00     0.006 A 
ENDBRANCH  65  82
ENDBRANCH  39  40
ENDBRANCH  31  34
ENDBRANCH  29  30
ENDBRANCH  28  29
ENDBRANCH  27  28
ENDBRANCH   1  27
TORSDOF 15
ENDMDL
MODEL 2
REMARK VINA RESULT:     -12.2      2.252      3.784
REMARK SMILES Cc1cccc(OCC(=O)Nc2cc(C(=O)NCCCCNC(=O)c3ccc(-c4c5nc(c(-c6c(F)cccc6F)c6ccc([nH]6)c(-c6c(F)cccc6F)c6nc(c(-c7c(F)cccc7F)c7ccc4[nH]7)C=C6)C=C5)cc3)c(Cl)cc2Cl)c1
REMARK SMILES IDX 18 1 17 2 15 3 16 4 14 6 12 7 13 8 82 9 81 10 83 11 79 12
REMARK SMILES IDX 80 13 11 14 9 15 10 16 8 18 7 19 6 20 1 21 2 22 3 23 84 24
REMARK SMILES IDX 4 25 5 26 19 27 20 28 21 29 22 30 23 31 24 33 25 34 26 35
REMARK SMILES IDX 78 36 27 37 77 38 28 39 29 40 30 41 71 42 31 43 76 44 70 45
REMARK SMILES IDX 72 46 32 47 75 48 69 49 68 50 33 52 59 53 42 54 58 55 43 56
REMARK SMILES IDX 46 57 57 58 73 59 44 60 45 61 56 63 74 64 47 65 34 66 35 67
REMARK SMILES IDX 40 68 36 69 37 70 39 71 41 72 38 73 60 74 61 75 66 76 62 77
REMARK SMILES IDX 63 78 65 79 67 80 64 81 48 82 49 83 54 84 50 85 51 86 53 87
REMARK SMILES IDX 55 88 52 89
REMARK H PARENT 17 5 11 17 22 32 72 51 46 62
REMARK Flexibility Score: inf
ROOT
ATOM      1  C   UNL A   1      34.444  28.698  26.190  1.00  0.00     0.116 C 
ENDROOT
BRANCH   1   2
ATOM      2  N   UNL A   1      33.415  29.631  25.787  1.00  0.00    -0.352 N 
ATOM      3  C   UNL A   1      32.115  29.384  25.394  1.00  0.00     0.252 C 
ATOM      4  O   UNL A   1      31.316  30.318  25.395  1.00  0.00    -0.269 OA
ATOM      5  H   UNL A   1      33.680  30.578  25.794  1.00  0.00     0.163 HD
BRANCH   3   6
ATOM      6  C   UNL A   1      31.661  28.040  24.939  1.00  0.00     0.060 A 
ATOM      7  C   UNL A   1      30.650  25.858  25.398  1.00  0.00     0.061 A 
ATOM      8  C   UNL A   1      31.009  27.144  25.820  1.00  0.00     0.043 A 
ATOM      9  C   UNL A   1      30.855  25.524  24.041  1.00  0.00     0.066 A 
ATOM     10  C   UNL A   1      31.422  26.426  23.144  1.00  0.00     0.044 A 
ATOM     11  Cl  UNL A   1      30.406  23.965  23.426  1.00  0.00    -0.082 Cl
ATOM     12  C   UNL A   1      31.846  27.675  23.594  1.00  0.00     0.055 A 
ATOM     13  Cl  UNL A   1      32.638  28.678  22.429  1.00  0.00    -0.083 Cl
BRANCH   7  14
ATOM     14  N   UNL A   1      30.159  24.828  26.224  1.00  0.00    -0.322 N 
ATOM     15  C   UNL A   1      30.652  23.725  26.845  1.00  0.00     0.262 C 
ATOM     16  O   UNL A   1      29.828  22.997  27.415  1.00  0.00    -0.271 OA
ATOM     17  H   UNL A   1      29.196  24.938  26.400  1.00  0.00     0.170 HD
BRANCH  15  18
ATOM     18  C   UNL A   1      32.139  23.407  26.942  1.00  0.00     0.329 C 
BRANCH  18  19
ATOM     19  O   UNL A   1      32.708  22.565  25.959  1.00  0.00    -0.484 OA
BRANCH  19  20
ATOM     20  C   UNL A   1      33.928  22.881  25.434  1.00  0.00     0.120 A 
ATOM     21  C   UNL A   1      37.546  23.853  26.096  1.00  0.00     0.044 C 
ATOM     22  C   UNL A   1      36.288  23.433  25.397  1.00  0.00    -0.047 A 
ATOM     23  C   UNL A   1      36.283  23.398  23.997  1.00  0.00     0.003 A 
ATOM     24  C   UNL A   1      35.108  23.153  26.115  1.00  0.00     0.049 A 
ATOM     25  C   UNL A   1      35.102  23.161  23.319  1.00  0.00     0.004 A 
ATOM     26  C   UNL A   1      33.937  22.951  24.043  1.00  0.00     0.046 A 
ENDBRANCH  19  20
ENDBRANCH  18  19
ENDBRANCH  15  18
ENDBRANCH   7  14
ENDBRANCH   3   6
ENDBRANCH   1   2
BRANCH   1  27
ATOM     27  C   UNL A   1      35.427  29.186  27.260  1.00  0.00     0.023 C 
BRANCH  27  28
ATOM     28  C   UNL A   1      34.941  30.248  28.252  1.00  0.00     0.023 C 
BRANCH  28  29
ATOM     29  C   UNL A   1      35.131  31.724  27.885  1.00  0.00     0.116 C 
BRANCH  29  30
ATOM     30  N   UNL A   1      34.139  32.651  28.443  1.00  0.00    -0.352 N 
ATOM     31  C   UNL A   1      34.288  33.597  29.462  1.00  0.00     0.251 C 
ATOM     32  H   UNL A   1      33.241  32.601  28.042  1.00  0.00     0.163 HD
ATOM     33  O   UNL A   1      33.413  34.397  29.705  1.00  0.00    -0.269 OA
BRANCH  31  34
ATOM     34  C   UNL A   1      35.586  33.668  30.185  1.00  0.00     0.039 A 
ATOM     35  C   UNL A   1      36.682  34.275  29.563  1.00  0.00     0.014 A 
ATOM     36  C   UNL A   1      35.759  32.936  31.351  1.00  0.00     0.014 A 
ATOM     37  C   UNL A   1      37.968  33.890  29.941  1.00  0.00     0.010 A 
ATOM     38  C   UNL A   1      37.017  32.444  31.630  1.00  0.00     0.010 A 
ATOM     39  C   UNL A   1      38.116  32.863  30.871  1.00  0.00    -0.014 A 
BRANCH  39  40
ATOM     40  C   UNL A   1      39.316  32.029  30.959  1.00  0.00     0.031 A 
ATOM     41  C   UNL A   1      39.433  30.762  30.202  1.00  0.00     0.074 A 
ATOM     42  C   UNL A   1      40.392  32.525  31.612  1.00  0.00     0.049 A 
ATOM     43  N   UNL A   1      40.322  29.853  30.423  1.00  0.00    -0.248 NA
ATOM     44  C   UNL A   1      38.495  30.395  29.150  1.00  0.00     0.031 C 
ATOM     45  C   UNL A   1      41.783  32.093  31.498  1.00  0.00     0.029 A 
ATOM     46  N   UNL A   1      40.394  33.420  32.694  1.00  0.00    -0.354 N 
ATOM     47  C   UNL A   1      40.260  28.936  29.394  1.00  0.00     0.074 A 
ATOM     48  C   UNL A   1      39.062  29.285  28.670  1.00  0.00     0.031 C 
ATOM     49  C   UNL A   1      42.454  32.496  32.590  1.00  0.00     0.029 A 
ATOM     50  C   UNL A   1      41.471  33.031  33.517  1.00  0.00     0.049 A 
ATOM     51  H   UNL A   1      39.771  34.167  32.847  1.00  0.00     0.167 HD
ATOM     52  C   UNL A   1      41.303  28.075  29.201  1.00  0.00     0.037 A 
ATOM     53  C   UNL A   1      41.270  32.555  34.781  1.00  0.00     0.037 A 
ATOM     54  C   UNL A   1      42.281  28.184  30.285  1.00  0.00     0.049 A 
ATOM     55  C   UNL A   1      41.841  31.182  35.030  1.00  0.00     0.074 A 
ATOM     56  C   UNL A   1      43.498  28.839  30.390  1.00  0.00     0.029 A 
ATOM     57  N   UNL A   1      41.928  27.804  31.576  1.00  0.00    -0.354 N 
ATOM     58  N   UNL A   1      42.103  30.319  34.091  1.00  0.00    -0.248 NA
ATOM     59  C   UNL A   1      42.109  30.662  36.367  1.00  0.00     0.031 C 
ATOM     60  C   UNL A   1      43.854  28.891  31.760  1.00  0.00     0.029 A 
ATOM     61  C   UNL A   1      42.862  28.257  32.488  1.00  0.00     0.049 A 
ATOM     62  H   UNL A   1      41.125  27.284  31.808  1.00  0.00     0.167 HD
ATOM     63  C   UNL A   1      42.485  29.133  34.663  1.00  0.00     0.074 A 
ATOM     64  C   UNL A   1      42.517  29.413  36.086  1.00  0.00     0.031 C 
ATOM     65  C   UNL A   1      42.701  28.012  33.914  1.00  0.00     0.037 A 
BRANCH  52  66
ATOM     66  C   UNL A   1      41.595  27.364  27.888  1.00  0.00     0.057 A 
ATOM     67  C   UNL A   1      42.030  28.089  26.758  1.00  0.00     0.134 A 
ATOM     68  C   UNL A   1      41.392  25.997  27.632  1.00  0.00     0.134 A 
ATOM     69  F   UNL A   1      42.409  29.371  26.843  1.00  0.00    -0.206 F 
ATOM     70  C   UNL A   1      42.107  27.538  25.470  1.00  0.00     0.040 A 
ATOM     71  C   UNL A   1      41.416  25.440  26.343  1.00  0.00     0.040 A 
ATOM     72  F   UNL A   1      41.234  25.110  28.619  1.00  0.00    -0.206 F 
ATOM     73  C   UNL A   1      41.754  26.218  25.249  1.00  0.00     0.006 A 
ENDBRANCH  52  66
BRANCH  53  74
ATOM     74  C   UNL A   1      40.026  33.045  35.429  1.00  0.00     0.057 A 
ATOM     75  C   UNL A   1      38.863  32.266  35.360  1.00  0.00     0.134 A 
ATOM     76  C   UNL A   1      40.044  34.077  36.373  1.00  0.00     0.134 A 
ATOM     77  F   UNL A   1      38.774  31.283  34.453  1.00  0.00    -0.206 F 
ATOM     78  C   UNL A   1      37.810  32.427  36.261  1.00  0.00     0.040 A 
ATOM     79  C   UNL A   1      38.986  34.261  37.271  1.00  0.00     0.040 A 
ATOM     80  F   UNL A   1      41.124  34.858  36.510  1.00  0.00    -0.206 F 
ATOM     81  C   UNL A   1      37.883  33.410  37.241  1.00  0.00     0.006 A 
ENDBRANCH  53  74
BRANCH  65  82
ATOM     82  C   UNL A   1      42.845  26.609  34.450  1.00  0.00     0.057 A 
ATOM     83  C   UNL A   1      41.791  25.852  34.985  1.00  0.00     0.134 A 
ATOM     84  C   UNL A   1      44.063  25.908  34.301  1.00  0.00     0.134 A 
ATOM     85  F   UNL A   1      40.547  26.341  35.073  1.00  0.00    -0.206 F 
ATOM     86  C   UNL A   1      41.950  24.524  35.403  1.00  0.00     0.040 A 
ATOM     87  C   UNL A   1      44.219  24.566  34.662  1.00  0.00     0.040 A 
ATOM     88  F   UNL A   1      45.150  26.490  33.773  1.00  0.00    -0.206 F 
ATOM     89  C   UNL A   1      43.164  23.871  35.231  1.00  0.00     0.006 A 
ENDBRANCH  65  82
ENDBRANCH  39  40
ENDBRANCH  31  34
ENDBRANCH  29  30
ENDBRANCH  28  29
ENDBRANCH  27  28
ENDBRANCH   1  27
TORSDOF 15
ENDMDL
MODEL 3
REMARK VINA RESULT:     -12.2      2.241      3.551
REMARK SMILES Cc1cccc(OCC(=O)Nc2cc(C(=O)NCCCCNC(=O)c3ccc(-c4c5nc(c(-c6c(F)cccc6F)c6ccc([nH]6)c(-c6c(F)cccc6F)c6nc(c(-c7c(F)cccc7F)c7ccc4[nH]7)C=C6)C=C5)cc3)c(Cl)cc2Cl)c1
REMARK SMILES IDX 18 1 17 2 15 3 16 4 14 6 12 7 13 8 82 9 81 10 83 11 79 12
REMARK SMILES IDX 80 13 11 14 9 15 10 16 8 18 7 19 6 20 1 21 2 22 3 23 84 24
REMARK SMILES IDX 4 25 5 26 19 27 20 28 21 29 22 30 23 31 24 33 25 34 26 35
REMARK SMILES IDX 78 36 27 37 77 38 28 39 29 40 30 41 71 42 31 43 76 44 70 45
REMARK SMILES IDX 72 46 32 47 75 48 69 49 68 50 33 52 59 53 42 54 58 55 43 56
REMARK SMILES IDX 46 57 57 58 73 59 44 60 45 61 56 63 74 64 47 65 34 66 35 67
REMARK SMILES IDX 40 68 36 69 37 70 39 71 41 72 38 73 60 74 61 75 66 76 62 77
REMARK SMILES IDX 63 78 65 79 67 80 64 81 48 82 49 83 54 84 50 85 51 86 53 87
REMARK SMILES IDX 55 88 52 89
REMARK H PARENT 17 5 11 17 22 32 72 51 46 62
REMARK Flexibility Score: inf
ROOT
ATOM      1  C   UNL A   1      33.665  29.350  25.871  1.00  0.00     0.116 C 
ENDROOT
BRANCH   1   2
ATOM      2  N   UNL A   1      34.003  28.756  24.596  1.00  0.00    -0.352 N 
ATOM      3  C   UNL A   1      33.466  27.646  23.977  1.00  0.00     0.252 C 
ATOM      4  O   UNL A   1      33.667  27.491  22.775  1.00  0.00    -0.269 OA
ATOM      5  H   UNL A   1      34.720  29.211  24.098  1.00  0.00     0.163 HD
BRANCH   3   6
ATOM      6  C   UNL A   1      32.685  26.618  24.722  1.00  0.00     0.060 A 
ATOM      7  C   UNL A   1      32.579  24.583  26.077  1.00  0.00     0.061 A 
ATOM      8  C   UNL A   1      33.327  25.581  25.439  1.00  0.00     0.043 A 
ATOM      9  C   UNL A   1      31.172  24.706  26.078  1.00  0.00     0.066 A 
ATOM     10  C   UNL A   1      30.531  25.767  25.444  1.00  0.00     0.044 A 
ATOM     11  Cl  UNL A   1      30.173  23.533  26.876  1.00  0.00    -0.082 Cl
ATOM     12  C   UNL A   1      31.282  26.712  24.747  1.00  0.00     0.055 A 
ATOM     13  Cl  UNL A   1      30.387  27.926  23.901  1.00  0.00    -0.083 Cl
BRANCH   7  14
ATOM     14  N   UNL A   1      33.102  23.415  26.668  1.00  0.00    -0.322 N 
ATOM     15  C   UNL A   1      33.639  22.239  26.252  1.00  0.00     0.262 C 
ATOM     16  O   UNL A   1      33.887  21.403  27.130  1.00  0.00    -0.271 OA
ATOM     17  H   UNL A   1      33.069  23.466  27.651  1.00  0.00     0.170 HD
BRANCH  15  18
ATOM     18  C   UNL A   1      34.021  21.954  24.805  1.00  0.00     0.329 C 
BRANCH  18  19
ATOM     19  O   UNL A   1      35.096  22.681  24.241  1.00  0.00    -0.484 OA
BRANCH  19  20
ATOM     20  C   UNL A   1      36.308  22.674  24.868  1.00  0.00     0.120 A 
ATOM     21  C   UNL A   1      38.895  24.624  26.864  1.00  0.00     0.044 C 
ATOM     22  C   UNL A   1      38.162  23.501  26.194  1.00  0.00    -0.047 A 
ATOM     23  C   UNL A   1      38.786  22.250  26.116  1.00  0.00     0.003 A 
ATOM     24  C   UNL A   1      36.908  23.703  25.583  1.00  0.00     0.049 A 
ATOM     25  C   UNL A   1      38.207  21.236  25.377  1.00  0.00     0.004 A 
ATOM     26  C   UNL A   1      37.003  21.475  24.729  1.00  0.00     0.046 A 
ENDBRANCH  19  20
ENDBRANCH  18  19
ENDBRANCH  15  18
ENDBRANCH   7  14
ENDBRANCH   3   6
ENDBRANCH   1   2
BRANCH   1  27
ATOM     27  C   UNL A   1      34.340  28.744  27.107  1.00  0.00     0.023 C 
BRANCH  27  28
ATOM     28  C   UNL A   1      35.127  29.682  28.028  1.00  0.00     0.023 C 
BRANCH  28  29
ATOM     29  C   UNL A   1      35.272  31.151  27.615  1.00  0.00     0.116 C 
BRANCH  29  30
ATOM     30  N   UNL A   1      34.251  32.064  28.142  1.00  0.00    -0.352 N 
ATOM     31  C   UNL A   1      34.359  33.023  29.155  1.00  0.00     0.251 C 
ATOM     32  H   UNL A   1      33.363  31.992  27.722  1.00  0.00     0.163 HD
ATOM     33  O   UNL A   1      33.463  33.807  29.370  1.00  0.00    -0.269 OA
BRANCH  31  34
ATOM     34  C   UNL A   1      35.639  33.126  29.904  1.00  0.00     0.039 A 
ATOM     35  C   UNL A   1      36.725  33.782  29.315  1.00  0.00     0.014 A 
ATOM     36  C   UNL A   1      35.815  32.380  31.061  1.00  0.00     0.014 A 
ATOM     37  C   UNL A   1      38.016  33.436  29.712  1.00  0.00     0.010 A 
ATOM     38  C   UNL A   1      37.084  31.928  31.357  1.00  0.00     0.010 A 
ATOM     39  C   UNL A   1      38.182  32.398  30.627  1.00  0.00    -0.014 A 
BRANCH  39  40
ATOM     40  C   UNL A   1      39.409  31.605  30.726  1.00  0.00     0.031 A 
ATOM     41  C   UNL A   1      39.593  30.368  29.935  1.00  0.00     0.074 A 
ATOM     42  C   UNL A   1      40.447  32.119  31.425  1.00  0.00     0.049 A 
ATOM     43  N   UNL A   1      40.509  29.484  30.154  1.00  0.00    -0.248 NA
ATOM     44  C   UNL A   1      38.700  30.000  28.845  1.00  0.00     0.031 C 
ATOM     45  C   UNL A   1      41.856  31.741  31.339  1.00  0.00     0.029 A 
ATOM     46  N   UNL A   1      40.385  32.979  32.533  1.00  0.00    -0.354 N 
ATOM     47  C   UNL A   1      40.509  28.598  29.097  1.00  0.00     0.074 A 
ATOM     48  C   UNL A   1      39.320  28.927  28.349  1.00  0.00     0.031 C 
ATOM     49  C   UNL A   1      42.480  32.133  32.462  1.00  0.00     0.029 A 
ATOM     50  C   UNL A   1      41.453  32.603  33.375  1.00  0.00     0.049 A 
ATOM     51  H   UNL A   1      39.732  33.698  32.690  1.00  0.00     0.167 HD
ATOM     52  C   UNL A   1      41.588  27.781  28.909  1.00  0.00     0.037 A 
ATOM     53  C   UNL A   1      41.233  32.082  34.618  1.00  0.00     0.037 A 
ATOM     54  C   UNL A   1      42.531  27.891  30.024  1.00  0.00     0.049 A 
ATOM     55  C   UNL A   1      41.847  30.723  34.842  1.00  0.00     0.074 A 
ATOM     56  C   UNL A   1      43.719  28.586  30.185  1.00  0.00     0.029 A 
ATOM     57  N   UNL A   1      42.156  27.459  31.292  1.00  0.00    -0.354 N 
ATOM     58  N   UNL A   1      42.167  29.899  33.885  1.00  0.00    -0.248 NA
ATOM     59  C   UNL A   1      42.096  30.171  36.170  1.00  0.00     0.031 C 
ATOM     60  C   UNL A   1      44.034  28.608  31.565  1.00  0.00     0.029 A 
ATOM     61  C   UNL A   1      43.046  27.917  32.244  1.00  0.00     0.049 A 
ATOM     62  H   UNL A   1      41.365  26.904  31.485  1.00  0.00     0.167 HD
ATOM     63  C   UNL A   1      42.576  28.711  34.433  1.00  0.00     0.074 A 
ATOM     64  C   UNL A   1      42.558  28.947  35.864  1.00  0.00     0.031 C 
ATOM     65  C   UNL A   1      42.854  27.622  33.657  1.00  0.00     0.037 A 
BRANCH  52  66
ATOM     66  C   UNL A   1      41.943  27.122  27.584  1.00  0.00     0.057 A 
ATOM     67  C   UNL A   1      42.163  25.731  27.507  1.00  0.00     0.134 A 
ATOM     68  C   UNL A   1      42.170  27.793  26.370  1.00  0.00     0.134 A 
ATOM     69  F   UNL A   1      41.863  24.910  28.522  1.00  0.00    -0.206 F 
ATOM     70  C   UNL A   1      42.701  25.096  26.377  1.00  0.00     0.040 A 
ATOM     71  C   UNL A   1      42.753  27.184  25.247  1.00  0.00     0.040 A 
ATOM     72  F   UNL A   1      41.770  29.054  26.175  1.00  0.00    -0.206 F 
ATOM     73  C   UNL A   1      43.043  25.830  25.255  1.00  0.00     0.006 A 
ENDBRANCH  52  66
BRANCH  53  74
ATOM     74  C   UNL A   1      39.955  32.507  35.244  1.00  0.00     0.057 A 
ATOM     75  C   UNL A   1      39.907  33.715  35.953  1.00  0.00     0.134 A 
ATOM     76  C   UNL A   1      38.732  31.930  34.888  1.00  0.00     0.134 A 
ATOM     77  F   UNL A   1      41.046  34.299  36.351  1.00  0.00    -0.206 F 
ATOM     78  C   UNL A   1      38.706  34.380  36.199  1.00  0.00     0.040 A 
ATOM     79  C   UNL A   1      37.518  32.578  35.144  1.00  0.00     0.040 A 
ATOM     80  F   UNL A   1      38.694  30.782  34.197  1.00  0.00    -0.206 F 
ATOM     81  C   UNL A   1      37.506  33.825  35.767  1.00  0.00     0.006 A 
ENDBRANCH  53  74
BRANCH  65  82
ATOM     82  C   UNL A   1      43.034  26.209  34.155  1.00  0.00     0.057 A 
ATOM     83  C   UNL A   1      42.050  25.478  34.840  1.00  0.00     0.134 A 
ATOM     84  C   UNL A   1      44.192  25.473  33.816  1.00  0.00     0.134 A 
ATOM     85  F   UNL A   1      40.851  26.003  35.121  1.00  0.00    -0.206 F 
ATOM     86  C   UNL A   1      42.230  24.141  35.219  1.00  0.00     0.040 A 
ATOM     87  C   UNL A   1      44.359  24.123  34.139  1.00  0.00     0.040 A 
ATOM     88  F   UNL A   1      45.203  26.029  33.131  1.00  0.00    -0.206 F 
ATOM     89  C   UNL A   1      43.382  23.454  34.858  1.00  0.00     0.006 A 
ENDBRANCH  65  82
ENDBRANCH  39  40
ENDBRANCH  31  34
ENDBRANCH  29  30
ENDBRANCH  28  29
ENDBRANCH  27  28
ENDBRANCH   1  27
TORSDOF 15
ENDMDL
