MODEL 1
REMARK VINA RESULT:      -9.9      0.000      0.000
REMARK SMILES COCC[N@H+](C)[C@H](C)[C@@H](C)C(=O)NCCCCNC(=O)c1ccc(-c2c3nc(c(-c4c(F)cccc4F)c4ccc([nH]4)c(-c4c(F)cccc4F)c4nc(c(-c5c(F)cccc5F)c5ccc2[nH]5)C=C4)C=C3)cc1
REMARK SMILES IDX 14 1 13 2 11 3 12 4 9 6 10 7 7 8 8 9 5 10 6 11 4 13 3 14
REMARK SMILES IDX 2 15 1 16 15 17 16 18 17 19 18 20 19 21 20 23 21 24 22 25
REMARK SMILES IDX 74 26 23 27 73 28 24 29 25 30 26 31 67 32 27 33 72 34 66 35
REMARK SMILES IDX 68 36 28 37 71 38 65 39 64 40 29 42 55 43 38 44 54 45 39 46
REMARK SMILES IDX 42 47 53 48 69 49 40 50 41 51 52 53 70 54 43 55 30 56 31 57
REMARK SMILES IDX 36 58 32 59 33 60 35 61 37 62 34 63 56 64 57 65 62 66 58 67
REMARK SMILES IDX 59 68 61 69 63 70 60 71 44 72 45 73 50 74 46 75 47 76 49 77
REMARK SMILES IDX 51 78 48 79
REMARK H PARENT 13 5 5 12 18 22 68 41 42 52
REMARK Flexibility Score: inf
ROOT
ATOM      1  C   UNL A   1      31.660  29.827  25.378  1.00  0.00     0.116 C 
ENDROOT
BRANCH   1   2
ATOM      2  N   UNL A   1      32.832  29.699  24.530  1.00  0.00    -0.356 N 
ATOM      3  C   UNL A   1      33.315  28.672  23.783  1.00  0.00     0.228 C 
ATOM      4  O   UNL A   1      34.355  28.885  23.153  1.00  0.00    -0.275 OA
ATOM      5  H   UNL A   1      33.382  30.514  24.489  1.00  0.00     0.163 HD
BRANCH   3   6
ATOM      6  C   UNL A   1      32.626  27.312  23.690  1.00  0.00     0.133 C 
ATOM      7  C   UNL A   1      33.658  26.213  23.985  1.00  0.00     0.024 C 
BRANCH   6   8
ATOM      8  C   UNL A   1      31.770  27.152  22.396  1.00  0.00     0.193 C 
ATOM      9  C   UNL A   1      31.926  25.774  21.722  1.00  0.00     0.076 C 
BRANCH   8  10
ATOM     10  N   UNL A   1      30.322  27.493  22.489  1.00  0.00    -0.333 N 
ATOM     11  C   UNL A   1      29.700  27.087  23.754  1.00  0.00     0.333 C 
ATOM     12  H   UNL A   1      29.942  26.931  21.728  1.00  0.00     0.348 HD
BRANCH  10  13
ATOM     13  C   UNL A   1      29.959  28.900  22.195  1.00  0.00     0.291 C 
BRANCH  13  14
ATOM     14  C   UNL A   1      28.746  29.506  22.931  1.00  0.00     0.221 C 
BRANCH  14  15
ATOM     15  O   UNL A   1      27.728  30.056  22.094  1.00  0.00    -0.379 OA
ATOM     16  C   UNL A   1      28.188  31.048  21.190  1.00  0.00     0.195 C 
ENDBRANCH  14  15
ENDBRANCH  13  14
ENDBRANCH  10  13
ENDBRANCH   8  10
ENDBRANCH   6   8
ENDBRANCH   3   6
ENDBRANCH   1   2
BRANCH   1  17
ATOM     17  C   UNL A   1      31.961  30.440  26.747  1.00  0.00     0.023 C 
BRANCH  17  18
ATOM     18  C   UNL A   1      31.669  31.933  26.876  1.00  0.00     0.023 C 
BRANCH  18  19
ATOM     19  C   UNL A   1      32.864  32.770  27.304  1.00  0.00     0.116 C 
BRANCH  19  20
ATOM     20  N   UNL A   1      32.495  34.143  27.618  1.00  0.00    -0.352 N 
ATOM     21  C   UNL A   1      33.006  34.972  28.586  1.00  0.00     0.251 C 
ATOM     22  H   UNL A   1      31.782  34.530  27.060  1.00  0.00     0.163 HD
ATOM     23  O   UNL A   1      32.473  36.051  28.829  1.00  0.00    -0.269 OA
BRANCH  21  24
ATOM     24  C   UNL A   1      34.191  34.539  29.350  1.00  0.00     0.039 A 
ATOM     25  C   UNL A   1      34.014  33.918  30.589  1.00  0.00     0.014 A 
ATOM     26  C   UNL A   1      35.470  34.715  28.819  1.00  0.00     0.014 A 
ATOM     27  C   UNL A   1      35.123  33.407  31.265  1.00  0.00     0.010 A 
ATOM     28  C   UNL A   1      36.561  34.138  29.453  1.00  0.00     0.010 A 
ATOM     29  C   UNL A   1      36.399  33.481  30.683  1.00  0.00    -0.014 A 
BRANCH  29  30
ATOM     30  C   UNL A   1      37.595  32.897  31.336  1.00  0.00     0.031 A 
ATOM     31  C   UNL A   1      38.268  31.707  30.711  1.00  0.00     0.074 A 
ATOM     32  C   UNL A   1      38.005  33.362  32.531  1.00  0.00     0.049 A 
ATOM     33  N   UNL A   1      39.208  30.938  31.196  1.00  0.00    -0.248 NA
ATOM     34  C   UNL A   1      37.789  31.306  29.378  1.00  0.00     0.031 C 
ATOM     35  C   UNL A   1      37.407  34.484  33.257  1.00  0.00     0.029 A 
ATOM     36  N   UNL A   1      39.011  32.929  33.358  1.00  0.00    -0.354 N 
ATOM     37  C   UNL A   1      39.407  29.944  30.246  1.00  0.00     0.074 A 
ATOM     38  C   UNL A   1      38.461  30.182  29.177  1.00  0.00     0.031 C 
ATOM     39  C   UNL A   1      38.063  34.658  34.415  1.00  0.00     0.029 A 
ATOM     40  C   UNL A   1      39.098  33.636  34.534  1.00  0.00     0.049 A 
ATOM     41  H   UNL A   1      39.611  32.183  33.132  1.00  0.00     0.167 HD
ATOM     42  C   UNL A   1      40.309  28.936  30.255  1.00  0.00     0.037 A 
ATOM     43  C   UNL A   1      39.911  33.466  35.592  1.00  0.00     0.037 A 
ATOM     44  C   UNL A   1      41.277  28.732  31.300  1.00  0.00     0.049 A 
ATOM     45  C   UNL A   1      40.917  32.348  35.571  1.00  0.00     0.074 A 
ATOM     46  C   UNL A   1      42.281  27.783  31.372  1.00  0.00     0.029 A 
ATOM     47  N   UNL A   1      41.363  29.499  32.452  1.00  0.00    -0.354 N 
ATOM     48  N   UNL A   1      41.131  31.446  34.645  1.00  0.00    -0.248 NA
ATOM     49  C   UNL A   1      41.795  32.225  36.744  1.00  0.00     0.031 C 
ATOM     50  C   UNL A   1      42.956  27.956  32.584  1.00  0.00     0.029 A 
ATOM     51  C   UNL A   1      42.396  29.036  33.248  1.00  0.00     0.049 A 
ATOM     52  H   UNL A   1      40.776  30.258  32.672  1.00  0.00     0.167 HD
ATOM     53  C   UNL A   1      42.182  30.668  35.106  1.00  0.00     0.074 A 
ATOM     54  C   UNL A   1      42.569  31.207  36.393  1.00  0.00     0.031 C 
ATOM     55  C   UNL A   1      42.776  29.600  34.518  1.00  0.00     0.037 A 
BRANCH  42  56
ATOM     56  C   UNL A   1      40.293  27.984  29.096  1.00  0.00     0.057 A 
ATOM     57  C   UNL A   1      41.031  28.227  27.930  1.00  0.00     0.134 A 
ATOM     58  C   UNL A   1      39.547  26.800  29.154  1.00  0.00     0.134 A 
ATOM     59  F   UNL A   1      41.755  29.350  27.806  1.00  0.00    -0.206 F 
ATOM     60  C   UNL A   1      41.005  27.342  26.852  1.00  0.00     0.040 A 
ATOM     61  C   UNL A   1      39.535  25.894  28.092  1.00  0.00     0.040 A 
ATOM     62  F   UNL A   1      38.820  26.504  30.242  1.00  0.00    -0.206 F 
ATOM     63  C   UNL A   1      40.259  26.167  26.934  1.00  0.00     0.006 A 
ENDBRANCH  42  56
BRANCH  43  64
ATOM     64  C   UNL A   1      39.824  34.386  36.752  1.00  0.00     0.057 A 
ATOM     65  C   UNL A   1      39.077  34.045  37.885  1.00  0.00     0.134 A 
ATOM     66  C   UNL A   1      40.481  35.623  36.760  1.00  0.00     0.134 A 
ATOM     67  F   UNL A   1      38.412  32.882  37.929  1.00  0.00    -0.206 F 
ATOM     68  C   UNL A   1      38.970  34.907  38.978  1.00  0.00     0.040 A 
ATOM     69  C   UNL A   1      40.401  36.485  37.855  1.00  0.00     0.040 A 
ATOM     70  F   UNL A   1      41.218  36.005  35.707  1.00  0.00    -0.206 F 
ATOM     71  C   UNL A   1      39.639  36.130  38.966  1.00  0.00     0.006 A 
ENDBRANCH  43  64
BRANCH  55  72
ATOM     72  C   UNL A   1      43.931  28.973  35.237  1.00  0.00     0.057 A 
ATOM     73  C   UNL A   1      45.247  29.403  35.034  1.00  0.00     0.134 A 
ATOM     74  C   UNL A   1      43.714  27.967  36.187  1.00  0.00     0.134 A 
ATOM     75  F   UNL A   1      45.520  30.355  34.129  1.00  0.00    -0.206 F 
ATOM     76  C   UNL A   1      46.311  28.844  35.745  1.00  0.00     0.040 A 
ATOM     77  C   UNL A   1      44.765  27.417  36.919  1.00  0.00     0.040 A 
ATOM     78  F   UNL A   1      42.473  27.517  36.431  1.00  0.00    -0.206 F 
ATOM     79  C   UNL A   1      46.070  27.855  36.696  1.00  0.00     0.006 A 
ENDBRANCH  55  72
ENDBRANCH  29  30
ENDBRANCH  21  24
ENDBRANCH  19  20
ENDBRANCH  18  19
ENDBRANCH  17  18
ENDBRANCH   1  17
TORSDOF 16
ENDMDL
MODEL 2
REMARK VINA RESULT:      -9.8      5.003      9.533
REMARK SMILES COCC[N@H+](C)[C@H](C)[C@@H](C)C(=O)NCCCCNC(=O)c1ccc(-c2c3nc(c(-c4c(F)cccc4F)c4ccc([nH]4)c(-c4c(F)cccc4F)c4nc(c(-c5c(F)cccc5F)c5ccc2[nH]5)C=C4)C=C3)cc1
REMARK SMILES IDX 14 1 13 2 11 3 12 4 9 6 10 7 7 8 8 9 5 10 6 11 4 13 3 14
REMARK SMILES IDX 2 15 1 16 15 17 16 18 17 19 18 20 19 21 20 23 21 24 22 25
REMARK SMILES IDX 74 26 23 27 73 28 24 29 25 30 26 31 67 32 27 33 72 34 66 35
REMARK SMILES IDX 68 36 28 37 71 38 65 39 64 40 29 42 55 43 38 44 54 45 39 46
REMARK SMILES IDX 42 47 53 48 69 49 40 50 41 51 52 53 70 54 43 55 30 56 31 57
REMARK SMILES IDX 36 58 32 59 33 60 35 61 37 62 34 63 56 64 57 65 62 66 58 67
REMARK SMILES IDX 59 68 61 69 63 70 60 71 44 72 45 73 50 74 46 75 47 76 49 77
REMARK SMILES IDX 51 78 48 79
REMARK H PARENT 13 5 5 12 18 22 68 41 42 52
REMARK Flexibility Score: inf
ROOT
ATOM      1  C   UNL A   1      37.888  23.449  25.935  1.00  0.00     0.116 C 
ENDROOT
BRANCH   1   2
ATOM      2  N   UNL A   1      37.537  23.357  24.529  1.00  0.00    -0.356 N 
ATOM      3  C   UNL A   1      36.448  22.856  23.887  1.00  0.00     0.228 C 
ATOM      4  O   UNL A   1      36.446  22.935  22.655  1.00  0.00    -0.275 OA
ATOM      5  H   UNL A   1      38.218  23.731  23.925  1.00  0.00     0.163 HD
BRANCH   3   6
ATOM      6  C   UNL A   1      35.263  22.230  24.619  1.00  0.00     0.133 C 
ATOM      7  C   UNL A   1      35.572  20.750  24.889  1.00  0.00     0.024 C 
BRANCH   6   8
ATOM      8  C   UNL A   1      33.894  22.557  23.946  1.00  0.00     0.193 C 
ATOM      9  C   UNL A   1      32.992  21.320  23.755  1.00  0.00     0.076 C 
BRANCH   8  10
ATOM     10  N   UNL A   1      33.091  23.664  24.538  1.00  0.00    -0.333 N 
ATOM     11  C   UNL A   1      32.276  24.392  23.560  1.00  0.00     0.333 C 
ATOM     12  H   UNL A   1      33.830  24.275  24.884  1.00  0.00     0.348 HD
BRANCH  10  13
ATOM     13  C   UNL A   1      32.252  23.314  25.709  1.00  0.00     0.291 C 
BRANCH  13  14
ATOM     14  C   UNL A   1      31.592  24.463  26.499  1.00  0.00     0.221 C 
BRANCH  14  15
ATOM     15  O   UNL A   1      30.362  24.137  27.149  1.00  0.00    -0.379 OA
ATOM     16  C   UNL A   1      29.921  22.806  26.932  1.00  0.00     0.195 C 
ENDBRANCH  14  15
ENDBRANCH  13  14
ENDBRANCH  10  13
ENDBRANCH   8  10
ENDBRANCH   6   8
ENDBRANCH   3   6
ENDBRANCH   1   2
BRANCH   1  17
ATOM     17  C   UNL A   1      39.077  22.569  26.326  1.00  0.00     0.023 C 
BRANCH  17  18
ATOM     18  C   UNL A   1      39.160  21.223  25.610  1.00  0.00     0.023 C 
BRANCH  18  19
ATOM     19  C   UNL A   1      39.573  20.064  26.503  1.00  0.00     0.116 C 
BRANCH  19  20
ATOM     20  N   UNL A   1      40.717  19.336  25.973  1.00  0.00    -0.352 N 
ATOM     21  C   UNL A   1      42.010  19.767  25.807  1.00  0.00     0.251 C 
ATOM     22  H   UNL A   1      40.540  18.408  25.697  1.00  0.00     0.163 HD
ATOM     23  O   UNL A   1      42.823  19.081  25.194  1.00  0.00    -0.269 OA
BRANCH  21  24
ATOM     24  C   UNL A   1      42.405  21.080  26.352  1.00  0.00     0.039 A 
ATOM     25  C   UNL A   1      42.760  22.106  25.472  1.00  0.00     0.014 A 
ATOM     26  C   UNL A   1      42.387  21.300  27.731  1.00  0.00     0.014 A 
ATOM     27  C   UNL A   1      43.027  23.380  25.976  1.00  0.00     0.010 A 
ATOM     28  C   UNL A   1      42.576  22.583  28.222  1.00  0.00     0.010 A 
ATOM     29  C   UNL A   1      42.900  23.635  27.351  1.00  0.00    -0.014 A 
BRANCH  29  30
ATOM     30  C   UNL A   1      43.112  24.987  27.921  1.00  0.00     0.031 A 
ATOM     31  C   UNL A   1      44.476  25.370  28.422  1.00  0.00     0.074 A 
ATOM     32  C   UNL A   1      42.067  25.820  28.085  1.00  0.00     0.049 A 
ATOM     33  N   UNL A   1      44.841  26.421  29.109  1.00  0.00    -0.248 NA
ATOM     34  C   UNL A   1      45.568  24.421  28.145  1.00  0.00     0.031 C 
ATOM     35  C   UNL A   1      40.688  25.544  27.679  1.00  0.00     0.029 A 
ATOM     36  N   UNL A   1      42.000  27.062  28.664  1.00  0.00    -0.354 N 
ATOM     37  C   UNL A   1      46.192  26.243  29.377  1.00  0.00     0.074 A 
ATOM     38  C   UNL A   1      46.573  24.964  28.817  1.00  0.00     0.031 C 
ATOM     39  C   UNL A   1      39.914  26.589  28.010  1.00  0.00     0.029 A 
ATOM     40  C   UNL A   1      40.732  27.590  28.690  1.00  0.00     0.049 A 
ATOM     41  H   UNL A   1      42.786  27.530  29.028  1.00  0.00     0.167 HD
ATOM     42  C   UNL A   1      47.043  27.079  30.016  1.00  0.00     0.037 A 
ATOM     43  C   UNL A   1      40.279  28.742  29.217  1.00  0.00     0.037 A 
ATOM     44  C   UNL A   1      46.669  28.369  30.530  1.00  0.00     0.049 A 
ATOM     45  C   UNL A   1      41.248  29.661  29.908  1.00  0.00     0.074 A 
ATOM     46  C   UNL A   1      47.471  29.323  31.132  1.00  0.00     0.029 A 
ATOM     47  N   UNL A   1      45.383  28.887  30.495  1.00  0.00    -0.354 N 
ATOM     48  N   UNL A   1      42.533  29.507  30.110  1.00  0.00    -0.248 NA
ATOM     49  C   UNL A   1      40.702  30.917  30.443  1.00  0.00     0.031 C 
ATOM     50  C   UNL A   1      46.662  30.407  31.489  1.00  0.00     0.029 A 
ATOM     51  C   UNL A   1      45.366  30.143  31.075  1.00  0.00     0.049 A 
ATOM     52  H   UNL A   1      44.600  28.429  30.114  1.00  0.00     0.167 HD
ATOM     53  C   UNL A   1      42.956  30.652  30.769  1.00  0.00     0.074 A 
ATOM     54  C   UNL A   1      41.792  31.499  30.926  1.00  0.00     0.031 C 
ATOM     55  C   UNL A   1      44.198  30.976  31.205  1.00  0.00     0.037 A 
BRANCH  42  56
ATOM     56  C   UNL A   1      48.462  26.623  30.185  1.00  0.00     0.057 A 
ATOM     57  C   UNL A   1      49.462  26.960  29.263  1.00  0.00     0.134 A 
ATOM     58  C   UNL A   1      48.839  25.854  31.294  1.00  0.00     0.134 A 
ATOM     59  F   UNL A   1      49.164  27.682  28.172  1.00  0.00    -0.206 F 
ATOM     60  C   UNL A   1      50.779  26.526  29.421  1.00  0.00     0.040 A 
ATOM     61  C   UNL A   1      50.159  25.437  31.477  1.00  0.00     0.040 A 
ATOM     62  F   UNL A   1      47.932  25.499  32.217  1.00  0.00    -0.206 F 
ATOM     63  C   UNL A   1      51.131  25.766  30.536  1.00  0.00     0.006 A 
ENDBRANCH  42  56
BRANCH  43  64
ATOM     64  C   UNL A   1      38.845  29.103  29.096  1.00  0.00     0.057 A 
ATOM     65  C   UNL A   1      37.983  28.997  30.193  1.00  0.00     0.134 A 
ATOM     66  C   UNL A   1      38.302  29.560  27.890  1.00  0.00     0.134 A 
ATOM     67  F   UNL A   1      38.442  28.548  31.370  1.00  0.00    -0.206 F 
ATOM     68  C   UNL A   1      36.628  29.315  30.093  1.00  0.00     0.040 A 
ATOM     69  C   UNL A   1      36.954  29.904  27.780  1.00  0.00     0.040 A 
ATOM     70  F   UNL A   1      39.077  29.690  26.803  1.00  0.00    -0.206 F 
ATOM     71  C   UNL A   1      36.111  29.776  28.882  1.00  0.00     0.006 A 
ENDBRANCH  43  64
BRANCH  55  72
ATOM     72  C   UNL A   1      44.372  32.315  31.854  1.00  0.00     0.057 A 
ATOM     73  C   UNL A   1      44.664  33.463  31.110  1.00  0.00     0.134 A 
ATOM     74  C   UNL A   1      44.185  32.464  33.234  1.00  0.00     0.134 A 
ATOM     75  F   UNL A   1      44.865  33.382  29.785  1.00  0.00    -0.206 F 
ATOM     76  C   UNL A   1      44.775  34.715  31.718  1.00  0.00     0.040 A 
ATOM     77  C   UNL A   1      44.272  33.712  33.850  1.00  0.00     0.040 A 
ATOM     78  F   UNL A   1      43.896  31.402  34.001  1.00  0.00    -0.206 F 
ATOM     79  C   UNL A   1      44.571  34.842  33.090  1.00  0.00     0.006 A 
ENDBRANCH  55  72
ENDBRANCH  29  30
ENDBRANCH  21  24
ENDBRANCH  19  20
ENDBRANCH  18  19
ENDBRANCH  17  18
ENDBRANCH   1  17
TORSDOF 16
ENDMDL
MODEL 3
REMARK VINA RESULT:      -9.7      5.300      9.877
REMARK SMILES COCC[N@H+](C)[C@H](C)[C@@H](C)C(=O)NCCCCNC(=O)c1ccc(-c2c3nc(c(-c4c(F)cccc4F)c4ccc([nH]4)c(-c4c(F)cccc4F)c4nc(c(-c5c(F)cccc5F)c5ccc2[nH]5)C=C4)C=C3)cc1
REMARK SMILES IDX 14 1 13 2 11 3 12 4 9 6 10 7 7 8 8 9 5 10 6 11 4 13 3 14
REMARK SMILES IDX 2 15 1 16 15 17 16 18 17 19 18 20 19 21 20 23 21 24 22 25
REMARK SMILES IDX 74 26 23 27 73 28 24 29 25 30 26 31 67 32 27 33 72 34 66 35
REMARK SMILES IDX 68 36 28 37 71 38 65 39 64 40 29 42 55 43 38 44 54 45 39 46
REMARK SMILES IDX 42 47 53 48 69 49 40 50 41 51 52 53 70 54 43 55 30 56 31 57
REMARK SMILES IDX 36 58 32 59 33 60 35 61 37 62 34 63 56 64 57 65 62 66 58 67
REMARK SMILES IDX 59 68 61 69 63 70 60 71 44 72 45 73 50 74 46 75 47 76 49 77
REMARK SMILES IDX 51 78 48 79
REMARK H PARENT 13 5 5 12 18 22 68 41 42 52
REMARK Flexibility Score: inf
ROOT
ATOM      1  C   UNL A   1      37.915  23.583  25.881  1.00  0.00     0.116 C 
ENDROOT
BRANCH   1   2
ATOM      2  N   UNL A   1      37.521  23.330  24.506  1.00  0.00    -0.356 N 
ATOM      3  C   UNL A   1      36.306  23.201  23.910  1.00  0.00     0.228 C 
ATOM      4  O   UNL A   1      36.305  22.992  22.693  1.00  0.00    -0.275 OA
ATOM      5  H   UNL A   1      38.280  23.236  23.887  1.00  0.00     0.163 HD
BRANCH   3   6
ATOM      6  C   UNL A   1      34.987  23.314  24.671  1.00  0.00     0.133 C 
ATOM      7  C   UNL A   1      34.749  24.788  25.034  1.00  0.00     0.024 C 
BRANCH   6   8
ATOM      8  C   UNL A   1      34.861  22.271  25.824  1.00  0.00     0.193 C 
ATOM      9  C   UNL A   1      34.461  22.895  27.177  1.00  0.00     0.076 C 
BRANCH   8  10
ATOM     10  N   UNL A   1      34.015  21.070  25.567  1.00  0.00    -0.333 N 
ATOM     11  C   UNL A   1      32.708  21.383  24.981  1.00  0.00     0.333 C 
ATOM     12  H   UNL A   1      33.886  20.719  26.516  1.00  0.00     0.348 HD
BRANCH  10  13
ATOM     13  C   UNL A   1      34.648  19.974  24.795  1.00  0.00     0.291 C 
BRANCH  13  14
ATOM     14  C   UNL A   1      33.825  18.694  24.543  1.00  0.00     0.221 C 
BRANCH  14  15
ATOM     15  O   UNL A   1      34.585  17.516  24.273  1.00  0.00    -0.379 OA
ATOM     16  C   UNL A   1      34.066  16.712  23.225  1.00  0.00     0.195 C 
ENDBRANCH  14  15
ENDBRANCH  13  14
ENDBRANCH  10  13
ENDBRANCH   8  10
ENDBRANCH   6   8
ENDBRANCH   3   6
ENDBRANCH   1   2
BRANCH   1  17
ATOM     17  C   UNL A   1      38.990  22.623  26.394  1.00  0.00     0.023 C 
BRANCH  17  18
ATOM     18  C   UNL A   1      39.128  21.316  25.617  1.00  0.00     0.023 C 
BRANCH  18  19
ATOM     19  C   UNL A   1      39.472  20.111  26.476  1.00  0.00     0.116 C 
BRANCH  19  20
ATOM     20  N   UNL A   1      40.616  19.372  25.962  1.00  0.00    -0.352 N 
ATOM     21  C   UNL A   1      41.915  19.790  25.814  1.00  0.00     0.251 C 
ATOM     22  H   UNL A   1      40.433  18.446  25.683  1.00  0.00     0.163 HD
ATOM     23  O   UNL A   1      42.730  19.096  25.211  1.00  0.00    -0.269 OA
BRANCH  21  24
ATOM     24  C   UNL A   1      42.317  21.098  26.365  1.00  0.00     0.039 A 
ATOM     25  C   UNL A   1      42.685  22.123  25.491  1.00  0.00     0.014 A 
ATOM     26  C   UNL A   1      42.290  21.314  27.745  1.00  0.00     0.014 A 
ATOM     27  C   UNL A   1      42.958  23.394  26.000  1.00  0.00     0.010 A 
ATOM     28  C   UNL A   1      42.485  22.595  28.241  1.00  0.00     0.010 A 
ATOM     29  C   UNL A   1      42.823  23.647  27.374  1.00  0.00    -0.014 A 
BRANCH  29  30
ATOM     30  C   UNL A   1      43.041  24.995  27.950  1.00  0.00     0.031 A 
ATOM     31  C   UNL A   1      44.405  25.368  28.459  1.00  0.00     0.074 A 
ATOM     32  C   UNL A   1      42.000  25.835  28.111  1.00  0.00     0.049 A 
ATOM     33  N   UNL A   1      44.773  26.415  29.151  1.00  0.00    -0.248 NA
ATOM     34  C   UNL A   1      45.492  24.413  28.186  1.00  0.00     0.031 C 
ATOM     35  C   UNL A   1      40.622  25.569  27.696  1.00  0.00     0.029 A 
ATOM     36  N   UNL A   1      41.939  27.076  28.694  1.00  0.00    -0.354 N 
ATOM     37  C   UNL A   1      46.121  26.227  29.427  1.00  0.00     0.074 A 
ATOM     38  C   UNL A   1      46.496  24.947  28.865  1.00  0.00     0.031 C 
ATOM     39  C   UNL A   1      39.853  26.619  28.026  1.00  0.00     0.029 A 
ATOM     40  C   UNL A   1      40.674  27.612  28.714  1.00  0.00     0.049 A 
ATOM     41  H   UNL A   1      42.726  27.537  29.063  1.00  0.00     0.167 HD
ATOM     42  C   UNL A   1      46.974  27.054  30.073  1.00  0.00     0.037 A 
ATOM     43  C   UNL A   1      40.226  28.765  29.242  1.00  0.00     0.037 A 
ATOM     44  C   UNL A   1      46.606  28.345  30.589  1.00  0.00     0.049 A 
ATOM     45  C   UNL A   1      41.197  29.676  29.941  1.00  0.00     0.074 A 
ATOM     46  C   UNL A   1      47.411  29.292  31.199  1.00  0.00     0.029 A 
ATOM     47  N   UNL A   1      45.324  28.872  30.548  1.00  0.00    -0.354 N 
ATOM     48  N   UNL A   1      42.480  29.512  30.150  1.00  0.00    -0.248 NA
ATOM     49  C   UNL A   1      40.657  30.934  30.477  1.00  0.00     0.031 C 
ATOM     50  C   UNL A   1      46.607  30.381  31.555  1.00  0.00     0.029 A 
ATOM     51  C   UNL A   1      45.312  30.126  31.132  1.00  0.00     0.049 A 
ATOM     52  H   UNL A   1      44.539  28.420  30.161  1.00  0.00     0.167 HD
ATOM     53  C   UNL A   1      42.907  30.653  30.814  1.00  0.00     0.074 A 
ATOM     54  C   UNL A   1      41.748  31.507  30.968  1.00  0.00     0.031 C 
ATOM     55  C   UNL A   1      44.149  30.967  31.258  1.00  0.00     0.037 A 
BRANCH  42  56
ATOM     56  C   UNL A   1      48.389  26.589  30.248  1.00  0.00     0.057 A 
ATOM     57  C   UNL A   1      48.781  25.811  31.346  1.00  0.00     0.134 A 
ATOM     58  C   UNL A   1      49.369  26.904  29.299  1.00  0.00     0.134 A 
ATOM     59  F   UNL A   1      47.893  25.486  32.299  1.00  0.00    -0.206 F 
ATOM     60  C   UNL A   1      50.100  25.387  31.509  1.00  0.00     0.040 A 
ATOM     61  C   UNL A   1      50.687  26.463  29.436  1.00  0.00     0.040 A 
ATOM     62  F   UNL A   1      49.062  27.642  28.221  1.00  0.00    -0.206 F 
ATOM     63  C   UNL A   1      51.057  25.709  30.547  1.00  0.00     0.006 A 
ENDBRANCH  42  56
BRANCH  43  64
ATOM     64  C   UNL A   1      38.795  29.136  29.114  1.00  0.00     0.057 A 
ATOM     65  C   UNL A   1      37.929  29.044  30.209  1.00  0.00     0.134 A 
ATOM     66  C   UNL A   1      38.259  29.590  27.903  1.00  0.00     0.134 A 
ATOM     67  F   UNL A   1      38.381  28.598  31.390  1.00  0.00    -0.206 F 
ATOM     68  C   UNL A   1      36.576  29.371  30.102  1.00  0.00     0.040 A 
ATOM     69  C   UNL A   1      36.914  29.943  27.788  1.00  0.00     0.040 A 
ATOM     70  F   UNL A   1      39.039  29.708  26.818  1.00  0.00    -0.206 F 
ATOM     71  C   UNL A   1      36.067  29.828  28.888  1.00  0.00     0.006 A 
ENDBRANCH  43  64
BRANCH  55  72
ATOM     72  C   UNL A   1      44.328  32.303  31.912  1.00  0.00     0.057 A 
ATOM     73  C   UNL A   1      44.626  33.453  31.172  1.00  0.00     0.134 A 
ATOM     74  C   UNL A   1      44.139  32.448  33.293  1.00  0.00     0.134 A 
ATOM     75  F   UNL A   1      44.830  33.375  29.848  1.00  0.00    -0.206 F 
ATOM     76  C   UNL A   1      44.743  34.701  31.785  1.00  0.00     0.040 A 
ATOM     77  C   UNL A   1      44.232  33.693  33.913  1.00  0.00     0.040 A 
ATOM     78  F   UNL A   1      43.845  31.384  34.056  1.00  0.00    -0.206 F 
ATOM     79  C   UNL A   1      44.537  34.825  33.158  1.00  0.00     0.006 A 
ENDBRANCH  55  72
ENDBRANCH  29  30
ENDBRANCH  21  24
ENDBRANCH  19  20
ENDBRANCH  18  19
ENDBRANCH  17  18
ENDBRANCH   1  17
TORSDOF 16
ENDMDL
