MODEL 1
REMARK VINA RESULT:     -12.4      0.000      0.000
REMARK SMILES O=C(NCCCCNC(=O)c1cc2c(C(F)(F)F)onc2c2ccccc12)c1ccc(-c2c3nc(c(-c4c(F)cccc4F)c4ccc([nH]4)c(-c4c(F)cccc4F)c4nc(c(-c5c(F)cccc5F)c5ccc2[nH]5)C=C4)C=C3)cc1
REMARK SMILES IDX 5 1 4 2 3 3 1 4 2 5 28 7 29 8 81 9 30 10 80 11 31 12 32 13
REMARK SMILES IDX 33 14 74 15 34 16 79 17 73 18 75 19 35 20 78 21 72 22 71 23
REMARK SMILES IDX 36 25 62 26 45 27 61 28 46 29 49 30 60 31 76 32 47 33 48 34
REMARK SMILES IDX 59 36 77 37 50 38 37 39 38 40 43 41 39 42 40 43 42 44 44 45
REMARK SMILES IDX 41 46 63 47 64 48 69 49 65 50 66 51 68 52 70 53 67 54 51 55
REMARK SMILES IDX 52 56 57 57 53 58 54 59 56 60 58 61 55 62 6 63 7 64 8 65
REMARK SMILES IDX 9 66 10 68 11 69 12 70 27 71 13 72 22 73 26 74 14 75 21 76
REMARK SMILES IDX 23 77 25 78 19 79 20 80 24 81 15 82 16 83 17 84 18 85
REMARK H PARENT 3 6 75 24 49 35 8 67
REMARK Flexibility Score: inf
ROOT
ATOM      1  C   UNL A   1      39.327  20.599  25.410  1.00  0.00     0.023 C 
ENDROOT
BRANCH   1   2
ATOM      2  C   UNL A   1      39.858  19.460  26.257  1.00  0.00     0.116 C 
BRANCH   2   3
ATOM      3  N   UNL A   1      41.162  18.933  25.832  1.00  0.00    -0.352 N 
ATOM      4  O   UNL A   1      43.257  19.175  24.950  1.00  0.00    -0.269 OA
ATOM      5  C   UNL A   1      42.333  19.644  25.622  1.00  0.00     0.251 C 
ATOM      6  H   UNL A   1      41.210  17.961  25.680  1.00  0.00     0.163 HD
BRANCH   5   7
ATOM      7  C   UNL A   1      42.466  20.977  26.234  1.00  0.00     0.039 A 
ATOM      8  C   UNL A   1      42.695  22.154  25.520  1.00  0.00     0.014 A 
ATOM      9  C   UNL A   1      42.309  21.019  27.611  1.00  0.00     0.014 A 
ATOM     10  C   UNL A   1      42.752  23.348  26.238  1.00  0.00     0.010 A 
ATOM     11  C   UNL A   1      41.969  22.187  28.210  1.00  0.00     0.010 A 
ATOM     12  C   UNL A   1      42.399  23.339  27.600  1.00  0.00    -0.014 A 
BRANCH  12  13
ATOM     13  C   UNL A   1      42.456  24.514  28.451  1.00  0.00     0.031 A 
ATOM     14  C   UNL A   1      41.316  25.425  28.251  1.00  0.00     0.074 A 
ATOM     15  C   UNL A   1      43.368  24.673  29.440  1.00  0.00     0.049 A 
ATOM     16  N   UNL A   1      41.329  26.542  27.609  1.00  0.00    -0.248 NA
ATOM     17  C   UNL A   1      39.973  24.949  28.611  1.00  0.00     0.031 C 
ATOM     18  C   UNL A   1      44.367  23.724  29.960  1.00  0.00     0.029 A 
ATOM     19  N   UNL A   1      43.548  25.749  30.253  1.00  0.00    -0.354 N 
ATOM     20  C   UNL A   1      40.034  27.032  27.687  1.00  0.00     0.074 A 
ATOM     21  C   UNL A   1      39.214  25.930  28.114  1.00  0.00     0.031 C 
ATOM     22  C   UNL A   1      44.882  24.185  31.123  1.00  0.00     0.029 A 
ATOM     23  C   UNL A   1      44.395  25.532  31.336  1.00  0.00     0.049 A 
ATOM     24  H   UNL A   1      43.111  26.616  30.087  1.00  0.00     0.167 HD
ATOM     25  C   UNL A   1      39.813  28.374  27.658  1.00  0.00     0.037 A 
ATOM     26  C   UNL A   1      44.665  26.413  32.334  1.00  0.00     0.037 A 
ATOM     27  C   UNL A   1      40.982  29.071  27.167  1.00  0.00     0.049 A 
ATOM     28  C   UNL A   1      44.311  27.762  31.826  1.00  0.00     0.074 A 
ATOM     29  C   UNL A   1      41.701  29.055  25.987  1.00  0.00     0.029 A 
ATOM     30  N   UNL A   1      41.816  29.636  28.103  1.00  0.00    -0.354 N 
ATOM     31  N   UNL A   1      44.959  28.362  30.867  1.00  0.00    -0.248 NA
ATOM     32  C   UNL A   1      42.945  28.217  32.036  1.00  0.00     0.031 C 
ATOM     33  C   UNL A   1      43.068  29.164  26.384  1.00  0.00     0.029 A 
ATOM     34  C   UNL A   1      43.109  29.320  27.770  1.00  0.00     0.049 A 
ATOM     35  H   UNL A   1      41.535  30.175  28.878  1.00  0.00     0.167 HD
ATOM     36  C   UNL A   1      43.972  28.939  30.078  1.00  0.00     0.074 A 
ATOM     37  C   UNL A   1      42.757  28.877  30.889  1.00  0.00     0.031 C 
ATOM     38  C   UNL A   1      44.167  29.136  28.739  1.00  0.00     0.037 A 
BRANCH  25  39
ATOM     39  C   UNL A   1      38.745  29.075  28.464  1.00  0.00     0.057 A 
ATOM     40  C   UNL A   1      37.602  29.696  27.922  1.00  0.00     0.134 A 
ATOM     41  C   UNL A   1      38.692  28.838  29.850  1.00  0.00     0.134 A 
ATOM     42  F   UNL A   1      37.467  29.966  26.620  1.00  0.00    -0.206 F 
ATOM     43  C   UNL A   1      36.468  29.992  28.682  1.00  0.00     0.040 A 
ATOM     44  C   UNL A   1      37.545  29.088  30.610  1.00  0.00     0.040 A 
ATOM     45  F   UNL A   1      39.724  28.270  30.491  1.00  0.00    -0.206 F 
ATOM     46  C   UNL A   1      36.420  29.650  30.023  1.00  0.00     0.006 A 
ENDBRANCH  25  39
BRANCH  26  47
ATOM     47  C   UNL A   1      44.901  26.147  33.772  1.00  0.00     0.057 A 
ATOM     48  C   UNL A   1      46.201  25.964  34.273  1.00  0.00     0.134 A 
ATOM     49  C   UNL A   1      43.855  25.774  34.629  1.00  0.00     0.134 A 
ATOM     50  F   UNL A   1      47.276  26.220  33.513  1.00  0.00    -0.206 F 
ATOM     51  C   UNL A   1      46.449  25.420  35.539  1.00  0.00     0.040 A 
ATOM     52  C   UNL A   1      44.089  25.226  35.899  1.00  0.00     0.040 A 
ATOM     53  F   UNL A   1      42.579  25.871  34.227  1.00  0.00    -0.206 F 
ATOM     54  C   UNL A   1      45.390  25.035  36.352  1.00  0.00     0.006 A 
ENDBRANCH  26  47
BRANCH  38  55
ATOM     55  C   UNL A   1      45.560  28.941  28.201  1.00  0.00     0.057 A 
ATOM     56  C   UNL A   1      46.384  30.061  28.057  1.00  0.00     0.134 A 
ATOM     57  C   UNL A   1      46.059  27.725  27.708  1.00  0.00     0.134 A 
ATOM     58  F   UNL A   1      45.955  31.270  28.452  1.00  0.00    -0.206 F 
ATOM     59  C   UNL A   1      47.648  29.979  27.465  1.00  0.00     0.040 A 
ATOM     60  C   UNL A   1      47.335  27.621  27.142  1.00  0.00     0.040 A 
ATOM     61  F   UNL A   1      45.311  26.615  27.712  1.00  0.00    -0.206 F 
ATOM     62  C   UNL A   1      48.132  28.754  27.017  1.00  0.00     0.006 A 
ENDBRANCH  38  55
ENDBRANCH  12  13
ENDBRANCH   5   7
ENDBRANCH   2   3
ENDBRANCH   1   2
BRANCH   1  63
ATOM     63  C   UNL A   1      39.064  21.895  26.186  1.00  0.00     0.023 C 
BRANCH  63  64
ATOM     64  C   UNL A   1      37.817  22.697  25.808  1.00  0.00     0.116 C 
BRANCH  64  65
ATOM     65  N   UNL A   1      37.575  22.799  24.373  1.00  0.00    -0.352 N 
ATOM     66  C   UNL A   1      36.405  23.110  23.715  1.00  0.00     0.251 C 
ATOM     67  H   UNL A   1      38.353  22.620  23.797  1.00  0.00     0.163 HD
ATOM     68  O   UNL A   1      36.365  23.147  22.489  1.00  0.00    -0.269 OA
BRANCH  66  69
ATOM     69  C   UNL A   1      35.161  23.330  24.494  1.00  0.00     0.048 A 
ATOM     70  C   UNL A   1      34.911  24.689  24.815  1.00  0.00     0.029 A 
ATOM     71  C   UNL A   1      34.269  22.219  24.778  1.00  0.00    -0.003 A 
ATOM     72  C   UNL A   1      33.643  24.851  25.358  1.00  0.00     0.056 A 
ATOM     73  C   UNL A   1      32.952  22.458  25.277  1.00  0.00     0.012 A 
ATOM     74  C   UNL A   1      34.610  20.865  24.560  1.00  0.00     0.009 A 
ATOM     75  C   UNL A   1      33.067  26.027  25.756  1.00  0.00     0.248 A 
ATOM     76  C   UNL A   1      32.659  23.821  25.582  1.00  0.00     0.122 A 
ATOM     77  C   UNL A   1      32.013  21.417  25.429  1.00  0.00     0.011 A 
ATOM     78  C   UNL A   1      33.678  19.832  24.711  1.00  0.00     0.001 A 
ATOM     79  O   UNL A   1      31.804  25.746  26.188  1.00  0.00    -0.350 OA
ATOM     80  N   UNL A   1      31.546  24.394  26.073  1.00  0.00    -0.079 NA
ATOM     81  C   UNL A   1      32.377  20.110  25.121  1.00  0.00     0.001 A 
BRANCH  75  82
ATOM     82  C   UNL A   1      33.465  27.440  25.826  1.00  0.00     0.453 C 
ATOM     83  F   UNL A   1      34.539  27.631  26.633  1.00  0.00    -0.163 F 
ATOM     84  F   UNL A   1      33.794  27.938  24.606  1.00  0.00    -0.163 F 
ATOM     85  F   UNL A   1      32.474  28.234  26.313  1.00  0.00    -0.163 F 
ENDBRANCH  75  82
ENDBRANCH  66  69
ENDBRANCH  64  65
ENDBRANCH  63  64
ENDBRANCH   1  63
TORSDOF 12
ENDMDL
MODEL 2
REMARK VINA RESULT:     -12.1      3.445      7.694
REMARK SMILES O=C(NCCCCNC(=O)c1cc2c(C(F)(F)F)onc2c2ccccc12)c1ccc(-c2c3nc(c(-c4c(F)cccc4F)c4ccc([nH]4)c(-c4c(F)cccc4F)c4nc(c(-c5c(F)cccc5F)c5ccc2[nH]5)C=C4)C=C3)cc1
REMARK SMILES IDX 5 1 4 2 3 3 1 4 2 5 28 7 29 8 81 9 30 10 80 11 31 12 32 13
REMARK SMILES IDX 33 14 74 15 34 16 79 17 73 18 75 19 35 20 78 21 72 22 71 23
REMARK SMILES IDX 36 25 62 26 45 27 61 28 46 29 49 30 60 31 76 32 47 33 48 34
REMARK SMILES IDX 59 36 77 37 50 38 37 39 38 40 43 41 39 42 40 43 42 44 44 45
REMARK SMILES IDX 41 46 63 47 64 48 69 49 65 50 66 51 68 52 70 53 67 54 51 55
REMARK SMILES IDX 52 56 57 57 53 58 54 59 56 60 58 61 55 62 6 63 7 64 8 65
REMARK SMILES IDX 9 66 10 68 11 69 12 70 27 71 13 72 22 73 26 74 14 75 21 76
REMARK SMILES IDX 23 77 25 78 19 79 20 80 24 81 15 82 16 83 17 84 18 85
REMARK H PARENT 3 6 75 24 49 35 8 67
REMARK Flexibility Score: inf
ROOT
ATOM      1  C   UNL A   1      34.684  31.684  27.882  1.00  0.00     0.023 C 
ENDROOT
BRANCH   1   2
ATOM      2  C   UNL A   1      35.668  32.635  28.534  1.00  0.00     0.116 C 
BRANCH   2   3
ATOM      3  N   UNL A   1      35.380  32.951  29.940  1.00  0.00    -0.352 N 
ATOM      4  O   UNL A   1      35.111  32.369  32.134  1.00  0.00    -0.269 OA
ATOM      5  C   UNL A   1      35.686  32.188  31.057  1.00  0.00     0.251 C 
ATOM      6  H   UNL A   1      34.918  33.803  30.109  1.00  0.00     0.163 HD
BRANCH   5   7
ATOM      7  C   UNL A   1      36.732  31.158  30.941  1.00  0.00     0.039 A 
ATOM      8  C   UNL A   1      36.486  29.811  30.671  1.00  0.00     0.014 A 
ATOM      9  C   UNL A   1      38.035  31.612  31.080  1.00  0.00     0.014 A 
ATOM     10  C   UNL A   1      37.586  28.963  30.545  1.00  0.00     0.010 A 
ATOM     11  C   UNL A   1      39.056  30.884  30.564  1.00  0.00     0.010 A 
ATOM     12  C   UNL A   1      38.876  29.524  30.512  1.00  0.00    -0.014 A 
BRANCH  12  13
ATOM     13  C   UNL A   1      40.092  28.736  30.421  1.00  0.00     0.031 A 
ATOM     14  C   UNL A   1      40.774  28.580  31.717  1.00  0.00     0.074 A 
ATOM     15  C   UNL A   1      40.469  28.076  29.300  1.00  0.00     0.049 A 
ATOM     16  N   UNL A   1      41.835  29.199  32.105  1.00  0.00    -0.248 NA
ATOM     17  C   UNL A   1      40.092  27.823  32.776  1.00  0.00     0.031 C 
ATOM     18  C   UNL A   1      39.744  27.885  28.032  1.00  0.00     0.029 A 
ATOM     19  N   UNL A   1      41.607  27.361  29.087  1.00  0.00    -0.354 N 
ATOM     20  C   UNL A   1      42.094  28.728  33.384  1.00  0.00     0.074 A 
ATOM     21  C   UNL A   1      40.892  28.066  33.817  1.00  0.00     0.031 C 
ATOM     22  C   UNL A   1      40.358  26.938  27.286  1.00  0.00     0.029 A 
ATOM     23  C   UNL A   1      41.609  26.590  27.927  1.00  0.00     0.049 A 
ATOM     24  H   UNL A   1      42.371  27.388  29.707  1.00  0.00     0.167 HD
ATOM     25  C   UNL A   1      43.371  28.693  33.850  1.00  0.00     0.037 A 
ATOM     26  C   UNL A   1      42.582  25.727  27.538  1.00  0.00     0.037 A 
ATOM     27  C   UNL A   1      44.232  29.522  33.034  1.00  0.00     0.049 A 
ATOM     28  C   UNL A   1      43.815  26.106  28.274  1.00  0.00     0.074 A 
ATOM     29  C   UNL A   1      44.271  30.865  32.714  1.00  0.00     0.029 A 
ATOM     30  N   UNL A   1      44.991  28.889  32.077  1.00  0.00    -0.354 N 
ATOM     31  N   UNL A   1      44.460  27.221  28.068  1.00  0.00    -0.248 NA
ATOM     32  C   UNL A   1      44.034  25.488  29.572  1.00  0.00     0.031 C 
ATOM     33  C   UNL A   1      44.643  30.908  31.337  1.00  0.00     0.029 A 
ATOM     34  C   UNL A   1      44.887  29.603  30.910  1.00  0.00     0.049 A 
ATOM     35  H   UNL A   1      45.518  28.068  32.207  1.00  0.00     0.167 HD
ATOM     36  C   UNL A   1      44.805  27.670  29.336  1.00  0.00     0.074 A 
ATOM     37  C   UNL A   1      44.580  26.524  30.217  1.00  0.00     0.031 C 
ATOM     38  C   UNL A   1      44.952  29.004  29.594  1.00  0.00     0.037 A 
BRANCH  25  39
ATOM     39  C   UNL A   1      43.920  27.600  34.737  1.00  0.00     0.057 A 
ATOM     40  C   UNL A   1      44.203  27.741  36.110  1.00  0.00     0.134 A 
ATOM     41  C   UNL A   1      43.858  26.273  34.275  1.00  0.00     0.134 A 
ATOM     42  F   UNL A   1      44.268  28.927  36.723  1.00  0.00    -0.206 F 
ATOM     43  C   UNL A   1      44.341  26.649  36.971  1.00  0.00     0.040 A 
ATOM     44  C   UNL A   1      43.948  25.174  35.136  1.00  0.00     0.040 A 
ATOM     45  F   UNL A   1      43.615  26.003  32.983  1.00  0.00    -0.206 F 
ATOM     46  C   UNL A   1      44.172  25.361  36.493  1.00  0.00     0.006 A 
ENDBRANCH  25  39
BRANCH  26  47
ATOM     47  C   UNL A   1      42.449  24.430  26.835  1.00  0.00     0.057 A 
ATOM     48  C   UNL A   1      42.015  23.278  27.511  1.00  0.00     0.134 A 
ATOM     49  C   UNL A   1      43.018  24.222  25.570  1.00  0.00     0.134 A 
ATOM     50  F   UNL A   1      41.521  23.353  28.756  1.00  0.00    -0.206 F 
ATOM     51  C   UNL A   1      42.162  21.992  26.976  1.00  0.00     0.040 A 
ATOM     52  C   UNL A   1      43.172  22.939  25.022  1.00  0.00     0.040 A 
ATOM     53  F   UNL A   1      43.500  25.254  24.862  1.00  0.00    -0.206 F 
ATOM     54  C   UNL A   1      42.755  21.818  25.732  1.00  0.00     0.006 A 
ENDBRANCH  26  47
BRANCH  38  55
ATOM     55  C   UNL A   1      44.973  29.944  28.417  1.00  0.00     0.057 A 
ATOM     56  C   UNL A   1      46.207  30.283  27.854  1.00  0.00     0.134 A 
ATOM     57  C   UNL A   1      43.846  30.614  27.914  1.00  0.00     0.134 A 
ATOM     58  F   UNL A   1      47.336  29.727  28.319  1.00  0.00    -0.206 F 
ATOM     59  C   UNL A   1      46.319  31.230  26.832  1.00  0.00     0.040 A 
ATOM     60  C   UNL A   1      43.939  31.541  26.870  1.00  0.00     0.040 A 
ATOM     61  F   UNL A   1      42.633  30.432  28.450  1.00  0.00    -0.206 F 
ATOM     62  C   UNL A   1      45.181  31.853  26.328  1.00  0.00     0.006 A 
ENDBRANCH  38  55
ENDBRANCH  12  13
ENDBRANCH   5   7
ENDBRANCH   2   3
ENDBRANCH   1   2
BRANCH   1  63
ATOM     63  C   UNL A   1      35.309  30.386  27.359  1.00  0.00     0.023 C 
BRANCH  63  64
ATOM     64  C   UNL A   1      34.362  29.346  26.754  1.00  0.00     0.116 C 
BRANCH  64  65
ATOM     65  N   UNL A   1      33.330  28.867  27.666  1.00  0.00    -0.352 N 
ATOM     66  C   UNL A   1      32.189  28.150  27.376  1.00  0.00     0.251 C 
ATOM     67  H   UNL A   1      33.465  29.086  28.616  1.00  0.00     0.163 HD
ATOM     68  O   UNL A   1      31.408  27.826  28.267  1.00  0.00    -0.269 OA
BRANCH  66  69
ATOM     69  C   UNL A   1      31.861  27.829  25.965  1.00  0.00     0.048 A 
ATOM     70  C   UNL A   1      30.949  28.732  25.362  1.00  0.00     0.029 A 
ATOM     71  C   UNL A   1      32.534  26.733  25.289  1.00  0.00    -0.003 A 
ATOM     72  C   UNL A   1      30.845  28.502  23.996  1.00  0.00     0.056 A 
ATOM     73  C   UNL A   1      32.437  26.589  23.871  1.00  0.00     0.012 A 
ATOM     74  C   UNL A   1      33.334  25.776  25.953  1.00  0.00     0.009 A 
ATOM     75  C   UNL A   1      30.076  29.201  23.105  1.00  0.00     0.248 A 
ATOM     76  C   UNL A   1      31.548  27.504  23.230  1.00  0.00     0.122 A 
ATOM     77  C   UNL A   1      33.187  25.624  23.167  1.00  0.00     0.011 A 
ATOM     78  C   UNL A   1      34.080  24.819  25.254  1.00  0.00     0.001 A 
ATOM     79  O   UNL A   1      30.298  28.678  21.865  1.00  0.00    -0.350 OA
ATOM     80  N   UNL A   1      31.209  27.641  21.936  1.00  0.00    -0.079 NA
ATOM     81  C   UNL A   1      34.025  24.760  23.864  1.00  0.00     0.001 A 
BRANCH  75  82
ATOM     82  C   UNL A   1      29.123  30.317  23.164  1.00  0.00     0.453 C 
ATOM     83  F   UNL A   1      29.077  31.014  21.999  1.00  0.00    -0.163 F 
ATOM     84  F   UNL A   1      27.858  29.895  23.421  1.00  0.00    -0.163 F 
ATOM     85  F   UNL A   1      29.436  31.216  24.135  1.00  0.00    -0.163 F 
ENDBRANCH  75  82
ENDBRANCH  66  69
ENDBRANCH  64  65
ENDBRANCH  63  64
ENDBRANCH   1  63
TORSDOF 12
ENDMDL
MODEL 3
REMARK VINA RESULT:     -12.0      2.686      6.562
REMARK SMILES O=C(NCCCCNC(=O)c1cc2c(C(F)(F)F)onc2c2ccccc12)c1ccc(-c2c3nc(c(-c4c(F)cccc4F)c4ccc([nH]4)c(-c4c(F)cccc4F)c4nc(c(-c5c(F)cccc5F)c5ccc2[nH]5)C=C4)C=C3)cc1
REMARK SMILES IDX 5 1 4 2 3 3 1 4 2 5 28 7 29 8 81 9 30 10 80 11 31 12 32 13
REMARK SMILES IDX 33 14 74 15 34 16 79 17 73 18 75 19 35 20 78 21 72 22 71 23
REMARK SMILES IDX 36 25 62 26 45 27 61 28 46 29 49 30 60 31 76 32 47 33 48 34
REMARK SMILES IDX 59 36 77 37 50 38 37 39 38 40 43 41 39 42 40 43 42 44 44 45
REMARK SMILES IDX 41 46 63 47 64 48 69 49 65 50 66 51 68 52 70 53 67 54 51 55
REMARK SMILES IDX 52 56 57 57 53 58 54 59 56 60 58 61 55 62 6 63 7 64 8 65
REMARK SMILES IDX 9 66 10 68 11 69 12 70 27 71 13 72 22 73 26 74 14 75 21 76
REMARK SMILES IDX 23 77 25 78 19 79 20 80 24 81 15 82 16 83 17 84 18 85
REMARK H PARENT 3 6 75 24 49 35 8 67
REMARK Flexibility Score: inf
ROOT
ATOM      1  C   UNL A   1      38.656  22.264  25.923  1.00  0.00     0.023 C 
ENDROOT
BRANCH   1   2
ATOM      2  C   UNL A   1      39.889  22.187  26.801  1.00  0.00     0.116 C 
BRANCH   2   3
ATOM      3  N   UNL A   1      41.164  22.163  26.072  1.00  0.00    -0.352 N 
ATOM      4  O   UNL A   1      42.869  23.178  24.936  1.00  0.00    -0.269 OA
ATOM      5  C   UNL A   1      42.018  23.229  25.830  1.00  0.00     0.251 C 
ATOM      6  H   UNL A   1      41.446  21.290  25.715  1.00  0.00     0.163 HD
BRANCH   5   7
ATOM      7  C   UNL A   1      41.906  24.427  26.678  1.00  0.00     0.039 A 
ATOM      8  C   UNL A   1      42.527  24.577  27.919  1.00  0.00     0.014 A 
ATOM      9  C   UNL A   1      41.152  25.464  26.149  1.00  0.00     0.014 A 
ATOM     10  C   UNL A   1      42.363  25.792  28.584  1.00  0.00     0.010 A 
ATOM     11  C   UNL A   1      41.342  26.728  26.602  1.00  0.00     0.010 A 
ATOM     12  C   UNL A   1      41.745  26.859  27.907  1.00  0.00    -0.014 A 
BRANCH  12  13
ATOM     13  C   UNL A   1      41.491  28.153  28.513  1.00  0.00     0.031 A 
ATOM     14  C   UNL A   1      42.529  29.150  28.198  1.00  0.00     0.074 A 
ATOM     15  C   UNL A   1      40.340  28.460  29.158  1.00  0.00     0.049 A 
ATOM     16  N   UNL A   1      43.465  29.558  28.984  1.00  0.00    -0.248 NA
ATOM     17  C   UNL A   1      42.681  29.580  26.801  1.00  0.00     0.031 C 
ATOM     18  C   UNL A   1      39.098  27.680  29.287  1.00  0.00     0.029 A 
ATOM     19  N   UNL A   1      40.021  29.612  29.808  1.00  0.00    -0.354 N 
ATOM     20  C   UNL A   1      44.191  30.484  28.249  1.00  0.00     0.074 A 
ATOM     21  C   UNL A   1      43.806  30.295  26.876  1.00  0.00     0.031 C 
ATOM     22  C   UNL A   1      38.107  28.464  29.773  1.00  0.00     0.029 A 
ATOM     23  C   UNL A   1      38.680  29.735  30.162  1.00  0.00     0.049 A 
ATOM     24  H   UNL A   1      40.689  30.306  30.012  1.00  0.00     0.167 HD
ATOM     25  C   UNL A   1      44.833  31.502  28.884  1.00  0.00     0.037 A 
ATOM     26  C   UNL A   1      38.098  30.820  30.735  1.00  0.00     0.037 A 
ATOM     27  C   UNL A   1      44.951  31.224  30.298  1.00  0.00     0.049 A 
ATOM     28  C   UNL A   1      39.185  31.622  31.349  1.00  0.00     0.074 A 
ATOM     29  C   UNL A   1      45.554  30.233  31.049  1.00  0.00     0.029 A 
ATOM     30  N   UNL A   1      44.034  31.818  31.135  1.00  0.00    -0.354 N 
ATOM     31  N   UNL A   1      39.882  31.220  32.376  1.00  0.00    -0.248 NA
ATOM     32  C   UNL A   1      39.825  32.628  30.516  1.00  0.00     0.031 C 
ATOM     33  C   UNL A   1      44.646  29.973  32.120  1.00  0.00     0.029 A 
ATOM     34  C   UNL A   1      43.580  30.867  32.014  1.00  0.00     0.049 A 
ATOM     35  H   UNL A   1      43.753  32.761  31.108  1.00  0.00     0.167 HD
ATOM     36  C   UNL A   1      41.191  31.577  32.078  1.00  0.00     0.074 A 
ATOM     37  C   UNL A   1      41.082  32.507  30.954  1.00  0.00     0.031 C 
ATOM     38  C   UNL A   1      42.245  30.862  32.572  1.00  0.00     0.037 A 
BRANCH  25  39
ATOM     39  C   UNL A   1      44.953  32.903  28.331  1.00  0.00     0.057 A 
ATOM     40  C   UNL A   1      46.090  33.417  27.676  1.00  0.00     0.134 A 
ATOM     41  C   UNL A   1      43.777  33.656  28.162  1.00  0.00     0.134 A 
ATOM     42  F   UNL A   1      47.282  32.813  27.702  1.00  0.00    -0.206 F 
ATOM     43  C   UNL A   1      46.045  34.549  26.858  1.00  0.00     0.040 A 
ATOM     44  C   UNL A   1      43.711  34.763  27.310  1.00  0.00     0.040 A 
ATOM     45  F   UNL A   1      42.630  33.285  28.751  1.00  0.00    -0.206 F 
ATOM     46  C   UNL A   1      44.845  35.202  26.639  1.00  0.00     0.006 A 
ENDBRANCH  25  39
BRANCH  26  47
ATOM     47  C   UNL A   1      36.737  31.367  30.521  1.00  0.00     0.057 A 
ATOM     48  C   UNL A   1      36.312  31.780  29.247  1.00  0.00     0.134 A 
ATOM     49  C   UNL A   1      35.933  31.770  31.597  1.00  0.00     0.134 A 
ATOM     50  F   UNL A   1      37.043  31.511  28.155  1.00  0.00    -0.206 F 
ATOM     51  C   UNL A   1      35.171  32.568  29.054  1.00  0.00     0.040 A 
ATOM     52  C   UNL A   1      34.787  32.560  31.418  1.00  0.00     0.040 A 
ATOM     53  F   UNL A   1      36.275  31.461  32.856  1.00  0.00    -0.206 F 
ATOM     54  C   UNL A   1      34.411  32.973  30.145  1.00  0.00     0.006 A 
ENDBRANCH  26  47
BRANCH  38  55
ATOM     55  C   UNL A   1      41.955  29.837  33.637  1.00  0.00     0.057 A 
ATOM     56  C   UNL A   1      42.063  30.215  34.978  1.00  0.00     0.134 A 
ATOM     57  C   UNL A   1      41.703  28.478  33.385  1.00  0.00     0.134 A 
ATOM     58  F   UNL A   1      42.358  31.485  35.298  1.00  0.00    -0.206 F 
ATOM     59  C   UNL A   1      41.916  29.297  36.021  1.00  0.00     0.040 A 
ATOM     60  C   UNL A   1      41.522  27.554  34.420  1.00  0.00     0.040 A 
ATOM     61  F   UNL A   1      41.676  27.996  32.137  1.00  0.00    -0.206 F 
ATOM     62  C   UNL A   1      41.633  27.963  35.745  1.00  0.00     0.006 A 
ENDBRANCH  38  55
ENDBRANCH  12  13
ENDBRANCH   5   7
ENDBRANCH   2   3
ENDBRANCH   1   2
BRANCH   1  63
ATOM     63  C   UNL A   1      37.914  23.603  25.989  1.00  0.00     0.023 C 
BRANCH  63  64
ATOM     64  C   UNL A   1      36.392  23.569  25.831  1.00  0.00     0.116 C 
BRANCH  64  65
ATOM     65  N   UNL A   1      35.922  23.758  24.463  1.00  0.00    -0.352 N 
ATOM     66  C   UNL A   1      34.778  24.389  24.024  1.00  0.00     0.251 C 
ATOM     67  H   UNL A   1      36.499  23.383  23.759  1.00  0.00     0.163 HD
ATOM     68  O   UNL A   1      34.520  24.456  22.826  1.00  0.00    -0.269 OA
BRANCH  66  69
ATOM     69  C   UNL A   1      33.811  24.927  25.012  1.00  0.00     0.048 A 
ATOM     70  C   UNL A   1      34.039  26.281  25.369  1.00  0.00     0.029 A 
ATOM     71  C   UNL A   1      32.689  24.116  25.454  1.00  0.00    -0.003 A 
ATOM     72  C   UNL A   1      32.990  26.782  26.128  1.00  0.00     0.056 A 
ATOM     73  C   UNL A   1      31.610  24.708  26.180  1.00  0.00     0.012 A 
ATOM     74  C   UNL A   1      32.566  22.735  25.183  1.00  0.00     0.009 A 
ATOM     75  C   UNL A   1      32.870  28.054  26.620  1.00  0.00     0.248 A 
ATOM     76  C   UNL A   1      31.796  26.079  26.528  1.00  0.00     0.122 A 
ATOM     77  C   UNL A   1      30.443  23.984  26.501  1.00  0.00     0.011 A 
ATOM     78  C   UNL A   1      31.407  22.016  25.502  1.00  0.00     0.001 A 
ATOM     79  O   UNL A   1      31.675  28.138  27.271  1.00  0.00    -0.350 OA
ATOM     80  N   UNL A   1      31.007  26.930  27.209  1.00  0.00    -0.079 NA
ATOM     81  C   UNL A   1      30.340  22.645  26.136  1.00  0.00     0.001 A 
BRANCH  75  82
ATOM     82  C   UNL A   1      33.679  29.281  26.613  1.00  0.00     0.453 C 
ATOM     83  F   UNL A   1      33.653  29.905  25.407  1.00  0.00    -0.163 F 
ATOM     84  F   UNL A   1      33.248  30.181  27.533  1.00  0.00    -0.163 F 
ATOM     85  F   UNL A   1      34.988  29.041  26.891  1.00  0.00    -0.163 F 
ENDBRANCH  75  82
ENDBRANCH  66  69
ENDBRANCH  64  65
ENDBRANCH  63  64
ENDBRANCH   1  63
TORSDOF 12
ENDMDL
