MODEL 1
REMARK VINA RESULT:     -12.1      0.000      0.000
REMARK SMILES COc1ccc(NC(=O)c2cccn2CC(=O)NCCCCNC(=O)c2ccc(-c3c4nc(c(-c5c(F)cccc5F)c5ccc([nH]5)c(-c5c(F)cccc5F)c5nc(c(-c6c(F)cccc6F)c6ccc3[nH]6)C=C5)C=C4)cc2)cc1F
REMARK SMILES IDX 19 1 18 2 16 3 17 4 15 6 14 7 10 8 11 9 12 10 13 11 8 12
REMARK SMILES IDX 7 13 9 15 6 16 3 17 4 18 81 19 5 20 80 21 82 22 2 23 1 24
REMARK SMILES IDX 20 25 21 26 22 27 23 28 24 29 25 31 26 32 27 33 79 34 28 35
REMARK SMILES IDX 78 36 29 37 30 38 31 39 72 40 32 41 77 42 71 43 73 44 33 45
REMARK SMILES IDX 76 46 70 47 69 48 34 50 60 51 43 52 59 53 44 54 47 55 58 56
REMARK SMILES IDX 74 57 45 58 46 59 57 61 75 62 48 63 35 64 36 65 41 66 37 67
REMARK SMILES IDX 38 68 40 69 42 70 39 71 61 72 62 73 67 74 63 75 64 76 66 77
REMARK SMILES IDX 68 78 65 79 49 80 50 81 55 82 51 83 52 84 54 85 56 86 53 87
REMARK H PARENT 18 5 7 14 23 30 73 49 47 60
REMARK Flexibility Score: inf
ROOT
ATOM      1  C   UNL A   1      32.999  29.829  25.961  1.00  0.00     0.116 C 
ENDROOT
BRANCH   1   2
ATOM      2  N   UNL A   1      33.335  29.710  24.558  1.00  0.00    -0.355 N 
ATOM      3  C   UNL A   1      33.596  28.581  23.834  1.00  0.00     0.239 C 
ATOM      4  O   UNL A   1      33.943  28.719  22.659  1.00  0.00    -0.273 OA
ATOM      5  H   UNL A   1      33.379  30.556  24.059  1.00  0.00     0.163 HD
BRANCH   3   6
ATOM      6  C   UNL A   1      33.402  27.208  24.446  1.00  0.00     0.222 C 
BRANCH   6   7
ATOM      7  N   UNL A   1      32.186  26.523  24.019  1.00  0.00    -0.334 N 
ATOM      8  C   UNL A   1      32.100  25.478  23.113  1.00  0.00     0.107 A 
ATOM      9  C   UNL A   1      30.821  24.950  23.248  1.00  0.00     0.033 A 
ATOM     10  C   UNL A   1      30.075  25.811  24.082  1.00  0.00     0.020 A 
ATOM     11  C   UNL A   1      30.939  26.779  24.537  1.00  0.00     0.087 A 
BRANCH   8  12
ATOM     12  C   UNL A   1      33.176  25.006  22.271  1.00  0.00     0.272 C 
ATOM     13  N   UNL A   1      33.689  23.731  22.400  1.00  0.00    -0.321 N 
ATOM     14  H   UNL A   1      34.498  23.593  21.857  1.00  0.00     0.170 HD
ATOM     15  O   UNL A   1      33.652  25.707  21.377  1.00  0.00    -0.267 OA
BRANCH  13  16
ATOM     16  C   UNL A   1      33.324  22.579  23.129  1.00  0.00     0.044 A 
ATOM     17  C   UNL A   1      32.778  20.290  24.693  1.00  0.00     0.154 A 
ATOM     18  C   UNL A   1      32.152  20.464  23.470  1.00  0.00     0.052 A 
ATOM     19  C   UNL A   1      33.702  21.239  25.124  1.00  0.00     0.167 A 
ATOM     20  C   UNL A   1      32.423  21.602  22.703  1.00  0.00     0.030 A 
ATOM     21  C   UNL A   1      33.972  22.373  24.355  1.00  0.00     0.069 A 
ATOM     22  F   UNL A   1      34.361  21.072  26.279  1.00  0.00    -0.203 F 
BRANCH  17  23
ATOM     23  O   UNL A   1      32.486  19.140  25.369  1.00  0.00    -0.494 OA
ATOM     24  C   UNL A   1      33.274  18.045  24.904  1.00  0.00     0.278 C 
ENDBRANCH  17  23
ENDBRANCH  13  16
ENDBRANCH   8  12
ENDBRANCH   6   7
ENDBRANCH   3   6
ENDBRANCH   1   2
BRANCH   1  25
ATOM     25  C   UNL A   1      31.570  30.324  26.149  1.00  0.00     0.023 C 
BRANCH  25  26
ATOM     26  C   UNL A   1      31.419  31.806  26.502  1.00  0.00     0.023 C 
BRANCH  26  27
ATOM     27  C   UNL A   1      32.625  32.381  27.242  1.00  0.00     0.116 C 
BRANCH  27  28
ATOM     28  N   UNL A   1      32.484  33.813  27.467  1.00  0.00    -0.352 N 
ATOM     29  C   UNL A   1      33.030  34.600  28.451  1.00  0.00     0.251 C 
ATOM     30  H   UNL A   1      31.912  34.285  26.820  1.00  0.00     0.163 HD
ATOM     31  O   UNL A   1      32.528  35.683  28.716  1.00  0.00    -0.269 OA
BRANCH  29  32
ATOM     32  C   UNL A   1      34.217  34.150  29.202  1.00  0.00     0.039 A 
ATOM     33  C   UNL A   1      34.028  33.612  30.481  1.00  0.00     0.014 A 
ATOM     34  C   UNL A   1      35.505  34.328  28.688  1.00  0.00     0.014 A 
ATOM     35  C   UNL A   1      35.126  33.178  31.214  1.00  0.00     0.010 A 
ATOM     36  C   UNL A   1      36.603  33.868  29.401  1.00  0.00     0.010 A 
ATOM     37  C   UNL A   1      36.407  33.276  30.653  1.00  0.00    -0.014 A 
BRANCH  37  38
ATOM     38  C   UNL A   1      37.529  32.571  31.308  1.00  0.00     0.031 A 
ATOM     39  C   UNL A   1      37.885  31.266  30.549  1.00  0.00     0.074 A 
ATOM     40  C   UNL A   1      38.051  33.177  32.420  1.00  0.00     0.049 A 
ATOM     41  N   UNL A   1      38.484  30.189  30.958  1.00  0.00    -0.248 NA
ATOM     42  C   UNL A   1      37.462  31.117  29.124  1.00  0.00     0.031 C 
ATOM     43  C   UNL A   1      37.587  34.473  32.966  1.00  0.00     0.029 A 
ATOM     44  N   UNL A   1      39.054  32.859  33.314  1.00  0.00    -0.354 N 
ATOM     45  C   UNL A   1      38.696  29.353  29.832  1.00  0.00     0.074 A 
ATOM     46  C   UNL A   1      37.941  29.924  28.762  1.00  0.00     0.031 C 
ATOM     47  C   UNL A   1      38.228  34.777  34.115  1.00  0.00     0.029 A 
ATOM     48  C   UNL A   1      39.178  33.730  34.434  1.00  0.00     0.049 A 
ATOM     49  H   UNL A   1      39.645  32.082  33.186  1.00  0.00     0.167 HD
ATOM     50  C   UNL A   1      39.595  28.322  29.822  1.00  0.00     0.037 A 
ATOM     51  C   UNL A   1      39.949  33.587  35.559  1.00  0.00     0.037 A 
ATOM     52  C   UNL A   1      40.193  28.202  31.106  1.00  0.00     0.049 A 
ATOM     53  C   UNL A   1      40.799  32.421  35.284  1.00  0.00     0.074 A 
ATOM     54  C   UNL A   1      39.699  27.768  32.308  1.00  0.00     0.029 A 
ATOM     55  N   UNL A   1      41.334  28.934  31.320  1.00  0.00    -0.354 N 
ATOM     56  N   UNL A   1      41.790  32.411  34.444  1.00  0.00    -0.248 NA
ATOM     57  C   UNL A   1      40.445  31.138  35.902  1.00  0.00     0.031 C 
ATOM     58  C   UNL A   1      40.253  28.684  33.221  1.00  0.00     0.029 A 
ATOM     59  C   UNL A   1      41.252  29.439  32.592  1.00  0.00     0.049 A 
ATOM     60  H   UNL A   1      42.071  29.070  30.681  1.00  0.00     0.167 HD
ATOM     61  C   UNL A   1      41.928  31.070  34.183  1.00  0.00     0.074 A 
ATOM     62  C   UNL A   1      41.342  30.362  35.301  1.00  0.00     0.031 C 
ATOM     63  C   UNL A   1      41.987  30.641  32.897  1.00  0.00     0.037 A 
BRANCH  50  64
ATOM     64  C   UNL A   1      40.219  27.510  28.717  1.00  0.00     0.057 A 
ATOM     65  C   UNL A   1      39.773  26.241  28.335  1.00  0.00     0.134 A 
ATOM     66  C   UNL A   1      41.047  28.174  27.778  1.00  0.00     0.134 A 
ATOM     67  F   UNL A   1      38.976  25.514  29.129  1.00  0.00    -0.206 F 
ATOM     68  C   UNL A   1      40.053  25.709  27.067  1.00  0.00     0.040 A 
ATOM     69  C   UNL A   1      41.293  27.675  26.497  1.00  0.00     0.040 A 
ATOM     70  F   UNL A   1      41.577  29.377  28.052  1.00  0.00    -0.206 F 
ATOM     71  C   UNL A   1      40.775  26.444  26.129  1.00  0.00     0.006 A 
ENDBRANCH  50  64
BRANCH  51  72
ATOM     72  C   UNL A   1      40.058  34.183  36.948  1.00  0.00     0.057 A 
ATOM     73  C   UNL A   1      41.303  34.715  37.398  1.00  0.00     0.134 A 
ATOM     74  C   UNL A   1      39.070  34.179  37.935  1.00  0.00     0.134 A 
ATOM     75  F   UNL A   1      42.312  34.968  36.554  1.00  0.00    -0.206 F 
ATOM     76  C   UNL A   1      41.598  35.010  38.732  1.00  0.00     0.040 A 
ATOM     77  C   UNL A   1      39.338  34.527  39.278  1.00  0.00     0.040 A 
ATOM     78  F   UNL A   1      37.803  33.858  37.654  1.00  0.00    -0.206 F 
ATOM     79  C   UNL A   1      40.615  34.891  39.691  1.00  0.00     0.006 A 
ENDBRANCH  51  72
BRANCH  63  80
ATOM     80  C   UNL A   1      42.490  31.669  31.902  1.00  0.00     0.057 A 
ATOM     81  C   UNL A   1      41.698  32.285  30.920  1.00  0.00     0.134 A 
ATOM     82  C   UNL A   1      43.807  32.137  31.987  1.00  0.00     0.134 A 
ATOM     83  F   UNL A   1      40.430  31.926  30.739  1.00  0.00    -0.206 F 
ATOM     84  C   UNL A   1      42.172  33.302  30.078  1.00  0.00     0.040 A 
ATOM     85  C   UNL A   1      44.297  33.158  31.160  1.00  0.00     0.040 A 
ATOM     86  F   UNL A   1      44.652  31.605  32.882  1.00  0.00    -0.206 F 
ATOM     87  C   UNL A   1      43.479  33.747  30.202  1.00  0.00     0.006 A 
ENDBRANCH  63  80
ENDBRANCH  37  38
ENDBRANCH  29  32
ENDBRANCH  27  28
ENDBRANCH  26  27
ENDBRANCH  25  26
ENDBRANCH   1  25
TORSDOF 15
ENDMDL
MODEL 2
REMARK VINA RESULT:     -12.1      2.116      3.655
REMARK SMILES COc1ccc(NC(=O)c2cccn2CC(=O)NCCCCNC(=O)c2ccc(-c3c4nc(c(-c5c(F)cccc5F)c5ccc([nH]5)c(-c5c(F)cccc5F)c5nc(c(-c6c(F)cccc6F)c6ccc3[nH]6)C=C5)C=C4)cc2)cc1F
REMARK SMILES IDX 19 1 18 2 16 3 17 4 15 6 14 7 10 8 11 9 12 10 13 11 8 12
REMARK SMILES IDX 7 13 9 15 6 16 3 17 4 18 81 19 5 20 80 21 82 22 2 23 1 24
REMARK SMILES IDX 20 25 21 26 22 27 23 28 24 29 25 31 26 32 27 33 79 34 28 35
REMARK SMILES IDX 78 36 29 37 30 38 31 39 72 40 32 41 77 42 71 43 73 44 33 45
REMARK SMILES IDX 76 46 70 47 69 48 34 50 60 51 43 52 59 53 44 54 47 55 58 56
REMARK SMILES IDX 74 57 45 58 46 59 57 61 75 62 48 63 35 64 36 65 41 66 37 67
REMARK SMILES IDX 38 68 40 69 42 70 39 71 61 72 62 73 67 74 63 75 64 76 66 77
REMARK SMILES IDX 68 78 65 79 49 80 50 81 55 82 51 83 52 84 54 85 56 86 53 87
REMARK H PARENT 18 5 7 14 23 30 73 49 47 60
REMARK Flexibility Score: inf
ROOT
ATOM      1  C   UNL A   1      32.678  29.537  26.595  1.00  0.00     0.116 C 
ENDROOT
BRANCH   1   2
ATOM      2  N   UNL A   1      32.029  28.273  26.873  1.00  0.00    -0.355 N 
ATOM      3  C   UNL A   1      32.280  27.045  26.329  1.00  0.00     0.239 C 
ATOM      4  O   UNL A   1      31.544  26.111  26.655  1.00  0.00    -0.273 OA
ATOM      5  H   UNL A   1      31.312  28.304  27.545  1.00  0.00     0.163 HD
BRANCH   3   6
ATOM      6  C   UNL A   1      33.463  26.836  25.406  1.00  0.00     0.222 C 
BRANCH   6   7
ATOM      7  N   UNL A   1      33.124  26.252  24.111  1.00  0.00    -0.334 N 
ATOM      8  C   UNL A   1      33.134  26.896  22.884  1.00  0.00     0.107 A 
ATOM      9  C   UNL A   1      33.050  25.899  21.920  1.00  0.00     0.033 A 
ATOM     10  C   UNL A   1      32.776  24.677  22.573  1.00  0.00     0.020 A 
ATOM     11  C   UNL A   1      32.818  24.924  23.925  1.00  0.00     0.087 A 
BRANCH   8  12
ATOM     12  C   UNL A   1      33.290  28.319  22.685  1.00  0.00     0.272 C 
ATOM     13  N   UNL A   1      32.200  29.150  22.522  1.00  0.00    -0.321 N 
ATOM     14  H   UNL A   1      32.458  30.065  22.266  1.00  0.00     0.170 HD
ATOM     15  O   UNL A   1      34.399  28.856  22.695  1.00  0.00    -0.267 OA
BRANCH  13  16
ATOM     16  C   UNL A   1      30.802  28.994  22.635  1.00  0.00     0.044 A 
ATOM     17  C   UNL A   1      27.984  28.886  22.803  1.00  0.00     0.154 A 
ATOM     18  C   UNL A   1      28.760  27.978  23.504  1.00  0.00     0.052 A 
ATOM     19  C   UNL A   1      28.611  29.870  22.044  1.00  0.00     0.167 A 
ATOM     20  C   UNL A   1      30.154  28.034  23.413  1.00  0.00     0.030 A 
ATOM     21  C   UNL A   1      30.004  29.926  21.956  1.00  0.00     0.069 A 
ATOM     22  F   UNL A   1      27.888  30.794  21.396  1.00  0.00    -0.203 F 
BRANCH  17  23
ATOM     23  O   UNL A   1      26.632  28.788  22.968  1.00  0.00    -0.494 OA
ATOM     24  C   UNL A   1      26.291  27.754  23.890  1.00  0.00     0.278 C 
ENDBRANCH  17  23
ENDBRANCH  13  16
ENDBRANCH   8  12
ENDBRANCH   6   7
ENDBRANCH   3   6
ENDBRANCH   1   2
BRANCH   1  25
ATOM     25  C   UNL A   1      31.749  30.484  25.845  1.00  0.00     0.023 C 
BRANCH  25  26
ATOM     26  C   UNL A   1      31.454  31.817  26.540  1.00  0.00     0.023 C 
BRANCH  26  27
ATOM     27  C   UNL A   1      32.651  32.384  27.300  1.00  0.00     0.116 C 
BRANCH  27  28
ATOM     28  N   UNL A   1      32.518  33.818  27.516  1.00  0.00    -0.352 N 
ATOM     29  C   UNL A   1      33.083  34.611  28.486  1.00  0.00     0.251 C 
ATOM     30  H   UNL A   1      31.938  34.288  26.874  1.00  0.00     0.163 HD
ATOM     31  O   UNL A   1      32.588  35.698  28.751  1.00  0.00    -0.269 OA
BRANCH  29  32
ATOM     32  C   UNL A   1      34.280  34.163  29.222  1.00  0.00     0.039 A 
ATOM     33  C   UNL A   1      34.107  33.618  30.501  1.00  0.00     0.014 A 
ATOM     34  C   UNL A   1      35.561  34.348  28.694  1.00  0.00     0.014 A 
ATOM     35  C   UNL A   1      35.215  33.186  31.219  1.00  0.00     0.010 A 
ATOM     36  C   UNL A   1      36.668  33.890  29.393  1.00  0.00     0.010 A 
ATOM     37  C   UNL A   1      36.489  33.291  30.645  1.00  0.00    -0.014 A 
BRANCH  37  38
ATOM     38  C   UNL A   1      37.621  32.588  31.284  1.00  0.00     0.031 A 
ATOM     39  C   UNL A   1      37.944  31.264  30.544  1.00  0.00     0.074 A 
ATOM     40  C   UNL A   1      38.178  33.211  32.369  1.00  0.00     0.049 A 
ATOM     41  N   UNL A   1      38.542  30.190  30.958  1.00  0.00    -0.248 NA
ATOM     42  C   UNL A   1      37.481  31.091  29.134  1.00  0.00     0.031 C 
ATOM     43  C   UNL A   1      37.742  34.524  32.900  1.00  0.00     0.029 A 
ATOM     44  N   UNL A   1      39.202  32.902  33.242  1.00  0.00    -0.354 N 
ATOM     45  C   UNL A   1      38.715  29.329  29.845  1.00  0.00     0.074 A 
ATOM     46  C   UNL A   1      37.938  29.885  28.784  1.00  0.00     0.031 C 
ATOM     47  C   UNL A   1      38.417  34.844  34.025  1.00  0.00     0.029 A 
ATOM     48  C   UNL A   1      39.364  33.794  34.340  1.00  0.00     0.049 A 
ATOM     49  H   UNL A   1      39.781  32.116  33.115  1.00  0.00     0.167 HD
ATOM     50  C   UNL A   1      39.603  28.288  29.832  1.00  0.00     0.037 A 
ATOM     51  C   UNL A   1      40.164  33.666  35.446  1.00  0.00     0.037 A 
ATOM     52  C   UNL A   1      40.234  28.188  31.103  1.00  0.00     0.049 A 
ATOM     53  C   UNL A   1      40.995  32.486  35.174  1.00  0.00     0.074 A 
ATOM     54  C   UNL A   1      39.768  27.784  32.326  1.00  0.00     0.029 A 
ATOM     55  N   UNL A   1      41.388  28.912  31.270  1.00  0.00    -0.354 N 
ATOM     56  N   UNL A   1      41.963  32.448  34.308  1.00  0.00    -0.248 NA
ATOM     57  C   UNL A   1      40.645  31.220  35.828  1.00  0.00     0.031 C 
ATOM     58  C   UNL A   1      40.356  28.713  33.205  1.00  0.00     0.029 A 
ATOM     59  C   UNL A   1      41.345  29.444  32.534  1.00  0.00     0.049 A 
ATOM     60  H   UNL A   1      42.109  29.027  30.610  1.00  0.00     0.167 HD
ATOM     61  C   UNL A   1      42.080  31.100  34.072  1.00  0.00     0.074 A 
ATOM     62  C   UNL A   1      41.517  30.422  35.219  1.00  0.00     0.031 C 
ATOM     63  C   UNL A   1      42.100  30.645  32.794  1.00  0.00     0.037 A 
BRANCH  50  64
ATOM     64  C   UNL A   1      40.189  27.446  28.729  1.00  0.00     0.057 A 
ATOM     65  C   UNL A   1      39.727  26.170  28.393  1.00  0.00     0.134 A 
ATOM     66  C   UNL A   1      40.988  28.085  27.748  1.00  0.00     0.134 A 
ATOM     67  F   UNL A   1      38.955  25.466  29.230  1.00  0.00    -0.206 F 
ATOM     68  C   UNL A   1      39.965  25.606  27.130  1.00  0.00     0.040 A 
ATOM     69  C   UNL A   1      41.192  27.554  26.472  1.00  0.00     0.040 A 
ATOM     70  F   UNL A   1      41.531  29.292  27.975  1.00  0.00    -0.206 F 
ATOM     71  C   UNL A   1      40.659  26.315  26.151  1.00  0.00     0.006 A 
ENDBRANCH  50  64
BRANCH  51  72
ATOM     72  C   UNL A   1      40.316  34.290  36.820  1.00  0.00     0.057 A 
ATOM     73  C   UNL A   1      39.184  34.394  37.682  1.00  0.00     0.134 A 
ATOM     74  C   UNL A   1      41.460  34.906  37.332  1.00  0.00     0.134 A 
ATOM     75  F   UNL A   1      38.053  33.716  37.450  1.00  0.00    -0.206 F 
ATOM     76  C   UNL A   1      39.134  35.201  38.822  1.00  0.00     0.040 A 
ATOM     77  C   UNL A   1      41.440  35.681  38.513  1.00  0.00     0.040 A 
ATOM     78  F   UNL A   1      42.649  34.781  36.734  1.00  0.00    -0.206 F 
ATOM     79  C   UNL A   1      40.264  35.875  39.232  1.00  0.00     0.006 A 
ENDBRANCH  51  72
BRANCH  63  80
ATOM     80  C   UNL A   1      42.587  31.647  31.764  1.00  0.00     0.057 A 
ATOM     81  C   UNL A   1      41.776  32.248  30.789  1.00  0.00     0.134 A 
ATOM     82  C   UNL A   1      43.909  32.103  31.806  1.00  0.00     0.134 A 
ATOM     83  F   UNL A   1      40.500  31.897  30.649  1.00  0.00    -0.206 F 
ATOM     84  C   UNL A   1      42.237  33.243  29.915  1.00  0.00     0.040 A 
ATOM     85  C   UNL A   1      44.387  33.102  30.945  1.00  0.00     0.040 A 
ATOM     86  F   UNL A   1      44.772  31.583  32.691  1.00  0.00    -0.206 F 
ATOM     87  C   UNL A   1      43.550  33.678  29.996  1.00  0.00     0.006 A 
ENDBRANCH  63  80
ENDBRANCH  37  38
ENDBRANCH  29  32
ENDBRANCH  27  28
ENDBRANCH  26  27
ENDBRANCH  25  26
ENDBRANCH   1  25
TORSDOF 15
ENDMDL
MODEL 3
REMARK VINA RESULT:     -11.9      4.034      6.400
REMARK SMILES COc1ccc(NC(=O)c2cccn2CC(=O)NCCCCNC(=O)c2ccc(-c3c4nc(c(-c5c(F)cccc5F)c5ccc([nH]5)c(-c5c(F)cccc5F)c5nc(c(-c6c(F)cccc6F)c6ccc3[nH]6)C=C5)C=C4)cc2)cc1F
REMARK SMILES IDX 19 1 18 2 16 3 17 4 15 6 14 7 10 8 11 9 12 10 13 11 8 12
REMARK SMILES IDX 7 13 9 15 6 16 3 17 4 18 81 19 5 20 80 21 82 22 2 23 1 24
REMARK SMILES IDX 20 25 21 26 22 27 23 28 24 29 25 31 26 32 27 33 79 34 28 35
REMARK SMILES IDX 78 36 29 37 30 38 31 39 72 40 32 41 77 42 71 43 73 44 33 45
REMARK SMILES IDX 76 46 70 47 69 48 34 50 60 51 43 52 59 53 44 54 47 55 58 56
REMARK SMILES IDX 74 57 45 58 46 59 57 61 75 62 48 63 35 64 36 65 41 66 37 67
REMARK SMILES IDX 38 68 40 69 42 70 39 71 61 72 62 73 67 74 63 75 64 76 66 77
REMARK SMILES IDX 68 78 65 79 49 80 50 81 55 82 51 83 52 84 54 85 56 86 53 87
REMARK H PARENT 18 5 7 14 23 30 73 49 47 60
REMARK Flexibility Score: inf
ROOT
ATOM      1  C   UNL A   1      32.017  30.107  25.496  1.00  0.00     0.116 C 
ENDROOT
BRANCH   1   2
ATOM      2  N   UNL A   1      32.973  29.685  24.495  1.00  0.00    -0.355 N 
ATOM      3  C   UNL A   1      32.762  28.934  23.373  1.00  0.00     0.239 C 
ATOM      4  O   UNL A   1      33.745  28.621  22.697  1.00  0.00    -0.273 OA
ATOM      5  H   UNL A   1      33.900  29.979  24.643  1.00  0.00     0.163 HD
BRANCH   3   6
ATOM      6  C   UNL A   1      31.357  28.557  22.949  1.00  0.00     0.222 C 
BRANCH   6   7
ATOM      7  N   UNL A   1      30.873  27.300  23.511  1.00  0.00    -0.334 N 
ATOM      8  C   UNL A   1      31.139  26.024  23.038  1.00  0.00     0.107 A 
ATOM      9  C   UNL A   1      30.743  25.147  24.040  1.00  0.00     0.033 A 
ATOM     10  C   UNL A   1      30.046  25.885  25.022  1.00  0.00     0.020 A 
ATOM     11  C   UNL A   1      30.134  27.211  24.667  1.00  0.00     0.087 A 
BRANCH   8  12
ATOM     12  C   UNL A   1      31.781  25.713  21.781  1.00  0.00     0.272 C 
ATOM     13  N   UNL A   1      32.812  24.798  21.703  1.00  0.00    -0.321 N 
ATOM     14  H   UNL A   1      33.238  24.784  20.816  1.00  0.00     0.170 HD
ATOM     15  O   UNL A   1      31.407  26.219  20.722  1.00  0.00    -0.267 OA
BRANCH  13  16
ATOM     16  C   UNL A   1      33.399  23.879  22.599  1.00  0.00     0.044 A 
ATOM     17  C   UNL A   1      34.389  21.934  24.393  1.00  0.00     0.154 A 
ATOM     18  C   UNL A   1      34.983  23.183  24.321  1.00  0.00     0.052 A 
ATOM     19  C   UNL A   1      33.280  21.663  23.596  1.00  0.00     0.167 A 
ATOM     20  C   UNL A   1      34.492  24.140  23.427  1.00  0.00     0.030 A 
ATOM     21  C   UNL A   1      32.789  22.622  22.705  1.00  0.00     0.069 A 
ATOM     22  F   UNL A   1      32.652  20.482  23.680  1.00  0.00    -0.203 F 
BRANCH  17  23
ATOM     23  O   UNL A   1      34.905  21.066  25.312  1.00  0.00    -0.494 OA
ATOM     24  C   UNL A   1      34.262  21.199  26.578  1.00  0.00     0.278 C 
ENDBRANCH  17  23
ENDBRANCH  13  16
ENDBRANCH   8  12
ENDBRANCH   6   7
ENDBRANCH   3   6
ENDBRANCH   1   2
BRANCH   1  25
ATOM     25  C   UNL A   1      32.573  29.929  26.904  1.00  0.00     0.023 C 
BRANCH  25  26
ATOM     26  C   UNL A   1      33.315  28.615  27.165  1.00  0.00     0.023 C 
BRANCH  26  27
ATOM     27  C   UNL A   1      34.834  28.745  27.074  1.00  0.00     0.116 C 
BRANCH  27  28
ATOM     28  N   UNL A   1      35.266  30.125  27.252  1.00  0.00    -0.352 N 
ATOM     29  C   UNL A   1      36.391  30.614  27.868  1.00  0.00     0.251 C 
ATOM     30  H   UNL A   1      34.661  30.806  26.878  1.00  0.00     0.163 HD
ATOM     31  O   UNL A   1      36.421  31.775  28.255  1.00  0.00    -0.269 OA
BRANCH  29  32
ATOM     32  C   UNL A   1      37.570  29.753  28.077  1.00  0.00     0.039 A 
ATOM     33  C   UNL A   1      38.523  29.671  27.054  1.00  0.00     0.014 A 
ATOM     34  C   UNL A   1      37.698  28.974  29.232  1.00  0.00     0.014 A 
ATOM     35  C   UNL A   1      39.644  28.869  27.220  1.00  0.00     0.010 A 
ATOM     36  C   UNL A   1      38.831  28.196  29.418  1.00  0.00     0.010 A 
ATOM     37  C   UNL A   1      39.811  28.162  28.419  1.00  0.00    -0.014 A 
BRANCH  37  38
ATOM     38  C   UNL A   1      41.119  27.537  28.704  1.00  0.00     0.031 A 
ATOM     39  C   UNL A   1      41.125  26.043  28.288  1.00  0.00     0.074 A 
ATOM     40  C   UNL A   1      42.069  28.358  29.250  1.00  0.00     0.049 A 
ATOM     41  N   UNL A   1      41.861  25.056  28.698  1.00  0.00    -0.248 NA
ATOM     42  C   UNL A   1      40.115  25.562  27.297  1.00  0.00     0.031 C 
ATOM     43  C   UNL A   1      41.873  29.799  29.533  1.00  0.00     0.029 A 
ATOM     44  N   UNL A   1      43.371  28.182  29.676  1.00  0.00    -0.354 N 
ATOM     45  C   UNL A   1      41.566  23.927  27.892  1.00  0.00     0.074 A 
ATOM     46  C   UNL A   1      40.404  24.269  27.135  1.00  0.00     0.031 C 
ATOM     47  C   UNL A   1      42.953  30.327  30.148  1.00  0.00     0.029 A 
ATOM     48  C   UNL A   1      43.964  29.305  30.321  1.00  0.00     0.049 A 
ATOM     49  H   UNL A   1      43.857  27.337  29.542  1.00  0.00     0.167 HD
ATOM     50  C   UNL A   1      42.385  22.835  27.802  1.00  0.00     0.037 A 
ATOM     51  C   UNL A   1      45.157  29.385  30.992  1.00  0.00     0.037 A 
ATOM     52  C   UNL A   1      43.494  23.000  28.677  1.00  0.00     0.049 A 
ATOM     53  C   UNL A   1      45.818  28.098  30.737  1.00  0.00     0.074 A 
ATOM     54  C   UNL A   1      43.594  22.970  30.043  1.00  0.00     0.029 A 
ATOM     55  N   UNL A   1      44.598  23.626  28.153  1.00  0.00    -0.354 N 
ATOM     56  N   UNL A   1      46.332  27.744  29.598  1.00  0.00    -0.248 NA
ATOM     57  C   UNL A   1      45.798  27.081  31.795  1.00  0.00     0.031 C 
ATOM     58  C   UNL A   1      44.480  24.030  30.314  1.00  0.00     0.029 A 
ATOM     59  C   UNL A   1      45.081  24.464  29.125  1.00  0.00     0.049 A 
ATOM     60  H   UNL A   1      44.972  23.497  27.251  1.00  0.00     0.167 HD
ATOM     61  C   UNL A   1      46.364  26.377  29.712  1.00  0.00     0.074 A 
ATOM     62  C   UNL A   1      46.348  26.072  31.126  1.00  0.00     0.031 C 
ATOM     63  C   UNL A   1      45.853  25.610  28.715  1.00  0.00     0.037 A 
BRANCH  50  64
ATOM     64  C   UNL A   1      42.468  21.686  26.831  1.00  0.00     0.057 A 
ATOM     65  C   UNL A   1      43.398  21.611  25.790  1.00  0.00     0.134 A 
ATOM     66  C   UNL A   1      41.843  20.463  27.181  1.00  0.00     0.134 A 
ATOM     67  F   UNL A   1      44.065  22.694  25.372  1.00  0.00    -0.206 F 
ATOM     68  C   UNL A   1      43.751  20.387  25.200  1.00  0.00     0.040 A 
ATOM     69  C   UNL A   1      42.220  19.235  26.634  1.00  0.00     0.040 A 
ATOM     70  F   UNL A   1      40.896  20.417  28.132  1.00  0.00    -0.206 F 
ATOM     71  C   UNL A   1      43.197  19.192  25.652  1.00  0.00     0.006 A 
ENDBRANCH  50  64
BRANCH  51  72
ATOM     72  C   UNL A   1      45.861  30.320  31.956  1.00  0.00     0.057 A 
ATOM     73  C   UNL A   1      45.213  30.715  33.164  1.00  0.00     0.134 A 
ATOM     74  C   UNL A   1      47.084  30.962  31.747  1.00  0.00     0.134 A 
ATOM     75  F   UNL A   1      44.127  30.082  33.625  1.00  0.00    -0.206 F 
ATOM     76  C   UNL A   1      45.626  31.783  33.966  1.00  0.00     0.040 A 
ATOM     77  C   UNL A   1      47.542  32.008  32.581  1.00  0.00     0.040 A 
ATOM     78  F   UNL A   1      47.898  30.609  30.749  1.00  0.00    -0.206 F 
ATOM     79  C   UNL A   1      46.788  32.457  33.660  1.00  0.00     0.006 A 
ENDBRANCH  51  72
BRANCH  63  80
ATOM     80  C   UNL A   1      45.842  26.264  27.346  1.00  0.00     0.057 A 
ATOM     81  C   UNL A   1      44.686  26.679  26.668  1.00  0.00     0.134 A 
ATOM     82  C   UNL A   1      47.052  26.577  26.714  1.00  0.00     0.134 A 
ATOM     83  F   UNL A   1      43.476  26.438  27.166  1.00  0.00    -0.206 F 
ATOM     84  C   UNL A   1      44.719  27.367  25.446  1.00  0.00     0.040 A 
ATOM     85  C   UNL A   1      47.105  27.271  25.496  1.00  0.00     0.040 A 
ATOM     86  F   UNL A   1      48.216  26.211  27.270  1.00  0.00    -0.206 F 
ATOM     87  C   UNL A   1      45.937  27.671  24.858  1.00  0.00     0.006 A 
ENDBRANCH  63  80
ENDBRANCH  37  38
ENDBRANCH  29  32
ENDBRANCH  27  28
ENDBRANCH  26  27
ENDBRANCH  25  26
ENDBRANCH   1  25
TORSDOF 15
ENDMDL
