MODEL 1
REMARK VINA RESULT:     -15.4      0.000      0.000
REMARK SMILES C[C@@H](CCC(=O)NCCCCNC(=O)c1ccc(-c2c3nc(c(-c4c(F)cccc4F)c4ccc([nH]4)c(-c4c(F)cccc4F)c4nc(c(-c5c(F)cccc5F)c5ccc2[nH]5)C=C4)C=C3)cc1)[C@@H]1CC[C@H]2[C@@H]3CC[C@H]4CC(=O)CC[C@@]4(C)[C@H]3CC(=O)[C@@]21C
REMARK SMILES IDX 9 1 8 2 7 3 5 4 6 5 4 7 3 8 2 9 1 10 69 11 70 12 88 13 71 14
REMARK SMILES IDX 72 15 86 16 89 17 73 18 85 19 87 20 74 21 84 22 75 23 82 24
REMARK SMILES IDX 76 25 81 26 83 27 77 28 80 29 78 30 79 31 10 32 11 33 12 34
REMARK SMILES IDX 13 35 14 37 15 38 16 39 68 40 17 41 67 42 18 43 19 44 20 45
REMARK SMILES IDX 61 46 21 47 66 48 60 49 62 50 22 51 65 52 59 53 58 54 23 56
REMARK SMILES IDX 49 57 32 58 48 59 33 60 36 61 47 62 63 63 34 64 35 65 46 67
REMARK SMILES IDX 64 68 37 69 24 70 25 71 30 72 26 73 27 74 29 75 31 76 28 77
REMARK SMILES IDX 50 78 51 79 56 80 52 81 53 82 55 83 57 84 54 85 38 86 39 87
REMARK SMILES IDX 44 88 40 89 41 90 43 91 45 92 42 93
REMARK H PARENT 7 6 12 36 62 55 36 66
REMARK Flexibility Score: inf
ROOT
ATOM      1  C   UNL A   1      31.342  27.377  26.657  1.00  0.00     0.023 C 
ENDROOT
BRANCH   1   2
ATOM      2  C   UNL A   1      30.248  26.762  24.868  1.00  0.00     0.116 C 
BRANCH   2   3
ATOM      3  N   UNL A   1      29.896  27.627  23.469  1.00  0.00    -0.356 N 
ATOM      4  C   UNL A   1      30.591  28.368  22.519  1.00  0.00     0.220 C 
ATOM      5  O   UNL A   1      29.897  28.888  21.634  1.00  0.00    -0.275 OA
ATOM      6  H   UNL A   1      28.933  27.601  23.267  1.00  0.00     0.163 HD
BRANCH   4   7
ATOM      7  C   UNL A   1      32.142  28.573  22.441  1.00  0.00     0.100 C 
BRANCH   7   8
ATOM      8  C   UNL A   1      33.078  27.583  23.216  1.00  0.00     0.013 C 
BRANCH   8   9
ATOM      9  C   UNL A   1      33.335  26.165  22.594  1.00  0.00    -0.010 C 
ATOM     10  C   UNL A   1      32.432  25.826  21.425  1.00  0.00     0.008 C 
BRANCH   9  11
ATOM     11  C   UNL A   1      33.265  25.159  23.732  1.00  0.00     0.005 C 
ATOM     12  C   UNL A   1      34.778  25.534  25.081  1.00  0.00     0.005 C 
ATOM     13  C   UNL A   1      32.668  23.248  23.913  1.00  0.00     0.032 C 
ATOM     14  C   UNL A   1      35.002  23.793  26.120  1.00  0.00     0.005 C 
ATOM     15  C   UNL A   1      33.888  22.379  25.188  1.00  0.00     0.006 C 
ATOM     16  C   UNL A   1      32.485  22.354  22.702  1.00  0.00     0.139 C 
ATOM     17  C   UNL A   1      31.084  23.139  24.481  1.00  0.00     0.020 C 
ATOM     18  C   UNL A   1      33.545  20.787  25.270  1.00  0.00    -0.003 C 
ATOM     19  C   UNL A   1      32.092  20.912  22.991  1.00  0.00     0.080 C 
ATOM     20  O   UNL A   1      32.526  22.771  21.550  1.00  0.00    -0.299 OA
ATOM     21  C   UNL A   1      34.823  19.987  25.640  1.00  0.00     0.004 C 
ATOM     22  C   UNL A   1      33.138  20.187  23.828  1.00  0.00     0.006 C 
ATOM     23  C   UNL A   1      35.039  18.525  25.228  1.00  0.00     0.005 C 
ATOM     24  C   UNL A   1      32.983  18.588  23.781  1.00  0.00    -0.025 C 
ATOM     25  C   UNL A   1      34.436  18.091  23.875  1.00  0.00     0.002 C 
ATOM     26  C   UNL A   1      32.154  17.924  24.921  1.00  0.00     0.015 C 
ATOM     27  C   UNL A   1      32.317  18.134  22.448  1.00  0.00     0.012 C 
ATOM     28  C   UNL A   1      34.549  16.582  23.684  1.00  0.00     0.079 C 
ATOM     29  C   UNL A   1      32.638  16.548  25.450  1.00  0.00     0.076 C 
ATOM     30  C   UNL A   1      33.861  15.892  24.824  1.00  0.00     0.133 C 
ATOM     31  O   UNL A   1      34.288  14.818  25.252  1.00  0.00    -0.300 OA
ENDBRANCH   9  11
ENDBRANCH   8   9
ENDBRANCH   7   8
ENDBRANCH   4   7
ENDBRANCH   2   3
ENDBRANCH   1   2
BRANCH   1  32
ATOM     32  C   UNL A   1      31.989  28.969  27.228  1.00  0.00     0.023 C 
BRANCH  32  33
ATOM     33  C   UNL A   1      32.600  30.071  26.330  1.00  0.00     0.116 C 
BRANCH  33  34
ATOM     34  N   UNL A   1      32.572  31.428  26.805  1.00  0.00    -0.352 N 
ATOM     35  C   UNL A   1      33.470  32.091  27.625  1.00  0.00     0.251 C 
ATOM     36  H   UNL A   1      31.803  31.964  26.504  1.00  0.00     0.163 HD
ATOM     37  O   UNL A   1      33.174  33.239  27.959  1.00  0.00    -0.269 OA
BRANCH  35  38
ATOM     38  C   UNL A   1      34.777  31.519  28.118  1.00  0.00     0.039 A 
ATOM     39  C   UNL A   1      35.870  32.397  28.212  1.00  0.00     0.014 A 
ATOM     40  C   UNL A   1      35.020  30.172  28.409  1.00  0.00     0.014 A 
ATOM     41  C   UNL A   1      37.126  31.951  28.653  1.00  0.00     0.010 A 
ATOM     42  C   UNL A   1      36.270  29.702  28.790  1.00  0.00     0.010 A 
ATOM     43  C   UNL A   1      37.310  30.603  28.980  1.00  0.00    -0.014 A 
BRANCH  43  44
ATOM     44  C   UNL A   1      38.420  30.148  29.833  1.00  0.00     0.031 A 
ATOM     45  C   UNL A   1      38.626  30.668  31.215  1.00  0.00     0.074 A 
ATOM     46  C   UNL A   1      39.346  29.391  29.214  1.00  0.00     0.049 A 
ATOM     47  N   UNL A   1      39.519  30.303  32.095  1.00  0.00    -0.248 NA
ATOM     48  C   UNL A   1      37.747  31.761  31.658  1.00  0.00     0.031 C 
ATOM     49  C   UNL A   1      39.296  29.003  27.797  1.00  0.00     0.029 A 
ATOM     50  N   UNL A   1      40.510  28.839  29.663  1.00  0.00    -0.354 N 
ATOM     51  C   UNL A   1      39.288  31.089  33.216  1.00  0.00     0.074 A 
ATOM     52  C   UNL A   1      38.221  32.007  32.874  1.00  0.00     0.031 C 
ATOM     53  C   UNL A   1      40.368  28.259  27.502  1.00  0.00     0.029 A 
ATOM     54  C   UNL A   1      41.167  28.103  28.708  1.00  0.00     0.049 A 
ATOM     55  H   UNL A   1      40.847  28.958  30.581  1.00  0.00     0.167 HD
ATOM     56  C   UNL A   1      39.905  31.013  34.419  1.00  0.00     0.037 A 
ATOM     57  C   UNL A   1      42.270  27.346  28.814  1.00  0.00     0.037 A 
ATOM     58  C   UNL A   1      40.992  30.101  34.684  1.00  0.00     0.049 A 
ATOM     59  C   UNL A   1      42.890  27.220  30.172  1.00  0.00     0.074 A 
ATOM     60  C   UNL A   1      41.647  29.851  35.875  1.00  0.00     0.029 A 
ATOM     61  N   UNL A   1      41.595  29.301  33.720  1.00  0.00    -0.354 N 
ATOM     62  N   UNL A   1      42.549  27.821  31.289  1.00  0.00    -0.248 NA
ATOM     63  C   UNL A   1      44.017  26.294  30.299  1.00  0.00     0.031 C 
ATOM     64  C   UNL A   1      42.678  28.937  35.619  1.00  0.00     0.029 A 
ATOM     65  C   UNL A   1      42.633  28.577  34.281  1.00  0.00     0.049 A 
ATOM     66  H   UNL A   1      41.324  29.256  32.774  1.00  0.00     0.167 HD
ATOM     67  C   UNL A   1      43.401  27.323  32.261  1.00  0.00     0.074 A 
ATOM     68  C   UNL A   1      44.259  26.357  31.600  1.00  0.00     0.031 C 
ATOM     69  C   UNL A   1      43.471  27.633  33.580  1.00  0.00     0.037 A 
BRANCH  56  70
ATOM     70  C   UNL A   1      39.410  31.906  35.522  1.00  0.00     0.057 A 
ATOM     71  C   UNL A   1      38.380  31.501  36.386  1.00  0.00     0.134 A 
ATOM     72  C   UNL A   1      39.987  33.159  35.762  1.00  0.00     0.134 A 
ATOM     73  F   UNL A   1      37.781  30.313  36.219  1.00  0.00    -0.206 F 
ATOM     74  C   UNL A   1      37.924  32.319  37.422  1.00  0.00     0.040 A 
ATOM     75  C   UNL A   1      39.556  33.976  36.812  1.00  0.00     0.040 A 
ATOM     76  F   UNL A   1      40.981  33.612  34.985  1.00  0.00    -0.206 F 
ATOM     77  C   UNL A   1      38.518  33.560  37.642  1.00  0.00     0.006 A 
ENDBRANCH  56  70
BRANCH  57  78
ATOM     78  C   UNL A   1      42.750  26.572  27.644  1.00  0.00     0.057 A 
ATOM     79  C   UNL A   1      42.248  25.293  27.374  1.00  0.00     0.134 A 
ATOM     80  C   UNL A   1      43.675  27.106  26.737  1.00  0.00     0.134 A 
ATOM     81  F   UNL A   1      41.352  24.733  28.198  1.00  0.00    -0.206 F 
ATOM     82  C   UNL A   1      42.669  24.560  26.263  1.00  0.00     0.040 A 
ATOM     83  C   UNL A   1      44.086  26.394  25.609  1.00  0.00     0.040 A 
ATOM     84  F   UNL A   1      44.165  28.341  26.918  1.00  0.00    -0.206 F 
ATOM     85  C   UNL A   1      43.589  25.113  25.375  1.00  0.00     0.006 A 
ENDBRANCH  57  78
BRANCH  69  86
ATOM     86  C   UNL A   1      44.509  26.905  34.377  1.00  0.00     0.057 A 
ATOM     87  C   UNL A   1      45.796  27.425  34.558  1.00  0.00     0.134 A 
ATOM     88  C   UNL A   1      44.208  25.683  34.989  1.00  0.00     0.134 A 
ATOM     89  F   UNL A   1      46.149  28.584  33.981  1.00  0.00    -0.206 F 
ATOM     90  C   UNL A   1      46.758  26.740  35.299  1.00  0.00     0.040 A 
ATOM     91  C   UNL A   1      45.151  25.004  35.759  1.00  0.00     0.040 A 
ATOM     92  F   UNL A   1      42.989  25.135  34.857  1.00  0.00    -0.206 F 
ATOM     93  C   UNL A   1      46.434  25.530  35.909  1.00  0.00     0.006 A 
ENDBRANCH  69  86
ENDBRANCH  43  44
ENDBRANCH  35  38
ENDBRANCH  33  34
ENDBRANCH  32  33
ENDBRANCH   1  32
TORSDOF 14
ENDMDL
MODEL 2
REMARK VINA RESULT:     -15.2      2.932      6.391
REMARK SMILES C[C@@H](CCC(=O)NCCCCNC(=O)c1ccc(-c2c3nc(c(-c4c(F)cccc4F)c4ccc([nH]4)c(-c4c(F)cccc4F)c4nc(c(-c5c(F)cccc5F)c5ccc2[nH]5)C=C4)C=C3)cc1)[C@@H]1CC[C@H]2[C@@H]3CC[C@H]4CC(=O)CC[C@@]4(C)[C@H]3CC(=O)[C@@]21C
REMARK SMILES IDX 9 1 8 2 7 3 5 4 6 5 4 7 3 8 2 9 1 10 69 11 70 12 88 13 71 14
REMARK SMILES IDX 72 15 86 16 89 17 73 18 85 19 87 20 74 21 84 22 75 23 82 24
REMARK SMILES IDX 76 25 81 26 83 27 77 28 80 29 78 30 79 31 10 32 11 33 12 34
REMARK SMILES IDX 13 35 14 37 15 38 16 39 68 40 17 41 67 42 18 43 19 44 20 45
REMARK SMILES IDX 61 46 21 47 66 48 60 49 62 50 22 51 65 52 59 53 58 54 23 56
REMARK SMILES IDX 49 57 32 58 48 59 33 60 36 61 47 62 63 63 34 64 35 65 46 67
REMARK SMILES IDX 64 68 37 69 24 70 25 71 30 72 26 73 27 74 29 75 31 76 28 77
REMARK SMILES IDX 50 78 51 79 56 80 52 81 53 82 55 83 57 84 54 85 38 86 39 87
REMARK SMILES IDX 44 88 40 89 41 90 43 91 45 92 42 93
REMARK H PARENT 7 6 12 36 62 55 36 66
REMARK Flexibility Score: inf
ROOT
ATOM      1  C   UNL A   1      31.549  26.971  26.430  1.00  0.00     0.023 C 
ENDROOT
BRANCH   1   2
ATOM      2  C   UNL A   1      30.223  26.803  24.703  1.00  0.00     0.116 C 
BRANCH   2   3
ATOM      3  N   UNL A   1      29.969  27.873  23.430  1.00  0.00    -0.356 N 
ATOM      4  C   UNL A   1      30.743  28.646  22.570  1.00  0.00     0.220 C 
ATOM      5  O   UNL A   1      30.112  29.349  21.768  1.00  0.00    -0.275 OA
ATOM      6  H   UNL A   1      29.009  27.983  23.241  1.00  0.00     0.163 HD
BRANCH   4   7
ATOM      7  C   UNL A   1      32.307  28.683  22.494  1.00  0.00     0.100 C 
BRANCH   7   8
ATOM      8  C   UNL A   1      33.130  27.615  23.293  1.00  0.00     0.013 C 
BRANCH   8   9
ATOM      9  C   UNL A   1      33.334  26.200  22.648  1.00  0.00    -0.010 C 
ATOM     10  C   UNL A   1      32.396  25.900  21.496  1.00  0.00     0.008 C 
BRANCH   9  11
ATOM     11  C   UNL A   1      33.264  25.181  23.774  1.00  0.00     0.005 C 
ATOM     12  C   UNL A   1      34.785  25.531  25.120  1.00  0.00     0.005 C 
ATOM     13  C   UNL A   1      32.655  23.272  23.936  1.00  0.00     0.032 C 
ATOM     14  C   UNL A   1      35.002  23.777  26.138  1.00  0.00     0.005 C 
ATOM     15  C   UNL A   1      33.876  22.380  25.195  1.00  0.00     0.006 C 
ATOM     16  C   UNL A   1      32.461  22.393  22.716  1.00  0.00     0.139 C 
ATOM     17  C   UNL A   1      31.073  23.166  24.510  1.00  0.00     0.020 C 
ATOM     18  C   UNL A   1      33.523  20.790  25.260  1.00  0.00    -0.003 C 
ATOM     19  C   UNL A   1      32.061  20.950  22.989  1.00  0.00     0.080 C 
ATOM     20  O   UNL A   1      32.500  22.823  21.568  1.00  0.00    -0.299 OA
ATOM     21  C   UNL A   1      34.798  19.978  25.615  1.00  0.00     0.004 C 
ATOM     22  C   UNL A   1      33.106  20.209  23.813  1.00  0.00     0.006 C 
ATOM     23  C   UNL A   1      35.003  18.520  25.185  1.00  0.00     0.005 C 
ATOM     24  C   UNL A   1      32.941  18.611  23.749  1.00  0.00    -0.025 C 
ATOM     25  C   UNL A   1      34.391  18.105  23.830  1.00  0.00     0.002 C 
ATOM     26  C   UNL A   1      32.113  17.940  24.884  1.00  0.00     0.015 C 
ATOM     27  C   UNL A   1      32.266  18.177  22.413  1.00  0.00     0.012 C 
ATOM     28  C   UNL A   1      34.494  16.597  23.621  1.00  0.00     0.079 C 
ATOM     29  C   UNL A   1      32.591  16.554  25.396  1.00  0.00     0.076 C 
ATOM     30  C   UNL A   1      33.807  15.898  24.756  1.00  0.00     0.133 C 
ATOM     31  O   UNL A   1      34.230  14.817  25.169  1.00  0.00    -0.300 OA
ENDBRANCH   9  11
ENDBRANCH   8   9
ENDBRANCH   7   8
ENDBRANCH   4   7
ENDBRANCH   2   3
ENDBRANCH   1   2
BRANCH   1  32
ATOM     32  C   UNL A   1      32.146  28.377  27.404  1.00  0.00     0.023 C 
BRANCH  32  33
ATOM     33  C   UNL A   1      33.260  29.363  26.978  1.00  0.00     0.116 C 
BRANCH  33  34
ATOM     34  N   UNL A   1      33.390  30.596  27.707  1.00  0.00    -0.352 N 
ATOM     35  C   UNL A   1      34.460  31.072  28.447  1.00  0.00     0.251 C 
ATOM     36  H   UNL A   1      32.605  31.189  27.675  1.00  0.00     0.163 HD
ATOM     37  O   UNL A   1      34.290  32.131  29.051  1.00  0.00    -0.269 OA
BRANCH  35  38
ATOM     38  C   UNL A   1      35.808  30.399  28.549  1.00  0.00     0.039 A 
ATOM     39  C   UNL A   1      36.598  30.360  27.387  1.00  0.00     0.014 A 
ATOM     40  C   UNL A   1      36.305  29.737  29.677  1.00  0.00     0.014 A 
ATOM     41  C   UNL A   1      37.861  29.749  27.388  1.00  0.00     0.010 A 
ATOM     42  C   UNL A   1      37.527  29.077  29.678  1.00  0.00     0.010 A 
ATOM     43  C   UNL A   1      38.340  29.140  28.553  1.00  0.00    -0.014 A 
BRANCH  43  44
ATOM     44  C   UNL A   1      39.772  28.872  28.766  1.00  0.00     0.031 A 
ATOM     45  C   UNL A   1      40.390  27.552  28.453  1.00  0.00     0.074 A 
ATOM     46  C   UNL A   1      40.438  29.826  29.444  1.00  0.00     0.049 A 
ATOM     47  N   UNL A   1      41.647  27.206  28.527  1.00  0.00    -0.248 NA
ATOM     48  C   UNL A   1      39.484  26.469  28.044  1.00  0.00     0.031 C 
ATOM     49  C   UNL A   1      39.836  31.069  29.947  1.00  0.00     0.029 A 
ATOM     50  N   UNL A   1      41.737  29.902  29.857  1.00  0.00    -0.354 N 
ATOM     51  C   UNL A   1      41.696  25.877  28.133  1.00  0.00     0.074 A 
ATOM     52  C   UNL A   1      40.331  25.455  27.898  1.00  0.00     0.031 C 
ATOM     53  C   UNL A   1      40.768  31.790  30.579  1.00  0.00     0.029 A 
ATOM     54  C   UNL A   1      42.032  31.074  30.510  1.00  0.00     0.049 A 
ATOM     55  H   UNL A   1      42.397  29.188  29.702  1.00  0.00     0.167 HD
ATOM     56  C   UNL A   1      42.798  25.106  27.964  1.00  0.00     0.037 A 
ATOM     57  C   UNL A   1      43.209  31.534  30.959  1.00  0.00     0.037 A 
ATOM     58  C   UNL A   1      44.131  25.574  28.254  1.00  0.00     0.049 A 
ATOM     59  C   UNL A   1      44.422  30.696  30.693  1.00  0.00     0.074 A 
ATOM     60  C   UNL A   1      45.342  24.939  28.044  1.00  0.00     0.029 A 
ATOM     61  N   UNL A   1      44.420  26.800  28.845  1.00  0.00    -0.354 N 
ATOM     62  N   UNL A   1      44.494  29.507  30.137  1.00  0.00    -0.248 NA
ATOM     63  C   UNL A   1      45.715  31.266  31.076  1.00  0.00     0.031 C 
ATOM     64  C   UNL A   1      46.356  25.762  28.553  1.00  0.00     0.029 A 
ATOM     65  C   UNL A   1      45.785  26.931  29.032  1.00  0.00     0.049 A 
ATOM     66  H   UNL A   1      43.750  27.477  29.094  1.00  0.00     0.167 HD
ATOM     67  C   UNL A   1      45.843  29.199  30.077  1.00  0.00     0.074 A 
ATOM     68  C   UNL A   1      46.550  30.336  30.636  1.00  0.00     0.031 C 
ATOM     69  C   UNL A   1      46.446  28.079  29.605  1.00  0.00     0.037 A 
BRANCH  56  70
ATOM     70  C   UNL A   1      42.608  23.716  27.425  1.00  0.00     0.057 A 
ATOM     71  C   UNL A   1      42.648  23.452  26.047  1.00  0.00     0.134 A 
ATOM     72  C   UNL A   1      42.430  22.620  28.279  1.00  0.00     0.134 A 
ATOM     73  F   UNL A   1      42.817  24.451  25.169  1.00  0.00    -0.206 F 
ATOM     74  C   UNL A   1      42.487  22.160  25.540  1.00  0.00     0.040 A 
ATOM     75  C   UNL A   1      42.293  21.319  27.784  1.00  0.00     0.040 A 
ATOM     76  F   UNL A   1      42.389  22.791  29.608  1.00  0.00    -0.206 F 
ATOM     77  C   UNL A   1      42.315  21.087  26.411  1.00  0.00     0.006 A 
ENDBRANCH  56  70
BRANCH  57  78
ATOM     78  C   UNL A   1      43.291  32.882  31.571  1.00  0.00     0.057 A 
ATOM     79  C   UNL A   1      43.242  33.045  32.961  1.00  0.00     0.134 A 
ATOM     80  C   UNL A   1      43.478  34.032  30.794  1.00  0.00     0.134 A 
ATOM     81  F   UNL A   1      43.077  31.980  33.759  1.00  0.00    -0.206 F 
ATOM     82  C   UNL A   1      43.344  34.303  33.556  1.00  0.00     0.040 A 
ATOM     83  C   UNL A   1      43.606  35.295  31.377  1.00  0.00     0.040 A 
ATOM     84  F   UNL A   1      43.572  33.941  29.460  1.00  0.00    -0.206 F 
ATOM     85  C   UNL A   1      43.530  35.433  32.762  1.00  0.00     0.006 A 
ENDBRANCH  57  78
BRANCH  69  86
ATOM     86  C   UNL A   1      47.942  28.054  29.673  1.00  0.00     0.057 A 
ATOM     87  C   UNL A   1      48.734  28.539  28.625  1.00  0.00     0.134 A 
ATOM     88  C   UNL A   1      48.594  27.563  30.810  1.00  0.00     0.134 A 
ATOM     89  F   UNL A   1      48.166  29.005  27.503  1.00  0.00    -0.206 F 
ATOM     90  C   UNL A   1      50.126  28.511  28.695  1.00  0.00     0.040 A 
ATOM     91  C   UNL A   1      49.984  27.559  30.905  1.00  0.00     0.040 A 
ATOM     92  F   UNL A   1      47.890  27.091  31.850  1.00  0.00    -0.206 F 
ATOM     93  C   UNL A   1      50.755  28.027  29.841  1.00  0.00     0.006 A 
ENDBRANCH  69  86
ENDBRANCH  43  44
ENDBRANCH  35  38
ENDBRANCH  33  34
ENDBRANCH  32  33
ENDBRANCH   1  32
TORSDOF 14
ENDMDL
MODEL 3
REMARK VINA RESULT:     -15.2      1.475      1.902
REMARK SMILES C[C@@H](CCC(=O)NCCCCNC(=O)c1ccc(-c2c3nc(c(-c4c(F)cccc4F)c4ccc([nH]4)c(-c4c(F)cccc4F)c4nc(c(-c5c(F)cccc5F)c5ccc2[nH]5)C=C4)C=C3)cc1)[C@@H]1CC[C@H]2[C@@H]3CC[C@H]4CC(=O)CC[C@@]4(C)[C@H]3CC(=O)[C@@]21C
REMARK SMILES IDX 9 1 8 2 7 3 5 4 6 5 4 7 3 8 2 9 1 10 69 11 70 12 88 13 71 14
REMARK SMILES IDX 72 15 86 16 89 17 73 18 85 19 87 20 74 21 84 22 75 23 82 24
REMARK SMILES IDX 76 25 81 26 83 27 77 28 80 29 78 30 79 31 10 32 11 33 12 34
REMARK SMILES IDX 13 35 14 37 15 38 16 39 68 40 17 41 67 42 18 43 19 44 20 45
REMARK SMILES IDX 61 46 21 47 66 48 60 49 62 50 22 51 65 52 59 53 58 54 23 56
REMARK SMILES IDX 49 57 32 58 48 59 33 60 36 61 47 62 63 63 34 64 35 65 46 67
REMARK SMILES IDX 64 68 37 69 24 70 25 71 30 72 26 73 27 74 29 75 31 76 28 77
REMARK SMILES IDX 50 78 51 79 56 80 52 81 53 82 55 83 57 84 54 85 38 86 39 87
REMARK SMILES IDX 44 88 40 89 41 90 43 91 45 92 42 93
REMARK H PARENT 7 6 12 36 62 55 36 66
REMARK Flexibility Score: inf
ROOT
ATOM      1  C   UNL A   1      31.395  27.333  26.635  1.00  0.00     0.023 C 
ENDROOT
BRANCH   1   2
ATOM      2  C   UNL A   1      30.252  26.798  24.852  1.00  0.00     0.116 C 
BRANCH   2   3
ATOM      3  N   UNL A   1      29.895  27.711  23.485  1.00  0.00    -0.356 N 
ATOM      4  C   UNL A   1      30.592  28.446  22.532  1.00  0.00     0.220 C 
ATOM      5  O   UNL A   1      29.895  29.016  21.681  1.00  0.00    -0.275 OA
ATOM      6  H   UNL A   1      28.926  27.731  23.312  1.00  0.00     0.163 HD
BRANCH   4   7
ATOM      7  C   UNL A   1      32.147  28.588  22.411  1.00  0.00     0.100 C 
BRANCH   7   8
ATOM      8  C   UNL A   1      33.063  27.591  23.201  1.00  0.00     0.013 C 
BRANCH   8   9
ATOM      9  C   UNL A   1      33.331  26.176  22.579  1.00  0.00    -0.010 C 
ATOM     10  C   UNL A   1      32.438  25.835  21.402  1.00  0.00     0.008 C 
BRANCH   9  11
ATOM     11  C   UNL A   1      33.258  25.167  23.714  1.00  0.00     0.005 C 
ATOM     12  C   UNL A   1      34.771  25.535  25.064  1.00  0.00     0.005 C 
ATOM     13  C   UNL A   1      32.653  23.258  23.890  1.00  0.00     0.032 C 
ATOM     14  C   UNL A   1      34.988  23.790  26.100  1.00  0.00     0.005 C 
ATOM     15  C   UNL A   1      33.870  22.382  25.164  1.00  0.00     0.006 C 
ATOM     16  C   UNL A   1      32.469  22.368  22.677  1.00  0.00     0.139 C 
ATOM     17  C   UNL A   1      31.069  23.153  24.457  1.00  0.00     0.020 C 
ATOM     18  C   UNL A   1      33.522  20.791  25.241  1.00  0.00    -0.003 C 
ATOM     19  C   UNL A   1      32.071  20.926  22.962  1.00  0.00     0.080 C 
ATOM     20  O   UNL A   1      32.511  22.787  21.526  1.00  0.00    -0.299 OA
ATOM     21  C   UNL A   1      34.798  19.986  25.610  1.00  0.00     0.004 C 
ATOM     22  C   UNL A   1      33.114  20.196  23.798  1.00  0.00     0.006 C 
ATOM     23  C   UNL A   1      35.008  18.524  25.195  1.00  0.00     0.005 C 
ATOM     24  C   UNL A   1      32.953  18.597  23.747  1.00  0.00    -0.025 C 
ATOM     25  C   UNL A   1      34.405  18.095  23.840  1.00  0.00     0.002 C 
ATOM     26  C   UNL A   1      32.122  17.933  24.885  1.00  0.00     0.015 C 
ATOM     27  C   UNL A   1      32.287  18.149  22.412  1.00  0.00     0.012 C 
ATOM     28  C   UNL A   1      34.513  16.586  23.646  1.00  0.00     0.079 C 
ATOM     29  C   UNL A   1      32.601  16.554  25.411  1.00  0.00     0.076 C 
ATOM     30  C   UNL A   1      33.823  15.895  24.784  1.00  0.00     0.133 C 
ATOM     31  O   UNL A   1      34.246  14.820  25.209  1.00  0.00    -0.300 OA
ENDBRANCH   9  11
ENDBRANCH   8   9
ENDBRANCH   7   8
ENDBRANCH   4   7
ENDBRANCH   2   3
ENDBRANCH   1   2
BRANCH   1  32
ATOM     32  C   UNL A   1      32.048  28.901  27.265  1.00  0.00     0.023 C 
BRANCH  32  33
ATOM     33  C   UNL A   1      33.352  29.589  26.796  1.00  0.00     0.116 C 
BRANCH  33  34
ATOM     34  N   UNL A   1      33.609  30.932  27.244  1.00  0.00    -0.352 N 
ATOM     35  C   UNL A   1      34.662  31.420  28.001  1.00  0.00     0.251 C 
ATOM     36  H   UNL A   1      32.940  31.601  26.973  1.00  0.00     0.163 HD
ATOM     37  O   UNL A   1      34.608  32.607  28.325  1.00  0.00    -0.269 OA
BRANCH  35  38
ATOM     38  C   UNL A   1      35.862  30.613  28.435  1.00  0.00     0.039 A 
ATOM     39  C   UNL A   1      37.000  30.657  27.611  1.00  0.00     0.014 A 
ATOM     40  C   UNL A   1      35.913  29.759  29.542  1.00  0.00     0.014 A 
ATOM     41  C   UNL A   1      38.158  29.934  27.932  1.00  0.00     0.010 A 
ATOM     42  C   UNL A   1      37.031  28.991  29.842  1.00  0.00     0.010 A 
ATOM     43  C   UNL A   1      38.181  29.128  29.077  1.00  0.00    -0.014 A 
BRANCH  43  44
ATOM     44  C   UNL A   1      39.441  28.698  29.706  1.00  0.00     0.031 A 
ATOM     45  C   UNL A   1      40.020  29.399  30.887  1.00  0.00     0.074 A 
ATOM     46  C   UNL A   1      40.130  27.762  29.026  1.00  0.00     0.049 A 
ATOM     47  N   UNL A   1      41.082  29.083  31.578  1.00  0.00    -0.248 NA
ATOM     48  C   UNL A   1      39.352  30.632  31.328  1.00  0.00     0.031 C 
ATOM     49  C   UNL A   1      39.700  27.169  27.752  1.00  0.00     0.029 A 
ATOM     50  N   UNL A   1      41.334  27.169  29.274  1.00  0.00    -0.354 N 
ATOM     51  C   UNL A   1      41.191  30.052  32.566  1.00  0.00     0.074 A 
ATOM     52  C   UNL A   1      40.132  31.012  32.335  1.00  0.00     0.031 C 
ATOM     53  C   UNL A   1      40.615  26.281  27.345  1.00  0.00     0.029 A 
ATOM     54  C   UNL A   1      41.680  26.230  28.332  1.00  0.00     0.049 A 
ATOM     55  H   UNL A   1      41.899  27.391  30.049  1.00  0.00     0.167 HD
ATOM     56  C   UNL A   1      42.087  30.098  33.581  1.00  0.00     0.037 A 
ATOM     57  C   UNL A   1      42.725  25.388  28.303  1.00  0.00     0.037 A 
ATOM     58  C   UNL A   1      43.146  29.130  33.734  1.00  0.00     0.049 A 
ATOM     59  C   UNL A   1      43.659  25.409  29.474  1.00  0.00     0.074 A 
ATOM     60  C   UNL A   1      44.065  28.999  34.760  1.00  0.00     0.029 A 
ATOM     61  N   UNL A   1      43.435  28.133  32.809  1.00  0.00    -0.354 N 
ATOM     62  N   UNL A   1      43.650  26.206  30.518  1.00  0.00    -0.248 NA
ATOM     63  C   UNL A   1      44.721  24.402  29.488  1.00  0.00     0.031 C 
ATOM     64  C   UNL A   1      44.938  27.955  34.428  1.00  0.00     0.029 A 
ATOM     65  C   UNL A   1      44.534  27.400  33.223  1.00  0.00     0.049 A 
ATOM     66  H   UNL A   1      42.932  27.972  31.978  1.00  0.00     0.167 HD
ATOM     67  C   UNL A   1      44.687  25.778  31.330  1.00  0.00     0.074 A 
ATOM     68  C   UNL A   1      45.288  24.639  30.662  1.00  0.00     0.031 C 
ATOM     69  C   UNL A   1      45.107  26.278  32.519  1.00  0.00     0.037 A 
BRANCH  56  70
ATOM     70  C   UNL A   1      41.943  31.196  34.598  1.00  0.00     0.057 A 
ATOM     71  C   UNL A   1      41.099  31.058  35.711  1.00  0.00     0.134 A 
ATOM     72  C   UNL A   1      42.680  32.383  34.500  1.00  0.00     0.134 A 
ATOM     73  F   UNL A   1      40.363  29.949  35.872  1.00  0.00    -0.206 F 
ATOM     74  C   UNL A   1      40.971  32.069  36.667  1.00  0.00     0.040 A 
ATOM     75  C   UNL A   1      42.580  33.391  35.465  1.00  0.00     0.040 A 
ATOM     76  F   UNL A   1      43.515  32.584  33.470  1.00  0.00    -0.206 F 
ATOM     77  C   UNL A   1      41.718  33.238  36.548  1.00  0.00     0.006 A 
ENDBRANCH  56  70
BRANCH  57  78
ATOM     78  C   UNL A   1      42.845  24.398  27.205  1.00  0.00     0.057 A 
ATOM     79  C   UNL A   1      42.218  23.150  27.293  1.00  0.00     0.134 A 
ATOM     80  C   UNL A   1      43.536  24.690  26.023  1.00  0.00     0.134 A 
ATOM     81  F   UNL A   1      41.531  22.816  28.395  1.00  0.00    -0.206 F 
ATOM     82  C   UNL A   1      42.298  22.215  26.260  1.00  0.00     0.040 A 
ATOM     83  C   UNL A   1      43.604  23.774  24.971  1.00  0.00     0.040 A 
ATOM     84  F   UNL A   1      44.126  25.883  25.860  1.00  0.00    -0.206 F 
ATOM     85  C   UNL A   1      42.991  22.529  25.093  1.00  0.00     0.006 A 
ENDBRANCH  57  78
BRANCH  69  86
ATOM     86  C   UNL A   1      46.266  25.577  33.159  1.00  0.00     0.057 A 
ATOM     87  C   UNL A   1      47.588  25.971  32.919  1.00  0.00     0.134 A 
ATOM     88  C   UNL A   1      46.052  24.515  34.044  1.00  0.00     0.134 A 
ATOM     89  F   UNL A   1      47.855  26.971  32.066  1.00  0.00    -0.206 F 
ATOM     90  C   UNL A   1      48.661  25.312  33.516  1.00  0.00     0.040 A 
ATOM     91  C   UNL A   1      47.116  23.869  34.673  1.00  0.00     0.040 A 
ATOM     92  F   UNL A   1      44.808  24.095  34.320  1.00  0.00    -0.206 F 
ATOM     93  C   UNL A   1      48.425  24.262  34.403  1.00  0.00     0.006 A 
ENDBRANCH  69  86
ENDBRANCH  43  44
ENDBRANCH  35  38
ENDBRANCH  33  34
ENDBRANCH  32  33
ENDBRANCH   1  32
TORSDOF 14
ENDMDL
