MODEL 1
REMARK VINA RESULT:     -10.2      0.000      0.000
REMARK SMILES CC1(C)C[C@@H]1[NH2+]Cc1ccc(C(=O)NCCCCNC(=O)c2ccc(-c3c4nc(c(-c5c(F)cccc5F)c5ccc([nH]5)c(-c5c(F)cccc5F)c5nc(c(-c6c(F)cccc6F)c6ccc3[nH]6)C=C5)C=C4)cc2)cn1
REMARK SMILES IDX 16 1 15 2 14 3 12 4 13 5 11 7 8 8 9 9 77 10 10 11 76 12 7 13
REMARK SMILES IDX 6 14 5 17 1 18 2 19 3 20 4 21 17 22 18 23 19 24 20 25 21 27
REMARK SMILES IDX 22 28 23 29 75 30 24 31 74 32 25 33 26 34 27 35 68 36 28 37
REMARK SMILES IDX 73 38 67 39 69 40 29 41 72 42 66 43 65 44 30 46 56 47 39 48
REMARK SMILES IDX 55 49 40 50 43 51 54 52 70 53 41 54 42 55 53 57 71 58 44 59
REMARK SMILES IDX 31 60 32 61 37 62 33 63 34 64 36 65 38 66 35 67 57 68 58 69
REMARK SMILES IDX 63 70 59 71 60 72 62 73 64 74 61 75 45 76 46 77 51 78 47 79
REMARK SMILES IDX 48 80 50 81 52 82 49 83
REMARK H PARENT 14 6 6 15 6 16 19 26 69 45 43 56
REMARK Flexibility Score: inf
ROOT
ATOM      1  C   UNL A   1      34.554  34.868  28.471  1.00  0.00     0.023 C 
ENDROOT
BRANCH   1   2
ATOM      2  C   UNL A   1      33.082  34.927  28.887  1.00  0.00     0.116 C 
BRANCH   2   3
ATOM      3  N   UNL A   1      32.795  36.168  29.577  1.00  0.00    -0.352 N 
ATOM      4  C   UNL A   1      33.035  36.577  30.863  1.00  0.00     0.252 C 
ATOM      5  O   UNL A   1      32.704  37.723  31.168  1.00  0.00    -0.269 OA
ATOM      6  H   UNL A   1      32.342  36.841  29.020  1.00  0.00     0.163 HD
BRANCH   4   7
ATOM      7  C   UNL A   1      33.709  35.732  31.877  1.00  0.00     0.058 A 
ATOM      8  C   UNL A   1      35.126  34.400  33.852  1.00  0.00     0.094 A 
ATOM      9  C   UNL A   1      34.252  33.685  33.035  1.00  0.00     0.030 A 
ATOM     10  N   UNL A   1      35.275  35.741  33.739  1.00  0.00    -0.255 NA
ATOM     11  C   UNL A   1      33.527  34.363  32.052  1.00  0.00     0.017 A 
ATOM     12  C   UNL A   1      34.567  36.371  32.765  1.00  0.00     0.125 A 
BRANCH   8  13
ATOM     13  C   UNL A   1      35.924  33.685  34.926  1.00  0.00     0.318 C 
BRANCH  13  14
ATOM     14  N   UNL A   1      37.063  32.943  34.383  1.00  0.00    -0.338 N 
ATOM     15  H   UNL A   1      37.560  32.523  35.169  1.00  0.00     0.346 HD
ATOM     16  H   UNL A   1      36.656  32.278  33.725  1.00  0.00     0.346 HD
BRANCH  14  17
ATOM     17  C   UNL A   1      38.040  33.703  33.599  1.00  0.00     0.189 C 
ATOM     18  C   UNL A   1      38.443  34.659  31.215  1.00  0.00     0.017 C 
ATOM     19  C   UNL A   1      38.231  33.460  32.104  1.00  0.00     0.022 C 
ATOM     20  C   UNL A   1      37.573  32.288  31.409  1.00  0.00     0.017 C 
ATOM     21  C   UNL A   1      39.333  33.139  33.092  1.00  0.00     0.078 C 
ENDBRANCH  14  17
ENDBRANCH  13  14
ENDBRANCH   8  13
ENDBRANCH   4   7
ENDBRANCH   2   3
ENDBRANCH   1   2
BRANCH   1  22
ATOM     22  C   UNL A   1      35.039  33.472  28.063  1.00  0.00     0.023 C 
BRANCH  22  23
ATOM     23  C   UNL A   1      34.740  32.366  29.068  1.00  0.00     0.116 C 
BRANCH  23  24
ATOM     24  N   UNL A   1      34.112  31.198  28.469  1.00  0.00    -0.352 N 
ATOM     25  C   UNL A   1      34.699  30.012  28.101  1.00  0.00     0.251 C 
ATOM     26  H   UNL A   1      33.144  31.266  28.307  1.00  0.00     0.163 HD
ATOM     27  O   UNL A   1      34.053  29.152  27.511  1.00  0.00    -0.269 OA
BRANCH  25  28
ATOM     28  C   UNL A   1      36.133  29.803  28.382  1.00  0.00     0.039 A 
ATOM     29  C   UNL A   1      36.506  29.291  29.627  1.00  0.00     0.014 A 
ATOM     30  C   UNL A   1      37.096  30.072  27.407  1.00  0.00     0.014 A 
ATOM     31  C   UNL A   1      37.845  28.980  29.870  1.00  0.00     0.010 A 
ATOM     32  C   UNL A   1      38.419  29.703  27.628  1.00  0.00     0.010 A 
ATOM     33  C   UNL A   1      38.804  29.149  28.858  1.00  0.00    -0.014 A 
BRANCH  33  34
ATOM     34  C   UNL A   1      40.216  28.745  29.064  1.00  0.00     0.031 A 
ATOM     35  C   UNL A   1      41.197  29.713  29.661  1.00  0.00     0.074 A 
ATOM     36  C   UNL A   1      40.627  27.534  28.643  1.00  0.00     0.049 A 
ATOM     37  N   UNL A   1      42.485  29.574  29.847  1.00  0.00    -0.248 NA
ATOM     38  C   UNL A   1      40.666  31.019  30.078  1.00  0.00     0.031 C 
ATOM     39  C   UNL A   1      39.780  26.526  28.000  1.00  0.00     0.029 A 
ATOM     40  N   UNL A   1      41.868  26.949  28.682  1.00  0.00    -0.354 N 
ATOM     41  C   UNL A   1      42.919  30.778  30.386  1.00  0.00     0.074 A 
ATOM     42  C   UNL A   1      41.768  31.651  30.452  1.00  0.00     0.031 C 
ATOM     43  C   UNL A   1      40.522  25.442  27.724  1.00  0.00     0.029 A 
ATOM     44  C   UNL A   1      41.900  25.689  28.136  1.00  0.00     0.049 A 
ATOM     45  H   UNL A   1      42.660  27.391  29.063  1.00  0.00     0.167 HD
ATOM     46  C   UNL A   1      44.160  31.116  30.809  1.00  0.00     0.037 A 
ATOM     47  C   UNL A   1      42.927  24.831  27.982  1.00  0.00     0.037 A 
ATOM     48  C   UNL A   1      45.296  30.234  30.769  1.00  0.00     0.049 A 
ATOM     49  C   UNL A   1      44.293  25.228  28.467  1.00  0.00     0.074 A 
ATOM     50  C   UNL A   1      46.581  30.460  31.231  1.00  0.00     0.029 A 
ATOM     51  N   UNL A   1      45.282  28.955  30.234  1.00  0.00    -0.354 N 
ATOM     52  N   UNL A   1      44.676  26.344  29.037  1.00  0.00    -0.248 NA
ATOM     53  C   UNL A   1      45.369  24.243  28.291  1.00  0.00     0.031 C 
ATOM     54  C   UNL A   1      47.354  29.331  30.944  1.00  0.00     0.029 A 
ATOM     55  C   UNL A   1      46.540  28.385  30.340  1.00  0.00     0.049 A 
ATOM     56  H   UNL A   1      44.496  28.516  29.838  1.00  0.00     0.167 HD
ATOM     57  C   UNL A   1      46.027  26.187  29.312  1.00  0.00     0.074 A 
ATOM     58  C   UNL A   1      46.395  24.863  28.858  1.00  0.00     0.031 C 
ATOM     59  C   UNL A   1      46.886  27.061  29.891  1.00  0.00     0.037 A 
BRANCH  46  60
ATOM     60  C   UNL A   1      44.348  32.498  31.359  1.00  0.00     0.057 A 
ATOM     61  C   UNL A   1      44.150  32.784  32.717  1.00  0.00     0.134 A 
ATOM     62  C   UNL A   1      44.758  33.550  30.530  1.00  0.00     0.134 A 
ATOM     63  F   UNL A   1      43.744  31.824  33.562  1.00  0.00    -0.206 F 
ATOM     64  C   UNL A   1      44.328  34.072  33.225  1.00  0.00     0.040 A 
ATOM     65  C   UNL A   1      44.964  34.836  31.032  1.00  0.00     0.040 A 
ATOM     66  F   UNL A   1      44.970  33.343  29.222  1.00  0.00    -0.206 F 
ATOM     67  C   UNL A   1      44.743  35.101  32.382  1.00  0.00     0.006 A 
ENDBRANCH  46  60
BRANCH  47  68
ATOM     68  C   UNL A   1      42.698  23.500  27.367  1.00  0.00     0.057 A 
ATOM     69  C   UNL A   1      42.360  22.393  28.152  1.00  0.00     0.134 A 
ATOM     70  C   UNL A   1      42.817  23.301  25.987  1.00  0.00     0.134 A 
ATOM     71  F   UNL A   1      42.249  22.518  29.483  1.00  0.00    -0.206 F 
ATOM     72  C   UNL A   1      42.166  21.130  27.591  1.00  0.00     0.040 A 
ATOM     73  C   UNL A   1      42.604  22.049  25.408  1.00  0.00     0.040 A 
ATOM     74  F   UNL A   1      43.131  24.325  25.180  1.00  0.00    -0.206 F 
ATOM     75  C   UNL A   1      42.285  20.957  26.213  1.00  0.00     0.006 A 
ENDBRANCH  47  68
BRANCH  59  76
ATOM     76  C   UNL A   1      48.298  26.600  30.094  1.00  0.00     0.057 A 
ATOM     77  C   UNL A   1      48.679  25.863  31.222  1.00  0.00     0.134 A 
ATOM     78  C   UNL A   1      49.279  26.864  29.129  1.00  0.00     0.134 A 
ATOM     79  F   UNL A   1      47.790  25.591  32.188  1.00  0.00    -0.206 F 
ATOM     80  C   UNL A   1      49.992  25.418  31.391  1.00  0.00     0.040 A 
ATOM     81  C   UNL A   1      50.587  26.403  29.276  1.00  0.00     0.040 A 
ATOM     82  F   UNL A   1      48.976  27.558  28.023  1.00  0.00    -0.206 F 
ATOM     83  C   UNL A   1      50.948  25.682  30.412  1.00  0.00     0.006 A 
ENDBRANCH  59  76
ENDBRANCH  33  34
ENDBRANCH  25  28
ENDBRANCH  23  24
ENDBRANCH  22  23
ENDBRANCH   1  22
TORSDOF 14
ENDMDL
MODEL 2
REMARK VINA RESULT:     -10.2      3.486      6.373
REMARK SMILES CC1(C)C[C@@H]1[NH2+]Cc1ccc(C(=O)NCCCCNC(=O)c2ccc(-c3c4nc(c(-c5c(F)cccc5F)c5ccc([nH]5)c(-c5c(F)cccc5F)c5nc(c(-c6c(F)cccc6F)c6ccc3[nH]6)C=C5)C=C4)cc2)cn1
REMARK SMILES IDX 16 1 15 2 14 3 12 4 13 5 11 7 8 8 9 9 77 10 10 11 76 12 7 13
REMARK SMILES IDX 6 14 5 17 1 18 2 19 3 20 4 21 17 22 18 23 19 24 20 25 21 27
REMARK SMILES IDX 22 28 23 29 75 30 24 31 74 32 25 33 26 34 27 35 68 36 28 37
REMARK SMILES IDX 73 38 67 39 69 40 29 41 72 42 66 43 65 44 30 46 56 47 39 48
REMARK SMILES IDX 55 49 40 50 43 51 54 52 70 53 41 54 42 55 53 57 71 58 44 59
REMARK SMILES IDX 31 60 32 61 37 62 33 63 34 64 36 65 38 66 35 67 57 68 58 69
REMARK SMILES IDX 63 70 59 71 60 72 62 73 64 74 61 75 45 76 46 77 51 78 47 79
REMARK SMILES IDX 48 80 50 81 52 82 49 83
REMARK H PARENT 14 6 6 15 6 16 19 26 69 45 43 56
REMARK Flexibility Score: inf
ROOT
ATOM      1  C   UNL A   1      32.906  29.673  25.001  1.00  0.00     0.023 C 
ENDROOT
BRANCH   1   2
ATOM      2  C   UNL A   1      31.380  29.595  25.095  1.00  0.00     0.116 C 
BRANCH   2   3
ATOM      3  N   UNL A   1      30.781  29.702  23.780  1.00  0.00    -0.352 N 
ATOM      4  C   UNL A   1      30.480  28.758  22.831  1.00  0.00     0.252 C 
ATOM      5  O   UNL A   1      29.932  29.143  21.799  1.00  0.00    -0.269 OA
ATOM      6  H   UNL A   1      30.547  30.622  23.519  1.00  0.00     0.163 HD
BRANCH   4   7
ATOM      7  C   UNL A   1      30.739  27.310  23.008  1.00  0.00     0.058 A 
ATOM      8  C   UNL A   1      31.441  24.632  23.129  1.00  0.00     0.094 A 
ATOM      9  C   UNL A   1      30.351  25.088  23.867  1.00  0.00     0.030 A 
ATOM     10  N   UNL A   1      32.199  25.468  22.381  1.00  0.00    -0.255 NA
ATOM     11  C   UNL A   1      30.011  26.442  23.817  1.00  0.00     0.017 A 
ATOM     12  C   UNL A   1      31.836  26.776  22.341  1.00  0.00     0.125 A 
BRANCH   8  13
ATOM     13  C   UNL A   1      31.829  23.166  23.168  1.00  0.00     0.318 C 
BRANCH  13  14
ATOM     14  N   UNL A   1      32.463  22.784  24.431  1.00  0.00    -0.338 N 
ATOM     15  H   UNL A   1      32.270  23.521  25.109  1.00  0.00     0.346 HD
ATOM     16  H   UNL A   1      32.067  21.872  24.662  1.00  0.00     0.346 HD
BRANCH  14  17
ATOM     17  C   UNL A   1      33.913  22.573  24.412  1.00  0.00     0.189 C 
ATOM     18  C   UNL A   1      36.072  23.122  25.753  1.00  0.00     0.017 C 
ATOM     19  C   UNL A   1      34.881  23.614  24.970  1.00  0.00     0.022 C 
ATOM     20  C   UNL A   1      34.405  24.991  25.376  1.00  0.00     0.017 C 
ATOM     21  C   UNL A   1      34.855  23.289  23.491  1.00  0.00     0.078 C 
ENDBRANCH  14  17
ENDBRANCH  13  14
ENDBRANCH   8  13
ENDBRANCH   4   7
ENDBRANCH   2   3
ENDBRANCH   1   2
BRANCH   1  22
ATOM     22  C   UNL A   1      33.640  28.504  25.666  1.00  0.00     0.023 C 
BRANCH  22  23
ATOM     23  C   UNL A   1      33.752  28.593  27.184  1.00  0.00     0.116 C 
BRANCH  23  24
ATOM     24  N   UNL A   1      33.697  29.958  27.686  1.00  0.00    -0.352 N 
ATOM     25  C   UNL A   1      34.694  30.681  28.294  1.00  0.00     0.251 C 
ATOM     26  H   UNL A   1      32.835  30.421  27.576  1.00  0.00     0.163 HD
ATOM     27  O   UNL A   1      34.464  31.794  28.758  1.00  0.00    -0.269 OA
BRANCH  25  28
ATOM     28  C   UNL A   1      36.036  30.083  28.426  1.00  0.00     0.039 A 
ATOM     29  C   UNL A   1      36.916  30.161  27.344  1.00  0.00     0.014 A 
ATOM     30  C   UNL A   1      36.435  29.487  29.625  1.00  0.00     0.014 A 
ATOM     31  C   UNL A   1      38.226  29.702  27.488  1.00  0.00     0.010 A 
ATOM     32  C   UNL A   1      37.758  29.089  29.787  1.00  0.00     0.010 A 
ATOM     33  C   UNL A   1      38.666  29.198  28.723  1.00  0.00    -0.014 A 
BRANCH  33  34
ATOM     34  C   UNL A   1      40.076  28.787  28.925  1.00  0.00     0.031 A 
ATOM     35  C   UNL A   1      41.070  29.756  29.496  1.00  0.00     0.074 A 
ATOM     36  C   UNL A   1      40.474  27.564  28.523  1.00  0.00     0.049 A 
ATOM     37  N   UNL A   1      42.358  29.611  29.675  1.00  0.00    -0.248 NA
ATOM     38  C   UNL A   1      40.553  31.074  29.895  1.00  0.00     0.031 C 
ATOM     39  C   UNL A   1      39.614  26.552  27.905  1.00  0.00     0.029 A 
ATOM     40  N   UNL A   1      41.711  26.970  28.562  1.00  0.00    -0.354 N 
ATOM     41  C   UNL A   1      42.806  30.820  30.189  1.00  0.00     0.074 A 
ATOM     42  C   UNL A   1      41.663  31.704  30.248  1.00  0.00     0.031 C 
ATOM     43  C   UNL A   1      40.345  25.457  27.642  1.00  0.00     0.029 A 
ATOM     44  C   UNL A   1      41.728  25.700  28.039  1.00  0.00     0.049 A 
ATOM     45  H   UNL A   1      42.510  27.412  28.929  1.00  0.00     0.167 HD
ATOM     46  C   UNL A   1      44.053  31.155  30.595  1.00  0.00     0.037 A 
ATOM     47  C   UNL A   1      42.747  24.831  27.893  1.00  0.00     0.037 A 
ATOM     48  C   UNL A   1      45.182  30.264  30.563  1.00  0.00     0.049 A 
ATOM     49  C   UNL A   1      44.120  25.225  28.359  1.00  0.00     0.074 A 
ATOM     50  C   UNL A   1      46.472  30.487  31.011  1.00  0.00     0.029 A 
ATOM     51  N   UNL A   1      45.154  28.975  30.051  1.00  0.00    -0.354 N 
ATOM     52  N   UNL A   1      44.516  26.349  28.906  1.00  0.00    -0.248 NA
ATOM     53  C   UNL A   1      45.187  24.228  28.192  1.00  0.00     0.031 C 
ATOM     54  C   UNL A   1      47.234  29.346  30.738  1.00  0.00     0.029 A 
ATOM     55  C   UNL A   1      46.408  28.397  30.158  1.00  0.00     0.049 A 
ATOM     56  H   UNL A   1      44.360  28.536  29.670  1.00  0.00     0.167 HD
ATOM     57  C   UNL A   1      45.868  26.185  29.173  1.00  0.00     0.074 A 
ATOM     58  C   UNL A   1      46.222  24.850  28.740  1.00  0.00     0.031 C 
ATOM     59  C   UNL A   1      46.739  27.062  29.729  1.00  0.00     0.037 A 
BRANCH  46  60
ATOM     60  C   UNL A   1      44.257  32.546  31.119  1.00  0.00     0.057 A 
ATOM     61  C   UNL A   1      44.128  32.846  32.483  1.00  0.00     0.134 A 
ATOM     62  C   UNL A   1      44.613  33.591  30.258  1.00  0.00     0.134 A 
ATOM     63  F   UNL A   1      43.776  31.892  33.359  1.00  0.00    -0.206 F 
ATOM     64  C   UNL A   1      44.320  34.141  32.966  1.00  0.00     0.040 A 
ATOM     65  C   UNL A   1      44.833  34.885  30.734  1.00  0.00     0.040 A 
ATOM     66  F   UNL A   1      44.758  33.371  28.943  1.00  0.00    -0.206 F 
ATOM     67  C   UNL A   1      44.680  35.164  32.091  1.00  0.00     0.006 A 
ENDBRANCH  46  60
BRANCH  47  68
ATOM     68  C   UNL A   1      42.502  23.491  27.303  1.00  0.00     0.057 A 
ATOM     69  C   UNL A   1      42.112  22.413  28.104  1.00  0.00     0.134 A 
ATOM     70  C   UNL A   1      42.657  23.255  25.932  1.00  0.00     0.134 A 
ATOM     71  F   UNL A   1      41.965  22.575  29.427  1.00  0.00    -0.206 F 
ATOM     72  C   UNL A   1      41.903  21.142  27.568  1.00  0.00     0.040 A 
ATOM     73  C   UNL A   1      42.429  21.994  25.378  1.00  0.00     0.040 A 
ATOM     74  F   UNL A   1      43.021  24.250  25.110  1.00  0.00    -0.206 F 
ATOM     75  C   UNL A   1      42.059  20.931  26.200  1.00  0.00     0.006 A 
ENDBRANCH  47  68
BRANCH  59  76
ATOM     76  C   UNL A   1      48.149  26.593  29.930  1.00  0.00     0.057 A 
ATOM     77  C   UNL A   1      49.143  26.812  28.969  1.00  0.00     0.134 A 
ATOM     78  C   UNL A   1      48.524  25.952  31.118  1.00  0.00     0.134 A 
ATOM     79  F   UNL A   1      48.845  27.408  27.805  1.00  0.00    -0.206 F 
ATOM     80  C   UNL A   1      50.459  26.392  29.175  1.00  0.00     0.040 A 
ATOM     81  C   UNL A   1      49.840  25.551  31.345  1.00  0.00     0.040 A 
ATOM     82  F   UNL A   1      47.620  25.721  32.081  1.00  0.00    -0.206 F 
ATOM     83  C   UNL A   1      50.811  25.766  30.369  1.00  0.00     0.006 A 
ENDBRANCH  59  76
ENDBRANCH  33  34
ENDBRANCH  25  28
ENDBRANCH  23  24
ENDBRANCH  22  23
ENDBRANCH   1  22
TORSDOF 14
ENDMDL
MODEL 3
REMARK VINA RESULT:     -10.1      4.198      9.715
REMARK SMILES CC1(C)C[C@@H]1[NH2+]Cc1ccc(C(=O)NCCCCNC(=O)c2ccc(-c3c4nc(c(-c5c(F)cccc5F)c5ccc([nH]5)c(-c5c(F)cccc5F)c5nc(c(-c6c(F)cccc6F)c6ccc3[nH]6)C=C5)C=C4)cc2)cn1
REMARK SMILES IDX 16 1 15 2 14 3 12 4 13 5 11 7 8 8 9 9 77 10 10 11 76 12 7 13
REMARK SMILES IDX 6 14 5 17 1 18 2 19 3 20 4 21 17 22 18 23 19 24 20 25 21 27
REMARK SMILES IDX 22 28 23 29 75 30 24 31 74 32 25 33 26 34 27 35 68 36 28 37
REMARK SMILES IDX 73 38 67 39 69 40 29 41 72 42 66 43 65 44 30 46 56 47 39 48
REMARK SMILES IDX 55 49 40 50 43 51 54 52 70 53 41 54 42 55 53 57 71 58 44 59
REMARK SMILES IDX 31 60 32 61 37 62 33 63 34 64 36 65 38 66 35 67 57 68 58 69
REMARK SMILES IDX 63 70 59 71 60 72 62 73 64 74 61 75 45 76 46 77 51 78 47 79
REMARK SMILES IDX 48 80 50 81 52 82 49 83
REMARK H PARENT 14 6 6 15 6 16 19 26 69 45 43 56
REMARK Flexibility Score: inf
ROOT
ATOM      1  C   UNL A   1      36.649  21.194  24.643  1.00  0.00     0.023 C 
ENDROOT
BRANCH   1   2
ATOM      2  C   UNL A   1      35.580  21.448  25.709  1.00  0.00     0.116 C 
BRANCH   2   3
ATOM      3  N   UNL A   1      34.532  20.450  25.630  1.00  0.00    -0.352 N 
ATOM      4  C   UNL A   1      33.167  20.560  25.568  1.00  0.00     0.252 C 
ATOM      5  O   UNL A   1      32.516  19.520  25.472  1.00  0.00    -0.269 OA
ATOM      6  H   UNL A   1      34.861  19.522  25.621  1.00  0.00     0.163 HD
BRANCH   4   7
ATOM      7  C   UNL A   1      32.450  21.857  25.563  1.00  0.00     0.058 A 
ATOM      8  C   UNL A   1      31.117  24.269  25.857  1.00  0.00     0.094 A 
ATOM      9  C   UNL A   1      31.304  23.741  24.581  1.00  0.00     0.030 A 
ATOM     10  N   UNL A   1      31.605  23.658  26.963  1.00  0.00    -0.255 NA
ATOM     11  C   UNL A   1      31.991  22.534  24.436  1.00  0.00     0.017 A 
ATOM     12  C   UNL A   1      32.257  22.479  26.791  1.00  0.00     0.125 A 
BRANCH   8  13
ATOM     13  C   UNL A   1      30.373  25.578  26.040  1.00  0.00     0.318 C 
BRANCH  13  14
ATOM     14  N   UNL A   1      31.121  26.544  26.847  1.00  0.00    -0.338 N 
ATOM     15  H   UNL A   1      30.464  26.978  27.495  1.00  0.00     0.346 HD
ATOM     16  H   UNL A   1      31.865  26.001  27.287  1.00  0.00     0.346 HD
BRANCH  14  17
ATOM     17  C   UNL A   1      31.809  27.621  26.130  1.00  0.00     0.189 C 
ATOM     18  C   UNL A   1      33.495  28.029  24.193  1.00  0.00     0.017 C 
ATOM     19  C   UNL A   1      33.206  27.428  25.546  1.00  0.00     0.022 C 
ATOM     20  C   UNL A   1      34.025  26.196  25.857  1.00  0.00     0.017 C 
ATOM     21  C   UNL A   1      32.965  28.397  26.685  1.00  0.00     0.078 C 
ENDBRANCH  14  17
ENDBRANCH  13  14
ENDBRANCH   8  13
ENDBRANCH   4   7
ENDBRANCH   2   3
ENDBRANCH   1   2
BRANCH   1  22
ATOM     22  C   UNL A   1      37.609  20.045  24.974  1.00  0.00     0.023 C 
BRANCH  22  23
ATOM     23  C   UNL A   1      38.871  20.456  25.724  1.00  0.00     0.116 C 
BRANCH  23  24
ATOM     24  N   UNL A   1      39.908  19.434  25.708  1.00  0.00    -0.352 N 
ATOM     25  C   UNL A   1      41.230  19.558  26.061  1.00  0.00     0.251 C 
ATOM     26  H   UNL A   1      39.626  18.541  25.406  1.00  0.00     0.163 HD
ATOM     27  O   UNL A   1      42.010  18.627  25.896  1.00  0.00    -0.269 OA
BRANCH  25  28
ATOM     28  C   UNL A   1      41.711  20.847  26.596  1.00  0.00     0.039 A 
ATOM     29  C   UNL A   1      42.222  21.796  25.707  1.00  0.00     0.014 A 
ATOM     30  C   UNL A   1      41.618  21.130  27.961  1.00  0.00     0.014 A 
ATOM     31  C   UNL A   1      42.576  23.060  26.179  1.00  0.00     0.010 A 
ATOM     32  C   UNL A   1      41.911  22.410  28.418  1.00  0.00     0.010 A 
ATOM     33  C   UNL A   1      42.387  23.388  27.531  1.00  0.00    -0.014 A 
BRANCH  33  34
ATOM     34  C   UNL A   1      42.673  24.752  28.038  1.00  0.00     0.031 A 
ATOM     35  C   UNL A   1      44.065  25.120  28.463  1.00  0.00     0.074 A 
ATOM     36  C   UNL A   1      41.664  25.631  28.183  1.00  0.00     0.049 A 
ATOM     37  N   UNL A   1      44.498  26.231  29.003  1.00  0.00    -0.248 NA
ATOM     38  C   UNL A   1      45.104  24.095  28.284  1.00  0.00     0.031 C 
ATOM     39  C   UNL A   1      40.260  25.373  27.855  1.00  0.00     0.029 A 
ATOM     40  N   UNL A   1      41.662  26.919  28.660  1.00  0.00    -0.354 N 
ATOM     41  C   UNL A   1      45.850  26.032  29.242  1.00  0.00     0.074 A 
ATOM     42  C   UNL A   1      46.158  24.679  28.834  1.00  0.00     0.031 C 
ATOM     43  C   UNL A   1      39.537  26.473  28.121  1.00  0.00     0.029 A 
ATOM     44  C   UNL A   1      40.418  27.500  28.669  1.00  0.00     0.049 A 
ATOM     45  H   UNL A   1      42.475  27.380  28.966  1.00  0.00     0.167 HD
ATOM     46  C   UNL A   1      46.759  26.906  29.736  1.00  0.00     0.037 A 
ATOM     47  C   UNL A   1      40.031  28.723  29.079  1.00  0.00     0.037 A 
ATOM     48  C   UNL A   1      46.456  28.261  30.113  1.00  0.00     0.049 A 
ATOM     49  C   UNL A   1      41.060  29.677  29.616  1.00  0.00     0.074 A 
ATOM     50  C   UNL A   1      47.318  29.245  30.564  1.00  0.00     0.029 A 
ATOM     51  N   UNL A   1      45.189  28.823  30.083  1.00  0.00    -0.354 N 
ATOM     52  N   UNL A   1      42.349  29.499  29.773  1.00  0.00    -0.248 NA
ATOM     53  C   UNL A   1      40.581  31.004  30.028  1.00  0.00     0.031 C 
ATOM     54  C   UNL A   1      46.567  30.392  30.841  1.00  0.00     0.029 A 
ATOM     55  C   UNL A   1      45.243  30.135  30.522  1.00  0.00     0.049 A 
ATOM     56  H   UNL A   1      44.372  28.359  29.791  1.00  0.00     0.167 HD
ATOM     57  C   UNL A   1      42.840  30.696  30.276  1.00  0.00     0.074 A 
ATOM     58  C   UNL A   1      41.712  31.598  30.385  1.00  0.00     0.031 C 
ATOM     59  C   UNL A   1      44.111  31.021  30.615  1.00  0.00     0.037 A 
BRANCH  46  60
ATOM     60  C   UNL A   1      48.170  26.422  29.888  1.00  0.00     0.057 A 
ATOM     61  C   UNL A   1      48.619  25.815  31.070  1.00  0.00     0.134 A 
ATOM     62  C   UNL A   1      49.085  26.538  28.834  1.00  0.00     0.134 A 
ATOM     63  F   UNL A   1      47.796  25.686  32.122  1.00  0.00    -0.206 F 
ATOM     64  C   UNL A   1      49.932  25.365  31.206  1.00  0.00     0.040 A 
ATOM     65  C   UNL A   1      50.394  26.068  28.949  1.00  0.00     0.040 A 
ATOM     66  F   UNL A   1      48.720  27.104  27.674  1.00  0.00    -0.206 F 
ATOM     67  C   UNL A   1      50.822  25.485  30.141  1.00  0.00     0.006 A 
ENDBRANCH  46  60
BRANCH  47  68
ATOM     68  C   UNL A   1      38.606  29.127  28.971  1.00  0.00     0.057 A 
ATOM     69  C   UNL A   1      37.751  29.050  30.075  1.00  0.00     0.134 A 
ATOM     70  C   UNL A   1      38.065  29.589  27.766  1.00  0.00     0.134 A 
ATOM     71  F   UNL A   1      38.209  28.597  31.252  1.00  0.00    -0.206 F 
ATOM     72  C   UNL A   1      36.404  29.401  29.983  1.00  0.00     0.040 A 
ATOM     73  C   UNL A   1      36.725  29.966  27.664  1.00  0.00     0.040 A 
ATOM     74  F   UNL A   1      38.836  29.693  26.673  1.00  0.00    -0.206 F 
ATOM     75  C   UNL A   1      35.888  29.864  28.774  1.00  0.00     0.006 A 
ENDBRANCH  47  68
BRANCH  59  76
ATOM     76  C   UNL A   1      44.354  32.417  31.105  1.00  0.00     0.057 A 
ATOM     77  C   UNL A   1      44.325  32.737  32.467  1.00  0.00     0.134 A 
ATOM     78  C   UNL A   1      44.662  33.444  30.203  1.00  0.00     0.134 A 
ATOM     79  F   UNL A   1      44.022  31.802  33.379  1.00  0.00    -0.206 F 
ATOM     80  C   UNL A   1      44.575  34.036  32.915  1.00  0.00     0.040 A 
ATOM     81  C   UNL A   1      44.938  34.739  30.641  1.00  0.00     0.040 A 
ATOM     82  F   UNL A   1      44.713  33.200  28.885  1.00  0.00    -0.206 F 
ATOM     83  C   UNL A   1      44.890  35.039  32.000  1.00  0.00     0.006 A 
ENDBRANCH  59  76
ENDBRANCH  33  34
ENDBRANCH  25  28
ENDBRANCH  23  24
ENDBRANCH  22  23
ENDBRANCH   1  22
TORSDOF 14
ENDMDL
