MODEL 1
REMARK VINA RESULT:     -11.1      0.000      0.000
REMARK SMILES CC[NH+](CC)C[C@H](C)NC(=O)N[C@H]1C=C[C@@H](C(=O)NCCCCNC(=O)c2ccc(-c3c4nc(c(-c5c(F)cccc5F)c5ccc([nH]5)c(-c5c(F)cccc5F)c5nc(c(-c6c(F)cccc6F)c6ccc3[nH]6)C=C5)C=C4)cc2)C1
REMARK SMILES IDX 20 1 19 2 17 3 18 4 16 6 13 7 14 8 81 9 15 10 12 11 9 12
REMARK SMILES IDX 10 13 11 15 7 17 8 18 6 19 3 20 2 22 1 23 4 24 5 25 21 26
REMARK SMILES IDX 22 27 23 28 24 29 25 30 26 32 27 33 28 34 80 35 29 36 79 37
REMARK SMILES IDX 30 38 31 39 32 40 73 41 33 42 78 43 72 44 74 45 34 46 77 47
REMARK SMILES IDX 71 48 70 49 35 51 61 52 44 53 60 54 45 55 48 56 59 57 75 58
REMARK SMILES IDX 46 59 47 60 58 62 76 63 49 64 36 65 37 66 42 67 38 68 39 69
REMARK SMILES IDX 41 70 43 71 40 72 62 73 63 74 68 75 64 76 65 77 67 78 69 79
REMARK SMILES IDX 66 80 50 81 51 82 56 83 52 84 53 85 55 86 57 87 54 88
REMARK H PARENT 19 5 9 14 12 16 3 21 24 31 74 50 48 61
REMARK Flexibility Score: inf
ROOT
ATOM      1  C   UNL A   1      35.208  21.606  26.418  1.00  0.00     0.116 C 
ENDROOT
BRANCH   1   2
ATOM      2  N   UNL A   1      34.453  22.881  26.579  1.00  0.00    -0.356 N 
ATOM      3  C   UNL A   1      33.093  23.035  26.632  1.00  0.00     0.227 C 
ATOM      4  O   UNL A   1      32.590  22.972  27.763  1.00  0.00    -0.274 OA
ATOM      5  H   UNL A   1      34.991  23.702  26.656  1.00  0.00     0.163 HD
BRANCH   3   6
ATOM      6  C   UNL A   1      32.184  23.491  25.442  1.00  0.00     0.103 C 
ATOM      7  C   UNL A   1      31.679  24.253  23.144  1.00  0.00     0.107 C 
ATOM      8  C   UNL A   1      31.448  22.800  23.300  1.00  0.00    -0.006 C 
ATOM      9  C   UNL A   1      32.391  24.674  24.472  1.00  0.00     0.047 C 
ATOM     10  C   UNL A   1      31.779  22.365  24.524  1.00  0.00    -0.016 C 
BRANCH   7  11
ATOM     11  N   UNL A   1      32.303  24.682  21.886  1.00  0.00    -0.332 N 
ATOM     12  N   UNL A   1      32.871  26.993  21.508  1.00  0.00    -0.330 N 
ATOM     13  C   UNL A   1      32.749  25.712  21.171  1.00  0.00     0.315 C 
ATOM     14  H   UNL A   1      33.187  27.522  20.741  1.00  0.00     0.165 HD
ATOM     15  O   UNL A   1      33.099  25.435  20.014  1.00  0.00    -0.249 OA
ATOM     16  H   UNL A   1      32.456  23.871  21.350  1.00  0.00     0.165 HD
BRANCH  12  17
ATOM     17  C   UNL A   1      32.676  27.853  22.677  1.00  0.00     0.135 C 
ATOM     18  C   UNL A   1      33.967  28.634  22.947  1.00  0.00     0.037 C 
BRANCH  17  19
ATOM     19  C   UNL A   1      31.513  28.892  22.507  1.00  0.00     0.287 C 
BRANCH  19  20
ATOM     20  N   UNL A   1      30.986  29.641  23.657  1.00  0.00    -0.334 N 
ATOM     21  H   UNL A   1      31.529  30.504  23.635  1.00  0.00     0.348 HD
BRANCH  20  22
ATOM     22  C   UNL A   1      29.601  30.092  23.529  1.00  0.00     0.258 C 
ATOM     23  C   UNL A   1      28.814  29.162  22.628  1.00  0.00     0.071 C 
ENDBRANCH  20  22
BRANCH  20  24
ATOM     24  C   UNL A   1      31.275  29.032  24.941  1.00  0.00     0.258 C 
ATOM     25  C   UNL A   1      31.982  29.949  25.904  1.00  0.00     0.071 C 
ENDBRANCH  20  24
ENDBRANCH  19  20
ENDBRANCH  17  19
ENDBRANCH  12  17
ENDBRANCH   7  11
ENDBRANCH   3   6
ENDBRANCH   1   2
BRANCH   1  26
ATOM     26  C   UNL A   1      35.637  21.392  24.948  1.00  0.00     0.023 C 
BRANCH  26  27
ATOM     27  C   UNL A   1      37.104  21.669  24.575  1.00  0.00     0.023 C 
BRANCH  27  28
ATOM     28  C   UNL A   1      38.197  21.512  25.638  1.00  0.00     0.116 C 
BRANCH  28  29
ATOM     29  N   UNL A   1      39.017  20.313  25.501  1.00  0.00    -0.352 N 
ATOM     30  C   UNL A   1      40.315  20.049  25.914  1.00  0.00     0.251 C 
ATOM     31  H   UNL A   1      38.575  19.565  25.036  1.00  0.00     0.163 HD
ATOM     32  O   UNL A   1      40.817  18.962  25.683  1.00  0.00    -0.269 OA
BRANCH  30  33
ATOM     33  C   UNL A   1      41.140  21.109  26.556  1.00  0.00     0.039 A 
ATOM     34  C   UNL A   1      41.879  21.965  25.728  1.00  0.00     0.014 A 
ATOM     35  C   UNL A   1      41.143  21.316  27.934  1.00  0.00     0.014 A 
ATOM     36  C   UNL A   1      42.473  23.114  26.261  1.00  0.00     0.010 A 
ATOM     37  C   UNL A   1      41.670  22.499  28.456  1.00  0.00     0.010 A 
ATOM     38  C   UNL A   1      42.291  23.435  27.615  1.00  0.00    -0.014 A 
BRANCH  38  39
ATOM     39  C   UNL A   1      42.623  24.792  28.130  1.00  0.00     0.031 A 
ATOM     40  C   UNL A   1      44.010  25.136  28.587  1.00  0.00     0.074 A 
ATOM     41  C   UNL A   1      41.628  25.689  28.281  1.00  0.00     0.049 A 
ATOM     42  N   UNL A   1      44.451  26.248  29.123  1.00  0.00    -0.248 NA
ATOM     43  C   UNL A   1      45.027  24.085  28.457  1.00  0.00     0.031 C 
ATOM     44  C   UNL A   1      40.219  25.451  27.958  1.00  0.00     0.029 A 
ATOM     45  N   UNL A   1      41.641  26.976  28.762  1.00  0.00    -0.354 N 
ATOM     46  C   UNL A   1      45.793  26.026  29.404  1.00  0.00     0.074 A 
ATOM     47  C   UNL A   1      46.078  24.657  29.026  1.00  0.00     0.031 C 
ATOM     48  C   UNL A   1      39.509  26.558  28.227  1.00  0.00     0.029 A 
ATOM     49  C   UNL A   1      40.403  27.574  28.771  1.00  0.00     0.049 A 
ATOM     50  H   UNL A   1      42.460  27.428  29.070  1.00  0.00     0.167 HD
ATOM     51  C   UNL A   1      46.707  26.889  29.911  1.00  0.00     0.037 A 
ATOM     52  C   UNL A   1      40.025  28.802  29.172  1.00  0.00     0.037 A 
ATOM     53  C   UNL A   1      46.423  28.254  30.276  1.00  0.00     0.049 A 
ATOM     54  C   UNL A   1      41.061  29.755  29.692  1.00  0.00     0.074 A 
ATOM     55  C   UNL A   1      47.293  29.223  30.744  1.00  0.00     0.029 A 
ATOM     56  N   UNL A   1      45.167  28.841  30.220  1.00  0.00    -0.354 N 
ATOM     57  N   UNL A   1      42.344  29.558  29.876  1.00  0.00    -0.248 NA
ATOM     58  C   UNL A   1      40.602  31.105  30.048  1.00  0.00     0.031 C 
ATOM     59  C   UNL A   1      46.558  30.387  31.001  1.00  0.00     0.029 A 
ATOM     60  C   UNL A   1      45.236  30.154  30.657  1.00  0.00     0.049 A 
ATOM     61  H   UNL A   1      44.347  28.390  29.914  1.00  0.00     0.167 HD
ATOM     62  C   UNL A   1      42.849  30.758  30.356  1.00  0.00     0.074 A 
ATOM     63  C   UNL A   1      41.737  31.686  30.414  1.00  0.00     0.031 C 
ATOM     64  C   UNL A   1      44.118  31.063  30.719  1.00  0.00     0.037 A 
BRANCH  51  65
ATOM     65  C   UNL A   1      48.104  26.369  30.092  1.00  0.00     0.057 A 
ATOM     66  C   UNL A   1      48.516  25.769  31.291  1.00  0.00     0.134 A 
ATOM     67  C   UNL A   1      49.051  26.475  29.067  1.00  0.00     0.134 A 
ATOM     68  F   UNL A   1      47.661  25.647  32.318  1.00  0.00    -0.206 F 
ATOM     69  C   UNL A   1      49.829  25.335  31.479  1.00  0.00     0.040 A 
ATOM     70  C   UNL A   1      50.361  26.019  29.233  1.00  0.00     0.040 A 
ATOM     71  F   UNL A   1      48.723  27.029  27.890  1.00  0.00    -0.206 F 
ATOM     72  C   UNL A   1      50.755  25.458  30.446  1.00  0.00     0.006 A 
ENDBRANCH  51  65
BRANCH  52  73
ATOM     73  C   UNL A   1      38.601  29.206  29.063  1.00  0.00     0.057 A 
ATOM     74  C   UNL A   1      38.068  29.651  27.848  1.00  0.00     0.134 A 
ATOM     75  C   UNL A   1      37.734  29.135  30.161  1.00  0.00     0.134 A 
ATOM     76  F   UNL A   1      38.852  29.755  26.765  1.00  0.00    -0.206 F 
ATOM     77  C   UNL A   1      36.728  30.022  27.730  1.00  0.00     0.040 A 
ATOM     78  C   UNL A   1      36.387  29.482  30.052  1.00  0.00     0.040 A 
ATOM     79  F   UNL A   1      38.183  28.706  31.350  1.00  0.00    -0.206 F 
ATOM     80  C   UNL A   1      35.881  29.932  28.834  1.00  0.00     0.006 A 
ENDBRANCH  52  73
BRANCH  64  81
ATOM     81  C   UNL A   1      44.369  32.460  31.203  1.00  0.00     0.057 A 
ATOM     82  C   UNL A   1      44.330  32.785  32.565  1.00  0.00     0.134 A 
ATOM     83  C   UNL A   1      44.674  33.486  30.300  1.00  0.00     0.134 A 
ATOM     84  F   UNL A   1      44.028  31.850  33.479  1.00  0.00    -0.206 F 
ATOM     85  C   UNL A   1      44.565  34.087  33.011  1.00  0.00     0.040 A 
ATOM     86  C   UNL A   1      44.933  34.786  30.736  1.00  0.00     0.040 A 
ATOM     87  F   UNL A   1      44.731  33.239  28.982  1.00  0.00    -0.206 F 
ATOM     88  C   UNL A   1      44.874  35.090  32.095  1.00  0.00     0.006 A 
ENDBRANCH  64  81
ENDBRANCH  38  39
ENDBRANCH  30  33
ENDBRANCH  28  29
ENDBRANCH  27  28
ENDBRANCH  26  27
ENDBRANCH   1  26
TORSDOF 17
ENDMDL
MODEL 2
REMARK VINA RESULT:     -11.1      2.851      8.018
REMARK SMILES CC[NH+](CC)C[C@H](C)NC(=O)N[C@H]1C=C[C@@H](C(=O)NCCCCNC(=O)c2ccc(-c3c4nc(c(-c5c(F)cccc5F)c5ccc([nH]5)c(-c5c(F)cccc5F)c5nc(c(-c6c(F)cccc6F)c6ccc3[nH]6)C=C5)C=C4)cc2)C1
REMARK SMILES IDX 20 1 19 2 17 3 18 4 16 6 13 7 14 8 81 9 15 10 12 11 9 12
REMARK SMILES IDX 10 13 11 15 7 17 8 18 6 19 3 20 2 22 1 23 4 24 5 25 21 26
REMARK SMILES IDX 22 27 23 28 24 29 25 30 26 32 27 33 28 34 80 35 29 36 79 37
REMARK SMILES IDX 30 38 31 39 32 40 73 41 33 42 78 43 72 44 74 45 34 46 77 47
REMARK SMILES IDX 71 48 70 49 35 51 61 52 44 53 60 54 45 55 48 56 59 57 75 58
REMARK SMILES IDX 46 59 47 60 58 62 76 63 49 64 36 65 37 66 42 67 38 68 39 69
REMARK SMILES IDX 41 70 43 71 40 72 62 73 63 74 68 75 64 76 65 77 67 78 69 79
REMARK SMILES IDX 66 80 50 81 51 82 56 83 52 84 53 85 55 86 57 87 54 88
REMARK H PARENT 19 5 9 14 12 16 3 21 24 31 74 50 48 61
REMARK Flexibility Score: inf
ROOT
ATOM      1  C   UNL A   1      31.785  30.681  26.201  1.00  0.00     0.116 C 
ENDROOT
BRANCH   1   2
ATOM      2  N   UNL A   1      31.780  30.078  24.839  1.00  0.00    -0.356 N 
ATOM      3  C   UNL A   1      30.842  29.230  24.313  1.00  0.00     0.227 C 
ATOM      4  O   UNL A   1      29.899  29.776  23.722  1.00  0.00    -0.274 OA
ATOM      5  H   UNL A   1      32.535  30.314  24.253  1.00  0.00     0.163 HD
BRANCH   3   6
ATOM      6  C   UNL A   1      30.979  27.674  24.212  1.00  0.00     0.103 C 
ATOM      7  C   UNL A   1      30.681  25.326  24.929  1.00  0.00     0.107 C 
ATOM      8  C   UNL A   1      29.684  25.715  23.908  1.00  0.00    -0.006 C 
ATOM      9  C   UNL A   1      31.383  26.671  25.313  1.00  0.00     0.047 C 
ATOM     10  C   UNL A   1      29.796  27.004  23.558  1.00  0.00    -0.016 C 
BRANCH   7  11
ATOM     11  N   UNL A   1      30.192  24.489  26.031  1.00  0.00    -0.332 N 
ATOM     12  N   UNL A   1      31.627  22.868  27.090  1.00  0.00    -0.330 N 
ATOM     13  C   UNL A   1      30.477  23.502  26.878  1.00  0.00     0.315 C 
ATOM     14  H   UNL A   1      31.507  22.148  27.750  1.00  0.00     0.165 HD
ATOM     15  O   UNL A   1      29.525  23.113  27.570  1.00  0.00    -0.249 OA
ATOM     16  H   UNL A   1      29.271  24.777  26.224  1.00  0.00     0.165 HD
BRANCH  12  17
ATOM     17  C   UNL A   1      33.019  22.920  26.637  1.00  0.00     0.135 C 
ATOM     18  C   UNL A   1      33.898  22.146  27.626  1.00  0.00     0.037 C 
BRANCH  17  19
ATOM     19  C   UNL A   1      33.240  22.302  25.212  1.00  0.00     0.287 C 
BRANCH  19  20
ATOM     20  N   UNL A   1      34.062  22.986  24.204  1.00  0.00    -0.334 N 
ATOM     21  H   UNL A   1      33.496  22.910  23.358  1.00  0.00     0.348 HD
BRANCH  20  22
ATOM     22  C   UNL A   1      34.216  24.428  24.395  1.00  0.00     0.258 C 
ATOM     23  C   UNL A   1      33.967  25.171  23.098  1.00  0.00     0.071 C 
ENDBRANCH  20  22
BRANCH  20  24
ATOM     24  C   UNL A   1      35.308  22.311  23.901  1.00  0.00     0.258 C 
ATOM     25  C   UNL A   1      36.476  22.786  24.725  1.00  0.00     0.071 C 
ENDBRANCH  20  24
ENDBRANCH  19  20
ENDBRANCH  17  19
ENDBRANCH  12  17
ENDBRANCH   7  11
ENDBRANCH   3   6
ENDBRANCH   1   2
BRANCH   1  26
ATOM     26  C   UNL A   1      32.348  29.693  27.250  1.00  0.00     0.023 C 
BRANCH  26  27
ATOM     27  C   UNL A   1      33.876  29.537  27.348  1.00  0.00     0.023 C 
BRANCH  27  28
ATOM     28  C   UNL A   1      34.746  30.769  27.616  1.00  0.00     0.116 C 
BRANCH  28  29
ATOM     29  N   UNL A   1      34.929  31.095  29.026  1.00  0.00    -0.352 N 
ATOM     30  C   UNL A   1      35.950  30.771  29.908  1.00  0.00     0.251 C 
ATOM     31  H   UNL A   1      34.205  31.637  29.419  1.00  0.00     0.163 HD
ATOM     32  O   UNL A   1      35.895  31.147  31.067  1.00  0.00    -0.269 OA
BRANCH  30  33
ATOM     33  C   UNL A   1      37.071  29.889  29.483  1.00  0.00     0.039 A 
ATOM     34  C   UNL A   1      37.516  29.975  28.157  1.00  0.00     0.014 A 
ATOM     35  C   UNL A   1      37.726  29.039  30.373  1.00  0.00     0.014 A 
ATOM     36  C   UNL A   1      38.708  29.349  27.776  1.00  0.00     0.010 A 
ATOM     37  C   UNL A   1      38.953  28.475  30.016  1.00  0.00     0.010 A 
ATOM     38  C   UNL A   1      39.481  28.671  28.731  1.00  0.00    -0.014 A 
BRANCH  38  39
ATOM     39  C   UNL A   1      40.889  28.285  28.439  1.00  0.00     0.031 A 
ATOM     40  C   UNL A   1      41.254  26.876  28.078  1.00  0.00     0.074 A 
ATOM     41  C   UNL A   1      41.862  29.204  28.608  1.00  0.00     0.049 A 
ATOM     42  N   UNL A   1      42.438  26.359  27.859  1.00  0.00    -0.248 NA
ATOM     43  C   UNL A   1      40.148  25.913  27.982  1.00  0.00     0.031 C 
ATOM     44  C   UNL A   1      41.651  30.588  29.041  1.00  0.00     0.029 A 
ATOM     45  N   UNL A   1      43.224  29.113  28.452  1.00  0.00    -0.354 N 
ATOM     46  C   UNL A   1      42.221  25.010  27.611  1.00  0.00     0.074 A 
ATOM     47  C   UNL A   1      40.799  24.780  27.757  1.00  0.00     0.031 C 
ATOM     48  C   UNL A   1      42.834  31.220  29.097  1.00  0.00     0.029 A 
ATOM     49  C   UNL A   1      43.890  30.282  28.733  1.00  0.00     0.049 A 
ATOM     50  H   UNL A   1      43.679  28.288  28.166  1.00  0.00     0.167 HD
ATOM     51  C   UNL A   1      43.122  24.055  27.272  1.00  0.00     0.037 A 
ATOM     52  C   UNL A   1      45.205  30.571  28.704  1.00  0.00     0.037 A 
ATOM     53  C   UNL A   1      44.535  24.287  27.117  1.00  0.00     0.049 A 
ATOM     54  C   UNL A   1      46.180  29.509  28.287  1.00  0.00     0.074 A 
ATOM     55  C   UNL A   1      45.520  23.398  26.722  1.00  0.00     0.029 A 
ATOM     56  N   UNL A   1      45.167  25.499  27.358  1.00  0.00    -0.354 N 
ATOM     57  N   UNL A   1      45.951  28.257  27.975  1.00  0.00    -0.248 NA
ATOM     58  C   UNL A   1      47.593  29.902  28.205  1.00  0.00     0.031 C 
ATOM     59  C   UNL A   1      46.751  24.064  26.754  1.00  0.00     0.029 A 
ATOM     60  C   UNL A   1      46.529  25.378  27.133  1.00  0.00     0.049 A 
ATOM     61  H   UNL A   1      44.713  26.324  27.646  1.00  0.00     0.167 HD
ATOM     62  C   UNL A   1      47.186  27.714  27.647  1.00  0.00     0.074 A 
ATOM     63  C   UNL A   1      48.159  28.781  27.778  1.00  0.00     0.031 C 
ATOM     64  C   UNL A   1      47.487  26.446  27.276  1.00  0.00     0.037 A 
BRANCH  51  65
ATOM     65  C   UNL A   1      42.589  22.669  27.045  1.00  0.00     0.057 A 
ATOM     66  C   UNL A   1      42.382  22.163  25.753  1.00  0.00     0.134 A 
ATOM     67  C   UNL A   1      42.269  21.835  28.122  1.00  0.00     0.134 A 
ATOM     68  F   UNL A   1      42.658  22.914  24.677  1.00  0.00    -0.206 F 
ATOM     69  C   UNL A   1      41.836  20.895  25.543  1.00  0.00     0.040 A 
ATOM     70  C   UNL A   1      41.747  20.554  27.925  1.00  0.00     0.040 A 
ATOM     71  F   UNL A   1      42.450  22.251  29.385  1.00  0.00    -0.206 F 
ATOM     72  C   UNL A   1      41.519  20.087  26.632  1.00  0.00     0.006 A 
ENDBRANCH  51  65
BRANCH  52  73
ATOM     73  C   UNL A   1      45.665  31.939  29.050  1.00  0.00     0.057 A 
ATOM     74  C   UNL A   1      46.048  32.262  30.357  1.00  0.00     0.134 A 
ATOM     75  C   UNL A   1      45.756  32.947  28.082  1.00  0.00     0.134 A 
ATOM     76  F   UNL A   1      45.968  31.343  31.330  1.00  0.00    -0.206 F 
ATOM     77  C   UNL A   1      46.493  33.541  30.692  1.00  0.00     0.040 A 
ATOM     78  C   UNL A   1      46.220  34.225  28.399  1.00  0.00     0.040 A 
ATOM     79  F   UNL A   1      45.413  32.697  26.810  1.00  0.00    -0.206 F 
ATOM     80  C   UNL A   1      46.587  34.526  29.710  1.00  0.00     0.006 A 
ENDBRANCH  52  73
BRANCH  64  81
ATOM     81  C   UNL A   1      48.926  26.150  26.977  1.00  0.00     0.057 A 
ATOM     82  C   UNL A   1      49.813  25.726  27.975  1.00  0.00     0.134 A 
ATOM     83  C   UNL A   1      49.425  26.268  25.675  1.00  0.00     0.134 A 
ATOM     84  F   UNL A   1      49.401  25.609  29.247  1.00  0.00    -0.206 F 
ATOM     85  C   UNL A   1      51.152  25.452  27.692  1.00  0.00     0.040 A 
ATOM     86  C   UNL A   1      50.756  25.973  25.374  1.00  0.00     0.040 A 
ATOM     87  F   UNL A   1      48.626  26.665  24.672  1.00  0.00    -0.206 F 
ATOM     88  C   UNL A   1      51.625  25.569  26.386  1.00  0.00     0.006 A 
ENDBRANCH  64  81
ENDBRANCH  38  39
ENDBRANCH  30  33
ENDBRANCH  28  29
ENDBRANCH  27  28
ENDBRANCH  26  27
ENDBRANCH   1  26
TORSDOF 17
ENDMDL
MODEL 3
REMARK VINA RESULT:     -10.9      2.851      7.888
REMARK SMILES CC[NH+](CC)C[C@H](C)NC(=O)N[C@H]1C=C[C@@H](C(=O)NCCCCNC(=O)c2ccc(-c3c4nc(c(-c5c(F)cccc5F)c5ccc([nH]5)c(-c5c(F)cccc5F)c5nc(c(-c6c(F)cccc6F)c6ccc3[nH]6)C=C5)C=C4)cc2)C1
REMARK SMILES IDX 20 1 19 2 17 3 18 4 16 6 13 7 14 8 81 9 15 10 12 11 9 12
REMARK SMILES IDX 10 13 11 15 7 17 8 18 6 19 3 20 2 22 1 23 4 24 5 25 21 26
REMARK SMILES IDX 22 27 23 28 24 29 25 30 26 32 27 33 28 34 80 35 29 36 79 37
REMARK SMILES IDX 30 38 31 39 32 40 73 41 33 42 78 43 72 44 74 45 34 46 77 47
REMARK SMILES IDX 71 48 70 49 35 51 61 52 44 53 60 54 45 55 48 56 59 57 75 58
REMARK SMILES IDX 46 59 47 60 58 62 76 63 49 64 36 65 37 66 42 67 38 68 39 69
REMARK SMILES IDX 41 70 43 71 40 72 62 73 63 74 68 75 64 76 65 77 67 78 69 79
REMARK SMILES IDX 66 80 50 81 51 82 56 83 52 84 53 85 55 86 57 87 54 88
REMARK H PARENT 19 5 9 14 12 16 3 21 24 31 74 50 48 61
REMARK Flexibility Score: inf
ROOT
ATOM      1  C   UNL A   1      31.731  30.664  26.137  1.00  0.00     0.116 C 
ENDROOT
BRANCH   1   2
ATOM      2  N   UNL A   1      31.785  30.034  24.787  1.00  0.00    -0.356 N 
ATOM      3  C   UNL A   1      30.872  29.172  24.240  1.00  0.00     0.227 C 
ATOM      4  O   UNL A   1      29.952  29.701  23.601  1.00  0.00    -0.274 OA
ATOM      5  H   UNL A   1      32.562  30.264  24.228  1.00  0.00     0.163 HD
BRANCH   3   6
ATOM      6  C   UNL A   1      31.020  27.615  24.175  1.00  0.00     0.103 C 
ATOM      7  C   UNL A   1      30.707  25.280  24.926  1.00  0.00     0.107 C 
ATOM      8  C   UNL A   1      29.746  25.643  23.862  1.00  0.00    -0.006 C 
ATOM      9  C   UNL A   1      31.388  26.636  25.310  1.00  0.00     0.047 C 
ATOM     10  C   UNL A   1      29.865  26.926  23.491  1.00  0.00    -0.016 C 
BRANCH   7  11
ATOM     11  N   UNL A   1      30.181  24.462  26.026  1.00  0.00    -0.332 N 
ATOM     12  N   UNL A   1      31.495  22.685  26.989  1.00  0.00    -0.330 N 
ATOM     13  C   UNL A   1      30.402  23.429  26.837  1.00  0.00     0.315 C 
ATOM     14  H   UNL A   1      31.331  21.961  27.635  1.00  0.00     0.165 HD
ATOM     15  O   UNL A   1      29.443  23.112  27.556  1.00  0.00    -0.249 OA
ATOM     16  H   UNL A   1      29.299  24.830  26.262  1.00  0.00     0.165 HD
BRANCH  12  17
ATOM     17  C   UNL A   1      32.868  22.619  26.483  1.00  0.00     0.135 C 
ATOM     18  C   UNL A   1      33.786  22.095  27.593  1.00  0.00     0.037 C 
BRANCH  17  19
ATOM     19  C   UNL A   1      33.034  21.679  25.238  1.00  0.00     0.287 C 
BRANCH  19  20
ATOM     20  N   UNL A   1      33.282  22.228  23.897  1.00  0.00    -0.334 N 
ATOM     21  H   UNL A   1      33.886  21.526  23.471  1.00  0.00     0.348 HD
BRANCH  20  22
ATOM     22  C   UNL A   1      32.118  22.275  23.014  1.00  0.00     0.258 C 
ATOM     23  C   UNL A   1      32.016  21.006  22.193  1.00  0.00     0.071 C 
ENDBRANCH  20  22
BRANCH  20  24
ATOM     24  C   UNL A   1      34.054  23.456  23.896  1.00  0.00     0.258 C 
ATOM     25  C   UNL A   1      35.539  23.243  24.016  1.00  0.00     0.071 C 
ENDBRANCH  20  24
ENDBRANCH  19  20
ENDBRANCH  17  19
ENDBRANCH  12  17
ENDBRANCH   7  11
ENDBRANCH   3   6
ENDBRANCH   1   2
BRANCH   1  26
ATOM     26  C   UNL A   1      32.074  29.641  27.245  1.00  0.00     0.023 C 
BRANCH  26  27
ATOM     27  C   UNL A   1      33.549  29.240  27.428  1.00  0.00     0.023 C 
BRANCH  27  28
ATOM     28  C   UNL A   1      34.627  30.327  27.481  1.00  0.00     0.116 C 
BRANCH  28  29
ATOM     29  N   UNL A   1      34.815  30.940  28.792  1.00  0.00    -0.352 N 
ATOM     30  C   UNL A   1      35.871  30.859  29.689  1.00  0.00     0.251 C 
ATOM     31  H   UNL A   1      34.066  31.507  29.091  1.00  0.00     0.163 HD
ATOM     32  O   UNL A   1      35.813  31.456  30.751  1.00  0.00    -0.269 OA
BRANCH  30  33
ATOM     33  C   UNL A   1      37.037  29.975  29.414  1.00  0.00     0.039 A 
ATOM     34  C   UNL A   1      37.528  29.915  28.103  1.00  0.00     0.014 A 
ATOM     35  C   UNL A   1      37.687  29.268  30.424  1.00  0.00     0.014 A 
ATOM     36  C   UNL A   1      38.754  29.294  27.842  1.00  0.00     0.010 A 
ATOM     37  C   UNL A   1      38.945  28.714  30.181  1.00  0.00     0.010 A 
ATOM     38  C   UNL A   1      39.514  28.770  28.899  1.00  0.00    -0.014 A 
BRANCH  38  39
ATOM     39  C   UNL A   1      40.945  28.407  28.703  1.00  0.00     0.031 A 
ATOM     40  C   UNL A   1      42.031  29.437  28.789  1.00  0.00     0.074 A 
ATOM     41  C   UNL A   1      41.249  27.144  28.339  1.00  0.00     0.049 A 
ATOM     42  N   UNL A   1      43.318  29.302  28.579  1.00  0.00    -0.248 NA
ATOM     43  C   UNL A   1      41.616  30.807  29.122  1.00  0.00     0.031 C 
ATOM     44  C   UNL A   1      40.278  26.067  28.134  1.00  0.00     0.029 A 
ATOM     45  N   UNL A   1      42.458  26.555  28.058  1.00  0.00    -0.354 N 
ATOM     46  C   UNL A   1      43.864  30.568  28.743  1.00  0.00     0.074 A 
ATOM     47  C   UNL A   1      42.761  31.466  29.019  1.00  0.00     0.031 C 
ATOM     48  C   UNL A   1      40.927  24.946  27.783  1.00  0.00     0.029 A 
ATOM     49  C   UNL A   1      42.356  25.230  27.707  1.00  0.00     0.049 A 
ATOM     50  H   UNL A   1      43.316  27.036  28.104  1.00  0.00     0.167 HD
ATOM     51  C   UNL A   1      45.165  30.944  28.689  1.00  0.00     0.037 A 
ATOM     52  C   UNL A   1      43.304  24.339  27.360  1.00  0.00     0.037 A 
ATOM     53  C   UNL A   1      46.261  30.047  28.425  1.00  0.00     0.049 A 
ATOM     54  C   UNL A   1      44.742  24.767  27.346  1.00  0.00     0.074 A 
ATOM     55  C   UNL A   1      47.618  30.320  28.405  1.00  0.00     0.029 A 
ATOM     56  N   UNL A   1      46.123  28.699  28.127  1.00  0.00    -0.354 N 
ATOM     57  N   UNL A   1      45.252  25.951  27.584  1.00  0.00    -0.248 NA
ATOM     58  C   UNL A   1      45.739  23.735  27.029  1.00  0.00     0.031 C 
ATOM     59  C   UNL A   1      48.298  29.145  28.064  1.00  0.00     0.029 A 
ATOM     60  C   UNL A   1      47.368  28.130  27.908  1.00  0.00     0.049 A 
ATOM     61  H   UNL A   1      45.266  28.217  28.078  1.00  0.00     0.167 HD
ATOM     62  C   UNL A   1      46.627  25.806  27.458  1.00  0.00     0.074 A 
ATOM     63  C   UNL A   1      46.873  24.412  27.145  1.00  0.00     0.031 C 
ATOM     64  C   UNL A   1      47.597  26.743  27.587  1.00  0.00     0.037 A 
BRANCH  51  65
ATOM     65  C   UNL A   1      45.462  32.396  28.926  1.00  0.00     0.057 A 
ATOM     66  C   UNL A   1      45.512  33.319  27.872  1.00  0.00     0.134 A 
ATOM     67  C   UNL A   1      45.711  32.879  30.217  1.00  0.00     0.134 A 
ATOM     68  F   UNL A   1      45.294  32.920  26.609  1.00  0.00    -0.206 F 
ATOM     69  C   UNL A   1      45.842  34.659  28.086  1.00  0.00     0.040 A 
ATOM     70  C   UNL A   1      46.015  34.223  30.447  1.00  0.00     0.040 A 
ATOM     71  F   UNL A   1      45.671  32.054  31.274  1.00  0.00    -0.206 F 
ATOM     72  C   UNL A   1      46.093  35.113  29.379  1.00  0.00     0.006 A 
ENDBRANCH  51  65
BRANCH  52  73
ATOM     73  C   UNL A   1      42.918  22.944  27.031  1.00  0.00     0.057 A 
ATOM     74  C   UNL A   1      42.912  22.491  25.706  1.00  0.00     0.134 A 
ATOM     75  C   UNL A   1      42.569  22.026  28.029  1.00  0.00     0.134 A 
ATOM     76  F   UNL A   1      43.221  23.328  24.706  1.00  0.00    -0.206 F 
ATOM     77  C   UNL A   1      42.562  21.179  25.385  1.00  0.00     0.040 A 
ATOM     78  C   UNL A   1      42.237  20.705  27.724  1.00  0.00     0.040 A 
ATOM     79  F   UNL A   1      42.566  22.397  29.318  1.00  0.00    -0.206 F 
ATOM     80  C   UNL A   1      42.229  20.279  26.397  1.00  0.00     0.006 A 
ENDBRANCH  52  73
BRANCH  64  81
ATOM     81  C   UNL A   1      49.012  26.285  27.397  1.00  0.00     0.057 A 
ATOM     82  C   UNL A   1      49.785  25.819  28.468  1.00  0.00     0.134 A 
ATOM     83  C   UNL A   1      49.601  26.290  26.127  1.00  0.00     0.134 A 
ATOM     84  F   UNL A   1      49.285  25.805  29.713  1.00  0.00    -0.206 F 
ATOM     85  C   UNL A   1      51.102  25.394  28.286  1.00  0.00     0.040 A 
ATOM     86  C   UNL A   1      50.908  25.844  25.928  1.00  0.00     0.040 A 
ATOM     87  F   UNL A   1      48.912  26.720  25.058  1.00  0.00    -0.206 F 
ATOM     88  C   UNL A   1      51.665  25.399  27.011  1.00  0.00     0.006 A 
ENDBRANCH  64  81
ENDBRANCH  38  39
ENDBRANCH  30  33
ENDBRANCH  28  29
ENDBRANCH  27  28
ENDBRANCH  26  27
ENDBRANCH   1  26
TORSDOF 17
ENDMDL
