MODEL 1
REMARK VINA RESULT:     -13.1      0.000      0.000
REMARK SMILES CC1=C(CC(=O)NCCCCNC(=O)c2ccc(-c3c4nc(c(-c5c(F)cccc5F)c5ccc([nH]5)c(-c5c(F)cccc5F)c5nc(c(-c6c(F)cccc6F)c6ccc3[nH]6)C=C5)C=C4)cc2)c2cc(F)ccc2/C1=C\c1cccc(OCc2ccccc2)c1
REMARK SMILES IDX 8 1 7 2 5 3 6 4 4 6 3 7 1 8 2 9 76 10 69 11 75 12 77 13
REMARK SMILES IDX 70 14 74 15 71 16 73 17 72 18 78 19 79 20 91 21 80 22 82 23
REMARK SMILES IDX 81 24 83 25 84 26 85 27 86 28 90 29 87 30 89 31 88 32 9 33
REMARK SMILES IDX 10 34 11 35 12 36 13 37 14 39 15 40 16 41 68 42 17 43 67 44
REMARK SMILES IDX 18 45 19 46 20 47 61 48 21 49 66 50 60 51 62 52 22 53 65 54
REMARK SMILES IDX 59 55 58 56 23 58 49 59 32 60 48 61 33 62 36 63 47 64 63 65
REMARK SMILES IDX 34 66 35 67 46 69 64 70 37 71 24 72 25 73 30 74 26 75 27 76
REMARK SMILES IDX 29 77 31 78 28 79 50 80 51 81 56 82 52 83 53 84 55 85 57 86
REMARK SMILES IDX 54 87 38 88 39 89 44 90 40 91 41 92 43 93 45 94 42 95
REMARK H PARENT 7 5 12 38 62 57 36 68
REMARK Flexibility Score: inf
ROOT
ATOM      1  C   UNL A   1      31.553  29.557  25.050  1.00  0.00     0.116 C 
ENDROOT
BRANCH   1   2
ATOM      2  N   UNL A   1      30.952  29.706  23.741  1.00  0.00    -0.356 N 
ATOM      3  C   UNL A   1      30.123  28.848  23.075  1.00  0.00     0.224 C 
ATOM      4  O   UNL A   1      29.745  29.165  21.945  1.00  0.00    -0.275 OA
ATOM      5  H   UNL A   1      31.170  30.540  23.265  1.00  0.00     0.163 HD
BRANCH   3   6
ATOM      6  C   UNL A   1      29.651  27.553  23.733  1.00  0.00     0.136 C 
BRANCH   6   7
ATOM      7  C   UNL A   1      30.762  26.587  23.979  1.00  0.00    -0.027 C 
ATOM      8  C   UNL A   1      30.681  26.314  26.527  1.00  0.00     0.045 C 
ATOM      9  C   UNL A   1      31.220  26.089  25.152  1.00  0.00    -0.039 C 
ATOM     10  C   UNL A   1      32.404  25.256  24.899  1.00  0.00    -0.014 C 
ATOM     11  C   UNL A   1      31.577  26.007  22.895  1.00  0.00    -0.011 A 
ATOM     12  C   UNL A   1      32.567  25.166  23.439  1.00  0.00    -0.010 A 
ATOM     13  C   UNL A   1      33.187  24.751  25.868  1.00  0.00     0.017 C 
ATOM     14  C   UNL A   1      31.476  26.182  21.522  1.00  0.00     0.048 A 
ATOM     15  C   UNL A   1      33.442  24.472  22.615  1.00  0.00     0.012 A 
ATOM     16  C   UNL A   1      32.375  25.502  20.705  1.00  0.00     0.123 A 
ATOM     17  C   UNL A   1      33.347  24.650  21.234  1.00  0.00     0.040 A 
ATOM     18  F   UNL A   1      32.305  25.662  19.377  1.00  0.00    -0.207 F 
BRANCH  13  19
ATOM     19  C   UNL A   1      34.343  23.880  25.673  1.00  0.00    -0.021 A 
ATOM     20  C   UNL A   1      35.654  24.354  25.709  1.00  0.00     0.008 A 
ATOM     21  C   UNL A   1      34.093  22.527  25.424  1.00  0.00     0.054 A 
ATOM     22  C   UNL A   1      36.709  23.472  25.472  1.00  0.00     0.004 A 
ATOM     23  C   UNL A   1      35.141  21.631  25.240  1.00  0.00     0.120 A 
ATOM     24  C   UNL A   1      36.450  22.117  25.239  1.00  0.00     0.046 A 
BRANCH  23  25
ATOM     25  O   UNL A   1      35.007  20.282  25.052  1.00  0.00    -0.489 OA
BRANCH  25  26
ATOM     26  C   UNL A   1      33.757  19.793  24.543  1.00  0.00     0.265 C 
BRANCH  26  27
ATOM     27  C   UNL A   1      33.604  18.296  24.704  1.00  0.00    -0.011 A 
ATOM     28  C   UNL A   1      34.409  17.423  23.960  1.00  0.00     0.007 A 
ATOM     29  C   UNL A   1      32.678  17.754  25.610  1.00  0.00     0.007 A 
ATOM     30  C   UNL A   1      34.305  16.042  24.130  1.00  0.00     0.000 A 
ATOM     31  C   UNL A   1      32.587  16.373  25.793  1.00  0.00     0.000 A 
ATOM     32  C   UNL A   1      33.401  15.518  25.052  1.00  0.00     0.000 A 
ENDBRANCH  26  27
ENDBRANCH  25  26
ENDBRANCH  23  25
ENDBRANCH  13  19
ENDBRANCH   6   7
ENDBRANCH   3   6
ENDBRANCH   1   2
BRANCH   1  33
ATOM     33  C   UNL A   1      33.077  29.665  25.006  1.00  0.00     0.023 C 
BRANCH  33  34
ATOM     34  C   UNL A   1      33.826  28.566  25.757  1.00  0.00     0.023 C 
BRANCH  34  35
ATOM     35  C   UNL A   1      33.715  28.628  27.274  1.00  0.00     0.116 C 
BRANCH  35  36
ATOM     36  N   UNL A   1      33.681  29.983  27.807  1.00  0.00    -0.352 N 
ATOM     37  C   UNL A   1      34.692  30.693  28.414  1.00  0.00     0.251 C 
ATOM     38  H   UNL A   1      32.820  30.453  27.720  1.00  0.00     0.163 HD
ATOM     39  O   UNL A   1      34.468  31.801  28.891  1.00  0.00    -0.269 OA
BRANCH  37  40
ATOM     40  C   UNL A   1      36.037  30.090  28.533  1.00  0.00     0.039 A 
ATOM     41  C   UNL A   1      36.438  29.473  29.718  1.00  0.00     0.014 A 
ATOM     42  C   UNL A   1      36.927  30.184  27.458  1.00  0.00     0.014 A 
ATOM     43  C   UNL A   1      37.771  29.123  29.893  1.00  0.00     0.010 A 
ATOM     44  C   UNL A   1      38.245  29.740  27.604  1.00  0.00     0.010 A 
ATOM     45  C   UNL A   1      38.694  29.257  28.842  1.00  0.00    -0.014 A 
BRANCH  45  46
ATOM     46  C   UNL A   1      40.112  28.883  29.086  1.00  0.00     0.031 A 
ATOM     47  C   UNL A   1      40.649  27.541  28.662  1.00  0.00     0.074 A 
ATOM     48  C   UNL A   1      40.944  29.801  29.613  1.00  0.00     0.049 A 
ATOM     49  N   UNL A   1      41.882  27.100  28.695  1.00  0.00    -0.248 NA
ATOM     50  C   UNL A   1      39.680  26.566  28.142  1.00  0.00     0.031 C 
ATOM     51  C   UNL A   1      40.545  31.134  30.075  1.00  0.00     0.029 A 
ATOM     52  N   UNL A   1      42.301  29.776  29.809  1.00  0.00    -0.354 N 
ATOM     53  C   UNL A   1      41.836  25.798  28.211  1.00  0.00     0.074 A 
ATOM     54  C   UNL A   1      40.447  25.506  27.929  1.00  0.00     0.031 C 
ATOM     55  C   UNL A   1      41.639  31.822  30.429  1.00  0.00     0.029 A 
ATOM     56  C   UNL A   1      42.808  30.966  30.271  1.00  0.00     0.049 A 
ATOM     57  H   UNL A   1      42.856  28.981  29.635  1.00  0.00     0.167 HD
ATOM     58  C   UNL A   1      42.856  24.929  28.006  1.00  0.00     0.037 A 
ATOM     59  C   UNL A   1      44.077  31.330  30.533  1.00  0.00     0.037 A 
ATOM     60  C   UNL A   1      44.242  25.220  28.276  1.00  0.00     0.049 A 
ATOM     61  C   UNL A   1      45.184  30.342  30.310  1.00  0.00     0.074 A 
ATOM     62  C   UNL A   1      45.349  24.408  28.090  1.00  0.00     0.029 A 
ATOM     63  N   UNL A   1      44.711  26.419  28.792  1.00  0.00    -0.354 N 
ATOM     64  N   UNL A   1      45.124  29.124  29.831  1.00  0.00    -0.248 NA
ATOM     65  C   UNL A   1      46.538  30.785  30.667  1.00  0.00     0.031 C 
ATOM     66  C   UNL A   1      46.483  25.105  28.525  1.00  0.00     0.029 A 
ATOM     67  C   UNL A   1      46.089  26.365  28.943  1.00  0.00     0.049 A 
ATOM     68  H   UNL A   1      44.148  27.195  29.017  1.00  0.00     0.167 HD
ATOM     69  C   UNL A   1      46.432  28.660  29.817  1.00  0.00     0.074 A 
ATOM     70  C   UNL A   1      47.265  29.740  30.305  1.00  0.00     0.031 C 
ATOM     71  C   UNL A   1      46.902  27.444  29.440  1.00  0.00     0.037 A 
BRANCH  58  72
ATOM     72  C   UNL A   1      42.506  23.570  27.470  1.00  0.00     0.057 A 
ATOM     73  C   UNL A   1      42.251  22.501  28.339  1.00  0.00     0.134 A 
ATOM     74  C   UNL A   1      42.441  23.311  26.094  1.00  0.00     0.134 A 
ATOM     75  F   UNL A   1      42.302  22.676  29.668  1.00  0.00    -0.206 F 
ATOM     76  C   UNL A   1      41.942  21.227  27.859  1.00  0.00     0.040 A 
ATOM     77  C   UNL A   1      42.109  22.047  25.602  1.00  0.00     0.040 A 
ATOM     78  F   UNL A   1      42.661  24.294  25.207  1.00  0.00    -0.206 F 
ATOM     79  C   UNL A   1      41.864  20.999  26.487  1.00  0.00     0.006 A 
ENDBRANCH  58  72
BRANCH  59  80
ATOM     80  C   UNL A   1      44.371  32.698  31.024  1.00  0.00     0.057 A 
ATOM     81  C   UNL A   1      44.589  33.760  30.139  1.00  0.00     0.134 A 
ATOM     82  C   UNL A   1      44.422  32.978  32.395  1.00  0.00     0.134 A 
ATOM     83  F   UNL A   1      44.561  33.553  28.814  1.00  0.00    -0.206 F 
ATOM     84  C   UNL A   1      44.852  35.050  30.597  1.00  0.00     0.040 A 
ATOM     85  C   UNL A   1      44.656  34.270  32.868  1.00  0.00     0.040 A 
ATOM     86  F   UNL A   1      44.202  32.006  33.291  1.00  0.00    -0.206 F 
ATOM     87  C   UNL A   1      44.876  35.310  31.966  1.00  0.00     0.006 A 
ENDBRANCH  59  80
BRANCH  71  88
ATOM     88  C   UNL A   1      48.387  27.245  29.527  1.00  0.00     0.057 A 
ATOM     89  C   UNL A   1      48.960  26.634  30.649  1.00  0.00     0.134 A 
ATOM     90  C   UNL A   1      49.246  27.633  28.490  1.00  0.00     0.134 A 
ATOM     91  F   UNL A   1      48.195  26.244  31.680  1.00  0.00    -0.206 F 
ATOM     92  C   UNL A   1      50.334  26.402  30.729  1.00  0.00     0.040 A 
ATOM     93  C   UNL A   1      50.617  27.381  28.548  1.00  0.00     0.040 A 
ATOM     94  F   UNL A   1      48.757  28.208  27.381  1.00  0.00    -0.206 F 
ATOM     95  C   UNL A   1      51.165  26.764  29.671  1.00  0.00     0.006 A 
ENDBRANCH  71  88
ENDBRANCH  45  46
ENDBRANCH  37  40
ENDBRANCH  35  36
ENDBRANCH  34  35
ENDBRANCH  33  34
ENDBRANCH   1  33
TORSDOF 16
ENDMDL
MODEL 2
REMARK VINA RESULT:     -13.0      2.561      8.427
REMARK SMILES CC1=C(CC(=O)NCCCCNC(=O)c2ccc(-c3c4nc(c(-c5c(F)cccc5F)c5ccc([nH]5)c(-c5c(F)cccc5F)c5nc(c(-c6c(F)cccc6F)c6ccc3[nH]6)C=C5)C=C4)cc2)c2cc(F)ccc2/C1=C\c1cccc(OCc2ccccc2)c1
REMARK SMILES IDX 8 1 7 2 5 3 6 4 4 6 3 7 1 8 2 9 76 10 69 11 75 12 77 13
REMARK SMILES IDX 70 14 74 15 71 16 73 17 72 18 78 19 79 20 91 21 80 22 82 23
REMARK SMILES IDX 81 24 83 25 84 26 85 27 86 28 90 29 87 30 89 31 88 32 9 33
REMARK SMILES IDX 10 34 11 35 12 36 13 37 14 39 15 40 16 41 68 42 17 43 67 44
REMARK SMILES IDX 18 45 19 46 20 47 61 48 21 49 66 50 60 51 62 52 22 53 65 54
REMARK SMILES IDX 59 55 58 56 23 58 49 59 32 60 48 61 33 62 36 63 47 64 63 65
REMARK SMILES IDX 34 66 35 67 46 69 64 70 37 71 24 72 25 73 30 74 26 75 27 76
REMARK SMILES IDX 29 77 31 78 28 79 50 80 51 81 56 82 52 83 53 84 55 85 57 86
REMARK SMILES IDX 54 87 38 88 39 89 44 90 40 91 41 92 43 93 45 94 42 95
REMARK H PARENT 7 5 12 38 62 57 36 68
REMARK Flexibility Score: inf
ROOT
ATOM      1  C   UNL A   1      35.431  20.744  24.989  1.00  0.00     0.116 C 
ENDROOT
BRANCH   1   2
ATOM      2  N   UNL A   1      34.298  19.923  25.366  1.00  0.00    -0.356 N 
ATOM      3  C   UNL A   1      33.027  19.936  24.868  1.00  0.00     0.224 C 
ATOM      4  O   UNL A   1      32.202  19.161  25.358  1.00  0.00    -0.275 OA
ATOM      5  H   UNL A   1      34.468  19.267  26.080  1.00  0.00     0.163 HD
BRANCH   3   6
ATOM      6  C   UNL A   1      32.653  20.858  23.709  1.00  0.00     0.136 C 
BRANCH   6   7
ATOM      7  C   UNL A   1      32.574  22.294  24.111  1.00  0.00    -0.027 C 
ATOM      8  C   UNL A   1      34.357  23.369  22.616  1.00  0.00     0.045 C 
ATOM      9  C   UNL A   1      33.309  23.346  23.680  1.00  0.00    -0.039 C 
ATOM     10  C   UNL A   1      32.941  24.544  24.447  1.00  0.00    -0.014 C 
ATOM     11  C   UNL A   1      31.615  22.795  25.114  1.00  0.00    -0.011 A 
ATOM     12  C   UNL A   1      31.807  24.177  25.308  1.00  0.00    -0.010 A 
ATOM     13  C   UNL A   1      33.600  25.714  24.373  1.00  0.00     0.017 C 
ATOM     14  C   UNL A   1      30.632  22.113  25.816  1.00  0.00     0.048 A 
ATOM     15  C   UNL A   1      30.998  24.891  26.183  1.00  0.00     0.012 A 
ATOM     16  C   UNL A   1      29.843  22.832  26.710  1.00  0.00     0.123 A 
ATOM     17  C   UNL A   1      30.012  24.205  26.895  1.00  0.00     0.040 A 
ATOM     18  F   UNL A   1      28.895  22.194  27.409  1.00  0.00    -0.207 F 
BRANCH  13  19
ATOM     19  C   UNL A   1      33.248  26.946  25.073  1.00  0.00    -0.021 A 
ATOM     20  C   UNL A   1      33.890  27.354  26.242  1.00  0.00     0.008 A 
ATOM     21  C   UNL A   1      32.209  27.714  24.539  1.00  0.00     0.054 A 
ATOM     22  C   UNL A   1      33.473  28.522  26.882  1.00  0.00     0.004 A 
ATOM     23  C   UNL A   1      31.822  28.907  25.141  1.00  0.00     0.120 A 
ATOM     24  C   UNL A   1      32.443  29.292  26.332  1.00  0.00     0.046 A 
BRANCH  23  25
ATOM     25  O   UNL A   1      30.864  29.760  24.667  1.00  0.00    -0.489 OA
BRANCH  25  26
ATOM     26  C   UNL A   1      29.999  29.290  23.622  1.00  0.00     0.265 C 
BRANCH  26  27
ATOM     27  C   UNL A   1      29.287  30.413  22.900  1.00  0.00    -0.011 A 
ATOM     28  C   UNL A   1      29.098  31.648  23.536  1.00  0.00     0.007 A 
ATOM     29  C   UNL A   1      28.825  30.254  21.584  1.00  0.00     0.007 A 
ATOM     30  C   UNL A   1      28.479  32.704  22.866  1.00  0.00     0.000 A 
ATOM     31  C   UNL A   1      28.222  31.316  20.909  1.00  0.00     0.000 A 
ATOM     32  C   UNL A   1      28.050  32.541  21.551  1.00  0.00     0.000 A 
ENDBRANCH  26  27
ENDBRANCH  25  26
ENDBRANCH  23  25
ENDBRANCH  13  19
ENDBRANCH   6   7
ENDBRANCH   3   6
ENDBRANCH   1   2
BRANCH   1  33
ATOM     33  C   UNL A   1      36.731  19.942  24.915  1.00  0.00     0.023 C 
BRANCH  33  34
ATOM     34  C   UNL A   1      38.006  20.780  24.879  1.00  0.00     0.023 C 
BRANCH  34  35
ATOM     35  C   UNL A   1      38.952  20.573  26.054  1.00  0.00     0.116 C 
BRANCH  35  36
ATOM     36  N   UNL A   1      39.990  19.583  25.805  1.00  0.00    -0.352 N 
ATOM     37  C   UNL A   1      41.349  19.698  25.994  1.00  0.00     0.251 C 
ATOM     38  H   UNL A   1      39.679  18.716  25.458  1.00  0.00     0.163 HD
ATOM     39  O   UNL A   1      42.100  18.792  25.647  1.00  0.00    -0.269 OA
BRANCH  37  40
ATOM     40  C   UNL A   1      41.903  20.943  26.571  1.00  0.00     0.039 A 
ATOM     41  C   UNL A   1      41.998  21.105  27.954  1.00  0.00     0.014 A 
ATOM     42  C   UNL A   1      42.290  21.980  25.717  1.00  0.00     0.014 A 
ATOM     43  C   UNL A   1      42.298  22.356  28.479  1.00  0.00     0.010 A 
ATOM     44  C   UNL A   1      42.687  23.210  26.251  1.00  0.00     0.010 A 
ATOM     45  C   UNL A   1      42.641  23.427  27.636  1.00  0.00    -0.014 A 
BRANCH  45  46
ATOM     46  C   UNL A   1      42.937  24.749  28.247  1.00  0.00     0.031 A 
ATOM     47  C   UNL A   1      44.354  25.185  28.513  1.00  0.00     0.074 A 
ATOM     48  C   UNL A   1      41.920  25.601  28.479  1.00  0.00     0.049 A 
ATOM     49  N   UNL A   1      44.793  26.346  28.933  1.00  0.00    -0.248 NA
ATOM     50  C   UNL A   1      45.414  24.191  28.289  1.00  0.00     0.031 C 
ATOM     51  C   UNL A   1      40.501  25.294  28.273  1.00  0.00     0.029 A 
ATOM     52  N   UNL A   1      41.919  26.908  28.893  1.00  0.00    -0.354 N 
ATOM     53  C   UNL A   1      46.174  26.220  29.032  1.00  0.00     0.074 A 
ATOM     54  C   UNL A   1      46.497  24.857  28.666  1.00  0.00     0.031 C 
ATOM     55  C   UNL A   1      39.777  26.402  28.488  1.00  0.00     0.029 A 
ATOM     56  C   UNL A   1      40.671  27.478  28.898  1.00  0.00     0.049 A 
ATOM     57  H   UNL A   1      42.736  27.389  29.159  1.00  0.00     0.167 HD
ATOM     58  C   UNL A   1      47.092  27.155  29.379  1.00  0.00     0.037 A 
ATOM     59  C   UNL A   1      40.286  28.733  29.195  1.00  0.00     0.037 A 
ATOM     60  C   UNL A   1      46.775  28.516  29.733  1.00  0.00     0.049 A 
ATOM     61  C   UNL A   1      41.323  29.743  29.590  1.00  0.00     0.074 A 
ATOM     62  C   UNL A   1      47.637  29.540  30.089  1.00  0.00     0.029 A 
ATOM     63  N   UNL A   1      45.493  29.043  29.777  1.00  0.00    -0.354 N 
ATOM     64  N   UNL A   1      42.625  29.612  29.656  1.00  0.00    -0.248 NA
ATOM     65  C   UNL A   1      40.831  31.079  29.954  1.00  0.00     0.031 C 
ATOM     66  C   UNL A   1      46.873  30.677  30.380  1.00  0.00     0.029 A 
ATOM     67  C   UNL A   1      45.539  30.373  30.166  1.00  0.00     0.049 A 
ATOM     68  H   UNL A   1      44.671  28.544  29.563  1.00  0.00     0.167 HD
ATOM     69  C   UNL A   1      43.109  30.850  30.055  1.00  0.00     0.074 A 
ATOM     70  C   UNL A   1      41.962  31.726  30.185  1.00  0.00     0.031 C 
ATOM     71  C   UNL A   1      44.388  31.228  30.300  1.00  0.00     0.037 A 
BRANCH  58  72
ATOM     72  C   UNL A   1      48.533  26.730  29.404  1.00  0.00     0.057 A 
ATOM     73  C   UNL A   1      49.098  26.181  30.561  1.00  0.00     0.134 A 
ATOM     74  C   UNL A   1      49.368  26.883  28.288  1.00  0.00     0.134 A 
ATOM     75  F   UNL A   1      48.358  26.012  31.667  1.00  0.00    -0.206 F 
ATOM     76  C   UNL A   1      50.440  25.797  30.608  1.00  0.00     0.040 A 
ATOM     77  C   UNL A   1      50.705  26.480  28.315  1.00  0.00     0.040 A 
ATOM     78  F   UNL A   1      48.887  27.389  27.143  1.00  0.00    -0.206 F 
ATOM     79  C   UNL A   1      51.246  25.940  29.481  1.00  0.00     0.006 A 
ENDBRANCH  58  72
BRANCH  59  80
ATOM     80  C   UNL A   1      38.853  29.110  29.118  1.00  0.00     0.057 A 
ATOM     81  C   UNL A   1      38.276  29.539  27.917  1.00  0.00     0.134 A 
ATOM     82  C   UNL A   1      38.024  29.031  30.242  1.00  0.00     0.134 A 
ATOM     83  F   UNL A   1      39.021  29.642  26.806  1.00  0.00    -0.206 F 
ATOM     84  C   UNL A   1      36.926  29.880  27.837  1.00  0.00     0.040 A 
ATOM     85  C   UNL A   1      36.666  29.342  30.171  1.00  0.00     0.040 A 
ATOM     86  F   UNL A   1      38.516  28.609  31.416  1.00  0.00    -0.206 F 
ATOM     87  C   UNL A   1      36.114  29.772  28.965  1.00  0.00     0.006 A 
ENDBRANCH  59  80
BRANCH  71  88
ATOM     88  C   UNL A   1      44.597  32.656  30.710  1.00  0.00     0.057 A 
ATOM     89  C   UNL A   1      44.728  33.664  29.747  1.00  0.00     0.134 A 
ATOM     90  C   UNL A   1      44.639  33.039  32.058  1.00  0.00     0.134 A 
ATOM     91  F   UNL A   1      44.703  33.365  28.439  1.00  0.00    -0.206 F 
ATOM     92  C   UNL A   1      44.880  35.003  30.109  1.00  0.00     0.040 A 
ATOM     93  C   UNL A   1      44.763  34.377  32.432  1.00  0.00     0.040 A 
ATOM     94  F   UNL A   1      44.501  32.123  33.029  1.00  0.00    -0.206 F 
ATOM     95  C   UNL A   1      44.884  35.364  31.455  1.00  0.00     0.006 A 
ENDBRANCH  71  88
ENDBRANCH  45  46
ENDBRANCH  37  40
ENDBRANCH  35  36
ENDBRANCH  34  35
ENDBRANCH  33  34
ENDBRANCH   1  33
TORSDOF 16
ENDMDL
MODEL 3
REMARK VINA RESULT:     -12.9      2.632      8.513
REMARK SMILES CC1=C(CC(=O)NCCCCNC(=O)c2ccc(-c3c4nc(c(-c5c(F)cccc5F)c5ccc([nH]5)c(-c5c(F)cccc5F)c5nc(c(-c6c(F)cccc6F)c6ccc3[nH]6)C=C5)C=C4)cc2)c2cc(F)ccc2/C1=C\c1cccc(OCc2ccccc2)c1
REMARK SMILES IDX 8 1 7 2 5 3 6 4 4 6 3 7 1 8 2 9 76 10 69 11 75 12 77 13
REMARK SMILES IDX 70 14 74 15 71 16 73 17 72 18 78 19 79 20 91 21 80 22 82 23
REMARK SMILES IDX 81 24 83 25 84 26 85 27 86 28 90 29 87 30 89 31 88 32 9 33
REMARK SMILES IDX 10 34 11 35 12 36 13 37 14 39 15 40 16 41 68 42 17 43 67 44
REMARK SMILES IDX 18 45 19 46 20 47 61 48 21 49 66 50 60 51 62 52 22 53 65 54
REMARK SMILES IDX 59 55 58 56 23 58 49 59 32 60 48 61 33 62 36 63 47 64 63 65
REMARK SMILES IDX 34 66 35 67 46 69 64 70 37 71 24 72 25 73 30 74 26 75 27 76
REMARK SMILES IDX 29 77 31 78 28 79 50 80 51 81 56 82 52 83 53 84 55 85 57 86
REMARK SMILES IDX 54 87 38 88 39 89 44 90 40 91 41 92 43 93 45 94 42 95
REMARK H PARENT 7 5 12 38 62 57 36 68
REMARK Flexibility Score: inf
ROOT
ATOM      1  C   UNL A   1      35.469  20.822  25.571  1.00  0.00     0.116 C 
ENDROOT
BRANCH   1   2
ATOM      2  N   UNL A   1      34.220  20.783  24.838  1.00  0.00    -0.356 N 
ATOM      3  C   UNL A   1      33.777  21.619  23.852  1.00  0.00     0.224 C 
ATOM      4  O   UNL A   1      32.657  21.417  23.378  1.00  0.00    -0.275 OA
ATOM      5  H   UNL A   1      33.604  20.055  25.085  1.00  0.00     0.163 HD
BRANCH   3   6
ATOM      6  C   UNL A   1      34.667  22.744  23.328  1.00  0.00     0.136 C 
BRANCH   6   7
ATOM      7  C   UNL A   1      34.314  24.078  23.900  1.00  0.00    -0.027 C 
ATOM      8  C   UNL A   1      35.630  24.082  26.100  1.00  0.00     0.045 C 
ATOM      9  C   UNL A   1      34.689  24.630  25.078  1.00  0.00    -0.039 C 
ATOM     10  C   UNL A   1      34.000  25.917  25.254  1.00  0.00    -0.014 C 
ATOM     11  C   UNL A   1      33.438  25.042  23.209  1.00  0.00    -0.011 A 
ATOM     12  C   UNL A   1      33.260  26.186  24.011  1.00  0.00    -0.010 A 
ATOM     13  C   UNL A   1      34.031  26.635  26.390  1.00  0.00     0.017 C 
ATOM     14  C   UNL A   1      32.832  24.951  21.964  1.00  0.00     0.048 A 
ATOM     15  C   UNL A   1      32.500  27.258  23.562  1.00  0.00     0.012 A 
ATOM     16  C   UNL A   1      32.050  26.021  21.534  1.00  0.00     0.123 A 
ATOM     17  C   UNL A   1      31.884  27.167  22.313  1.00  0.00     0.040 A 
ATOM     18  F   UNL A   1      31.445  25.953  20.341  1.00  0.00    -0.207 F 
BRANCH  13  19
ATOM     19  C   UNL A   1      33.407  27.938  26.601  1.00  0.00    -0.021 A 
ATOM     20  C   UNL A   1      32.023  28.111  26.635  1.00  0.00     0.008 A 
ATOM     21  C   UNL A   1      34.255  29.040  26.751  1.00  0.00     0.054 A 
ATOM     22  C   UNL A   1      31.496  29.393  26.798  1.00  0.00     0.004 A 
ATOM     23  C   UNL A   1      33.738  30.313  26.967  1.00  0.00     0.120 A 
ATOM     24  C   UNL A   1      32.352  30.487  26.963  1.00  0.00     0.046 A 
BRANCH  23  25
ATOM     25  O   UNL A   1      34.478  31.442  27.187  1.00  0.00    -0.489 OA
BRANCH  25  26
ATOM     26  C   UNL A   1      33.997  32.387  28.155  1.00  0.00     0.265 C 
BRANCH  26  27
ATOM     27  C   UNL A   1      35.047  32.764  29.178  1.00  0.00    -0.011 A 
ATOM     28  C   UNL A   1      34.781  32.615  30.546  1.00  0.00     0.007 A 
ATOM     29  C   UNL A   1      36.306  33.245  28.784  1.00  0.00     0.007 A 
ATOM     30  C   UNL A   1      35.755  32.921  31.496  1.00  0.00     0.000 A 
ATOM     31  C   UNL A   1      37.286  33.533  29.735  1.00  0.00     0.000 A 
ATOM     32  C   UNL A   1      37.010  33.372  31.091  1.00  0.00     0.000 A 
ENDBRANCH  26  27
ENDBRANCH  25  26
ENDBRANCH  23  25
ENDBRANCH  13  19
ENDBRANCH   6   7
ENDBRANCH   3   6
ENDBRANCH   1   2
BRANCH   1  33
ATOM     33  C   UNL A   1      36.507  19.854  25.001  1.00  0.00     0.023 C 
BRANCH  33  34
ATOM     34  C   UNL A   1      37.861  20.479  24.672  1.00  0.00     0.023 C 
BRANCH  34  35
ATOM     35  C   UNL A   1      38.876  20.461  25.806  1.00  0.00     0.116 C 
BRANCH  35  36
ATOM     36  N   UNL A   1      39.810  19.346  25.742  1.00  0.00    -0.352 N 
ATOM     37  C   UNL A   1      41.170  19.352  25.957  1.00  0.00     0.251 C 
ATOM     38  H   UNL A   1      39.417  18.472  25.515  1.00  0.00     0.163 HD
ATOM     39  O   UNL A   1      41.829  18.333  25.773  1.00  0.00    -0.269 OA
BRANCH  37  40
ATOM     40  C   UNL A   1      41.839  20.607  26.364  1.00  0.00     0.039 A 
ATOM     41  C   UNL A   1      42.118  20.862  27.707  1.00  0.00     0.014 A 
ATOM     42  C   UNL A   1      42.150  21.562  25.391  1.00  0.00     0.014 A 
ATOM     43  C   UNL A   1      42.529  22.131  28.093  1.00  0.00     0.010 A 
ATOM     44  C   UNL A   1      42.658  22.808  25.776  1.00  0.00     0.010 A 
ATOM     45  C   UNL A   1      42.799  23.123  27.135  1.00  0.00    -0.014 A 
BRANCH  45  46
ATOM     46  C   UNL A   1      43.221  24.470  27.602  1.00  0.00     0.031 A 
ATOM     47  C   UNL A   1      44.656  24.917  27.501  1.00  0.00     0.074 A 
ATOM     48  C   UNL A   1      42.280  25.331  28.036  1.00  0.00     0.049 A 
ATOM     49  N   UNL A   1      45.171  26.094  27.754  1.00  0.00    -0.248 NA
ATOM     50  C   UNL A   1      45.641  23.914  27.069  1.00  0.00     0.031 C 
ATOM     51  C   UNL A   1      40.857  25.016  28.190  1.00  0.00     0.029 A 
ATOM     52  N   UNL A   1      42.367  26.655  28.384  1.00  0.00    -0.354 N 
ATOM     53  C   UNL A   1      46.537  25.972  27.523  1.00  0.00     0.074 A 
ATOM     54  C   UNL A   1      46.776  24.595  27.147  1.00  0.00     0.031 C 
ATOM     55  C   UNL A   1      40.195  26.132  28.528  1.00  0.00     0.029 A 
ATOM     56  C   UNL A   1      41.150  27.225  28.666  1.00  0.00     0.049 A 
ATOM     57  H   UNL A   1      43.219  27.147  28.426  1.00  0.00     0.167 HD
ATOM     58  C   UNL A   1      47.502  26.921  27.601  1.00  0.00     0.037 A 
ATOM     59  C   UNL A   1      40.836  28.492  28.994  1.00  0.00     0.037 A 
ATOM     60  C   UNL A   1      47.266  28.296  27.964  1.00  0.00     0.049 A 
ATOM     61  C   UNL A   1      41.927  29.517  29.087  1.00  0.00     0.074 A 
ATOM     62  C   UNL A   1      48.178  29.334  28.059  1.00  0.00     0.029 A 
ATOM     63  N   UNL A   1      46.027  28.824  28.293  1.00  0.00    -0.354 N 
ATOM     64  N   UNL A   1      43.208  29.389  28.842  1.00  0.00    -0.248 NA
ATOM     65  C   UNL A   1      41.523  30.867  29.503  1.00  0.00     0.031 C 
ATOM     66  C   UNL A   1      47.494  30.482  28.479  1.00  0.00     0.029 A 
ATOM     67  C   UNL A   1      46.151  30.170  28.605  1.00  0.00     0.049 A 
ATOM     68  H   UNL A   1      45.182  28.318  28.304  1.00  0.00     0.167 HD
ATOM     69  C   UNL A   1      43.761  30.643  29.062  1.00  0.00     0.074 A 
ATOM     70  C   UNL A   1      42.670  31.523  29.428  1.00  0.00     0.031 C 
ATOM     71  C   UNL A   1      45.058  31.030  28.976  1.00  0.00     0.037 A 
BRANCH  58  72
ATOM     72  C   UNL A   1      48.910  26.497  27.295  1.00  0.00     0.057 A 
ATOM     73  C   UNL A   1      49.397  26.522  25.982  1.00  0.00     0.134 A 
ATOM     74  C   UNL A   1      49.780  26.042  28.296  1.00  0.00     0.134 A 
ATOM     75  F   UNL A   1      48.617  26.940  24.974  1.00  0.00    -0.206 F 
ATOM     76  C   UNL A   1      50.697  26.114  25.677  1.00  0.00     0.040 A 
ATOM     77  C   UNL A   1      51.089  25.655  28.006  1.00  0.00     0.040 A 
ATOM     78  F   UNL A   1      49.381  26.006  29.577  1.00  0.00    -0.206 F 
ATOM     79  C   UNL A   1      51.550  25.685  26.691  1.00  0.00     0.006 A 
ENDBRANCH  58  72
BRANCH  59  80
ATOM     80  C   UNL A   1      39.423  28.865  29.249  1.00  0.00     0.057 A 
ATOM     81  C   UNL A   1      38.607  29.370  28.229  1.00  0.00     0.134 A 
ATOM     82  C   UNL A   1      38.851  28.707  30.516  1.00  0.00     0.134 A 
ATOM     83  F   UNL A   1      39.100  29.551  26.995  1.00  0.00    -0.206 F 
ATOM     84  C   UNL A   1      37.275  29.708  28.462  1.00  0.00     0.040 A 
ATOM     85  C   UNL A   1      37.511  29.015  30.756  1.00  0.00     0.040 A 
ATOM     86  F   UNL A   1      39.577  28.210  31.528  1.00  0.00    -0.206 F 
ATOM     87  C   UNL A   1      36.720  29.521  29.726  1.00  0.00     0.006 A 
ENDBRANCH  59  80
BRANCH  71  88
ATOM     88  C   UNL A   1      45.345  32.474  29.265  1.00  0.00     0.057 A 
ATOM     89  C   UNL A   1      45.259  33.436  28.250  1.00  0.00     0.134 A 
ATOM     90  C   UNL A   1      45.678  32.918  30.552  1.00  0.00     0.134 A 
ATOM     91  F   UNL A   1      44.952  33.077  26.995  1.00  0.00    -0.206 F 
ATOM     92  C   UNL A   1      45.481  34.790  28.509  1.00  0.00     0.040 A 
ATOM     93  C   UNL A   1      45.874  34.272  30.828  1.00  0.00     0.040 A 
ATOM     94  F   UNL A   1      45.758  32.049  31.571  1.00  0.00    -0.206 F 
ATOM     95  C   UNL A   1      45.776  35.212  29.804  1.00  0.00     0.006 A 
ENDBRANCH  71  88
ENDBRANCH  45  46
ENDBRANCH  37  40
ENDBRANCH  35  36
ENDBRANCH  34  35
ENDBRANCH  33  34
ENDBRANCH   1  33
TORSDOF 16
ENDMDL
