MODEL 1
REMARK VINA RESULT:     -12.2      0.000      0.000
REMARK SMILES O=C(NCCCCNC(=O)c1cc2n[nH]cc2cc1[N+](=O)[O-])c1ccc(-c2c3nc(c(-c4c(F)cccc4F)c4ccc([nH]4)c(-c4c(F)cccc4F)c4nc(c(-c5c(F)cccc5F)c5ccc2[nH]5)C=C4)C=C3)cc1
REMARK SMILES IDX 5 1 4 2 3 3 1 4 2 5 23 7 24 8 76 9 25 10 75 11 26 12 27 13
REMARK SMILES IDX 28 14 69 15 29 16 74 17 68 18 70 19 30 20 73 21 67 22 66 23
REMARK SMILES IDX 31 25 57 26 40 27 56 28 41 29 44 30 55 31 71 32 42 33 43 34
REMARK SMILES IDX 54 36 72 37 45 38 32 39 33 40 38 41 34 42 35 43 37 44 39 45
REMARK SMILES IDX 36 46 58 47 59 48 64 49 60 50 61 51 63 52 65 53 62 54 46 55
REMARK SMILES IDX 47 56 52 57 48 58 49 59 51 60 53 61 50 62 6 63 7 64 8 65
REMARK SMILES IDX 9 66 10 68 11 69 12 70 19 71 13 72 18 73 14 74 17 75 15 76
REMARK SMILES IDX 16 77 20 79 21 80 22 81
REMARK H PARENT 3 6 70 24 44 35 8 67 15 78
REMARK Flexibility Score: inf
ROOT
ATOM      1  C   UNL A   1      31.979  30.135  25.433  1.00  0.00     0.023 C 
ENDROOT
BRANCH   1   2
ATOM      2  C   UNL A   1      32.056  30.645  26.866  1.00  0.00     0.116 C 
BRANCH   2   3
ATOM      3  N   UNL A   1      31.967  32.093  26.971  1.00  0.00    -0.352 N 
ATOM      4  O   UNL A   1      32.558  34.168  27.639  1.00  0.00    -0.269 OA
ATOM      5  C   UNL A   1      32.851  32.981  27.542  1.00  0.00     0.251 C 
ATOM      6  H   UNL A   1      31.160  32.496  26.577  1.00  0.00     0.163 HD
BRANCH   5   7
ATOM      7  C   UNL A   1      34.143  32.493  28.074  1.00  0.00     0.039 A 
ATOM      8  C   UNL A   1      34.305  31.153  28.428  1.00  0.00     0.014 A 
ATOM      9  C   UNL A   1      35.199  33.394  28.241  1.00  0.00     0.014 A 
ATOM     10  C   UNL A   1      35.449  30.756  29.109  1.00  0.00     0.010 A 
ATOM     11  C   UNL A   1      36.390  32.969  28.839  1.00  0.00     0.010 A 
ATOM     12  C   UNL A   1      36.510  31.656  29.317  1.00  0.00    -0.014 A 
BRANCH  12  13
ATOM     13  C   UNL A   1      37.736  31.164  29.996  1.00  0.00     0.031 A 
ATOM     14  C   UNL A   1      38.010  31.467  31.444  1.00  0.00     0.074 A 
ATOM     15  C   UNL A   1      38.572  30.366  29.304  1.00  0.00     0.049 A 
ATOM     16  N   UNL A   1      38.986  31.032  32.202  1.00  0.00    -0.248 NA
ATOM     17  C   UNL A   1      37.080  32.376  32.129  1.00  0.00     0.031 C 
ATOM     18  C   UNL A   1      38.424  30.023  27.887  1.00  0.00     0.029 A 
ATOM     19  N   UNL A   1      39.682  29.667  29.701  1.00  0.00    -0.354 N 
ATOM     20  C   UNL A   1      38.797  31.623  33.446  1.00  0.00     0.074 A 
ATOM     21  C   UNL A   1      37.628  32.468  33.335  1.00  0.00     0.031 C 
ATOM     22  C   UNL A   1      39.364  29.127  27.553  1.00  0.00     0.029 A 
ATOM     23  C   UNL A   1      40.210  28.873  28.713  1.00  0.00     0.049 A 
ATOM     24  H   UNL A   1      40.064  29.729  30.607  1.00  0.00     0.167 HD
ATOM     25  C   UNL A   1      39.527  31.466  34.576  1.00  0.00     0.037 A 
ATOM     26  C   UNL A   1      41.258  28.030  28.735  1.00  0.00     0.037 A 
ATOM     27  C   UNL A   1      40.682  30.612  34.690  1.00  0.00     0.049 A 
ATOM     28  C   UNL A   1      42.028  27.855  30.009  1.00  0.00     0.074 A 
ATOM     29  C   UNL A   1      41.485  30.386  35.797  1.00  0.00     0.029 A 
ATOM     30  N   UNL A   1      41.195  29.837  33.661  1.00  0.00    -0.354 N 
ATOM     31  N   UNL A   1      41.828  28.415  31.176  1.00  0.00    -0.248 NA
ATOM     32  C   UNL A   1      43.172  26.934  29.966  1.00  0.00     0.031 C 
ATOM     33  C   UNL A   1      42.497  29.493  35.430  1.00  0.00     0.029 A 
ATOM     34  C   UNL A   1      42.306  29.137  34.105  1.00  0.00     0.049 A 
ATOM     35  H   UNL A   1      40.825  29.790  32.751  1.00  0.00     0.167 HD
ATOM     36  C   UNL A   1      42.822  27.920  32.008  1.00  0.00     0.074 A 
ATOM     37  C   UNL A   1      43.600  26.985  31.220  1.00  0.00     0.031 C 
ATOM     38  C   UNL A   1      43.076  28.222  33.303  1.00  0.00     0.037 A 
BRANCH  25  39
ATOM     39  C   UNL A   1      39.102  32.239  35.791  1.00  0.00     0.057 A 
ATOM     40  C   UNL A   1      39.516  33.560  36.004  1.00  0.00     0.134 A 
ATOM     41  C   UNL A   1      38.223  31.678  36.726  1.00  0.00     0.134 A 
ATOM     42  F   UNL A   1      40.365  34.151  35.151  1.00  0.00    -0.206 F 
ATOM     43  C   UNL A   1      39.080  34.292  37.110  1.00  0.00     0.040 A 
ATOM     44  C   UNL A   1      37.765  32.406  37.826  1.00  0.00     0.040 A 
ATOM     45  F   UNL A   1      37.784  30.419  36.579  1.00  0.00    -0.206 F 
ATOM     46  C   UNL A   1      38.195  33.717  38.022  1.00  0.00     0.006 A 
ENDBRANCH  25  39
BRANCH  26  47
ATOM     47  C   UNL A   1      41.628  27.289  27.505  1.00  0.00     0.057 A 
ATOM     48  C   UNL A   1      42.461  27.859  26.538  1.00  0.00     0.134 A 
ATOM     49  C   UNL A   1      41.173  25.984  27.282  1.00  0.00     0.134 A 
ATOM     50  F   UNL A   1      42.916  29.111  26.689  1.00  0.00    -0.206 F 
ATOM     51  C   UNL A   1      42.820  27.161  25.384  1.00  0.00     0.040 A 
ATOM     52  C   UNL A   1      41.545  25.266  26.146  1.00  0.00     0.040 A 
ATOM     53  F   UNL A   1      40.379  25.381  28.179  1.00  0.00    -0.206 F 
ATOM     54  C   UNL A   1      42.367  25.857  25.190  1.00  0.00     0.006 A 
ENDBRANCH  26  47
BRANCH  38  55
ATOM     55  C   UNL A   1      44.246  27.534  33.936  1.00  0.00     0.057 A 
ATOM     56  C   UNL A   1      45.525  28.104  33.919  1.00  0.00     0.134 A 
ATOM     57  C   UNL A   1      44.095  26.294  34.568  1.00  0.00     0.134 A 
ATOM     58  F   UNL A   1      45.736  29.283  33.315  1.00  0.00    -0.206 F 
ATOM     59  C   UNL A   1      46.620  27.451  34.487  1.00  0.00     0.040 A 
ATOM     60  C   UNL A   1      45.178  25.642  35.156  1.00  0.00     0.040 A 
ATOM     61  F   UNL A   1      42.894  25.699  34.621  1.00  0.00    -0.206 F 
ATOM     62  C   UNL A   1      46.447  26.217  35.110  1.00  0.00     0.006 A 
ENDBRANCH  38  55
ENDBRANCH  12  13
ENDBRANCH   5   7
ENDBRANCH   2   3
ENDBRANCH   1   2
BRANCH   1  63
ATOM     63  C   UNL A   1      33.112  29.211  24.998  1.00  0.00     0.023 C 
BRANCH  63  64
ATOM     64  C   UNL A   1      33.273  29.035  23.492  1.00  0.00     0.116 C 
BRANCH  64  65
ATOM     65  N   UNL A   1      32.017  29.151  22.764  1.00  0.00    -0.352 N 
ATOM     66  C   UNL A   1      30.984  28.256  22.661  1.00  0.00     0.258 C 
ATOM     67  H   UNL A   1      31.892  29.995  22.274  1.00  0.00     0.163 HD
ATOM     68  O   UNL A   1      30.016  28.479  21.943  1.00  0.00    -0.269 OA
BRANCH  66  69
ATOM     69  C   UNL A   1      31.076  26.976  23.378  1.00  0.00     0.119 A 
ATOM     70  C   UNL A   1      30.446  26.948  24.644  1.00  0.00     0.052 A 
ATOM     71  C   UNL A   1      31.691  25.828  22.778  1.00  0.00     0.282 A 
ATOM     72  C   UNL A   1      30.415  25.669  25.217  1.00  0.00     0.093 A 
ATOM     73  C   UNL A   1      31.680  24.526  23.330  1.00  0.00     0.098 A 
ATOM     74  N   UNL A   1      29.866  25.256  26.369  1.00  0.00    -0.176 NA
ATOM     75  C   UNL A   1      31.011  24.537  24.547  1.00  0.00     0.026 A 
ATOM     76  N   UNL A   1      30.101  23.931  26.412  1.00  0.00    -0.285 N 
ATOM     77  C   UNL A   1      30.781  23.444  25.332  1.00  0.00     0.114 A 
ATOM     78  H   UNL A   1      29.806  23.360  27.159  1.00  0.00     0.189 HD
BRANCH  71  79
ATOM     79  N   UNL A   1      32.350  25.978  21.490  1.00  0.00     0.063 N 
ATOM     80  O   UNL A   1      31.626  25.908  20.487  1.00  0.00    -0.258 OA
ATOM     81  O   UNL A   1      33.574  26.140  21.487  1.00  0.00    -0.258 OA
ENDBRANCH  71  79
ENDBRANCH  66  69
ENDBRANCH  64  65
ENDBRANCH  63  64
ENDBRANCH   1  63
TORSDOF 12
ENDMDL
MODEL 2
REMARK VINA RESULT:     -12.1      3.623      7.112
REMARK SMILES O=C(NCCCCNC(=O)c1cc2n[nH]cc2cc1[N+](=O)[O-])c1ccc(-c2c3nc(c(-c4c(F)cccc4F)c4ccc([nH]4)c(-c4c(F)cccc4F)c4nc(c(-c5c(F)cccc5F)c5ccc2[nH]5)C=C4)C=C3)cc1
REMARK SMILES IDX 5 1 4 2 3 3 1 4 2 5 23 7 24 8 76 9 25 10 75 11 26 12 27 13
REMARK SMILES IDX 28 14 69 15 29 16 74 17 68 18 70 19 30 20 73 21 67 22 66 23
REMARK SMILES IDX 31 25 57 26 40 27 56 28 41 29 44 30 55 31 71 32 42 33 43 34
REMARK SMILES IDX 54 36 72 37 45 38 32 39 33 40 38 41 34 42 35 43 37 44 39 45
REMARK SMILES IDX 36 46 58 47 59 48 64 49 60 50 61 51 63 52 65 53 62 54 46 55
REMARK SMILES IDX 47 56 52 57 48 58 49 59 51 60 53 61 50 62 6 63 7 64 8 65
REMARK SMILES IDX 9 66 10 68 11 69 12 70 19 71 13 72 18 73 14 74 17 75 15 76
REMARK SMILES IDX 16 77 20 79 21 80 22 81
REMARK H PARENT 3 6 70 24 44 35 8 67 15 78
REMARK Flexibility Score: inf
ROOT
ATOM      1  C   UNL A   1      33.908  28.203  25.756  1.00  0.00     0.023 C 
ENDROOT
BRANCH   1   2
ATOM      2  C   UNL A   1      33.744  28.425  27.254  1.00  0.00     0.116 C 
BRANCH   2   3
ATOM      3  N   UNL A   1      33.714  29.830  27.631  1.00  0.00    -0.352 N 
ATOM      4  O   UNL A   1      34.482  31.758  28.522  1.00  0.00    -0.269 OA
ATOM      5  C   UNL A   1      34.718  30.611  28.158  1.00  0.00     0.251 C 
ATOM      6  H   UNL A   1      32.855  30.288  27.488  1.00  0.00     0.163 HD
BRANCH   5   7
ATOM      7  C   UNL A   1      36.078  30.051  28.320  1.00  0.00     0.039 A 
ATOM      8  C   UNL A   1      36.473  29.482  29.531  1.00  0.00     0.014 A 
ATOM      9  C   UNL A   1      36.978  30.118  27.251  1.00  0.00     0.014 A 
ATOM     10  C   UNL A   1      37.806  29.146  29.730  1.00  0.00     0.010 A 
ATOM     11  C   UNL A   1      38.298  29.686  27.423  1.00  0.00     0.010 A 
ATOM     12  C   UNL A   1      38.735  29.236  28.678  1.00  0.00    -0.014 A 
BRANCH  12  13
ATOM     13  C   UNL A   1      40.134  28.806  28.926  1.00  0.00     0.031 A 
ATOM     14  C   UNL A   1      40.633  27.456  28.488  1.00  0.00     0.074 A 
ATOM     15  C   UNL A   1      40.983  29.688  29.489  1.00  0.00     0.049 A 
ATOM     16  N   UNL A   1      41.849  26.971  28.548  1.00  0.00    -0.248 NA
ATOM     17  C   UNL A   1      39.647  26.526  27.918  1.00  0.00     0.031 C 
ATOM     18  C   UNL A   1      40.609  31.018  29.978  1.00  0.00     0.029 A 
ATOM     19  N   UNL A   1      42.334  29.621  29.707  1.00  0.00    -0.354 N 
ATOM     20  C   UNL A   1      41.773  25.681  28.038  1.00  0.00     0.074 A 
ATOM     21  C   UNL A   1      40.386  25.446  27.697  1.00  0.00     0.031 C 
ATOM     22  C   UNL A   1      41.713  31.666  30.374  1.00  0.00     0.029 A 
ATOM     23  C   UNL A   1      42.863  30.782  30.217  1.00  0.00     0.049 A 
ATOM     24  H   UNL A   1      42.874  28.819  29.518  1.00  0.00     0.167 HD
ATOM     25  C   UNL A   1      42.770  24.780  27.863  1.00  0.00     0.037 A 
ATOM     26  C   UNL A   1      44.132  31.104  30.523  1.00  0.00     0.037 A 
ATOM     27  C   UNL A   1      44.153  25.021  28.189  1.00  0.00     0.049 A 
ATOM     28  C   UNL A   1      45.218  30.098  30.290  1.00  0.00     0.074 A 
ATOM     29  C   UNL A   1      45.236  24.168  28.044  1.00  0.00     0.029 A 
ATOM     30  N   UNL A   1      44.645  26.203  28.720  1.00  0.00    -0.354 N 
ATOM     31  N   UNL A   1      45.127  28.887  29.799  1.00  0.00    -0.248 NA
ATOM     32  C   UNL A   1      46.581  30.501  30.659  1.00  0.00     0.031 C 
ATOM     33  C   UNL A   1      46.379  24.827  28.510  1.00  0.00     0.029 A 
ATOM     34  C   UNL A   1      46.013  26.102  28.913  1.00  0.00     0.049 A 
ATOM     35  H   UNL A   1      44.103  26.998  28.927  1.00  0.00     0.167 HD
ATOM     36  C   UNL A   1      46.419  28.380  29.803  1.00  0.00     0.074 A 
ATOM     37  C   UNL A   1      47.279  29.429  30.311  1.00  0.00     0.031 C 
ATOM     38  C   UNL A   1      46.851  27.151  29.433  1.00  0.00     0.037 A 
BRANCH  25  39
ATOM     39  C   UNL A   1      42.404  23.440  27.294  1.00  0.00     0.057 A 
ATOM     40  C   UNL A   1      42.503  23.173  25.922  1.00  0.00     0.134 A 
ATOM     41  C   UNL A   1      42.007  22.390  28.130  1.00  0.00     0.134 A 
ATOM     42  F   UNL A   1      42.867  24.139  25.066  1.00  0.00    -0.206 F 
ATOM     43  C   UNL A   1      42.208  21.911  25.402  1.00  0.00     0.040 A 
ATOM     44  C   UNL A   1      41.728  21.119  27.625  1.00  0.00     0.040 A 
ATOM     45  F   UNL A   1      41.898  22.578  29.454  1.00  0.00    -0.206 F 
ATOM     46  C   UNL A   1      41.826  20.877  26.256  1.00  0.00     0.006 A 
ENDBRANCH  25  39
BRANCH  26  47
ATOM     47  C   UNL A   1      44.434  32.445  31.078  1.00  0.00     0.057 A 
ATOM     48  C   UNL A   1      44.665  33.542  30.242  1.00  0.00     0.134 A 
ATOM     49  C   UNL A   1      44.477  32.663  32.461  1.00  0.00     0.134 A 
ATOM     50  F   UNL A   1      44.653  33.391  28.910  1.00  0.00    -0.206 F 
ATOM     51  C   UNL A   1      44.940  34.808  30.761  1.00  0.00     0.040 A 
ATOM     52  C   UNL A   1      44.724  33.928  32.993  1.00  0.00     0.040 A 
ATOM     53  F   UNL A   1      44.254  31.652  33.313  1.00  0.00    -0.206 F 
ATOM     54  C   UNL A   1      44.963  35.004  32.141  1.00  0.00     0.006 A 
ENDBRANCH  26  47
BRANCH  38  55
ATOM     55  C   UNL A   1      48.319  26.886  29.571  1.00  0.00     0.057 A 
ATOM     56  C   UNL A   1      49.218  27.211  28.547  1.00  0.00     0.134 A 
ATOM     57  C   UNL A   1      48.839  26.305  30.733  1.00  0.00     0.134 A 
ATOM     58  F   UNL A   1      48.778  27.757  27.403  1.00  0.00    -0.206 F 
ATOM     59  C   UNL A   1      50.582  26.943  28.665  1.00  0.00     0.040 A 
ATOM     60  C   UNL A   1      50.203  26.049  30.869  1.00  0.00     0.040 A 
ATOM     61  F   UNL A   1      48.028  25.974  31.749  1.00  0.00    -0.206 F 
ATOM     62  C   UNL A   1      51.078  26.362  29.831  1.00  0.00     0.006 A 
ENDBRANCH  38  55
ENDBRANCH  12  13
ENDBRANCH   5   7
ENDBRANCH   2   3
ENDBRANCH   1   2
BRANCH   1  63
ATOM     63  C   UNL A   1      33.333  29.296  24.860  1.00  0.00     0.023 C 
BRANCH  63  64
ATOM     64  C   UNL A   1      33.395  29.014  23.362  1.00  0.00     0.116 C 
BRANCH  64  65
ATOM     65  N   UNL A   1      32.108  29.162  22.697  1.00  0.00    -0.352 N 
ATOM     66  C   UNL A   1      31.038  28.307  22.671  1.00  0.00     0.258 C 
ATOM     67  H   UNL A   1      31.990  29.999  22.193  1.00  0.00     0.163 HD
ATOM     68  O   UNL A   1      30.043  28.551  21.998  1.00  0.00    -0.269 OA
BRANCH  66  69
ATOM     69  C   UNL A   1      31.119  27.041  23.415  1.00  0.00     0.119 A 
ATOM     70  C   UNL A   1      30.496  27.049  24.685  1.00  0.00     0.052 A 
ATOM     71  C   UNL A   1      31.716  25.873  22.836  1.00  0.00     0.282 A 
ATOM     72  C   UNL A   1      30.453  25.783  25.286  1.00  0.00     0.093 A 
ATOM     73  C   UNL A   1      31.692  24.583  23.417  1.00  0.00     0.098 A 
ATOM     74  N   UNL A   1      29.906  25.402  26.450  1.00  0.00    -0.176 NA
ATOM     75  C   UNL A   1      31.031  24.629  24.638  1.00  0.00     0.026 A 
ATOM     76  N   UNL A   1      30.124  24.075  26.520  1.00  0.00    -0.285 N 
ATOM     77  C   UNL A   1      30.792  23.556  25.447  1.00  0.00     0.114 A 
ATOM     78  H   UNL A   1      29.827  23.524  27.281  1.00  0.00     0.189 HD
BRANCH  71  79
ATOM     79  N   UNL A   1      32.368  25.987  21.542  1.00  0.00     0.063 N 
ATOM     80  O   UNL A   1      31.633  25.952  20.546  1.00  0.00    -0.258 OA
ATOM     81  O   UNL A   1      33.600  26.086  21.527  1.00  0.00    -0.258 OA
ENDBRANCH  71  79
ENDBRANCH  66  69
ENDBRANCH  64  65
ENDBRANCH  63  64
ENDBRANCH   1  63
TORSDOF 12
ENDMDL
MODEL 3
REMARK VINA RESULT:     -12.0      4.295      7.846
REMARK SMILES O=C(NCCCCNC(=O)c1cc2n[nH]cc2cc1[N+](=O)[O-])c1ccc(-c2c3nc(c(-c4c(F)cccc4F)c4ccc([nH]4)c(-c4c(F)cccc4F)c4nc(c(-c5c(F)cccc5F)c5ccc2[nH]5)C=C4)C=C3)cc1
REMARK SMILES IDX 5 1 4 2 3 3 1 4 2 5 23 7 24 8 76 9 25 10 75 11 26 12 27 13
REMARK SMILES IDX 28 14 69 15 29 16 74 17 68 18 70 19 30 20 73 21 67 22 66 23
REMARK SMILES IDX 31 25 57 26 40 27 56 28 41 29 44 30 55 31 71 32 42 33 43 34
REMARK SMILES IDX 54 36 72 37 45 38 32 39 33 40 38 41 34 42 35 43 37 44 39 45
REMARK SMILES IDX 36 46 58 47 59 48 64 49 60 50 61 51 63 52 65 53 62 54 46 55
REMARK SMILES IDX 47 56 52 57 48 58 49 59 51 60 53 61 50 62 6 63 7 64 8 65
REMARK SMILES IDX 9 66 10 68 11 69 12 70 19 71 13 72 18 73 14 74 17 75 15 76
REMARK SMILES IDX 16 77 20 79 21 80 22 81
REMARK H PARENT 3 6 70 24 44 35 8 67 15 78
REMARK Flexibility Score: inf
ROOT
ATOM      1  C   UNL A   1      33.275  28.947  26.754  1.00  0.00     0.023 C 
ENDROOT
BRANCH   1   2
ATOM      2  C   UNL A   1      34.676  29.231  27.280  1.00  0.00     0.116 C 
BRANCH   2   3
ATOM      3  N   UNL A   1      34.700  30.188  28.374  1.00  0.00    -0.352 N 
ATOM      4  O   UNL A   1      35.538  31.263  30.176  1.00  0.00    -0.269 OA
ATOM      5  C   UNL A   1      35.731  30.505  29.232  1.00  0.00     0.251 C 
ATOM      6  H   UNL A   1      33.862  30.681  28.524  1.00  0.00     0.163 HD
BRANCH   5   7
ATOM      7  C   UNL A   1      37.065  29.896  29.033  1.00  0.00     0.039 A 
ATOM      8  C   UNL A   1      37.726  29.273  30.092  1.00  0.00     0.014 A 
ATOM      9  C   UNL A   1      37.673  29.973  27.776  1.00  0.00     0.014 A 
ATOM     10  C   UNL A   1      39.053  28.888  29.943  1.00  0.00     0.010 A 
ATOM     11  C   UNL A   1      38.976  29.495  27.602  1.00  0.00     0.010 A 
ATOM     12  C   UNL A   1      39.693  28.987  28.695  1.00  0.00    -0.014 A 
BRANCH  12  13
ATOM     13  C   UNL A   1      41.093  28.505  28.574  1.00  0.00     0.031 A 
ATOM     14  C   UNL A   1      41.406  27.083  28.194  1.00  0.00     0.074 A 
ATOM     15  C   UNL A   1      42.091  29.394  28.738  1.00  0.00     0.049 A 
ATOM     16  N   UNL A   1      42.573  26.535  27.957  1.00  0.00    -0.248 NA
ATOM     17  C   UNL A   1      40.273  26.154  28.071  1.00  0.00     0.031 C 
ATOM     18  C   UNL A   1      41.911  30.794  29.133  1.00  0.00     0.029 A 
ATOM     19  N   UNL A   1      43.443  29.271  28.554  1.00  0.00    -0.354 N 
ATOM     20  C   UNL A   1      42.317  25.200  27.670  1.00  0.00     0.074 A 
ATOM     21  C   UNL A   1      40.888  25.012  27.788  1.00  0.00     0.031 C 
ATOM     22  C   UNL A   1      43.098  31.416  29.094  1.00  0.00     0.029 A 
ATOM     23  C   UNL A   1      44.127  30.451  28.725  1.00  0.00     0.049 A 
ATOM     24  H   UNL A   1      43.883  28.421  28.323  1.00  0.00     0.167 HD
ATOM     25  C   UNL A   1      43.195  24.225  27.330  1.00  0.00     0.037 A 
ATOM     26  C   UNL A   1      45.437  30.729  28.596  1.00  0.00     0.037 A 
ATOM     27  C   UNL A   1      44.617  24.418  27.198  1.00  0.00     0.049 A 
ATOM     28  C   UNL A   1      46.379  29.637  28.191  1.00  0.00     0.074 A 
ATOM     29  C   UNL A   1      45.587  23.489  26.855  1.00  0.00     0.029 A 
ATOM     30  N   UNL A   1      45.273  25.623  27.396  1.00  0.00    -0.354 N 
ATOM     31  N   UNL A   1      46.117  28.383  27.915  1.00  0.00    -0.248 NA
ATOM     32  C   UNL A   1      47.799  29.997  28.083  1.00  0.00     0.031 C 
ATOM     33  C   UNL A   1      46.832  24.128  26.870  1.00  0.00     0.029 A 
ATOM     34  C   UNL A   1      46.633  25.462  27.189  1.00  0.00     0.049 A 
ATOM     35  H   UNL A   1      44.836  26.469  27.646  1.00  0.00     0.167 HD
ATOM     36  C   UNL A   1      47.339  27.802  27.605  1.00  0.00     0.074 A 
ATOM     37  C   UNL A   1      48.335  28.850  27.691  1.00  0.00     0.031 C 
ATOM     38  C   UNL A   1      47.612  26.513  27.292  1.00  0.00     0.037 A 
BRANCH  25  39
ATOM     39  C   UNL A   1      42.645  22.851  27.079  1.00  0.00     0.057 A 
ATOM     40  C   UNL A   1      42.548  22.323  25.785  1.00  0.00     0.134 A 
ATOM     41  C   UNL A   1      42.264  22.026  28.144  1.00  0.00     0.134 A 
ATOM     42  F   UNL A   1      42.887  23.067  24.721  1.00  0.00    -0.206 F 
ATOM     43  C   UNL A   1      42.081  21.027  25.559  1.00  0.00     0.040 A 
ATOM     44  C   UNL A   1      41.814  20.721  27.932  1.00  0.00     0.040 A 
ATOM     45  F   UNL A   1      42.338  22.468  29.408  1.00  0.00    -0.206 F 
ATOM     46  C   UNL A   1      41.719  20.219  26.636  1.00  0.00     0.006 A 
ENDBRANCH  25  39
BRANCH  26  47
ATOM     47  C   UNL A   1      45.922  32.106  28.852  1.00  0.00     0.057 A 
ATOM     48  C   UNL A   1      46.313  32.512  30.132  1.00  0.00     0.134 A 
ATOM     49  C   UNL A   1      46.025  33.042  27.816  1.00  0.00     0.134 A 
ATOM     50  F   UNL A   1      46.221  31.665  31.167  1.00  0.00    -0.206 F 
ATOM     51  C   UNL A   1      46.779  33.804  30.376  1.00  0.00     0.040 A 
ATOM     52  C   UNL A   1      46.514  34.328  28.040  1.00  0.00     0.040 A 
ATOM     53  F   UNL A   1      45.674  32.708  26.565  1.00  0.00    -0.206 F 
ATOM     54  C   UNL A   1      46.887  34.714  29.325  1.00  0.00     0.006 A 
ENDBRANCH  26  47
BRANCH  38  55
ATOM     55  C   UNL A   1      49.047  26.177  27.025  1.00  0.00     0.057 A 
ATOM     56  C   UNL A   1      49.590  26.270  25.737  1.00  0.00     0.134 A 
ATOM     57  C   UNL A   1      49.892  25.759  28.059  1.00  0.00     0.134 A 
ATOM     58  F   UNL A   1      48.825  26.651  24.702  1.00  0.00    -0.206 F 
ATOM     59  C   UNL A   1      50.921  25.934  25.483  1.00  0.00     0.040 A 
ATOM     60  C   UNL A   1      51.229  25.439  27.820  1.00  0.00     0.040 A 
ATOM     61  F   UNL A   1      49.431  25.653  29.314  1.00  0.00    -0.206 F 
ATOM     62  C   UNL A   1      51.744  25.519  26.528  1.00  0.00     0.006 A 
ENDBRANCH  38  55
ENDBRANCH  12  13
ENDBRANCH   5   7
ENDBRANCH   2   3
ENDBRANCH   1   2
BRANCH   1  63
ATOM     63  C   UNL A   1      32.847  29.767  25.540  1.00  0.00     0.023 C 
BRANCH  63  64
ATOM     64  C   UNL A   1      33.150  29.137  24.185  1.00  0.00     0.116 C 
BRANCH  64  65
ATOM     65  N   UNL A   1      32.039  29.229  23.248  1.00  0.00    -0.352 N 
ATOM     66  C   UNL A   1      31.116  28.279  22.895  1.00  0.00     0.258 C 
ATOM     67  H   UNL A   1      31.936  30.101  22.804  1.00  0.00     0.163 HD
ATOM     68  O   UNL A   1      30.277  28.496  22.028  1.00  0.00    -0.269 OA
BRANCH  66  69
ATOM     69  C   UNL A   1      31.182  26.952  23.525  1.00  0.00     0.119 A 
ATOM     70  C   UNL A   1      30.544  26.851  24.783  1.00  0.00     0.052 A 
ATOM     71  C   UNL A   1      31.782  25.837  22.853  1.00  0.00     0.282 A 
ATOM     72  C   UNL A   1      30.487  25.538  25.269  1.00  0.00     0.093 A 
ATOM     73  C   UNL A   1      31.745  24.501  23.317  1.00  0.00     0.098 A 
ATOM     74  N   UNL A   1      29.924  25.058  26.388  1.00  0.00    -0.176 NA
ATOM     75  C   UNL A   1      31.069  24.442  24.528  1.00  0.00     0.026 A 
ATOM     76  N   UNL A   1      30.136  23.729  26.344  1.00  0.00    -0.285 N 
ATOM     77  C   UNL A   1      30.815  23.303  25.237  1.00  0.00     0.114 A 
ATOM     78  H   UNL A   1      29.827  23.115  27.049  1.00  0.00     0.189 HD
BRANCH  71  79
ATOM     79  N   UNL A   1      32.451  26.061  21.582  1.00  0.00     0.063 N 
ATOM     80  O   UNL A   1      31.753  25.963  20.563  1.00  0.00    -0.258 OA
ATOM     81  O   UNL A   1      33.661  26.308  21.606  1.00  0.00    -0.258 OA
ENDBRANCH  71  79
ENDBRANCH  66  69
ENDBRANCH  64  65
ENDBRANCH  63  64
ENDBRANCH   1  63
TORSDOF 12
ENDMDL
