MODEL 1
REMARK VINA RESULT:      -8.8      0.000      0.000
REMARK SMILES [NH3+][C@@H](Cc1cccc(O)c1)C(=O)NCCCCNC(=O)c1ccc(-c2c3nc(c(-c4c(F)cccc4F)c4ccc([nH]4)c(-c4c(F)cccc4F)c4nc(c(-c5c(F)cccc5F)c5ccc2[nH]5)C=C4)C=C3)cc1
REMARK SMILES IDX 15 1 14 2 13 3 11 4 12 5 2 7 1 8 3 12 4 13 5 14 10 15 6 16
REMARK SMILES IDX 8 17 7 18 9 19 16 21 17 22 18 23 19 24 20 26 21 27 22 28
REMARK SMILES IDX 74 29 23 30 73 31 24 32 25 33 26 34 67 35 27 36 72 37 66 38
REMARK SMILES IDX 68 39 28 40 71 41 65 42 64 43 29 45 55 46 38 47 54 48 39 49
REMARK SMILES IDX 42 50 53 51 69 52 40 53 41 54 52 56 70 57 43 58 30 59 31 60
REMARK SMILES IDX 36 61 32 62 33 63 35 64 37 65 34 66 56 67 57 68 62 69 58 70
REMARK SMILES IDX 59 71 61 72 63 73 60 74 44 75 45 76 50 77 46 78 47 79 49 80
REMARK SMILES IDX 51 81 48 82
REMARK H PARENT 13 6 1 9 1 10 1 11 9 20 18 25 68 44 42 55
REMARK Flexibility Score: inf
ROOT
ATOM      1  C   UNL A   1      46.199  21.993  24.254  1.00  0.00     0.023 C 
ENDROOT
BRANCH   1   2
ATOM      2  C   UNL A   1      46.038  23.444  24.677  1.00  0.00     0.116 C 
BRANCH   2   3
ATOM      3  N   UNL A   1      47.214  24.051  25.252  1.00  0.00    -0.351 N 
ATOM      4  C   UNL A   1      47.399  25.340  25.673  1.00  0.00     0.278 C 
ATOM      5  O   UNL A   1      48.370  25.547  26.411  1.00  0.00    -0.268 OA
ATOM      6  H   UNL A   1      47.991  23.455  25.357  1.00  0.00     0.163 HD
BRANCH   4   7
ATOM      7  C   UNL A   1      46.462  26.509  25.271  1.00  0.00     0.275 C 
BRANCH   7   8
ATOM      8  N   UNL A   1      46.935  27.227  24.068  1.00  0.00    -0.347 N 
ATOM      9  H   UNL A   1      47.823  27.687  24.272  1.00  0.00     0.345 HD
ATOM     10  H   UNL A   1      46.245  27.926  23.795  1.00  0.00     0.345 HD
ATOM     11  H   UNL A   1      47.065  26.562  23.305  1.00  0.00     0.345 HD
ENDBRANCH   7   8
BRANCH   7  12
ATOM     12  C   UNL A   1      44.941  26.228  25.363  1.00  0.00     0.111 C 
BRANCH  12  13
ATOM     13  C   UNL A   1      43.995  27.329  25.781  1.00  0.00    -0.038 A 
ATOM     14  C   UNL A   1      42.692  27.370  25.260  1.00  0.00     0.004 A 
ATOM     15  C   UNL A   1      44.387  28.334  26.677  1.00  0.00     0.050 A 
ATOM     16  C   UNL A   1      41.828  28.424  25.573  1.00  0.00     0.004 A 
ATOM     17  C   UNL A   1      43.539  29.411  26.935  1.00  0.00     0.115 A 
ATOM     18  C   UNL A   1      42.261  29.463  26.393  1.00  0.00     0.046 A 
BRANCH  17  19
ATOM     19  O   UNL A   1      44.028  30.437  27.690  1.00  0.00    -0.508 OA
ATOM     20  H   UNL A   1      44.560  30.255  28.439  1.00  0.00     0.293 HD
ENDBRANCH  17  19
ENDBRANCH  12  13
ENDBRANCH   7  12
ENDBRANCH   4   7
ENDBRANCH   2   3
ENDBRANCH   1   2
BRANCH   1  21
ATOM     21  C   UNL A   1      44.913  21.180  24.189  1.00  0.00     0.023 C 
BRANCH  21  22
ATOM     22  C   UNL A   1      44.716  20.139  25.288  1.00  0.00     0.116 C 
BRANCH  22  23
ATOM     23  N   UNL A   1      43.424  19.462  25.257  1.00  0.00    -0.352 N 
ATOM     24  C   UNL A   1      42.208  19.883  25.747  1.00  0.00     0.251 C 
ATOM     25  H   UNL A   1      43.421  18.578  24.823  1.00  0.00     0.163 HD
ATOM     26  O   UNL A   1      41.217  19.166  25.648  1.00  0.00    -0.269 OA
BRANCH  24  27
ATOM     27  C   UNL A   1      42.121  21.188  26.437  1.00  0.00     0.039 A 
ATOM     28  C   UNL A   1      42.124  21.221  27.834  1.00  0.00     0.014 A 
ATOM     29  C   UNL A   1      42.125  22.378  25.706  1.00  0.00     0.014 A 
ATOM     30  C   UNL A   1      42.250  22.446  28.496  1.00  0.00     0.010 A 
ATOM     31  C   UNL A   1      42.332  23.588  26.362  1.00  0.00     0.010 A 
ATOM     32  C   UNL A   1      42.417  23.634  27.763  1.00  0.00    -0.014 A 
BRANCH  32  33
ATOM     33  C   UNL A   1      42.722  24.927  28.431  1.00  0.00     0.031 A 
ATOM     34  C   UNL A   1      41.645  25.961  28.609  1.00  0.00     0.074 A 
ATOM     35  C   UNL A   1      43.991  25.215  28.786  1.00  0.00     0.049 A 
ATOM     36  N   UNL A   1      41.740  27.186  29.059  1.00  0.00    -0.248 NA
ATOM     37  C   UNL A   1      40.286  25.577  28.195  1.00  0.00     0.031 C 
ATOM     38  C   UNL A   1      45.144  24.329  28.611  1.00  0.00     0.029 A 
ATOM     39  N   UNL A   1      44.526  26.346  29.354  1.00  0.00    -0.354 N 
ATOM     40  C   UNL A   1      40.464  27.725  28.960  1.00  0.00     0.074 A 
ATOM     41  C   UNL A   1      39.623  26.711  28.363  1.00  0.00     0.031 C 
ATOM     42  C   UNL A   1      46.245  24.941  29.078  1.00  0.00     0.029 A 
ATOM     43  C   UNL A   1      45.884  26.273  29.552  1.00  0.00     0.049 A 
ATOM     44  H   UNL A   1      43.988  27.133  29.594  1.00  0.00     0.167 HD
ATOM     45  C   UNL A   1      40.026  28.945  29.352  1.00  0.00     0.037 A 
ATOM     46  C   UNL A   1      46.745  27.180  30.053  1.00  0.00     0.037 A 
ATOM     47  C   UNL A   1      40.851  29.944  29.978  1.00  0.00     0.049 A 
ATOM     48  C   UNL A   1      46.230  28.518  30.503  1.00  0.00     0.074 A 
ATOM     49  C   UNL A   1      40.482  31.185  30.468  1.00  0.00     0.029 A 
ATOM     50  N   UNL A   1      42.213  29.814  30.203  1.00  0.00    -0.354 N 
ATOM     51  N   UNL A   1      45.008  28.989  30.463  1.00  0.00    -0.248 NA
ATOM     52  C   UNL A   1      47.214  29.450  31.073  1.00  0.00     0.031 C 
ATOM     53  C   UNL A   1      41.627  31.817  30.964  1.00  0.00     0.029 A 
ATOM     54  C   UNL A   1      42.702  30.956  30.815  1.00  0.00     0.049 A 
ATOM     55  H   UNL A   1      42.753  29.026  29.964  1.00  0.00     0.167 HD
ATOM     56  C   UNL A   1      45.070  30.258  31.023  1.00  0.00     0.074 A 
ATOM     57  C   UNL A   1      46.448  30.480  31.407  1.00  0.00     0.031 C 
ATOM     58  C   UNL A   1      44.074  31.159  31.202  1.00  0.00     0.037 A 
BRANCH  45  59
ATOM     59  C   UNL A   1      38.577  29.260  29.125  1.00  0.00     0.057 A 
ATOM     60  C   UNL A   1      37.643  29.212  30.168  1.00  0.00     0.134 A 
ATOM     61  C   UNL A   1      38.114  29.638  27.859  1.00  0.00     0.134 A 
ATOM     62  F   UNL A   1      38.020  28.844  31.402  1.00  0.00    -0.206 F 
ATOM     63  C   UNL A   1      36.294  29.501  29.954  1.00  0.00     0.040 A 
ATOM     64  C   UNL A   1      36.773  29.954  27.637  1.00  0.00     0.040 A 
ATOM     65  F   UNL A   1      38.958  29.709  26.818  1.00  0.00    -0.206 F 
ATOM     66  C   UNL A   1      35.857  29.880  28.686  1.00  0.00     0.006 A 
ENDBRANCH  45  59
BRANCH  46  67
ATOM     67  C   UNL A   1      48.185  26.845  30.183  1.00  0.00     0.057 A 
ATOM     68  C   UNL A   1      48.650  26.074  31.255  1.00  0.00     0.134 A 
ATOM     69  C   UNL A   1      49.128  27.290  29.251  1.00  0.00     0.134 A 
ATOM     70  F   UNL A   1      47.795  25.636  32.191  1.00  0.00    -0.206 F 
ATOM     71  C   UNL A   1      50.004  25.773  31.406  1.00  0.00     0.040 A 
ATOM     72  C   UNL A   1      50.483  26.978  29.377  1.00  0.00     0.040 A 
ATOM     73  F   UNL A   1      48.744  28.027  28.197  1.00  0.00    -0.206 F 
ATOM     74  C   UNL A   1      50.925  26.222  30.462  1.00  0.00     0.006 A 
ENDBRANCH  46  67
BRANCH  58  75
ATOM     75  C   UNL A   1      44.430  32.452  31.871  1.00  0.00     0.057 A 
ATOM     76  C   UNL A   1      44.819  33.579  31.138  1.00  0.00     0.134 A 
ATOM     77  C   UNL A   1      44.344  32.581  33.262  1.00  0.00     0.134 A 
ATOM     78  F   UNL A   1      44.934  33.515  29.802  1.00  0.00    -0.206 F 
ATOM     79  C   UNL A   1      45.128  34.786  31.767  1.00  0.00     0.040 A 
ATOM     80  C   UNL A   1      44.628  33.788  33.902  1.00  0.00     0.040 A 
ATOM     81  F   UNL A   1      43.971  31.540  34.022  1.00  0.00    -0.206 F 
ATOM     82  C   UNL A   1      45.026  34.894  33.154  1.00  0.00     0.006 A 
ENDBRANCH  58  75
ENDBRANCH  32  33
ENDBRANCH  24  27
ENDBRANCH  22  23
ENDBRANCH  21  22
ENDBRANCH   1  21
TORSDOF 15
ENDMDL
MODEL 2
REMARK VINA RESULT:      -8.7      5.433     10.901
REMARK SMILES [NH3+][C@@H](Cc1cccc(O)c1)C(=O)NCCCCNC(=O)c1ccc(-c2c3nc(c(-c4c(F)cccc4F)c4ccc([nH]4)c(-c4c(F)cccc4F)c4nc(c(-c5c(F)cccc5F)c5ccc2[nH]5)C=C4)C=C3)cc1
REMARK SMILES IDX 15 1 14 2 13 3 11 4 12 5 2 7 1 8 3 12 4 13 5 14 10 15 6 16
REMARK SMILES IDX 8 17 7 18 9 19 16 21 17 22 18 23 19 24 20 26 21 27 22 28
REMARK SMILES IDX 74 29 23 30 73 31 24 32 25 33 26 34 67 35 27 36 72 37 66 38
REMARK SMILES IDX 68 39 28 40 71 41 65 42 64 43 29 45 55 46 38 47 54 48 39 49
REMARK SMILES IDX 42 50 53 51 69 52 40 53 41 54 52 56 70 57 43 58 30 59 31 60
REMARK SMILES IDX 36 61 32 62 33 63 35 64 37 65 34 66 56 67 57 68 62 69 58 70
REMARK SMILES IDX 59 71 61 72 63 73 60 74 44 75 45 76 50 77 46 78 47 79 49 80
REMARK SMILES IDX 51 81 48 82
REMARK H PARENT 13 6 1 9 1 10 1 11 9 20 18 25 68 44 42 55
REMARK Flexibility Score: inf
ROOT
ATOM      1  C   UNL A   1      32.322  28.692  27.099  1.00  0.00     0.023 C 
ENDROOT
BRANCH   1   2
ATOM      2  C   UNL A   1      31.795  27.690  26.086  1.00  0.00     0.116 C 
BRANCH   2   3
ATOM      3  N   UNL A   1      30.871  26.714  26.610  1.00  0.00    -0.351 N 
ATOM      4  C   UNL A   1      30.146  25.767  25.938  1.00  0.00     0.278 C 
ATOM      5  O   UNL A   1      29.670  24.850  26.618  1.00  0.00    -0.268 OA
ATOM      6  H   UNL A   1      30.744  26.731  27.587  1.00  0.00     0.163 HD
BRANCH   4   7
ATOM      7  C   UNL A   1      29.913  25.804  24.405  1.00  0.00     0.275 C 
BRANCH   7   8
ATOM      8  N   UNL A   1      30.227  24.513  23.753  1.00  0.00    -0.347 N 
ATOM      9  H   UNL A   1      30.251  23.774  24.456  1.00  0.00     0.345 HD
ATOM     10  H   UNL A   1      31.136  24.576  23.294  1.00  0.00     0.345 HD
ATOM     11  H   UNL A   1      29.510  24.300  23.059  1.00  0.00     0.345 HD
ENDBRANCH   7   8
BRANCH   7  12
ATOM     12  C   UNL A   1      28.633  26.534  23.926  1.00  0.00     0.111 C 
BRANCH  12  13
ATOM     13  C   UNL A   1      28.739  27.903  23.295  1.00  0.00    -0.038 A 
ATOM     14  C   UNL A   1      27.592  28.702  23.158  1.00  0.00     0.004 A 
ATOM     15  C   UNL A   1      29.962  28.403  22.825  1.00  0.00     0.050 A 
ATOM     16  C   UNL A   1      27.655  29.938  22.506  1.00  0.00     0.004 A 
ATOM     17  C   UNL A   1      30.001  29.609  22.125  1.00  0.00     0.115 A 
ATOM     18  C   UNL A   1      28.859  30.383  21.964  1.00  0.00     0.046 A 
BRANCH  17  19
ATOM     19  O   UNL A   1      31.186  29.973  21.556  1.00  0.00    -0.508 OA
ATOM     20  H   UNL A   1      31.635  29.378  20.987  1.00  0.00     0.293 HD
ENDBRANCH  17  19
ENDBRANCH  12  13
ENDBRANCH   7  12
ENDBRANCH   4   7
ENDBRANCH   2   3
ENDBRANCH   1   2
BRANCH   1  21
ATOM     21  C   UNL A   1      31.903  30.139  26.874  1.00  0.00     0.023 C 
BRANCH  21  22
ATOM     22  C   UNL A   1      32.965  31.201  27.147  1.00  0.00     0.116 C 
BRANCH  22  23
ATOM     23  N   UNL A   1      32.437  32.539  27.388  1.00  0.00    -0.352 N 
ATOM     24  C   UNL A   1      33.013  33.594  28.061  1.00  0.00     0.251 C 
ATOM     25  H   UNL A   1      31.542  32.713  27.017  1.00  0.00     0.163 HD
ATOM     26  O   UNL A   1      32.409  34.655  28.184  1.00  0.00    -0.269 OA
BRANCH  24  27
ATOM     27  C   UNL A   1      34.347  33.417  28.674  1.00  0.00     0.039 A 
ATOM     28  C   UNL A   1      34.447  32.790  29.919  1.00  0.00     0.014 A 
ATOM     29  C   UNL A   1      35.501  33.792  27.981  1.00  0.00     0.014 A 
ATOM     30  C   UNL A   1      35.705  32.433  30.413  1.00  0.00     0.010 A 
ATOM     31  C   UNL A   1      36.745  33.363  28.435  1.00  0.00     0.010 A 
ATOM     32  C   UNL A   1      36.860  32.662  29.645  1.00  0.00    -0.014 A 
BRANCH  32  33
ATOM     33  C   UNL A   1      38.190  32.144  30.063  1.00  0.00     0.031 A 
ATOM     34  C   UNL A   1      38.689  30.826  29.539  1.00  0.00     0.074 A 
ATOM     35  C   UNL A   1      38.906  32.810  30.992  1.00  0.00     0.049 A 
ATOM     36  N   UNL A   1      39.762  30.156  29.874  1.00  0.00    -0.248 NA
ATOM     37  C   UNL A   1      37.852  30.157  28.532  1.00  0.00     0.031 C 
ATOM     38  C   UNL A   1      38.510  34.067  31.631  1.00  0.00     0.029 A 
ATOM     39  N   UNL A   1      40.113  32.510  31.575  1.00  0.00    -0.354 N 
ATOM     40  C   UNL A   1      39.718  28.980  29.137  1.00  0.00     0.074 A 
ATOM     41  C   UNL A   1      38.488  29.005  28.375  1.00  0.00     0.031 C 
ATOM     42  C   UNL A   1      39.463  34.439  32.501  1.00  0.00     0.029 A 
ATOM     43  C   UNL A   1      40.519  33.432  32.509  1.00  0.00     0.049 A 
ATOM     44  H   UNL A   1      40.637  31.709  31.346  1.00  0.00     0.167 HD
ATOM     45  C   UNL A   1      40.629  27.979  29.081  1.00  0.00     0.037 A 
ATOM     46  C   UNL A   1      41.615  33.462  33.291  1.00  0.00     0.037 A 
ATOM     47  C   UNL A   1      41.869  27.966  29.810  1.00  0.00     0.049 A 
ATOM     48  C   UNL A   1      42.624  32.351  33.193  1.00  0.00     0.074 A 
ATOM     49  C   UNL A   1      42.885  27.026  29.768  1.00  0.00     0.029 A 
ATOM     50  N   UNL A   1      42.265  28.943  30.711  1.00  0.00    -0.354 N 
ATOM     51  N   UNL A   1      42.599  31.277  32.443  1.00  0.00    -0.248 NA
ATOM     52  C   UNL A   1      43.815  32.460  34.047  1.00  0.00     0.031 C 
ATOM     53  C   UNL A   1      43.883  27.420  30.666  1.00  0.00     0.029 A 
ATOM     54  C   UNL A   1      43.504  28.623  31.241  1.00  0.00     0.049 A 
ATOM     55  H   UNL A   1      41.742  29.745  30.942  1.00  0.00     0.167 HD
ATOM     56  C   UNL A   1      43.778  30.596  32.715  1.00  0.00     0.074 A 
ATOM     57  C   UNL A   1      44.502  31.383  33.688  1.00  0.00     0.031 C 
ATOM     58  C   UNL A   1      44.219  29.422  32.202  1.00  0.00     0.037 A 
BRANCH  45  59
ATOM     59  C   UNL A   1      40.319  26.817  28.184  1.00  0.00     0.057 A 
ATOM     60  C   UNL A   1      39.462  25.786  28.588  1.00  0.00     0.134 A 
ATOM     61  C   UNL A   1      40.863  26.739  26.896  1.00  0.00     0.134 A 
ATOM     62  F   UNL A   1      38.919  25.795  29.816  1.00  0.00    -0.206 F 
ATOM     63  C   UNL A   1      39.177  24.704  27.754  1.00  0.00     0.040 A 
ATOM     64  C   UNL A   1      40.567  25.676  26.043  1.00  0.00     0.040 A 
ATOM     65  F   UNL A   1      41.688  27.697  26.445  1.00  0.00    -0.206 F 
ATOM     66  C   UNL A   1      39.727  24.650  26.474  1.00  0.00     0.006 A 
ENDBRANCH  45  59
BRANCH  46  67
ATOM     67  C   UNL A   1      41.835  34.597  34.220  1.00  0.00     0.057 A 
ATOM     68  C   UNL A   1      41.432  34.519  35.558  1.00  0.00     0.134 A 
ATOM     69  C   UNL A   1      42.442  35.785  33.798  1.00  0.00     0.134 A 
ATOM     70  F   UNL A   1      40.826  33.414  36.017  1.00  0.00    -0.206 F 
ATOM     71  C   UNL A   1      41.607  35.588  36.439  1.00  0.00     0.040 A 
ATOM     72  C   UNL A   1      42.644  36.854  34.672  1.00  0.00     0.040 A 
ATOM     73  F   UNL A   1      42.857  35.919  32.529  1.00  0.00    -0.206 F 
ATOM     74  C   UNL A   1      42.219  36.758  35.997  1.00  0.00     0.006 A 
ENDBRANCH  46  67
BRANCH  58  75
ATOM     75  C   UNL A   1      45.561  28.935  32.659  1.00  0.00     0.057 A 
ATOM     76  C   UNL A   1      45.701  28.080  33.759  1.00  0.00     0.134 A 
ATOM     77  C   UNL A   1      46.723  29.295  31.965  1.00  0.00     0.134 A 
ATOM     78  F   UNL A   1      44.626  27.710  34.472  1.00  0.00    -0.206 F 
ATOM     79  C   UNL A   1      46.952  27.614  34.164  1.00  0.00     0.040 A 
ATOM     80  C   UNL A   1      47.978  28.818  32.346  1.00  0.00     0.040 A 
ATOM     81  F   UNL A   1      46.656  30.106  30.899  1.00  0.00    -0.206 F 
ATOM     82  C   UNL A   1      48.095  27.978  33.452  1.00  0.00     0.006 A 
ENDBRANCH  58  75
ENDBRANCH  32  33
ENDBRANCH  24  27
ENDBRANCH  22  23
ENDBRANCH  21  22
ENDBRANCH   1  21
TORSDOF 15
ENDMDL
MODEL 3
REMARK VINA RESULT:      -8.7      4.064      6.648
REMARK SMILES [NH3+][C@@H](Cc1cccc(O)c1)C(=O)NCCCCNC(=O)c1ccc(-c2c3nc(c(-c4c(F)cccc4F)c4ccc([nH]4)c(-c4c(F)cccc4F)c4nc(c(-c5c(F)cccc5F)c5ccc2[nH]5)C=C4)C=C3)cc1
REMARK SMILES IDX 15 1 14 2 13 3 11 4 12 5 2 7 1 8 3 12 4 13 5 14 10 15 6 16
REMARK SMILES IDX 8 17 7 18 9 19 16 21 17 22 18 23 19 24 20 26 21 27 22 28
REMARK SMILES IDX 74 29 23 30 73 31 24 32 25 33 26 34 67 35 27 36 72 37 66 38
REMARK SMILES IDX 68 39 28 40 71 41 65 42 64 43 29 45 55 46 38 47 54 48 39 49
REMARK SMILES IDX 42 50 53 51 69 52 40 53 41 54 52 56 70 57 43 58 30 59 31 60
REMARK SMILES IDX 36 61 32 62 33 63 35 64 37 65 34 66 56 67 57 68 62 69 58 70
REMARK SMILES IDX 59 71 61 72 63 73 60 74 44 75 45 76 50 77 46 78 47 79 49 80
REMARK SMILES IDX 51 81 48 82
REMARK H PARENT 13 6 1 9 1 10 1 11 9 20 18 25 68 44 42 55
REMARK Flexibility Score: inf
ROOT
ATOM      1  C   UNL A   1      36.910  22.605  23.964  1.00  0.00     0.023 C 
ENDROOT
BRANCH   1   2
ATOM      2  C   UNL A   1      35.473  22.748  23.489  1.00  0.00     0.116 C 
BRANCH   2   3
ATOM      3  N   UNL A   1      34.592  23.444  24.394  1.00  0.00    -0.351 N 
ATOM      4  C   UNL A   1      34.076  23.021  25.588  1.00  0.00     0.278 C 
ATOM      5  O   UNL A   1      33.606  23.894  26.328  1.00  0.00    -0.268 OA
ATOM      6  H   UNL A   1      34.324  24.349  24.113  1.00  0.00     0.163 HD
BRANCH   4   7
ATOM      7  C   UNL A   1      34.064  21.534  26.032  1.00  0.00     0.275 C 
BRANCH   7   8
ATOM      8  N   UNL A   1      34.434  21.364  27.454  1.00  0.00    -0.347 N 
ATOM      9  H   UNL A   1      35.248  20.754  27.524  1.00  0.00     0.345 HD
ATOM     10  H   UNL A   1      33.653  20.948  27.961  1.00  0.00     0.345 HD
ATOM     11  H   UNL A   1      34.656  22.274  27.858  1.00  0.00     0.345 HD
ENDBRANCH   7   8
BRANCH   7  12
ATOM     12  C   UNL A   1      32.884  20.676  25.510  1.00  0.00     0.111 C 
BRANCH  12  13
ATOM     13  C   UNL A   1      33.159  19.441  24.684  1.00  0.00    -0.038 A 
ATOM     14  C   UNL A   1      34.335  18.704  24.897  1.00  0.00     0.004 A 
ATOM     15  C   UNL A   1      32.271  19.009  23.690  1.00  0.00     0.050 A 
ATOM     16  C   UNL A   1      34.646  17.604  24.091  1.00  0.00     0.004 A 
ATOM     17  C   UNL A   1      32.619  17.947  22.854  1.00  0.00     0.115 A 
ATOM     18  C   UNL A   1      33.798  17.239  23.048  1.00  0.00     0.046 A 
BRANCH  17  19
ATOM     19  O   UNL A   1      31.791  17.667  21.807  1.00  0.00    -0.508 OA
ATOM     20  H   UNL A   1      32.142  17.581  20.942  1.00  0.00     0.293 HD
ENDBRANCH  17  19
ENDBRANCH  12  13
ENDBRANCH   7  12
ENDBRANCH   4   7
ENDBRANCH   2   3
ENDBRANCH   1   2
BRANCH   1  21
ATOM     21  C   UNL A   1      37.242  21.298  24.672  1.00  0.00     0.023 C 
BRANCH  21  22
ATOM     22  C   UNL A   1      38.468  21.315  25.582  1.00  0.00     0.116 C 
BRANCH  22  23
ATOM     23  N   UNL A   1      39.302  20.122  25.498  1.00  0.00    -0.352 N 
ATOM     24  C   UNL A   1      40.598  19.934  25.927  1.00  0.00     0.251 C 
ATOM     25  H   UNL A   1      38.880  19.340  25.075  1.00  0.00     0.163 HD
ATOM     26  O   UNL A   1      41.157  18.855  25.756  1.00  0.00    -0.269 OA
BRANCH  24  27
ATOM     27  C   UNL A   1      41.323  21.062  26.552  1.00  0.00     0.039 A 
ATOM     28  C   UNL A   1      41.963  21.997  25.734  1.00  0.00     0.014 A 
ATOM     29  C   UNL A   1      41.294  21.242  27.937  1.00  0.00     0.014 A 
ATOM     30  C   UNL A   1      42.472  23.171  26.296  1.00  0.00     0.010 A 
ATOM     31  C   UNL A   1      41.728  22.446  28.483  1.00  0.00     0.010 A 
ATOM     32  C   UNL A   1      42.303  23.433  27.666  1.00  0.00    -0.014 A 
BRANCH  32  33
ATOM     33  C   UNL A   1      42.680  24.741  28.263  1.00  0.00     0.031 A 
ATOM     34  C   UNL A   1      41.643  25.812  28.461  1.00  0.00     0.074 A 
ATOM     35  C   UNL A   1      43.975  25.006  28.534  1.00  0.00     0.049 A 
ATOM     36  N   UNL A   1      41.797  27.051  28.854  1.00  0.00    -0.248 NA
ATOM     37  C   UNL A   1      40.254  25.452  28.140  1.00  0.00     0.031 C 
ATOM     38  C   UNL A   1      45.092  24.081  28.330  1.00  0.00     0.029 A 
ATOM     39  N   UNL A   1      44.572  26.142  29.025  1.00  0.00    -0.354 N 
ATOM     40  C   UNL A   1      40.532  27.622  28.806  1.00  0.00     0.074 A 
ATOM     41  C   UNL A   1      39.631  26.610  28.299  1.00  0.00     0.031 C 
ATOM     42  C   UNL A   1      46.234  24.679  28.709  1.00  0.00     0.029 A 
ATOM     43  C   UNL A   1      45.937  26.038  29.149  1.00  0.00     0.049 A 
ATOM     44  H   UNL A   1      44.070  26.954  29.263  1.00  0.00     0.167 HD
ATOM     45  C   UNL A   1      40.150  28.869  29.173  1.00  0.00     0.037 A 
ATOM     46  C   UNL A   1      46.849  26.938  29.563  1.00  0.00     0.037 A 
ATOM     47  C   UNL A   1      41.036  29.866  29.710  1.00  0.00     0.049 A 
ATOM     48  C   UNL A   1      46.396  28.308  29.988  1.00  0.00     0.074 A 
ATOM     49  C   UNL A   1      40.730  31.136  30.170  1.00  0.00     0.029 A 
ATOM     50  N   UNL A   1      42.405  29.706  29.863  1.00  0.00    -0.354 N 
ATOM     51  N   UNL A   1      45.187  28.811  29.998  1.00  0.00    -0.248 NA
ATOM     52  C   UNL A   1      47.436  29.231  30.463  1.00  0.00     0.031 C 
ATOM     53  C   UNL A   1      41.917  31.753  30.575  1.00  0.00     0.029 A 
ATOM     54  C   UNL A   1      42.959  30.856  30.401  1.00  0.00     0.049 A 
ATOM     55  H   UNL A   1      42.909  28.894  29.626  1.00  0.00     0.167 HD
ATOM     56  C   UNL A   1      45.316  30.099  30.502  1.00  0.00     0.074 A 
ATOM     57  C   UNL A   1      46.718  30.295  30.798  1.00  0.00     0.031 C 
ATOM     58  C   UNL A   1      44.355  31.034  30.700  1.00  0.00     0.037 A 
BRANCH  45  59
ATOM     59  C   UNL A   1      38.699  29.216  29.016  1.00  0.00     0.057 A 
ATOM     60  C   UNL A   1      38.164  29.591  27.777  1.00  0.00     0.134 A 
ATOM     61  C   UNL A   1      37.824  29.154  30.107  1.00  0.00     0.134 A 
ATOM     62  F   UNL A   1      38.953  29.683  26.695  1.00  0.00    -0.206 F 
ATOM     63  C   UNL A   1      36.814  29.918  27.634  1.00  0.00     0.040 A 
ATOM     64  C   UNL A   1      36.468  29.454  29.972  1.00  0.00     0.040 A 
ATOM     65  F   UNL A   1      38.272  28.797  31.321  1.00  0.00    -0.206 F 
ATOM     66  C   UNL A   1      35.961  29.844  28.733  1.00  0.00     0.006 A 
ENDBRANCH  45  59
BRANCH  46  67
ATOM     67  C   UNL A   1      48.284  26.567  29.625  1.00  0.00     0.057 A 
ATOM     68  C   UNL A   1      49.148  26.859  28.562  1.00  0.00     0.134 A 
ATOM     69  C   UNL A   1      48.826  25.910  30.734  1.00  0.00     0.134 A 
ATOM     70  F   UNL A   1      48.682  27.470  27.463  1.00  0.00    -0.206 F 
ATOM     71  C   UNL A   1      50.494  26.494  28.593  1.00  0.00     0.040 A 
ATOM     72  C   UNL A   1      50.175  25.558  30.789  1.00  0.00     0.040 A 
ATOM     73  F   UNL A   1      48.051  25.609  31.788  1.00  0.00    -0.206 F 
ATOM     74  C   UNL A   1      51.013  25.845  29.711  1.00  0.00     0.006 A 
ENDBRANCH  46  67
BRANCH  58  75
ATOM     75  C   UNL A   1      44.784  32.342  31.296  1.00  0.00     0.057 A 
ATOM     76  C   UNL A   1      44.831  32.541  32.680  1.00  0.00     0.134 A 
ATOM     77  C   UNL A   1      45.192  33.399  30.473  1.00  0.00     0.134 A 
ATOM     78  F   UNL A   1      44.440  31.571  33.521  1.00  0.00    -0.206 F 
ATOM     79  C   UNL A   1      45.253  33.754  33.227  1.00  0.00     0.040 A 
ATOM     80  C   UNL A   1      45.637  34.608  31.007  1.00  0.00     0.040 A 
ATOM     81  F   UNL A   1      45.176  33.269  29.138  1.00  0.00    -0.206 F 
ATOM     82  C   UNL A   1      45.664  34.790  32.389  1.00  0.00     0.006 A 
ENDBRANCH  58  75
ENDBRANCH  32  33
ENDBRANCH  24  27
ENDBRANCH  22  23
ENDBRANCH  21  22
ENDBRANCH   1  21
TORSDOF 15
ENDMDL
