MODEL 1
REMARK VINA RESULT:     -11.3      0.000      0.000
REMARK SMILES CC[NH2+][C@@]1(C(=O)NCCCCNC(=O)c2ccc(-c3c4nc(c(-c5c(F)cccc5F)c5ccc([nH]5)c(-c5c(F)cccc5F)c5nc(c(-c6c(F)cccc6F)c6ccc3[nH]6)C=C5)C=C4)cc2)CC[C@@H](Oc2cccc(OC)c2)C1
REMARK SMILES IDX 9 1 8 2 7 3 5 4 6 5 4 7 69 8 81 9 70 10 71 11 3 12 2 15 1 16
REMARK SMILES IDX 72 17 73 18 74 19 80 20 75 21 77 22 76 23 78 24 79 25 10 26
REMARK SMILES IDX 11 27 12 28 13 29 14 31 15 32 16 33 68 34 17 35 67 36 18 37
REMARK SMILES IDX 19 38 20 39 61 40 21 41 66 42 60 43 62 44 22 45 65 46 59 47
REMARK SMILES IDX 58 48 23 50 49 51 32 52 48 53 33 54 36 55 47 56 63 57 34 58
REMARK SMILES IDX 35 59 46 61 64 62 37 63 24 64 25 65 30 66 26 67 27 68 29 69
REMARK SMILES IDX 31 70 28 71 50 72 51 73 56 74 52 75 53 76 55 77 57 78 54 79
REMARK SMILES IDX 38 80 39 81 44 82 40 83 41 84 43 85 45 86 42 87
REMARK H PARENT 7 6 3 13 3 14 12 30 62 49 36 60
REMARK Flexibility Score: inf
ROOT
ATOM      1  C   UNL A   1      37.024  21.625  24.423  1.00  0.00     0.023 C 
ENDROOT
BRANCH   1   2
ATOM      2  C   UNL A   1      36.738  22.718  25.453  1.00  0.00     0.116 C 
BRANCH   2   3
ATOM      3  N   UNL A   1      35.994  23.804  24.861  1.00  0.00    -0.351 N 
ATOM      4  C   UNL A   1      34.680  24.160  24.906  1.00  0.00     0.281 C 
ATOM      5  O   UNL A   1      34.372  25.025  24.075  1.00  0.00    -0.268 OA
ATOM      6  H   UNL A   1      36.547  24.409  24.317  1.00  0.00     0.163 HD
BRANCH   4   7
ATOM      7  C   UNL A   1      33.621  23.508  25.879  1.00  0.00     0.179 C 
ATOM      8  C   UNL A   1      34.204  22.753  27.092  1.00  0.00     0.083 C 
ATOM      9  C   UNL A   1      32.774  22.475  25.098  1.00  0.00     0.124 C 
ATOM     10  C   UNL A   1      33.721  21.305  27.023  1.00  0.00     0.052 C 
ATOM     11  C   UNL A   1      33.170  21.093  25.614  1.00  0.00     0.180 C 
BRANCH   7  12
ATOM     12  N   UNL A   1      32.667  24.561  26.348  1.00  0.00    -0.334 N 
ATOM     13  H   UNL A   1      32.969  24.870  27.273  1.00  0.00     0.347 HD
ATOM     14  H   UNL A   1      32.692  25.298  25.642  1.00  0.00     0.347 HD
BRANCH  12  15
ATOM     15  C   UNL A   1      31.267  24.141  26.446  1.00  0.00     0.257 C 
ATOM     16  C   UNL A   1      30.369  25.278  25.979  1.00  0.00     0.071 C 
ENDBRANCH  12  15
ENDBRANCH   7  12
BRANCH  11  17
ATOM     17  O   UNL A   1      32.179  20.073  25.415  1.00  0.00    -0.490 OA
BRANCH  17  18
ATOM     18  C   UNL A   1      32.545  19.064  24.570  1.00  0.00     0.123 A 
ATOM     19  C   UNL A   1      32.261  19.186  23.212  1.00  0.00     0.047 A 
ATOM     20  C   UNL A   1      33.165  17.922  25.068  1.00  0.00     0.092 A 
ATOM     21  C   UNL A   1      32.686  18.193  22.332  1.00  0.00     0.008 A 
ATOM     22  C   UNL A   1      33.631  16.947  24.189  1.00  0.00     0.122 A 
ATOM     23  C   UNL A   1      33.383  17.084  22.822  1.00  0.00     0.046 A 
BRANCH  22  24
ATOM     24  O   UNL A   1      34.332  15.830  24.554  1.00  0.00    -0.497 OA
ATOM     25  C   UNL A   1      35.442  16.045  25.423  1.00  0.00     0.278 C 
ENDBRANCH  22  24
ENDBRANCH  17  18
ENDBRANCH  11  17
ENDBRANCH   4   7
ENDBRANCH   2   3
ENDBRANCH   1   2
BRANCH   1  26
ATOM     26  C   UNL A   1      37.716  20.386  24.989  1.00  0.00     0.023 C 
BRANCH  26  27
ATOM     27  C   UNL A   1      39.011  20.669  25.739  1.00  0.00     0.116 C 
BRANCH  27  28
ATOM     28  N   UNL A   1      39.961  19.564  25.720  1.00  0.00    -0.352 N 
ATOM     29  C   UNL A   1      41.280  19.588  26.103  1.00  0.00     0.251 C 
ATOM     30  H   UNL A   1      39.617  18.700  25.394  1.00  0.00     0.163 HD
ATOM     31  O   UNL A   1      41.997  18.602  25.972  1.00  0.00    -0.269 OA
BRANCH  29  32
ATOM     32  C   UNL A   1      41.829  20.851  26.624  1.00  0.00     0.039 A 
ATOM     33  C   UNL A   1      42.310  21.798  25.719  1.00  0.00     0.014 A 
ATOM     34  C   UNL A   1      41.764  21.130  27.991  1.00  0.00     0.014 A 
ATOM     35  C   UNL A   1      42.659  23.067  26.181  1.00  0.00     0.010 A 
ATOM     36  C   UNL A   1      42.044  22.414  28.438  1.00  0.00     0.010 A 
ATOM     37  C   UNL A   1      42.487  23.395  27.537  1.00  0.00    -0.014 A 
BRANCH  37  38
ATOM     38  C   UNL A   1      42.761  24.763  28.035  1.00  0.00     0.031 A 
ATOM     39  C   UNL A   1      44.156  25.144  28.438  1.00  0.00     0.074 A 
ATOM     40  C   UNL A   1      41.743  25.627  28.201  1.00  0.00     0.049 A 
ATOM     41  N   UNL A   1      44.585  26.256  28.976  1.00  0.00    -0.248 NA
ATOM     42  C   UNL A   1      45.201  24.128  28.240  1.00  0.00     0.031 C 
ATOM     43  C   UNL A   1      40.336  25.351  27.901  1.00  0.00     0.029 A 
ATOM     44  N   UNL A   1      41.733  26.915  28.675  1.00  0.00    -0.354 N 
ATOM     45  C   UNL A   1      45.941  26.064  29.202  1.00  0.00     0.074 A 
ATOM     46  C   UNL A   1      46.255  24.715  28.788  1.00  0.00     0.031 C 
ATOM     47  C   UNL A   1      39.604  26.444  28.177  1.00  0.00     0.029 A 
ATOM     48  C   UNL A   1      40.484  27.484  28.699  1.00  0.00     0.049 A 
ATOM     49  H   UNL A   1      42.546  27.385  28.969  1.00  0.00     0.167 HD
ATOM     50  C   UNL A   1      46.847  26.943  29.691  1.00  0.00     0.037 A 
ATOM     51  C   UNL A   1      40.096  28.710  29.097  1.00  0.00     0.037 A 
ATOM     52  C   UNL A   1      46.540  28.298  30.061  1.00  0.00     0.049 A 
ATOM     53  C   UNL A   1      41.126  29.678  29.605  1.00  0.00     0.074 A 
ATOM     54  C   UNL A   1      47.401  29.290  30.497  1.00  0.00     0.029 A 
ATOM     55  N   UNL A   1      45.269  28.851  30.034  1.00  0.00    -0.354 N 
ATOM     56  N   UNL A   1      42.418  29.506  29.750  1.00  0.00    -0.248 NA
ATOM     57  C   UNL A   1      40.648  31.010  29.999  1.00  0.00     0.031 C 
ATOM     58  C   UNL A   1      46.645  30.438  30.758  1.00  0.00     0.029 A 
ATOM     59  C   UNL A   1      45.320  30.170  30.455  1.00  0.00     0.049 A 
ATOM     60  H   UNL A   1      44.452  28.378  29.756  1.00  0.00     0.167 HD
ATOM     61  C   UNL A   1      42.910  30.714  30.226  1.00  0.00     0.074 A 
ATOM     62  C   UNL A   1      41.780  31.613  30.336  1.00  0.00     0.031 C 
ATOM     63  C   UNL A   1      44.184  31.049  30.545  1.00  0.00     0.037 A 
BRANCH  50  64
ATOM     64  C   UNL A   1      48.259  26.462  29.837  1.00  0.00     0.057 A 
ATOM     65  C   UNL A   1      48.698  25.808  30.996  1.00  0.00     0.134 A 
ATOM     66  C   UNL A   1      49.187  26.640  28.805  1.00  0.00     0.134 A 
ATOM     67  F   UNL A   1      47.861  25.621  32.029  1.00  0.00    -0.206 F 
ATOM     68  C   UNL A   1      50.016  25.371  31.133  1.00  0.00     0.040 A 
ATOM     69  C   UNL A   1      50.502  26.185  28.919  1.00  0.00     0.040 A 
ATOM     70  F   UNL A   1      48.831  27.257  27.667  1.00  0.00    -0.206 F 
ATOM     71  C   UNL A   1      50.921  25.555  30.089  1.00  0.00     0.006 A 
ENDBRANCH  50  64
BRANCH  51  72
ATOM     72  C   UNL A   1      38.669  29.106  28.998  1.00  0.00     0.057 A 
ATOM     73  C   UNL A   1      37.822  29.017  30.109  1.00  0.00     0.134 A 
ATOM     74  C   UNL A   1      38.119  29.573  27.800  1.00  0.00     0.134 A 
ATOM     75  F   UNL A   1      38.290  28.558  31.279  1.00  0.00    -0.206 F 
ATOM     76  C   UNL A   1      36.472  29.363  30.028  1.00  0.00     0.040 A 
ATOM     77  C   UNL A   1      36.775  29.942  27.709  1.00  0.00     0.040 A 
ATOM     78  F   UNL A   1      38.881  29.687  26.703  1.00  0.00    -0.206 F 
ATOM     79  C   UNL A   1      35.947  29.832  28.825  1.00  0.00     0.006 A 
ENDBRANCH  51  72
BRANCH  63  80
ATOM     80  C   UNL A   1      44.424  32.453  31.010  1.00  0.00     0.057 A 
ATOM     81  C   UNL A   1      44.683  33.492  30.107  1.00  0.00     0.134 A 
ATOM     82  C   UNL A   1      44.354  32.776  32.370  1.00  0.00     0.134 A 
ATOM     83  F   UNL A   1      44.776  33.243  28.793  1.00  0.00    -0.206 F 
ATOM     84  C   UNL A   1      44.881  34.803  30.545  1.00  0.00     0.040 A 
ATOM     85  C   UNL A   1      44.528  34.084  32.818  1.00  0.00     0.040 A 
ATOM     86  F   UNL A   1      44.102  31.824  33.283  1.00  0.00    -0.206 F 
ATOM     87  C   UNL A   1      44.796  35.101  31.904  1.00  0.00     0.006 A 
ENDBRANCH  63  80
ENDBRANCH  37  38
ENDBRANCH  29  32
ENDBRANCH  27  28
ENDBRANCH  26  27
ENDBRANCH   1  26
TORSDOF 16
ENDMDL
MODEL 2
REMARK VINA RESULT:     -11.2      4.415      8.547
REMARK SMILES CC[NH2+][C@@]1(C(=O)NCCCCNC(=O)c2ccc(-c3c4nc(c(-c5c(F)cccc5F)c5ccc([nH]5)c(-c5c(F)cccc5F)c5nc(c(-c6c(F)cccc6F)c6ccc3[nH]6)C=C5)C=C4)cc2)CC[C@@H](Oc2cccc(OC)c2)C1
REMARK SMILES IDX 9 1 8 2 7 3 5 4 6 5 4 7 69 8 81 9 70 10 71 11 3 12 2 15 1 16
REMARK SMILES IDX 72 17 73 18 74 19 80 20 75 21 77 22 76 23 78 24 79 25 10 26
REMARK SMILES IDX 11 27 12 28 13 29 14 31 15 32 16 33 68 34 17 35 67 36 18 37
REMARK SMILES IDX 19 38 20 39 61 40 21 41 66 42 60 43 62 44 22 45 65 46 59 47
REMARK SMILES IDX 58 48 23 50 49 51 32 52 48 53 33 54 36 55 47 56 63 57 34 58
REMARK SMILES IDX 35 59 46 61 64 62 37 63 24 64 25 65 30 66 26 67 27 68 29 69
REMARK SMILES IDX 31 70 28 71 50 72 51 73 56 74 52 75 53 76 55 77 57 78 54 79
REMARK SMILES IDX 38 80 39 81 44 82 40 83 41 84 43 85 45 86 42 87
REMARK H PARENT 7 6 3 13 3 14 12 30 62 49 36 60
REMARK Flexibility Score: inf
ROOT
ATOM      1  C   UNL A   1      31.132  30.640  25.502  1.00  0.00     0.023 C 
ENDROOT
BRANCH   1   2
ATOM      2  C   UNL A   1      32.441  29.867  25.667  1.00  0.00     0.116 C 
BRANCH   2   3
ATOM      3  N   UNL A   1      33.118  29.721  24.401  1.00  0.00    -0.351 N 
ATOM      4  C   UNL A   1      33.397  28.643  23.617  1.00  0.00     0.281 C 
ATOM      5  O   UNL A   1      34.206  28.883  22.711  1.00  0.00    -0.268 OA
ATOM      6  H   UNL A   1      33.443  30.572  24.028  1.00  0.00     0.163 HD
BRANCH   4   7
ATOM      7  C   UNL A   1      32.799  27.200  23.855  1.00  0.00     0.179 C 
ATOM      8  C   UNL A   1      33.188  26.528  25.189  1.00  0.00     0.083 C 
ATOM      9  C   UNL A   1      33.291  26.249  22.737  1.00  0.00     0.124 C 
ATOM     10  C   UNL A   1      33.901  25.216  24.865  1.00  0.00     0.052 C 
ATOM     11  C   UNL A   1      34.268  25.269  23.384  1.00  0.00     0.180 C 
BRANCH   7  12
ATOM     12  N   UNL A   1      31.309  27.256  23.731  1.00  0.00    -0.334 N 
ATOM     13  H   UNL A   1      30.950  26.304  23.809  1.00  0.00     0.347 HD
ATOM     14  H   UNL A   1      30.988  27.878  24.473  1.00  0.00     0.347 HD
BRANCH  12  15
ATOM     15  C   UNL A   1      30.806  27.828  22.479  1.00  0.00     0.257 C 
ATOM     16  C   UNL A   1      29.639  28.756  22.785  1.00  0.00     0.071 C 
ENDBRANCH  12  15
ENDBRANCH   7  12
BRANCH  11  17
ATOM     17  O   UNL A   1      34.430  24.031  22.676  1.00  0.00    -0.490 OA
BRANCH  17  18
ATOM     18  C   UNL A   1      35.015  23.025  23.390  1.00  0.00     0.123 A 
ATOM     19  C   UNL A   1      36.402  23.007  23.519  1.00  0.00     0.047 A 
ATOM     20  C   UNL A   1      34.236  22.019  23.954  1.00  0.00     0.092 A 
ATOM     21  C   UNL A   1      37.004  22.022  24.299  1.00  0.00     0.008 A 
ATOM     22  C   UNL A   1      34.827  21.058  24.769  1.00  0.00     0.122 A 
ATOM     23  C   UNL A   1      36.214  21.060  24.933  1.00  0.00     0.046 A 
BRANCH  22  24
ATOM     24  O   UNL A   1      34.153  20.078  25.446  1.00  0.00    -0.497 OA
ATOM     25  C   UNL A   1      33.534  19.076  24.642  1.00  0.00     0.278 C 
ENDBRANCH  22  24
ENDBRANCH  17  18
ENDBRANCH  11  17
ENDBRANCH   4   7
ENDBRANCH   2   3
ENDBRANCH   1   2
BRANCH   1  26
ATOM     26  C   UNL A   1      31.014  31.881  26.384  1.00  0.00     0.023 C 
BRANCH  26  27
ATOM     27  C   UNL A   1      32.342  32.440  26.878  1.00  0.00     0.116 C 
BRANCH  27  28
ATOM     28  N   UNL A   1      32.252  33.787  27.426  1.00  0.00    -0.352 N 
ATOM     29  C   UNL A   1      33.122  34.395  28.298  1.00  0.00     0.251 C 
ATOM     30  H   UNL A   1      31.478  34.323  27.138  1.00  0.00     0.163 HD
ATOM     31  O   UNL A   1      32.897  35.515  28.743  1.00  0.00    -0.269 OA
BRANCH  29  32
ATOM     32  C   UNL A   1      34.309  33.640  28.734  1.00  0.00     0.039 A 
ATOM     33  C   UNL A   1      35.573  34.192  28.515  1.00  0.00     0.014 A 
ATOM     34  C   UNL A   1      34.159  32.450  29.449  1.00  0.00     0.014 A 
ATOM     35  C   UNL A   1      36.691  33.583  29.084  1.00  0.00     0.010 A 
ATOM     36  C   UNL A   1      35.263  31.886  30.072  1.00  0.00     0.010 A 
ATOM     37  C   UNL A   1      36.537  32.450  29.901  1.00  0.00    -0.014 A 
BRANCH  37  38
ATOM     38  C   UNL A   1      37.696  31.841  30.593  1.00  0.00     0.031 A 
ATOM     39  C   UNL A   1      38.514  30.793  29.895  1.00  0.00     0.074 A 
ATOM     40  C   UNL A   1      37.958  32.171  31.871  1.00  0.00     0.049 A 
ATOM     41  N   UNL A   1      39.509  30.079  30.356  1.00  0.00    -0.248 NA
ATOM     42  C   UNL A   1      38.142  30.481  28.506  1.00  0.00     0.031 C 
ATOM     43  C   UNL A   1      37.197  33.132  32.673  1.00  0.00     0.029 A 
ATOM     44  N   UNL A   1      38.933  31.724  32.727  1.00  0.00    -0.354 N 
ATOM     45  C   UNL A   1      39.864  29.222  29.324  1.00  0.00     0.074 A 
ATOM     46  C   UNL A   1      38.950  29.469  28.231  1.00  0.00     0.031 C 
ATOM     47  C   UNL A   1      37.749  33.218  33.896  1.00  0.00     0.029 A 
ATOM     48  C   UNL A   1      38.881  32.300  33.972  1.00  0.00     0.049 A 
ATOM     49  H   UNL A   1      39.607  31.054  32.471  1.00  0.00     0.167 HD
ATOM     50  C   UNL A   1      40.876  28.325  29.284  1.00  0.00     0.037 A 
ATOM     51  C   UNL A   1      39.660  32.108  35.052  1.00  0.00     0.037 A 
ATOM     52  C   UNL A   1      41.810  28.112  30.356  1.00  0.00     0.049 A 
ATOM     53  C   UNL A   1      40.797  31.129  34.971  1.00  0.00     0.074 A 
ATOM     54  C   UNL A   1      42.915  27.280  30.387  1.00  0.00     0.029 A 
ATOM     55  N   UNL A   1      41.748  28.744  31.590  1.00  0.00    -0.354 N 
ATOM     56  N   UNL A   1      41.165  30.373  33.965  1.00  0.00    -0.248 NA
ATOM     57  C   UNL A   1      41.632  30.982  36.172  1.00  0.00     0.031 C 
ATOM     58  C   UNL A   1      43.508  27.389  31.650  1.00  0.00     0.029 A 
ATOM     59  C   UNL A   1      42.791  28.313  32.393  1.00  0.00     0.049 A 
ATOM     60  H   UNL A   1      41.066  29.402  31.854  1.00  0.00     0.167 HD
ATOM     61  C   UNL A   1      42.287  29.680  34.401  1.00  0.00     0.074 A 
ATOM     62  C   UNL A   1      42.545  30.114  35.758  1.00  0.00     0.031 C 
ATOM     63  C   UNL A   1      43.035  28.766  33.737  1.00  0.00     0.037 A 
BRANCH  50  64
ATOM     64  C   UNL A   1      41.029  27.517  28.031  1.00  0.00     0.057 A 
ATOM     65  C   UNL A   1      41.793  27.974  26.949  1.00  0.00     0.134 A 
ATOM     66  C   UNL A   1      40.418  26.264  27.908  1.00  0.00     0.134 A 
ATOM     67  F   UNL A   1      42.391  29.175  26.998  1.00  0.00    -0.206 F 
ATOM     68  C   UNL A   1      41.924  27.224  25.779  1.00  0.00     0.040 A 
ATOM     69  C   UNL A   1      40.562  25.493  26.753  1.00  0.00     0.040 A 
ATOM     70  F   UNL A   1      39.674  25.767  28.908  1.00  0.00    -0.206 F 
ATOM     71  C   UNL A   1      41.311  25.977  25.681  1.00  0.00     0.006 A 
ENDBRANCH  50  64
BRANCH  51  72
ATOM     72  C   UNL A   1      39.415  32.883  36.293  1.00  0.00     0.057 A 
ATOM     73  C   UNL A   1      38.544  32.403  37.277  1.00  0.00     0.134 A 
ATOM     74  C   UNL A   1      40.036  34.116  36.521  1.00  0.00     0.134 A 
ATOM     75  F   UNL A   1      37.908  31.236  37.104  1.00  0.00    -0.206 F 
ATOM     76  C   UNL A   1      38.285  33.131  38.440  1.00  0.00     0.040 A 
ATOM     77  C   UNL A   1      39.801  34.845  37.689  1.00  0.00     0.040 A 
ATOM     78  F   UNL A   1      40.886  34.625  35.619  1.00  0.00    -0.206 F 
ATOM     79  C   UNL A   1      38.918  34.354  38.650  1.00  0.00     0.006 A 
ENDBRANCH  51  72
BRANCH  63  80
ATOM     80  C   UNL A   1      44.220  28.201  34.458  1.00  0.00     0.057 A 
ATOM     81  C   UNL A   1      44.135  27.014  35.196  1.00  0.00     0.134 A 
ATOM     82  C   UNL A   1      45.469  28.829  34.378  1.00  0.00     0.134 A 
ATOM     83  F   UNL A   1      42.964  26.374  35.321  1.00  0.00    -0.206 F 
ATOM     84  C   UNL A   1      45.251  26.480  35.844  1.00  0.00     0.040 A 
ATOM     85  C   UNL A   1      46.595  28.295  35.003  1.00  0.00     0.040 A 
ATOM     86  F   UNL A   1      45.615  29.966  33.680  1.00  0.00    -0.206 F 
ATOM     87  C   UNL A   1      46.486  27.118  35.742  1.00  0.00     0.006 A 
ENDBRANCH  63  80
ENDBRANCH  37  38
ENDBRANCH  29  32
ENDBRANCH  27  28
ENDBRANCH  26  27
ENDBRANCH   1  26
TORSDOF 16
ENDMDL
MODEL 3
REMARK VINA RESULT:     -11.2      4.136      9.001
REMARK SMILES CC[NH2+][C@@]1(C(=O)NCCCCNC(=O)c2ccc(-c3c4nc(c(-c5c(F)cccc5F)c5ccc([nH]5)c(-c5c(F)cccc5F)c5nc(c(-c6c(F)cccc6F)c6ccc3[nH]6)C=C5)C=C4)cc2)CC[C@@H](Oc2cccc(OC)c2)C1
REMARK SMILES IDX 9 1 8 2 7 3 5 4 6 5 4 7 69 8 81 9 70 10 71 11 3 12 2 15 1 16
REMARK SMILES IDX 72 17 73 18 74 19 80 20 75 21 77 22 76 23 78 24 79 25 10 26
REMARK SMILES IDX 11 27 12 28 13 29 14 31 15 32 16 33 68 34 17 35 67 36 18 37
REMARK SMILES IDX 19 38 20 39 61 40 21 41 66 42 60 43 62 44 22 45 65 46 59 47
REMARK SMILES IDX 58 48 23 50 49 51 32 52 48 53 33 54 36 55 47 56 63 57 34 58
REMARK SMILES IDX 35 59 46 61 64 62 37 63 24 64 25 65 30 66 26 67 27 68 29 69
REMARK SMILES IDX 31 70 28 71 50 72 51 73 56 74 52 75 53 76 55 77 57 78 54 79
REMARK SMILES IDX 38 80 39 81 44 82 40 83 41 84 43 85 45 86 42 87
REMARK H PARENT 7 6 3 13 3 14 12 30 62 49 36 60
REMARK Flexibility Score: inf
ROOT
ATOM      1  C   UNL A   1      32.011  30.184  26.798  1.00  0.00     0.023 C 
ENDROOT
BRANCH   1   2
ATOM      2  C   UNL A   1      33.380  29.749  26.278  1.00  0.00     0.116 C 
BRANCH   2   3
ATOM      3  N   UNL A   1      33.389  29.683  24.836  1.00  0.00    -0.351 N 
ATOM      4  C   UNL A   1      33.267  28.654  23.953  1.00  0.00     0.281 C 
ATOM      5  O   UNL A   1      33.561  28.959  22.790  1.00  0.00    -0.268 OA
ATOM      6  H   UNL A   1      33.506  30.560  24.404  1.00  0.00     0.163 HD
BRANCH   4   7
ATOM      7  C   UNL A   1      32.845  27.187  24.360  1.00  0.00     0.179 C 
ATOM      8  C   UNL A   1      33.643  26.561  25.523  1.00  0.00     0.083 C 
ATOM      9  C   UNL A   1      33.038  26.242  23.150  1.00  0.00     0.124 C 
ATOM     10  C   UNL A   1      34.301  25.281  25.008  1.00  0.00     0.052 C 
ATOM     11  C   UNL A   1      34.214  25.325  23.484  1.00  0.00     0.180 C 
BRANCH   7  12
ATOM     12  N   UNL A   1      31.383  27.165  24.678  1.00  0.00    -0.334 N 
ATOM     13  H   UNL A   1      31.037  28.124  24.637  1.00  0.00     0.347 HD
ATOM     14  H   UNL A   1      30.955  26.544  23.991  1.00  0.00     0.347 HD
BRANCH  12  15
ATOM     15  C   UNL A   1      31.035  26.615  25.990  1.00  0.00     0.257 C 
ATOM     16  C   UNL A   1      30.099  25.429  25.805  1.00  0.00     0.071 C 
ENDBRANCH  12  15
ENDBRANCH   7  12
BRANCH  11  17
ATOM     17  O   UNL A   1      34.229  24.084  22.763  1.00  0.00    -0.490 OA
BRANCH  17  18
ATOM     18  C   UNL A   1      34.806  23.036  23.421  1.00  0.00     0.123 A 
ATOM     19  C   UNL A   1      36.194  22.991  23.533  1.00  0.00     0.047 A 
ATOM     20  C   UNL A   1      34.017  22.016  23.945  1.00  0.00     0.092 A 
ATOM     21  C   UNL A   1      36.789  21.961  24.257  1.00  0.00     0.008 A 
ATOM     22  C   UNL A   1      34.602  21.008  24.707  1.00  0.00     0.122 A 
ATOM     23  C   UNL A   1      35.990  20.981  24.854  1.00  0.00     0.046 A 
BRANCH  22  24
ATOM     24  O   UNL A   1      33.919  20.008  25.343  1.00  0.00    -0.497 OA
ATOM     25  C   UNL A   1      32.550  19.854  24.977  1.00  0.00     0.278 C 
ENDBRANCH  22  24
ENDBRANCH  17  18
ENDBRANCH  11  17
ENDBRANCH   4   7
ENDBRANCH   2   3
ENDBRANCH   1   2
BRANCH   1  26
ATOM     26  C   UNL A   1      31.749  31.687  26.713  1.00  0.00     0.023 C 
BRANCH  26  27
ATOM     27  C   UNL A   1      32.869  32.559  27.266  1.00  0.00     0.116 C 
BRANCH  27  28
ATOM     28  N   UNL A   1      32.452  33.913  27.607  1.00  0.00    -0.352 N 
ATOM     29  C   UNL A   1      33.023  34.757  28.528  1.00  0.00     0.251 C 
ATOM     30  H   UNL A   1      31.671  34.263  27.121  1.00  0.00     0.163 HD
ATOM     31  O   UNL A   1      32.533  35.854  28.775  1.00  0.00    -0.269 OA
BRANCH  29  32
ATOM     32  C   UNL A   1      34.212  34.287  29.259  1.00  0.00     0.039 A 
ATOM     33  C   UNL A   1      34.032  33.536  30.422  1.00  0.00     0.014 A 
ATOM     34  C   UNL A   1      35.487  34.499  28.730  1.00  0.00     0.014 A 
ATOM     35  C   UNL A   1      35.136  32.928  31.018  1.00  0.00     0.010 A 
ATOM     36  C   UNL A   1      36.573  33.836  29.284  1.00  0.00     0.010 A 
ATOM     37  C   UNL A   1      36.407  33.040  30.429  1.00  0.00    -0.014 A 
BRANCH  37  38
ATOM     38  C   UNL A   1      37.578  32.328  30.989  1.00  0.00     0.031 A 
ATOM     39  C   UNL A   1      38.233  32.838  32.240  1.00  0.00     0.074 A 
ATOM     40  C   UNL A   1      38.097  31.277  30.328  1.00  0.00     0.049 A 
ATOM     41  N   UNL A   1      39.314  32.411  32.840  1.00  0.00    -0.248 NA
ATOM     42  C   UNL A   1      37.608  34.005  32.884  1.00  0.00     0.031 C 
ATOM     43  C   UNL A   1      37.585  30.726  29.072  1.00  0.00     0.029 A 
ATOM     44  N   UNL A   1      39.183  30.488  30.617  1.00  0.00    -0.354 N 
ATOM     45  C   UNL A   1      39.510  33.269  33.913  1.00  0.00     0.074 A 
ATOM     46  C   UNL A   1      38.467  34.268  33.857  1.00  0.00     0.031 C 
ATOM     47  C   UNL A   1      38.342  29.675  28.711  1.00  0.00     0.029 A 
ATOM     48  C   UNL A   1      39.407  29.498  29.692  1.00  0.00     0.049 A 
ATOM     49  H   UNL A   1      39.747  30.621  31.413  1.00  0.00     0.167 HD
ATOM     50  C   UNL A   1      40.463  33.214  34.873  1.00  0.00     0.037 A 
ATOM     51  C   UNL A   1      40.365  28.554  29.645  1.00  0.00     0.037 A 
ATOM     52  C   UNL A   1      41.473  32.194  34.951  1.00  0.00     0.049 A 
ATOM     53  C   UNL A   1      41.392  28.495  30.741  1.00  0.00     0.074 A 
ATOM     54  C   UNL A   1      42.438  32.008  35.925  1.00  0.00     0.029 A 
ATOM     55  N   UNL A   1      41.644  31.184  34.017  1.00  0.00    -0.354 N 
ATOM     56  N   UNL A   1      41.526  29.272  31.788  1.00  0.00    -0.248 NA
ATOM     57  C   UNL A   1      42.395  27.426  30.651  1.00  0.00     0.031 C 
ATOM     58  C   UNL A   1      43.210  30.897  35.566  1.00  0.00     0.029 A 
ATOM     59  C   UNL A   1      42.706  30.375  34.386  1.00  0.00     0.049 A 
ATOM     60  H   UNL A   1      41.092  31.059  33.212  1.00  0.00     0.167 HD
ATOM     61  C   UNL A   1      42.610  28.771  32.496  1.00  0.00     0.074 A 
ATOM     62  C   UNL A   1      43.091  27.618  31.763  1.00  0.00     0.031 C 
ATOM     63  C   UNL A   1      43.159  29.226  33.648  1.00  0.00     0.037 A 
BRANCH  50  64
ATOM     64  C   UNL A   1      40.443  34.285  35.922  1.00  0.00     0.057 A 
ATOM     65  C   UNL A   1      39.693  34.150  37.098  1.00  0.00     0.134 A 
ATOM     66  C   UNL A   1      41.191  35.457  35.762  1.00  0.00     0.134 A 
ATOM     67  F   UNL A   1      38.941  33.058  37.303  1.00  0.00    -0.206 F 
ATOM     68  C   UNL A   1      39.668  35.154  38.067  1.00  0.00     0.040 A 
ATOM     69  C   UNL A   1      41.195  36.458  36.736  1.00  0.00     0.040 A 
ATOM     70  F   UNL A   1      41.932  35.648  34.660  1.00  0.00    -0.206 F 
ATOM     71  C   UNL A   1      40.426  36.310  37.889  1.00  0.00     0.006 A 
ENDBRANCH  50  64
BRANCH  51  72
ATOM     72  C   UNL A   1      40.378  27.564  28.541  1.00  0.00     0.057 A 
ATOM     73  C   UNL A   1      39.649  26.373  28.637  1.00  0.00     0.134 A 
ATOM     74  C   UNL A   1      41.118  27.778  27.373  1.00  0.00     0.134 A 
ATOM     75  F   UNL A   1      38.935  26.107  29.741  1.00  0.00    -0.206 F 
ATOM     76  C   UNL A   1      39.668  25.420  27.618  1.00  0.00     0.040 A 
ATOM     77  C   UNL A   1      41.131  26.841  26.337  1.00  0.00     0.040 A 
ATOM     78  F   UNL A   1      41.832  28.902  27.218  1.00  0.00    -0.206 F 
ATOM     79  C   UNL A   1      40.408  25.656  26.461  1.00  0.00     0.006 A 
ENDBRANCH  51  72
BRANCH  63  80
ATOM     80  C   UNL A   1      44.319  28.455  34.202  1.00  0.00     0.057 A 
ATOM     81  C   UNL A   1      44.134  27.351  35.043  1.00  0.00     0.134 A 
ATOM     82  C   UNL A   1      45.632  28.796  33.855  1.00  0.00     0.134 A 
ATOM     83  F   UNL A   1      42.900  26.985  35.422  1.00  0.00    -0.206 F 
ATOM     84  C   UNL A   1      45.218  26.622  35.535  1.00  0.00     0.040 A 
ATOM     85  C   UNL A   1      46.722  28.063  34.322  1.00  0.00     0.040 A 
ATOM     86  F   UNL A   1      45.873  29.840  33.047  1.00  0.00    -0.206 F 
ATOM     87  C   UNL A   1      46.516  26.974  35.168  1.00  0.00     0.006 A 
ENDBRANCH  63  80
ENDBRANCH  37  38
ENDBRANCH  29  32
ENDBRANCH  27  28
ENDBRANCH  26  27
ENDBRANCH   1  26
TORSDOF 16
ENDMDL
