MODEL 1
REMARK VINA RESULT:     -11.5      0.000      0.000
REMARK SMILES CC[C@](C)(NS(=O)(=O)c1ccc(C(=O)OC)cc1)C(=O)NCCCCNC(=O)c1ccc(-c2c3nc(c(-c4c(F)cccc4F)c4ccc([nH]4)c(-c4c(F)cccc4F)c4nc(c(-c5c(F)cccc5F)c5ccc2[nH]5)C=C4)C=C3)cc1
REMARK SMILES IDX 22 1 21 2 19 3 20 4 3 6 4 7 2 8 1 9 5 10 6 12 7 13 8 14 9 15
REMARK SMILES IDX 10 16 18 17 11 18 17 19 12 20 13 21 14 22 15 23 16 24 23 25
REMARK SMILES IDX 24 26 25 27 26 28 27 29 28 31 29 32 30 33 82 34 31 35 81 36
REMARK SMILES IDX 32 37 33 38 34 39 75 40 35 41 80 42 74 43 76 44 36 45 79 46
REMARK SMILES IDX 73 47 72 48 37 50 63 51 46 52 62 53 47 54 50 55 61 56 77 57
REMARK SMILES IDX 48 58 49 59 60 61 78 62 51 63 38 64 39 65 44 66 40 67 41 68
REMARK SMILES IDX 43 69 45 70 42 71 64 72 65 73 70 74 66 75 67 76 69 77 71 78
REMARK SMILES IDX 68 79 52 80 53 81 58 82 54 83 55 84 57 85 59 86 56 87
REMARK H PARENT 21 5 5 11 26 30 76 49 50 60
REMARK Flexibility Score: inf
ROOT
ATOM      1  C   UNL A   1      32.505  29.964  25.957  1.00  0.00     0.116 C 
ENDROOT
BRANCH   1   2
ATOM      2  N   UNL A   1      33.291  29.435  24.844  1.00  0.00    -0.354 N 
ATOM      3  C   UNL A   1      33.509  28.247  24.205  1.00  0.00     0.241 C 
ATOM      4  O   UNL A   1      34.167  28.380  23.158  1.00  0.00    -0.273 OA
ATOM      5  H   UNL A   1      33.825  30.152  24.431  1.00  0.00     0.163 HD
BRANCH   3   6
ATOM      6  C   UNL A   1      33.091  26.827  24.661  1.00  0.00     0.108 C 
ATOM      7  C   UNL A   1      33.144  26.810  26.229  1.00  0.00     0.040 C 
BRANCH   6   8
ATOM      8  C   UNL A   1      34.086  25.764  24.100  1.00  0.00     0.030 C 
ATOM      9  C   UNL A   1      34.755  24.815  25.100  1.00  0.00     0.006 C 
ENDBRANCH   6   8
BRANCH   6  10
ATOM     10  N   UNL A   1      31.685  26.388  24.452  1.00  0.00    -0.196 NA
ATOM     11  H   UNL A   1      31.157  26.993  25.080  1.00  0.00     0.142 HD
BRANCH  10  12
ATOM     12  S   UNL A   1      30.712  26.287  23.114  1.00  0.00     0.241 S 
ATOM     13  O   UNL A   1      31.561  25.961  21.989  1.00  0.00    -0.207 OA
ATOM     14  O   UNL A   1      29.671  25.365  23.509  1.00  0.00    -0.207 OA
BRANCH  12  15
ATOM     15  C   UNL A   1      29.908  27.839  22.750  1.00  0.00     0.082 A 
ATOM     16  C   UNL A   1      28.587  27.982  23.139  1.00  0.00     0.022 A 
ATOM     17  C   UNL A   1      30.601  28.997  22.391  1.00  0.00     0.022 A 
ATOM     18  C   UNL A   1      27.908  29.186  23.125  1.00  0.00     0.017 A 
ATOM     19  C   UNL A   1      29.939  30.253  22.415  1.00  0.00     0.017 A 
ATOM     20  C   UNL A   1      28.586  30.346  22.789  1.00  0.00     0.060 A 
BRANCH  20  21
ATOM     21  C   UNL A   1      27.797  31.592  22.959  1.00  0.00     0.337 C 
ATOM     22  O   UNL A   1      26.903  31.686  23.791  1.00  0.00    -0.246 OA
BRANCH  21  23
ATOM     23  O   UNL A   1      28.200  32.576  22.126  1.00  0.00    -0.465 OA
ATOM     24  C   UNL A   1      27.654  32.412  20.813  1.00  0.00     0.282 C 
ENDBRANCH  21  23
ENDBRANCH  20  21
ENDBRANCH  12  15
ENDBRANCH  10  12
ENDBRANCH   6  10
ENDBRANCH   3   6
ENDBRANCH   1   2
BRANCH   1  25
ATOM     25  C   UNL A   1      31.345  30.962  25.752  1.00  0.00     0.023 C 
BRANCH  25  26
ATOM     26  C   UNL A   1      31.277  32.363  26.373  1.00  0.00     0.023 C 
BRANCH  26  27
ATOM     27  C   UNL A   1      32.383  32.759  27.339  1.00  0.00     0.116 C 
BRANCH  27  28
ATOM     28  N   UNL A   1      32.319  34.182  27.625  1.00  0.00    -0.352 N 
ATOM     29  C   UNL A   1      32.950  34.901  28.608  1.00  0.00     0.251 C 
ATOM     30  H   UNL A   1      31.738  34.705  27.026  1.00  0.00     0.163 HD
ATOM     31  O   UNL A   1      32.527  36.017  28.900  1.00  0.00    -0.269 OA
BRANCH  29  32
ATOM     32  C   UNL A   1      34.144  34.369  29.308  1.00  0.00     0.039 A 
ATOM     33  C   UNL A   1      35.394  34.483  28.688  1.00  0.00     0.014 A 
ATOM     34  C   UNL A   1      34.029  33.660  30.507  1.00  0.00     0.014 A 
ATOM     35  C   UNL A   1      36.521  33.889  29.264  1.00  0.00     0.010 A 
ATOM     36  C   UNL A   1      35.162  33.114  31.111  1.00  0.00     0.010 A 
ATOM     37  C   UNL A   1      36.412  33.195  30.479  1.00  0.00    -0.014 A 
BRANCH  37  38
ATOM     38  C   UNL A   1      37.589  32.504  31.064  1.00  0.00     0.031 A 
ATOM     39  C   UNL A   1      38.183  32.994  32.358  1.00  0.00     0.074 A 
ATOM     40  C   UNL A   1      38.134  31.453  30.424  1.00  0.00     0.049 A 
ATOM     41  N   UNL A   1      39.208  32.529  33.028  1.00  0.00    -0.248 NA
ATOM     42  C   UNL A   1      37.554  34.175  32.969  1.00  0.00     0.031 C 
ATOM     43  C   UNL A   1      37.669  30.909  29.148  1.00  0.00     0.029 A 
ATOM     44  N   UNL A   1      39.198  30.654  30.760  1.00  0.00    -0.354 N 
ATOM     45  C   UNL A   1      39.352  33.366  34.129  1.00  0.00     0.074 A 
ATOM     46  C   UNL A   1      38.343  34.396  34.011  1.00  0.00     0.031 C 
ATOM     47  C   UNL A   1      38.426  29.849  28.821  1.00  0.00     0.029 A 
ATOM     48  C   UNL A   1      39.448  29.659  29.847  1.00  0.00     0.049 A 
ATOM     49  H   UNL A   1      39.732  30.783  31.577  1.00  0.00     0.167 HD
ATOM     50  C   UNL A   1      40.232  33.274  35.154  1.00  0.00     0.037 A 
ATOM     51  C   UNL A   1      40.393  28.700  29.842  1.00  0.00     0.037 A 
ATOM     52  C   UNL A   1      41.220  32.234  35.276  1.00  0.00     0.049 A 
ATOM     53  C   UNL A   1      41.362  28.620  30.990  1.00  0.00     0.074 A 
ATOM     54  C   UNL A   1      42.120  32.014  36.305  1.00  0.00     0.029 A 
ATOM     55  N   UNL A   1      41.440  31.242  34.332  1.00  0.00    -0.354 N 
ATOM     56  N   UNL A   1      41.440  29.375  32.060  1.00  0.00    -0.248 NA
ATOM     57  C   UNL A   1      42.369  27.551  30.933  1.00  0.00     0.031 C 
ATOM     58  C   UNL A   1      42.915  30.916  35.961  1.00  0.00     0.029 A 
ATOM     59  C   UNL A   1      42.477  30.421  34.742  1.00  0.00     0.049 A 
ATOM     60  H   UNL A   1      40.933  31.137  33.495  1.00  0.00     0.167 HD
ATOM     61  C   UNL A   1      42.483  28.856  32.817  1.00  0.00     0.074 A 
ATOM     62  C   UNL A   1      42.997  27.713  32.088  1.00  0.00     0.031 C 
ATOM     63  C   UNL A   1      42.972  29.285  34.006  1.00  0.00     0.037 A 
BRANCH  50  64
ATOM     64  C   UNL A   1      40.167  34.327  36.224  1.00  0.00     0.057 A 
ATOM     65  C   UNL A   1      39.340  34.190  37.348  1.00  0.00     0.134 A 
ATOM     66  C   UNL A   1      40.961  35.477  36.145  1.00  0.00     0.134 A 
ATOM     67  F   UNL A   1      38.546  33.117  37.482  1.00  0.00    -0.206 F 
ATOM     68  C   UNL A   1      39.286  35.171  38.339  1.00  0.00     0.040 A 
ATOM     69  C   UNL A   1      40.936  36.453  37.144  1.00  0.00     0.040 A 
ATOM     70  F   UNL A   1      41.782  35.669  35.102  1.00  0.00    -0.206 F 
ATOM     71  C   UNL A   1      40.091  36.305  38.242  1.00  0.00     0.006 A 
ENDBRANCH  50  64
BRANCH  51  72
ATOM     72  C   UNL A   1      40.449  27.718  28.729  1.00  0.00     0.057 A 
ATOM     73  C   UNL A   1      41.260  27.942  27.610  1.00  0.00     0.134 A 
ATOM     74  C   UNL A   1      39.694  26.539  28.753  1.00  0.00     0.134 A 
ATOM     75  F   UNL A   1      41.993  29.061  27.521  1.00  0.00    -0.206 F 
ATOM     76  C   UNL A   1      41.305  27.038  26.546  1.00  0.00     0.040 A 
ATOM     77  C   UNL A   1      39.747  25.615  27.708  1.00  0.00     0.040 A 
ATOM     78  F   UNL A   1      38.903  26.262  29.801  1.00  0.00    -0.206 F 
ATOM     79  C   UNL A   1      40.550  25.869  26.596  1.00  0.00     0.006 A 
ENDBRANCH  51  72
BRANCH  63  80
ATOM     80  C   UNL A   1      44.098  28.499  34.608  1.00  0.00     0.057 A 
ATOM     81  C   UNL A   1      43.868  27.390  35.432  1.00  0.00     0.134 A 
ATOM     82  C   UNL A   1      45.430  28.832  34.326  1.00  0.00     0.134 A 
ATOM     83  F   UNL A   1      42.617  27.027  35.750  1.00  0.00    -0.206 F 
ATOM     84  C   UNL A   1      44.924  26.654  35.974  1.00  0.00     0.040 A 
ATOM     85  C   UNL A   1      46.492  28.088  34.840  1.00  0.00     0.040 A 
ATOM     86  F   UNL A   1      45.718  29.877  33.536  1.00  0.00    -0.206 F 
ATOM     87  C   UNL A   1      46.240  26.998  35.671  1.00  0.00     0.006 A 
ENDBRANCH  63  80
ENDBRANCH  37  38
ENDBRANCH  29  32
ENDBRANCH  27  28
ENDBRANCH  26  27
ENDBRANCH  25  26
ENDBRANCH   1  25
TORSDOF 17
ENDMDL
MODEL 2
REMARK VINA RESULT:     -11.4      0.517      6.218
REMARK SMILES CC[C@](C)(NS(=O)(=O)c1ccc(C(=O)OC)cc1)C(=O)NCCCCNC(=O)c1ccc(-c2c3nc(c(-c4c(F)cccc4F)c4ccc([nH]4)c(-c4c(F)cccc4F)c4nc(c(-c5c(F)cccc5F)c5ccc2[nH]5)C=C4)C=C3)cc1
REMARK SMILES IDX 22 1 21 2 19 3 20 4 3 6 4 7 2 8 1 9 5 10 6 12 7 13 8 14 9 15
REMARK SMILES IDX 10 16 18 17 11 18 17 19 12 20 13 21 14 22 15 23 16 24 23 25
REMARK SMILES IDX 24 26 25 27 26 28 27 29 28 31 29 32 30 33 82 34 31 35 81 36
REMARK SMILES IDX 32 37 33 38 34 39 75 40 35 41 80 42 74 43 76 44 36 45 79 46
REMARK SMILES IDX 73 47 72 48 37 50 63 51 46 52 62 53 47 54 50 55 61 56 77 57
REMARK SMILES IDX 48 58 49 59 60 61 78 62 51 63 38 64 39 65 44 66 40 67 41 68
REMARK SMILES IDX 43 69 45 70 42 71 64 72 65 73 70 74 66 75 67 76 69 77 71 78
REMARK SMILES IDX 68 79 52 80 53 81 58 82 54 83 55 84 57 85 59 86 56 87
REMARK H PARENT 21 5 5 11 26 30 76 49 50 60
REMARK Flexibility Score: inf
ROOT
ATOM      1  C   UNL A   1      32.630  29.895  26.076  1.00  0.00     0.116 C 
ENDROOT
BRANCH   1   2
ATOM      2  N   UNL A   1      33.389  29.365  24.945  1.00  0.00    -0.354 N 
ATOM      3  C   UNL A   1      33.557  28.186  24.275  1.00  0.00     0.241 C 
ATOM      4  O   UNL A   1      34.214  28.320  23.227  1.00  0.00    -0.273 OA
ATOM      5  H   UNL A   1      33.947  30.071  24.546  1.00  0.00     0.163 HD
BRANCH   3   6
ATOM      6  C   UNL A   1      33.086  26.772  24.697  1.00  0.00     0.108 C 
ATOM      7  C   UNL A   1      33.137  26.717  26.264  1.00  0.00     0.040 C 
BRANCH   6   8
ATOM      8  C   UNL A   1      34.042  25.686  24.111  1.00  0.00     0.030 C 
ATOM      9  C   UNL A   1      34.768  24.767  25.100  1.00  0.00     0.006 C 
ENDBRANCH   6   8
BRANCH   6  10
ATOM     10  N   UNL A   1      31.666  26.390  24.477  1.00  0.00    -0.196 NA
ATOM     11  H   UNL A   1      31.157  27.023  25.094  1.00  0.00     0.142 HD
BRANCH  10  12
ATOM     12  S   UNL A   1      30.703  26.316  23.130  1.00  0.00     0.241 S 
ATOM     13  O   UNL A   1      31.559  26.000  22.007  1.00  0.00    -0.207 OA
ATOM     14  O   UNL A   1      29.652  25.396  23.503  1.00  0.00    -0.207 OA
BRANCH  12  15
ATOM     15  C   UNL A   1      29.914  27.880  22.782  1.00  0.00     0.082 A 
ATOM     16  C   UNL A   1      28.579  28.012  23.123  1.00  0.00     0.022 A 
ATOM     17  C   UNL A   1      30.621  29.047  22.486  1.00  0.00     0.022 A 
ATOM     18  C   UNL A   1      27.900  29.217  23.119  1.00  0.00     0.017 A 
ATOM     19  C   UNL A   1      29.958  30.303  22.523  1.00  0.00     0.017 A 
ATOM     20  C   UNL A   1      28.591  30.385  22.846  1.00  0.00     0.060 A 
BRANCH  20  21
ATOM     21  C   UNL A   1      27.797  31.627  23.023  1.00  0.00     0.337 C 
ATOM     22  O   UNL A   1      26.904  31.713  23.857  1.00  0.00    -0.246 OA
BRANCH  21  23
ATOM     23  O   UNL A   1      28.192  32.617  22.193  1.00  0.00    -0.465 OA
ATOM     24  C   UNL A   1      27.751  32.388  20.851  1.00  0.00     0.282 C 
ENDBRANCH  21  23
ENDBRANCH  20  21
ENDBRANCH  12  15
ENDBRANCH  10  12
ENDBRANCH   6  10
ENDBRANCH   3   6
ENDBRANCH   1   2
BRANCH   1  25
ATOM     25  C   UNL A   1      31.446  30.869  25.896  1.00  0.00     0.023 C 
BRANCH  25  26
ATOM     26  C   UNL A   1      31.372  32.277  26.503  1.00  0.00     0.023 C 
BRANCH  26  27
ATOM     27  C   UNL A   1      32.577  32.768  27.290  1.00  0.00     0.116 C 
BRANCH  27  28
ATOM     28  N   UNL A   1      32.465  34.193  27.548  1.00  0.00    -0.352 N 
ATOM     29  C   UNL A   1      33.000  34.937  28.569  1.00  0.00     0.251 C 
ATOM     30  H   UNL A   1      31.927  34.698  26.896  1.00  0.00     0.163 HD
ATOM     31  O   UNL A   1      32.535  36.049  28.809  1.00  0.00    -0.269 OA
BRANCH  29  32
ATOM     32  C   UNL A   1      34.142  34.436  29.373  1.00  0.00     0.039 A 
ATOM     33  C   UNL A   1      35.427  34.487  28.820  1.00  0.00     0.014 A 
ATOM     34  C   UNL A   1      33.944  33.815  30.609  1.00  0.00     0.014 A 
ATOM     35  C   UNL A   1      36.507  33.918  29.501  1.00  0.00     0.010 A 
ATOM     36  C   UNL A   1      35.030  33.294  31.314  1.00  0.00     0.010 A 
ATOM     37  C   UNL A   1      36.315  33.312  30.752  1.00  0.00    -0.014 A 
BRANCH  37  38
ATOM     38  C   UNL A   1      37.443  32.645  31.452  1.00  0.00     0.031 A 
ATOM     39  C   UNL A   1      38.139  31.474  30.811  1.00  0.00     0.074 A 
ATOM     40  C   UNL A   1      37.826  33.078  32.667  1.00  0.00     0.049 A 
ATOM     41  N   UNL A   1      39.139  30.757  31.259  1.00  0.00    -0.248 NA
ATOM     42  C   UNL A   1      37.628  31.037  29.501  1.00  0.00     0.031 C 
ATOM     43  C   UNL A   1      37.207  34.179  33.404  1.00  0.00     0.029 A 
ATOM     44  N   UNL A   1      38.829  32.643  33.496  1.00  0.00    -0.354 N 
ATOM     45  C   UNL A   1      39.368  29.782  30.295  1.00  0.00     0.074 A 
ATOM     46  C   UNL A   1      38.372  29.966  29.262  1.00  0.00     0.031 C 
ATOM     47  C   UNL A   1      37.859  34.352  34.564  1.00  0.00     0.029 A 
ATOM     48  C   UNL A   1      38.921  33.355  34.667  1.00  0.00     0.049 A 
ATOM     49  H   UNL A   1      39.424  31.891  33.274  1.00  0.00     0.167 HD
ATOM     50  C   UNL A   1      40.333  28.832  30.264  1.00  0.00     0.037 A 
ATOM     51  C   UNL A   1      39.769  33.219  35.704  1.00  0.00     0.037 A 
ATOM     52  C   UNL A   1      41.335  28.668  31.284  1.00  0.00     0.049 A 
ATOM     53  C   UNL A   1      40.830  32.155  35.647  1.00  0.00     0.074 A 
ATOM     54  C   UNL A   1      42.394  27.777  31.320  1.00  0.00     0.029 A 
ATOM     55  N   UNL A   1      41.397  29.411  32.454  1.00  0.00    -0.354 N 
ATOM     56  N   UNL A   1      41.081  31.286  34.696  1.00  0.00    -0.248 NA
ATOM     57  C   UNL A   1      41.731  32.055  36.804  1.00  0.00     0.031 C 
ATOM     58  C   UNL A   1      43.069  27.950  32.532  1.00  0.00     0.029 A 
ATOM     59  C   UNL A   1      42.462  28.983  33.229  1.00  0.00     0.049 A 
ATOM     60  H   UNL A   1      40.777  30.136  32.695  1.00  0.00     0.167 HD
ATOM     61  C   UNL A   1      42.183  30.558  35.126  1.00  0.00     0.074 A 
ATOM     62  C   UNL A   1      42.561  31.097  36.418  1.00  0.00     0.031 C 
ATOM     63  C   UNL A   1      42.825  29.536  34.510  1.00  0.00     0.037 A 
BRANCH  50  64
ATOM     64  C   UNL A   1      40.350  27.896  29.088  1.00  0.00     0.057 A 
ATOM     65  C   UNL A   1      41.101  28.167  27.936  1.00  0.00     0.134 A 
ATOM     66  C   UNL A   1      39.632  26.695  29.120  1.00  0.00     0.134 A 
ATOM     67  F   UNL A   1      41.805  29.305  27.835  1.00  0.00    -0.206 F 
ATOM     68  C   UNL A   1      41.113  27.293  26.848  1.00  0.00     0.040 A 
ATOM     69  C   UNL A   1      39.658  25.798  28.049  1.00  0.00     0.040 A 
ATOM     70  F   UNL A   1      38.898  26.367  30.194  1.00  0.00    -0.206 F 
ATOM     71  C   UNL A   1      40.395  26.100  26.906  1.00  0.00     0.006 A 
ENDBRANCH  50  64
BRANCH  51  72
ATOM     72  C   UNL A   1      39.673  34.136  36.868  1.00  0.00     0.057 A 
ATOM     73  C   UNL A   1      38.992  33.755  38.031  1.00  0.00     0.134 A 
ATOM     74  C   UNL A   1      40.251  35.411  36.848  1.00  0.00     0.134 A 
ATOM     75  F   UNL A   1      38.402  32.553  38.105  1.00  0.00    -0.206 F 
ATOM     76  C   UNL A   1      38.873  34.616  39.125  1.00  0.00     0.040 A 
ATOM     77  C   UNL A   1      40.160  36.272  37.943  1.00  0.00     0.040 A 
ATOM     78  F   UNL A   1      40.924  35.833  35.767  1.00  0.00    -0.206 F 
ATOM     79  C   UNL A   1      39.463  35.876  39.083  1.00  0.00     0.006 A 
ENDBRANCH  51  72
BRANCH  63  80
ATOM     80  C   UNL A   1      44.019  28.955  35.208  1.00  0.00     0.057 A 
ATOM     81  C   UNL A   1      43.896  27.933  36.157  1.00  0.00     0.134 A 
ATOM     82  C   UNL A   1      45.312  29.397  34.895  1.00  0.00     0.134 A 
ATOM     83  F   UNL A   1      42.686  27.474  36.510  1.00  0.00    -0.206 F 
ATOM     84  C   UNL A   1      45.016  27.387  36.788  1.00  0.00     0.040 A 
ATOM     85  C   UNL A   1      46.439  28.840  35.498  1.00  0.00     0.040 A 
ATOM     86  F   UNL A   1      45.499  30.367  33.987  1.00  0.00    -0.206 F 
ATOM     87  C   UNL A   1      46.292  27.835  36.453  1.00  0.00     0.006 A 
ENDBRANCH  63  80
ENDBRANCH  37  38
ENDBRANCH  29  32
ENDBRANCH  27  28
ENDBRANCH  26  27
ENDBRANCH  25  26
ENDBRANCH   1  25
TORSDOF 17
ENDMDL
MODEL 3
REMARK VINA RESULT:     -11.3      4.584      7.190
REMARK SMILES CC[C@](C)(NS(=O)(=O)c1ccc(C(=O)OC)cc1)C(=O)NCCCCNC(=O)c1ccc(-c2c3nc(c(-c4c(F)cccc4F)c4ccc([nH]4)c(-c4c(F)cccc4F)c4nc(c(-c5c(F)cccc5F)c5ccc2[nH]5)C=C4)C=C3)cc1
REMARK SMILES IDX 22 1 21 2 19 3 20 4 3 6 4 7 2 8 1 9 5 10 6 12 7 13 8 14 9 15
REMARK SMILES IDX 10 16 18 17 11 18 17 19 12 20 13 21 14 22 15 23 16 24 23 25
REMARK SMILES IDX 24 26 25 27 26 28 27 29 28 31 29 32 30 33 82 34 31 35 81 36
REMARK SMILES IDX 32 37 33 38 34 39 75 40 35 41 80 42 74 43 76 44 36 45 79 46
REMARK SMILES IDX 73 47 72 48 37 50 63 51 46 52 62 53 47 54 50 55 61 56 77 57
REMARK SMILES IDX 48 58 49 59 60 61 78 62 51 63 38 64 39 65 44 66 40 67 41 68
REMARK SMILES IDX 43 69 45 70 42 71 64 72 65 73 70 74 66 75 67 76 69 77 71 78
REMARK SMILES IDX 68 79 52 80 53 81 58 82 54 83 55 84 57 85 59 86 56 87
REMARK H PARENT 21 5 5 11 26 30 76 49 50 60
REMARK Flexibility Score: inf
ROOT
ATOM      1  C   UNL A   1      33.051  25.695  25.183  1.00  0.00     0.116 C 
ENDROOT
BRANCH   1   2
ATOM      2  N   UNL A   1      33.342  24.605  26.112  1.00  0.00    -0.354 N 
ATOM      3  C   UNL A   1      34.118  23.482  26.178  1.00  0.00     0.241 C 
ATOM      4  O   UNL A   1      34.131  22.974  27.313  1.00  0.00    -0.273 OA
ATOM      5  H   UNL A   1      32.822  24.713  26.941  1.00  0.00     0.163 HD
BRANCH   3   6
ATOM      6  C   UNL A   1      34.893  22.788  25.029  1.00  0.00     0.108 C 
ATOM      7  C   UNL A   1      35.413  21.416  25.586  1.00  0.00     0.040 C 
BRANCH   6   8
ATOM      8  C   UNL A   1      36.109  23.662  24.591  1.00  0.00     0.030 C 
ATOM      9  C   UNL A   1      37.338  23.684  25.507  1.00  0.00     0.006 C 
ENDBRANCH   6   8
BRANCH   6  10
ATOM     10  N   UNL A   1      34.139  22.308  23.840  1.00  0.00    -0.196 NA
ATOM     11  H   UNL A   1      34.730  21.560  23.477  1.00  0.00     0.142 HD
BRANCH  10  12
ATOM     12  S   UNL A   1      32.605  21.719  23.627  1.00  0.00     0.241 S 
ATOM     13  O   UNL A   1      31.728  22.482  24.488  1.00  0.00    -0.207 OA
ATOM     14  O   UNL A   1      32.410  21.764  22.195  1.00  0.00    -0.207 OA
BRANCH  12  15
ATOM     15  C   UNL A   1      32.472  20.004  24.106  1.00  0.00     0.082 A 
ATOM     16  C   UNL A   1      32.679  19.048  23.126  1.00  0.00     0.022 A 
ATOM     17  C   UNL A   1      32.485  19.575  25.435  1.00  0.00     0.022 A 
ATOM     18  C   UNL A   1      32.827  17.698  23.388  1.00  0.00     0.017 A 
ATOM     19  C   UNL A   1      32.683  18.200  25.732  1.00  0.00     0.017 A 
ATOM     20  C   UNL A   1      32.859  17.260  24.701  1.00  0.00     0.060 A 
BRANCH  20  21
ATOM     21  C   UNL A   1      33.177  15.818  24.861  1.00  0.00     0.337 C 
ATOM     22  O   UNL A   1      32.382  15.030  25.357  1.00  0.00    -0.246 OA
BRANCH  21  23
ATOM     23  O   UNL A   1      34.400  15.502  24.383  1.00  0.00    -0.465 OA
ATOM     24  C   UNL A   1      35.430  15.794  25.333  1.00  0.00     0.282 C 
ENDBRANCH  21  23
ENDBRANCH  20  21
ENDBRANCH  12  15
ENDBRANCH  10  12
ENDBRANCH   6  10
ENDBRANCH   3   6
ENDBRANCH   1   2
BRANCH   1  25
ATOM     25  C   UNL A   1      33.646  27.109  25.353  1.00  0.00     0.023 C 
BRANCH  25  26
ATOM     26  C   UNL A   1      32.971  28.256  26.117  1.00  0.00     0.023 C 
BRANCH  26  27
ATOM     27  C   UNL A   1      33.467  28.550  27.525  1.00  0.00     0.116 C 
BRANCH  27  28
ATOM     28  N   UNL A   1      33.583  29.984  27.730  1.00  0.00    -0.352 N 
ATOM     29  C   UNL A   1      34.608  30.703  28.290  1.00  0.00     0.251 C 
ATOM     30  H   UNL A   1      32.814  30.516  27.421  1.00  0.00     0.163 HD
ATOM     31  O   UNL A   1      34.396  31.850  28.676  1.00  0.00    -0.269 OA
BRANCH  29  32
ATOM     32  C   UNL A   1      35.971  30.132  28.418  1.00  0.00     0.039 A 
ATOM     33  C   UNL A   1      36.371  29.617  29.657  1.00  0.00     0.014 A 
ATOM     34  C   UNL A   1      36.892  30.205  27.369  1.00  0.00     0.014 A 
ATOM     35  C   UNL A   1      37.685  29.179  29.844  1.00  0.00     0.010 A 
ATOM     36  C   UNL A   1      38.189  29.718  27.540  1.00  0.00     0.010 A 
ATOM     37  C   UNL A   1      38.606  29.231  28.787  1.00  0.00    -0.014 A 
BRANCH  37  38
ATOM     38  C   UNL A   1      40.021  28.832  28.995  1.00  0.00     0.031 A 
ATOM     39  C   UNL A   1      40.980  29.780  29.665  1.00  0.00     0.074 A 
ATOM     40  C   UNL A   1      40.448  27.630  28.565  1.00  0.00     0.049 A 
ATOM     41  N   UNL A   1      42.251  29.620  29.936  1.00  0.00    -0.248 NA
ATOM     42  C   UNL A   1      40.443  31.091  30.064  1.00  0.00     0.031 C 
ATOM     43  C   UNL A   1      39.622  26.641  27.873  1.00  0.00     0.029 A 
ATOM     44  N   UNL A   1      41.682  27.036  28.648  1.00  0.00    -0.354 N 
ATOM     45  C   UNL A   1      42.666  30.809  30.525  1.00  0.00     0.074 A 
ATOM     46  C   UNL A   1      41.526  31.700  30.526  1.00  0.00     0.031 C 
ATOM     47  C   UNL A   1      40.365  25.552  27.617  1.00  0.00     0.029 A 
ATOM     48  C   UNL A   1      41.724  25.778  28.098  1.00  0.00     0.049 A 
ATOM     49  H   UNL A   1      42.462  27.471  29.061  1.00  0.00     0.167 HD
ATOM     50  C   UNL A   1      43.881  31.123  31.035  1.00  0.00     0.037 A 
ATOM     51  C   UNL A   1      42.745  24.907  27.998  1.00  0.00     0.037 A 
ATOM     52  C   UNL A   1      45.005  30.224  31.050  1.00  0.00     0.049 A 
ATOM     53  C   UNL A   1      44.086  25.279  28.570  1.00  0.00     0.074 A 
ATOM     54  C   UNL A   1      46.261  30.421  31.597  1.00  0.00     0.029 A 
ATOM     55  N   UNL A   1      45.008  28.957  30.486  1.00  0.00    -0.354 N 
ATOM     56  N   UNL A   1      44.444  26.380  29.188  1.00  0.00    -0.248 NA
ATOM     57  C   UNL A   1      45.162  24.288  28.436  1.00  0.00     0.031 C 
ATOM     58  C   UNL A   1      47.038  29.292  31.323  1.00  0.00     0.029 A 
ATOM     59  C   UNL A   1      46.251  28.370  30.650  1.00  0.00     0.049 A 
ATOM     60  H   UNL A   1      44.239  28.538  30.037  1.00  0.00     0.167 HD
ATOM     61  C   UNL A   1      45.776  26.201  29.542  1.00  0.00     0.074 A 
ATOM     62  C   UNL A   1      46.156  24.881  29.081  1.00  0.00     0.031 C 
ATOM     63  C   UNL A   1      46.609  27.052  30.189  1.00  0.00     0.037 A 
BRANCH  50  64
ATOM     64  C   UNL A   1      44.056  32.497  31.618  1.00  0.00     0.057 A 
ATOM     65  C   UNL A   1      43.806  32.765  32.971  1.00  0.00     0.134 A 
ATOM     66  C   UNL A   1      44.510  33.558  30.825  1.00  0.00     0.134 A 
ATOM     67  F   UNL A   1      43.360  31.796  33.785  1.00  0.00    -0.206 F 
ATOM     68  C   UNL A   1      43.972  34.043  33.506  1.00  0.00     0.040 A 
ATOM     69  C   UNL A   1      44.706  34.836  31.355  1.00  0.00     0.040 A 
ATOM     70  F   UNL A   1      44.777  33.372  29.524  1.00  0.00    -0.206 F 
ATOM     71  C   UNL A   1      44.431  35.082  32.699  1.00  0.00     0.006 A 
ENDBRANCH  50  64
BRANCH  51  72
ATOM     72  C   UNL A   1      42.532  23.582  27.361  1.00  0.00     0.057 A 
ATOM     73  C   UNL A   1      42.128  22.475  28.116  1.00  0.00     0.134 A 
ATOM     74  C   UNL A   1      42.730  23.388  25.988  1.00  0.00     0.134 A 
ATOM     75  F   UNL A   1      41.938  22.593  29.439  1.00  0.00    -0.206 F 
ATOM     76  C   UNL A   1      41.945  21.219  27.535  1.00  0.00     0.040 A 
ATOM     77  C   UNL A   1      42.528  22.143  25.389  1.00  0.00     0.040 A 
ATOM     78  F   UNL A   1      43.110  24.410  25.207  1.00  0.00    -0.206 F 
ATOM     79  C   UNL A   1      42.141  21.052  26.166  1.00  0.00     0.006 A 
ENDBRANCH  51  72
BRANCH  63  80
ATOM     80  C   UNL A   1      48.002  26.570  30.465  1.00  0.00     0.057 A 
ATOM     81  C   UNL A   1      48.323  25.862  31.629  1.00  0.00     0.134 A 
ATOM     82  C   UNL A   1      49.027  26.783  29.533  1.00  0.00     0.134 A 
ATOM     83  F   UNL A   1      47.390  25.636  32.566  1.00  0.00    -0.206 F 
ATOM     84  C   UNL A   1      49.620  25.402  31.868  1.00  0.00     0.040 A 
ATOM     85  C   UNL A   1      50.319  26.306  29.748  1.00  0.00     0.040 A 
ATOM     86  F   UNL A   1      48.784  27.447  28.392  1.00  0.00    -0.206 F 
ATOM     87  C   UNL A   1      50.620  25.617  30.922  1.00  0.00     0.006 A 
ENDBRANCH  63  80
ENDBRANCH  37  38
ENDBRANCH  29  32
ENDBRANCH  27  28
ENDBRANCH  26  27
ENDBRANCH  25  26
ENDBRANCH   1  25
TORSDOF 17
ENDMDL
