MODEL 1
REMARK VINA RESULT:     -11.0      0.000      0.000
REMARK SMILES O=C(C[C@H]1C[C@H]2CC[C@@H](C1)N2C(=O)NCCC1CC1)NCCCCNC(=O)c1ccc(-c2c3nc(c(-c4c(F)cccc4F)c4ccc([nH]4)c(-c4c(F)cccc4F)c4nc(c(-c5c(F)cccc5F)c5ccc2[nH]5)C=C4)C=C3)cc1
REMARK SMILES IDX 21 1 20 2 1 3 2 4 3 6 4 7 5 8 10 9 6 10 9 11 7 12 11 13 8 14
REMARK SMILES IDX 12 15 13 16 14 17 15 19 16 20 17 21 18 22 19 23 22 24 23 25
REMARK SMILES IDX 24 26 25 27 26 28 27 30 28 31 29 32 81 33 30 34 80 35 31 36
REMARK SMILES IDX 32 37 33 38 74 39 34 40 79 41 73 42 75 43 35 44 78 45 72 46
REMARK SMILES IDX 71 47 36 49 62 50 45 51 61 52 46 53 49 54 60 55 76 56 47 57
REMARK SMILES IDX 48 58 59 60 77 61 50 62 37 63 38 64 43 65 39 66 40 67 42 68
REMARK SMILES IDX 44 69 41 70 63 71 64 72 69 73 65 74 66 75 68 76 70 77 67 78
REMARK SMILES IDX 51 79 52 80 57 81 53 82 54 83 56 84 58 85 55 86
REMARK H PARENT 20 5 14 18 25 29 75 48 49 59
REMARK Flexibility Score: inf
ROOT
ATOM      1  C   UNL A   1      34.521  32.705  29.443  1.00  0.00     0.116 C 
ENDROOT
BRANCH   1   2
ATOM      2  N   UNL A   1      34.044  31.696  28.492  1.00  0.00    -0.356 N 
ATOM      3  O   UNL A   1      36.135  30.859  28.049  1.00  0.00    -0.275 OA
ATOM      4  C   UNL A   1      34.915  30.745  27.971  1.00  0.00     0.220 C 
ATOM      5  H   UNL A   1      33.099  31.693  28.220  1.00  0.00     0.163 HD
BRANCH   4   6
ATOM      6  C   UNL A   1      34.279  29.514  27.319  1.00  0.00     0.103 C 
BRANCH   6   7
ATOM      7  C   UNL A   1      32.775  29.500  26.872  1.00  0.00     0.002 C 
ATOM      8  C   UNL A   1      32.387  29.675  25.381  1.00  0.00     0.029 C 
ATOM      9  C   UNL A   1      31.960  28.357  27.482  1.00  0.00     0.029 C 
ATOM     10  C   UNL A   1      32.013  28.372  24.620  1.00  0.00     0.087 C 
ATOM     11  C   UNL A   1      31.752  27.158  26.555  1.00  0.00     0.087 C 
ATOM     12  C   UNL A   1      33.216  27.436  24.608  1.00  0.00     0.027 C 
ATOM     13  N   UNL A   1      31.064  27.514  25.350  1.00  0.00    -0.319 N 
ATOM     14  C   UNL A   1      33.027  26.639  25.915  1.00  0.00     0.027 C 
BRANCH  13  15
ATOM     15  C   UNL A   1      30.290  26.650  24.605  1.00  0.00     0.317 C 
ATOM     16  O   UNL A   1      30.102  25.483  24.960  1.00  0.00    -0.249 OA
ATOM     17  N   UNL A   1      29.597  27.052  23.508  1.00  0.00    -0.338 N 
ATOM     18  H   UNL A   1      29.154  26.289  23.071  1.00  0.00     0.165 HD
BRANCH  17  19
ATOM     19  C   UNL A   1      29.324  28.297  22.792  1.00  0.00     0.118 C 
BRANCH  19  20
ATOM     20  C   UNL A   1      27.931  28.864  23.034  1.00  0.00     0.025 C 
BRANCH  20  21
ATOM     21  C   UNL A   1      27.849  30.314  22.660  1.00  0.00    -0.009 C 
ATOM     22  C   UNL A   1      27.452  31.315  23.711  1.00  0.00     0.004 C 
ATOM     23  C   UNL A   1      28.860  31.292  23.187  1.00  0.00     0.004 C 
ENDBRANCH  20  21
ENDBRANCH  19  20
ENDBRANCH  17  19
ENDBRANCH  13  15
ENDBRANCH   6   7
ENDBRANCH   4   6
ENDBRANCH   1   2
BRANCH   1  24
ATOM     24  C   UNL A   1      34.701  34.141  28.901  1.00  0.00     0.023 C 
BRANCH  24  25
ATOM     25  C   UNL A   1      33.464  35.031  28.649  1.00  0.00     0.023 C 
BRANCH  25  26
ATOM     26  C   UNL A   1      33.249  36.256  29.559  1.00  0.00     0.116 C 
BRANCH  26  27
ATOM     27  N   UNL A   1      32.354  36.046  30.678  1.00  0.00    -0.352 N 
ATOM     28  C   UNL A   1      32.555  35.530  31.940  1.00  0.00     0.251 C 
ATOM     29  H   UNL A   1      31.425  36.325  30.504  1.00  0.00     0.163 HD
ATOM     30  O   UNL A   1      31.601  35.506  32.714  1.00  0.00    -0.269 OA
BRANCH  28  31
ATOM     31  C   UNL A   1      33.848  34.947  32.399  1.00  0.00     0.039 A 
ATOM     32  C   UNL A   1      33.803  33.683  33.007  1.00  0.00     0.014 A 
ATOM     33  C   UNL A   1      35.072  35.616  32.351  1.00  0.00     0.014 A 
ATOM     34  C   UNL A   1      34.972  33.061  33.472  1.00  0.00     0.010 A 
ATOM     35  C   UNL A   1      36.248  34.973  32.788  1.00  0.00     0.010 A 
ATOM     36  C   UNL A   1      36.223  33.675  33.323  1.00  0.00    -0.014 A 
BRANCH  36  37
ATOM     37  C   UNL A   1      37.484  32.950  33.678  1.00  0.00     0.031 A 
ATOM     38  C   UNL A   1      38.070  31.891  32.776  1.00  0.00     0.074 A 
ATOM     39  C   UNL A   1      38.104  33.215  34.848  1.00  0.00     0.049 A 
ATOM     40  N   UNL A   1      39.145  31.158  32.949  1.00  0.00    -0.248 NA
ATOM     41  C   UNL A   1      37.347  31.606  31.530  1.00  0.00     0.031 C 
ATOM     42  C   UNL A   1      37.642  34.178  35.849  1.00  0.00     0.029 A 
ATOM     43  N   UNL A   1      39.255  32.699  35.399  1.00  0.00    -0.354 N 
ATOM     44  C   UNL A   1      39.224  30.324  31.838  1.00  0.00     0.074 A 
ATOM     45  C   UNL A   1      38.058  30.605  31.026  1.00  0.00     0.031 C 
ATOM     46  C   UNL A   1      38.511  34.206  36.871  1.00  0.00     0.029 A 
ATOM     47  C   UNL A   1      39.573  33.235  36.626  1.00  0.00     0.049 A 
ATOM     48  H   UNL A   1      39.802  32.009  34.956  1.00  0.00     0.167 HD
ATOM     49  C   UNL A   1      40.185  29.426  31.507  1.00  0.00     0.037 A 
ATOM     50  C   UNL A   1      40.595  32.978  37.468  1.00  0.00     0.037 A 
ATOM     51  C   UNL A   1      41.358  29.145  32.299  1.00  0.00     0.049 A 
ATOM     52  C   UNL A   1      41.637  31.960  37.090  1.00  0.00     0.074 A 
ATOM     53  C   UNL A   1      42.405  28.284  32.012  1.00  0.00     0.029 A 
ATOM     54  N   UNL A   1      41.637  29.709  33.534  1.00  0.00    -0.354 N 
ATOM     55  N   UNL A   1      41.727  31.232  36.005  1.00  0.00    -0.248 NA
ATOM     56  C   UNL A   1      42.724  31.731  38.055  1.00  0.00     0.031 C 
ATOM     57  C   UNL A   1      43.291  28.290  33.096  1.00  0.00     0.029 A 
ATOM     58  C   UNL A   1      42.825  29.197  34.032  1.00  0.00     0.049 A 
ATOM     59  H   UNL A   1      41.074  30.376  33.990  1.00  0.00     0.167 HD
ATOM     60  C   UNL A   1      42.889  30.484  36.142  1.00  0.00     0.074 A 
ATOM     61  C   UNL A   1      43.481  30.856  37.410  1.00  0.00     0.031 C 
ATOM     62  C   UNL A   1      43.417  29.570  35.291  1.00  0.00     0.037 A 
BRANCH  49  63
ATOM     63  C   UNL A   1      40.014  28.671  30.217  1.00  0.00     0.057 A 
ATOM     64  C   UNL A   1      40.623  29.094  29.029  1.00  0.00     0.134 A 
ATOM     65  C   UNL A   1      39.269  27.485  30.173  1.00  0.00     0.134 A 
ATOM     66  F   UNL A   1      41.347  30.223  28.999  1.00  0.00    -0.206 F 
ATOM     67  C   UNL A   1      40.471  28.383  27.836  1.00  0.00     0.040 A 
ATOM     68  C   UNL A   1      39.135  26.749  28.994  1.00  0.00     0.040 A 
ATOM     69  F   UNL A   1      38.673  27.013  31.278  1.00  0.00    -0.206 F 
ATOM     70  C   UNL A   1      39.730  27.204  27.819  1.00  0.00     0.006 A 
ENDBRANCH  49  63
BRANCH  50  71
ATOM     71  C   UNL A   1      40.695  33.705  38.761  1.00  0.00     0.057 A 
ATOM     72  C   UNL A   1      39.928  33.327  39.869  1.00  0.00     0.134 A 
ATOM     73  C   UNL A   1      41.546  34.808  38.914  1.00  0.00     0.134 A 
ATOM     74  F   UNL A   1      39.077  32.294  39.780  1.00  0.00    -0.206 F 
ATOM     75  C   UNL A   1      39.986  34.028  41.074  1.00  0.00     0.040 A 
ATOM     76  C   UNL A   1      41.635  35.502  40.122  1.00  0.00     0.040 A 
ATOM     77  F   UNL A   1      42.311  35.219  37.893  1.00  0.00    -0.206 F 
ATOM     78  C   UNL A   1      40.847  35.116  41.205  1.00  0.00     0.006 A 
ENDBRANCH  50  71
BRANCH  62  79
ATOM     79  C   UNL A   1      44.719  28.930  35.681  1.00  0.00     0.057 A 
ATOM     80  C   UNL A   1      44.772  27.747  36.432  1.00  0.00     0.134 A 
ATOM     81  C   UNL A   1      45.939  29.483  35.269  1.00  0.00     0.134 A 
ATOM     82  F   UNL A   1      43.643  27.171  36.871  1.00  0.00    -0.206 F 
ATOM     83  C   UNL A   1      45.988  27.153  36.778  1.00  0.00     0.040 A 
ATOM     84  C   UNL A   1      47.159  28.885  35.584  1.00  0.00     0.040 A 
ATOM     85  F   UNL A   1      45.963  30.611  34.541  1.00  0.00    -0.206 F 
ATOM     86  C   UNL A   1      47.187  27.719  36.346  1.00  0.00     0.006 A 
ENDBRANCH  62  79
ENDBRANCH  36  37
ENDBRANCH  28  31
ENDBRANCH  26  27
ENDBRANCH  25  26
ENDBRANCH  24  25
ENDBRANCH   1  24
TORSDOF 16
ENDMDL
MODEL 2
REMARK VINA RESULT:     -10.9      4.705      8.539
REMARK SMILES O=C(C[C@H]1C[C@H]2CC[C@@H](C1)N2C(=O)NCCC1CC1)NCCCCNC(=O)c1ccc(-c2c3nc(c(-c4c(F)cccc4F)c4ccc([nH]4)c(-c4c(F)cccc4F)c4nc(c(-c5c(F)cccc5F)c5ccc2[nH]5)C=C4)C=C3)cc1
REMARK SMILES IDX 21 1 20 2 1 3 2 4 3 6 4 7 5 8 10 9 6 10 9 11 7 12 11 13 8 14
REMARK SMILES IDX 12 15 13 16 14 17 15 19 16 20 17 21 18 22 19 23 22 24 23 25
REMARK SMILES IDX 24 26 25 27 26 28 27 30 28 31 29 32 81 33 30 34 80 35 31 36
REMARK SMILES IDX 32 37 33 38 74 39 34 40 79 41 73 42 75 43 35 44 78 45 72 46
REMARK SMILES IDX 71 47 36 49 62 50 45 51 61 52 46 53 49 54 60 55 76 56 47 57
REMARK SMILES IDX 48 58 59 60 77 61 50 62 37 63 38 64 43 65 39 66 40 67 42 68
REMARK SMILES IDX 44 69 41 70 63 71 64 72 69 73 65 74 66 75 68 76 70 77 67 78
REMARK SMILES IDX 51 79 52 80 57 81 53 82 54 83 56 84 58 85 55 86
REMARK H PARENT 20 5 14 18 25 29 75 48 49 59
REMARK Flexibility Score: inf
ROOT
ATOM      1  C   UNL A   1      35.474  32.956  28.043  1.00  0.00     0.116 C 
ENDROOT
BRANCH   1   2
ATOM      2  N   UNL A   1      34.650  31.785  27.728  1.00  0.00    -0.356 N 
ATOM      3  O   UNL A   1      36.437  30.368  27.469  1.00  0.00    -0.275 OA
ATOM      4  C   UNL A   1      35.227  30.525  27.601  1.00  0.00     0.220 C 
ATOM      5  H   UNL A   1      33.680  31.892  27.605  1.00  0.00     0.163 HD
BRANCH   4   6
ATOM      6  C   UNL A   1      34.279  29.325  27.670  1.00  0.00     0.103 C 
BRANCH   6   7
ATOM      7  C   UNL A   1      32.835  29.376  27.058  1.00  0.00     0.002 C 
ATOM      8  C   UNL A   1      32.619  29.665  25.550  1.00  0.00     0.029 C 
ATOM      9  C   UNL A   1      31.940  28.212  27.489  1.00  0.00     0.029 C 
ATOM     10  C   UNL A   1      32.315  28.428  24.659  1.00  0.00     0.087 C 
ATOM     11  C   UNL A   1      31.820  27.086  26.460  1.00  0.00     0.087 C 
ATOM     12  C   UNL A   1      33.498  27.468  24.713  1.00  0.00     0.027 C 
ATOM     13  N   UNL A   1      31.278  27.542  25.215  1.00  0.00    -0.319 N 
ATOM     14  C   UNL A   1      33.151  26.585  25.930  1.00  0.00     0.027 C 
BRANCH  13  15
ATOM     15  C   UNL A   1      30.580  26.750  24.327  1.00  0.00     0.317 C 
ATOM     16  O   UNL A   1      30.509  25.527  24.472  1.00  0.00    -0.249 OA
ATOM     17  N   UNL A   1      29.838  27.268  23.315  1.00  0.00    -0.338 N 
ATOM     18  H   UNL A   1      29.464  26.554  22.749  1.00  0.00     0.165 HD
BRANCH  17  19
ATOM     19  C   UNL A   1      29.438  28.586  22.826  1.00  0.00     0.118 C 
BRANCH  19  20
ATOM     20  C   UNL A   1      27.966  28.913  23.044  1.00  0.00     0.025 C 
BRANCH  20  21
ATOM     21  C   UNL A   1      27.631  30.301  22.584  1.00  0.00    -0.009 C 
ATOM     22  C   UNL A   1      27.581  31.411  23.599  1.00  0.00     0.004 C 
ATOM     23  C   UNL A   1      28.683  31.373  22.578  1.00  0.00     0.004 C 
ENDBRANCH  20  21
ENDBRANCH  19  20
ENDBRANCH  17  19
ENDBRANCH  13  15
ENDBRANCH   6   7
ENDBRANCH   4   6
ENDBRANCH   1   2
BRANCH   1  24
ATOM     24  C   UNL A   1      34.768  34.132  28.753  1.00  0.00     0.023 C 
BRANCH  24  25
ATOM     25  C   UNL A   1      34.451  34.046  30.262  1.00  0.00     0.023 C 
BRANCH  25  26
ATOM     26  C   UNL A   1      34.556  32.673  30.952  1.00  0.00     0.116 C 
BRANCH  26  27
ATOM     27  N   UNL A   1      34.952  32.708  32.345  1.00  0.00    -0.352 N 
ATOM     28  C   UNL A   1      36.123  32.361  32.983  1.00  0.00     0.251 C 
ATOM     29  H   UNL A   1      34.251  33.042  32.951  1.00  0.00     0.163 HD
ATOM     30  O   UNL A   1      36.194  32.534  34.198  1.00  0.00    -0.269 OA
BRANCH  28  31
ATOM     31  C   UNL A   1      37.287  31.733  32.293  1.00  0.00     0.039 A 
ATOM     32  C   UNL A   1      37.318  31.803  30.893  1.00  0.00     0.014 A 
ATOM     33  C   UNL A   1      38.284  31.004  32.943  1.00  0.00     0.014 A 
ATOM     34  C   UNL A   1      38.374  31.236  30.162  1.00  0.00     0.010 A 
ATOM     35  C   UNL A   1      39.361  30.466  32.209  1.00  0.00     0.010 A 
ATOM     36  C   UNL A   1      39.441  30.602  30.813  1.00  0.00    -0.014 A 
BRANCH  36  37
ATOM     37  C   UNL A   1      40.641  30.134  30.050  1.00  0.00     0.031 A 
ATOM     38  C   UNL A   1      41.801  31.053  29.753  1.00  0.00     0.074 A 
ATOM     39  C   UNL A   1      40.684  28.869  29.577  1.00  0.00     0.049 A 
ATOM     40  N   UNL A   1      42.905  30.806  29.088  1.00  0.00    -0.248 NA
ATOM     41  C   UNL A   1      41.701  32.430  30.253  1.00  0.00     0.031 C 
ATOM     42  C   UNL A   1      39.626  27.871  29.740  1.00  0.00     0.029 A 
ATOM     43  N   UNL A   1      41.653  28.203  28.861  1.00  0.00    -0.354 N 
ATOM     44  C   UNL A   1      43.627  31.995  29.086  1.00  0.00     0.074 A 
ATOM     45  C   UNL A   1      42.809  32.976  29.769  1.00  0.00     0.031 C 
ATOM     46  C   UNL A   1      40.012  26.718  29.171  1.00  0.00     0.029 A 
ATOM     47  C   UNL A   1      41.328  26.900  28.564  1.00  0.00     0.049 A 
ATOM     48  H   UNL A   1      42.501  28.622  28.585  1.00  0.00     0.167 HD
ATOM     49  C   UNL A   1      44.862  32.247  28.586  1.00  0.00     0.037 A 
ATOM     50  C   UNL A   1      42.000  25.952  27.878  1.00  0.00     0.037 A 
ATOM     51  C   UNL A   1      45.692  31.277  27.914  1.00  0.00     0.049 A 
ATOM     52  C   UNL A   1      43.359  26.262  27.312  1.00  0.00     0.074 A 
ATOM     53  C   UNL A   1      46.977  31.438  27.420  1.00  0.00     0.029 A 
ATOM     54  N   UNL A   1      45.322  29.971  27.635  1.00  0.00    -0.354 N 
ATOM     55  N   UNL A   1      44.050  27.373  27.380  1.00  0.00    -0.248 NA
ATOM     56  C   UNL A   1      44.035  25.181  26.577  1.00  0.00     0.031 C 
ATOM     57  C   UNL A   1      47.363  30.245  26.797  1.00  0.00     0.029 A 
ATOM     58  C   UNL A   1      46.342  29.324  26.954  1.00  0.00     0.049 A 
ATOM     59  H   UNL A   1      44.461  29.563  27.884  1.00  0.00     0.167 HD
ATOM     60  C   UNL A   1      45.248  27.118  26.725  1.00  0.00     0.074 A 
ATOM     61  C   UNL A   1      45.198  25.742  26.279  1.00  0.00     0.031 C 
ATOM     62  C   UNL A   1      46.295  27.953  26.514  1.00  0.00     0.037 A 
BRANCH  49  63
ATOM     63  C   UNL A   1      45.404  33.641  28.748  1.00  0.00     0.057 A 
ATOM     64  C   UNL A   1      46.185  34.004  29.852  1.00  0.00     0.134 A 
ATOM     65  C   UNL A   1      45.181  34.616  27.767  1.00  0.00     0.134 A 
ATOM     66  F   UNL A   1      46.434  33.121  30.830  1.00  0.00    -0.206 F 
ATOM     67  C   UNL A   1      46.697  35.296  29.993  1.00  0.00     0.040 A 
ATOM     68  C   UNL A   1      45.713  35.902  27.881  1.00  0.00     0.040 A 
ATOM     69  F   UNL A   1      44.458  34.332  26.674  1.00  0.00    -0.206 F 
ATOM     70  C   UNL A   1      46.466  36.248  29.002  1.00  0.00     0.006 A 
ENDBRANCH  49  63
BRANCH  50  71
ATOM     71  C   UNL A   1      41.401  24.604  27.691  1.00  0.00     0.057 A 
ATOM     72  C   UNL A   1      41.835  23.505  28.442  1.00  0.00     0.134 A 
ATOM     73  C   UNL A   1      40.396  24.378  26.742  1.00  0.00     0.134 A 
ATOM     74  F   UNL A   1      42.811  23.652  29.349  1.00  0.00    -0.206 F 
ATOM     75  C   UNL A   1      41.307  22.228  28.245  1.00  0.00     0.040 A 
ATOM     76  C   UNL A   1      39.839  23.112  26.553  1.00  0.00     0.040 A 
ATOM     77  F   UNL A   1      39.932  25.388  25.993  1.00  0.00    -0.206 F 
ATOM     78  C   UNL A   1      40.301  22.031  27.301  1.00  0.00     0.006 A 
ENDBRANCH  50  71
BRANCH  62  79
ATOM     79  C   UNL A   1      47.493  27.396  25.797  1.00  0.00     0.057 A 
ATOM     80  C   UNL A   1      48.539  26.759  26.479  1.00  0.00     0.134 A 
ATOM     81  C   UNL A   1      47.585  27.465  24.401  1.00  0.00     0.134 A 
ATOM     82  F   UNL A   1      48.522  26.669  27.817  1.00  0.00    -0.206 F 
ATOM     83  C   UNL A   1      49.641  26.233  25.801  1.00  0.00     0.040 A 
ATOM     84  C   UNL A   1      48.667  26.919  23.710  1.00  0.00     0.040 A 
ATOM     85  F   UNL A   1      46.616  28.054  23.683  1.00  0.00    -0.206 F 
ATOM     86  C   UNL A   1      49.703  26.305  24.411  1.00  0.00     0.006 A 
ENDBRANCH  62  79
ENDBRANCH  36  37
ENDBRANCH  28  31
ENDBRANCH  26  27
ENDBRANCH  25  26
ENDBRANCH  24  25
ENDBRANCH   1  24
TORSDOF 16
ENDMDL
MODEL 3
REMARK VINA RESULT:     -10.8      0.535      6.258
REMARK SMILES O=C(C[C@H]1C[C@H]2CC[C@@H](C1)N2C(=O)NCCC1CC1)NCCCCNC(=O)c1ccc(-c2c3nc(c(-c4c(F)cccc4F)c4ccc([nH]4)c(-c4c(F)cccc4F)c4nc(c(-c5c(F)cccc5F)c5ccc2[nH]5)C=C4)C=C3)cc1
REMARK SMILES IDX 21 1 20 2 1 3 2 4 3 6 4 7 5 8 10 9 6 10 9 11 7 12 11 13 8 14
REMARK SMILES IDX 12 15 13 16 14 17 15 19 16 20 17 21 18 22 19 23 22 24 23 25
REMARK SMILES IDX 24 26 25 27 26 28 27 30 28 31 29 32 81 33 30 34 80 35 31 36
REMARK SMILES IDX 32 37 33 38 74 39 34 40 79 41 73 42 75 43 35 44 78 45 72 46
REMARK SMILES IDX 71 47 36 49 62 50 45 51 61 52 46 53 49 54 60 55 76 56 47 57
REMARK SMILES IDX 48 58 59 60 77 61 50 62 37 63 38 64 43 65 39 66 40 67 42 68
REMARK SMILES IDX 44 69 41 70 63 71 64 72 69 73 65 74 66 75 68 76 70 77 67 78
REMARK SMILES IDX 51 79 52 80 57 81 53 82 54 83 56 84 58 85 55 86
REMARK H PARENT 20 5 14 18 25 29 75 48 49 59
REMARK Flexibility Score: inf
ROOT
ATOM      1  C   UNL A   1      34.396  32.760  29.266  1.00  0.00     0.116 C 
ENDROOT
BRANCH   1   2
ATOM      2  N   UNL A   1      33.881  31.718  28.373  1.00  0.00    -0.356 N 
ATOM      3  O   UNL A   1      35.954  30.876  27.859  1.00  0.00    -0.275 OA
ATOM      4  C   UNL A   1      34.732  30.753  27.844  1.00  0.00     0.220 C 
ATOM      5  H   UNL A   1      32.924  31.700  28.147  1.00  0.00     0.163 HD
BRANCH   4   6
ATOM      6  C   UNL A   1      34.074  29.498  27.264  1.00  0.00     0.103 C 
BRANCH   6   7
ATOM      7  C   UNL A   1      33.568  29.441  25.781  1.00  0.00     0.002 C 
ATOM      8  C   UNL A   1      34.010  28.296  24.833  1.00  0.00     0.029 C 
ATOM      9  C   UNL A   1      32.063  29.675  25.632  1.00  0.00     0.029 C 
ATOM     10  C   UNL A   1      32.972  27.160  24.610  1.00  0.00     0.087 C 
ATOM     11  C   UNL A   1      31.234  28.401  25.462  1.00  0.00     0.087 C 
ATOM     12  C   UNL A   1      32.680  26.480  25.943  1.00  0.00     0.027 C 
ATOM     13  N   UNL A   1      31.617  27.652  24.304  1.00  0.00    -0.319 N 
ATOM     14  C   UNL A   1      31.520  27.331  26.501  1.00  0.00     0.027 C 
BRANCH  13  15
ATOM     15  C   UNL A   1      30.782  26.807  23.605  1.00  0.00     0.317 C 
ATOM     16  O   UNL A   1      31.054  25.613  23.450  1.00  0.00    -0.249 OA
ATOM     17  N   UNL A   1      29.565  27.198  23.146  1.00  0.00    -0.338 N 
ATOM     18  H   UNL A   1      29.139  26.483  22.619  1.00  0.00     0.165 HD
BRANCH  17  19
ATOM     19  C   UNL A   1      28.709  28.381  23.213  1.00  0.00     0.118 C 
BRANCH  19  20
ATOM     20  C   UNL A   1      29.288  29.611  22.524  1.00  0.00     0.025 C 
BRANCH  20  21
ATOM     21  C   UNL A   1      29.079  30.853  23.338  1.00  0.00    -0.009 C 
ATOM     22  C   UNL A   1      28.562  32.091  22.655  1.00  0.00     0.004 C 
ATOM     23  C   UNL A   1      27.690  31.346  23.626  1.00  0.00     0.004 C 
ENDBRANCH  20  21
ENDBRANCH  19  20
ENDBRANCH  17  19
ENDBRANCH  13  15
ENDBRANCH   6   7
ENDBRANCH   4   6
ENDBRANCH   1   2
BRANCH   1  24
ATOM     24  C   UNL A   1      34.510  34.184  28.678  1.00  0.00     0.023 C 
BRANCH  24  25
ATOM     25  C   UNL A   1      33.263  35.093  28.608  1.00  0.00     0.023 C 
BRANCH  25  26
ATOM     26  C   UNL A   1      33.160  36.268  29.599  1.00  0.00     0.116 C 
BRANCH  26  27
ATOM     27  N   UNL A   1      32.294  36.043  30.738  1.00  0.00    -0.352 N 
ATOM     28  C   UNL A   1      32.524  35.501  31.984  1.00  0.00     0.251 C 
ATOM     29  H   UNL A   1      31.363  36.332  30.594  1.00  0.00     0.163 HD
ATOM     30  O   UNL A   1      31.591  35.469  32.783  1.00  0.00    -0.269 OA
BRANCH  28  31
ATOM     31  C   UNL A   1      33.825  34.899  32.397  1.00  0.00     0.039 A 
ATOM     32  C   UNL A   1      33.781  33.647  33.028  1.00  0.00     0.014 A 
ATOM     33  C   UNL A   1      35.058  35.541  32.283  1.00  0.00     0.014 A 
ATOM     34  C   UNL A   1      34.956  33.008  33.454  1.00  0.00     0.010 A 
ATOM     35  C   UNL A   1      36.239  34.881  32.680  1.00  0.00     0.010 A 
ATOM     36  C   UNL A   1      36.211  33.593  33.239  1.00  0.00    -0.014 A 
BRANCH  36  37
ATOM     37  C   UNL A   1      37.472  32.848  33.551  1.00  0.00     0.031 A 
ATOM     38  C   UNL A   1      38.265  33.122  34.806  1.00  0.00     0.074 A 
ATOM     39  C   UNL A   1      37.943  31.931  32.679  1.00  0.00     0.049 A 
ATOM     40  N   UNL A   1      39.387  32.577  35.213  1.00  0.00    -0.248 NA
ATOM     41  C   UNL A   1      37.738  34.152  35.712  1.00  0.00     0.031 C 
ATOM     42  C   UNL A   1      37.319  31.582  31.402  1.00  0.00     0.029 A 
ATOM     43  N   UNL A   1      39.057  31.123  32.729  1.00  0.00    -0.354 N 
ATOM     44  C   UNL A   1      39.702  33.199  36.416  1.00  0.00     0.074 A 
ATOM     45  C   UNL A   1      38.681  34.201  36.644  1.00  0.00     0.031 C 
ATOM     46  C   UNL A   1      38.037  30.616  30.807  1.00  0.00     0.029 A 
ATOM     47  C   UNL A   1      39.198  30.302  31.634  1.00  0.00     0.049 A 
ATOM     48  H   UNL A   1      39.695  31.133  33.479  1.00  0.00     0.167 HD
ATOM     49  C   UNL A   1      40.728  32.949  37.267  1.00  0.00     0.037 A 
ATOM     50  C   UNL A   1      40.150  29.400  31.319  1.00  0.00     0.037 A 
ATOM     51  C   UNL A   1      41.745  31.947  37.060  1.00  0.00     0.049 A 
ATOM     52  C   UNL A   1      41.292  29.156  32.268  1.00  0.00     0.074 A 
ATOM     53  C   UNL A   1      42.793  31.597  37.896  1.00  0.00     0.029 A 
ATOM     54  N   UNL A   1      41.849  31.141  35.937  1.00  0.00    -0.354 N 
ATOM     55  N   UNL A   1      41.534  29.709  33.431  1.00  0.00    -0.248 NA
ATOM     56  C   UNL A   1      42.293  28.157  31.861  1.00  0.00     0.031 C 
ATOM     57  C   UNL A   1      43.559  30.615  37.257  1.00  0.00     0.029 A 
ATOM     58  C   UNL A   1      42.956  30.313  36.049  1.00  0.00     0.049 A 
ATOM     59  H   UNL A   1      41.228  31.154  35.174  1.00  0.00     0.167 HD
ATOM     60  C   UNL A   1      42.693  29.108  33.906  1.00  0.00     0.074 A 
ATOM     61  C   UNL A   1      43.099  28.136  32.913  1.00  0.00     0.031 C 
ATOM     62  C   UNL A   1      43.358  29.342  35.063  1.00  0.00     0.037 A 
BRANCH  49  63
ATOM     63  C   UNL A   1      40.808  33.779  38.520  1.00  0.00     0.057 A 
ATOM     64  C   UNL A   1      40.040  33.479  39.653  1.00  0.00     0.134 A 
ATOM     65  C   UNL A   1      41.694  34.860  38.610  1.00  0.00     0.134 A 
ATOM     66  F   UNL A   1      39.169  32.459  39.634  1.00  0.00    -0.206 F 
ATOM     67  C   UNL A   1      40.126  34.244  40.818  1.00  0.00     0.040 A 
ATOM     68  C   UNL A   1      41.811  35.614  39.780  1.00  0.00     0.040 A 
ATOM     69  F   UNL A   1      42.472  35.193  37.570  1.00  0.00    -0.206 F 
ATOM     70  C   UNL A   1      41.018  35.312  40.885  1.00  0.00     0.006 A 
ENDBRANCH  49  63
BRANCH  50  71
ATOM     71  C   UNL A   1      40.065  28.642  30.042  1.00  0.00     0.057 A 
ATOM     72  C   UNL A   1      40.711  29.094  28.885  1.00  0.00     0.134 A 
ATOM     73  C   UNL A   1      39.319  27.461  29.943  1.00  0.00     0.134 A 
ATOM     74  F   UNL A   1      41.421  30.231  28.909  1.00  0.00    -0.206 F 
ATOM     75  C   UNL A   1      40.604  28.411  27.673  1.00  0.00     0.040 A 
ATOM     76  C   UNL A   1      39.226  26.753  28.744  1.00  0.00     0.040 A 
ATOM     77  F   UNL A   1      38.679  26.972  31.015  1.00  0.00    -0.206 F 
ATOM     78  C   UNL A   1      39.864  27.233  27.602  1.00  0.00     0.006 A 
ENDBRANCH  50  71
BRANCH  62  79
ATOM     79  C   UNL A   1      44.580  28.512  35.341  1.00  0.00     0.057 A 
ATOM     80  C   UNL A   1      44.508  27.283  36.012  1.00  0.00     0.134 A 
ATOM     81  C   UNL A   1      45.843  28.930  34.900  1.00  0.00     0.134 A 
ATOM     82  F   UNL A   1      43.333  26.829  36.472  1.00  0.00    -0.206 F 
ATOM     83  C   UNL A   1      45.648  26.514  36.253  1.00  0.00     0.040 A 
ATOM     84  C   UNL A   1      46.985  28.158  35.111  1.00  0.00     0.040 A 
ATOM     85  F   UNL A   1      45.984  30.094  34.246  1.00  0.00    -0.206 F 
ATOM     86  C   UNL A   1      46.891  26.947  35.794  1.00  0.00     0.006 A 
ENDBRANCH  62  79
ENDBRANCH  36  37
ENDBRANCH  28  31
ENDBRANCH  26  27
ENDBRANCH  25  26
ENDBRANCH  24  25
ENDBRANCH   1  24
TORSDOF 16
ENDMDL
