MODEL 1
REMARK VINA RESULT:     -13.4      0.000      0.000
REMARK SMILES Cc1cc(C(=O)N[C@@H]2C(=O)N3C(C(=O)NCCCCNC(=O)c4ccc(-c5c6nc(c(-c7c(F)cccc7F)c7ccc([nH]7)c(-c7c(F)cccc7F)c7nc(c(-c8c(F)cccc8F)c8ccc5[nH]8)C=C7)C=C6)cc4)=C(CSc4nnc(C)s4)CS[C@H]23)n(C)n1
REMARK SMILES IDX 17 1 16 2 15 3 13 4 14 5 12 7 8 8 9 9 88 10 10 11 11 12
REMARK SMILES IDX 87 13 86 14 77 15 7 16 5 17 6 18 4 20 1 21 2 22 3 23 91 24
REMARK SMILES IDX 89 25 90 26 78 27 79 28 80 29 81 30 85 31 82 32 83 33 84 34
REMARK SMILES IDX 18 35 19 36 20 37 21 38 22 40 23 41 24 42 76 43 25 44 75 45
REMARK SMILES IDX 26 46 27 47 28 48 69 49 29 50 74 51 68 52 70 53 30 54 73 55
REMARK SMILES IDX 67 56 66 57 31 59 57 60 40 61 56 62 41 63 44 64 55 65 71 66
REMARK SMILES IDX 42 67 43 68 54 70 72 71 45 72 32 73 33 74 38 75 34 76 35 77
REMARK SMILES IDX 37 78 39 79 36 80 58 81 59 82 64 83 60 84 61 85 63 86 65 87
REMARK SMILES IDX 62 88 46 89 47 90 52 91 48 92 49 93 51 94 53 95 50 96
REMARK H PARENT 15 6 7 19 20 39 70 58 44 69
REMARK Flexibility Score: inf
ROOT
ATOM      1  C   UNL A   1      32.259  30.462  25.827  1.00  0.00     0.023 C 
ENDROOT
BRANCH   1   2
ATOM      2  C   UNL A   1      33.562  29.653  25.805  1.00  0.00     0.116 C 
BRANCH   2   3
ATOM      3  N   UNL A   1      33.921  29.301  24.449  1.00  0.00    -0.351 N 
ATOM      4  C   UNL A   1      33.541  28.388  23.525  1.00  0.00     0.268 C 
ATOM      5  O   UNL A   1      34.016  28.625  22.407  1.00  0.00    -0.268 OA
ATOM      6  H   UNL A   1      34.635  29.885  24.105  1.00  0.00     0.163 HD
BRANCH   4   7
ATOM      7  C   UNL A   1      32.482  27.279  23.679  1.00  0.00     0.111 C 
ATOM      8  C   UNL A   1      33.444  24.425  25.361  1.00  0.00     0.206 C 
ATOM      9  C   UNL A   1      33.739  25.953  25.391  1.00  0.00     0.253 C 
ATOM     10  C   UNL A   1      32.347  24.847  24.346  1.00  0.00     0.181 C 
ATOM     11  O   UNL A   1      34.257  26.699  26.197  1.00  0.00    -0.272 OA
ATOM     12  N   UNL A   1      33.029  26.123  24.228  1.00  0.00    -0.290 N 
ATOM     13  S   UNL A   1      30.672  25.121  25.009  1.00  0.00    -0.129 SA
ATOM     14  C   UNL A   1      30.260  26.070  23.546  1.00  0.00     0.106 C 
ATOM     15  C   UNL A   1      31.120  27.320  23.527  1.00  0.00    -0.020 C 
BRANCH   8  16
ATOM     16  N   UNL A   1      33.071  23.764  26.641  1.00  0.00    -0.336 N 
ATOM     17  C   UNL A   1      32.986  22.418  26.950  1.00  0.00     0.270 C 
ATOM     18  O   UNL A   1      32.679  22.118  28.102  1.00  0.00    -0.268 OA
ATOM     19  H   UNL A   1      32.850  24.377  27.380  1.00  0.00     0.164 HD
BRANCH  17  20
ATOM     20  C   UNL A   1      33.179  21.444  25.899  1.00  0.00     0.126 A 
ATOM     21  C   UNL A   1      32.370  18.328  24.203  1.00  0.00     0.069 C 
ATOM     22  C   UNL A   1      32.949  19.606  24.682  1.00  0.00     0.060 A 
ATOM     23  C   UNL A   1      32.268  20.771  25.098  1.00  0.00     0.059 A 
ATOM     24  N   UNL A   1      34.263  19.722  24.883  1.00  0.00    -0.178 NA
ATOM     25  N   UNL A   1      34.392  20.901  25.535  1.00  0.00    -0.263 N 
ATOM     26  C   UNL A   1      35.730  21.359  25.825  1.00  0.00     0.174 C 
ENDBRANCH  17  20
ENDBRANCH   8  16
BRANCH  15  27
ATOM     27  C   UNL A   1      30.244  28.536  23.716  1.00  0.00     0.111 C 
BRANCH  27  28
ATOM     28  S   UNL A   1      28.637  28.139  23.021  1.00  0.00    -0.089 SA
BRANCH  28  29
ATOM     29  C   UNL A   1      27.885  29.652  22.702  1.00  0.00     0.174 A 
ATOM     30  N   UNL A   1      26.989  30.186  23.501  1.00  0.00    -0.132 NA
ATOM     31  S   UNL A   1      28.667  30.775  21.673  1.00  0.00    -0.091 S 
ATOM     32  N   UNL A   1      27.192  31.555  23.601  1.00  0.00    -0.143 NA
ATOM     33  C   UNL A   1      28.202  31.941  22.845  1.00  0.00     0.115 A 
ATOM     34  C   UNL A   1      29.016  33.161  23.035  1.00  0.00     0.081 C 
ENDBRANCH  28  29
ENDBRANCH  27  28
ENDBRANCH  15  27
ENDBRANCH   4   7
ENDBRANCH   2   3
ENDBRANCH   1   2
BRANCH   1  35
ATOM     35  C   UNL A   1      31.985  31.294  27.062  1.00  0.00     0.023 C 
BRANCH  35  36
ATOM     36  C   UNL A   1      33.072  32.286  27.401  1.00  0.00     0.116 C 
BRANCH  36  37
ATOM     37  N   UNL A   1      32.604  33.650  27.623  1.00  0.00    -0.352 N 
ATOM     38  C   UNL A   1      33.129  34.576  28.500  1.00  0.00     0.251 C 
ATOM     39  H   UNL A   1      31.831  33.941  27.088  1.00  0.00     0.163 HD
ATOM     40  O   UNL A   1      32.625  35.682  28.640  1.00  0.00    -0.269 OA
BRANCH  38  41
ATOM     41  C   UNL A   1      34.287  34.160  29.316  1.00  0.00     0.039 A 
ATOM     42  C   UNL A   1      34.072  33.358  30.437  1.00  0.00     0.014 A 
ATOM     43  C   UNL A   1      35.579  34.398  28.842  1.00  0.00     0.014 A 
ATOM     44  C   UNL A   1      35.157  32.709  31.025  1.00  0.00     0.010 A 
ATOM     45  C   UNL A   1      36.631  33.650  29.345  1.00  0.00     0.010 A 
ATOM     46  C   UNL A   1      36.435  32.801  30.446  1.00  0.00    -0.014 A 
BRANCH  46  47
ATOM     47  C   UNL A   1      37.590  32.034  30.979  1.00  0.00     0.031 A 
ATOM     48  C   UNL A   1      38.113  32.345  32.355  1.00  0.00     0.074 A 
ATOM     49  C   UNL A   1      38.213  31.120  30.207  1.00  0.00     0.049 A 
ATOM     50  N   UNL A   1      39.156  31.855  32.975  1.00  0.00    -0.248 NA
ATOM     51  C   UNL A   1      37.393  33.378  33.120  1.00  0.00     0.031 C 
ATOM     52  C   UNL A   1      37.848  30.776  28.831  1.00  0.00     0.029 A 
ATOM     53  N   UNL A   1      39.294  30.316  30.471  1.00  0.00    -0.354 N 
ATOM     54  C   UNL A   1      39.225  32.534  34.184  1.00  0.00     0.074 A 
ATOM     55  C   UNL A   1      38.171  33.522  34.180  1.00  0.00     0.031 C 
ATOM     56  C   UNL A   1      38.664  29.806  28.387  1.00  0.00     0.029 A 
ATOM     57  C   UNL A   1      39.635  29.487  29.429  1.00  0.00     0.049 A 
ATOM     58  H   UNL A   1      39.780  30.332  31.327  1.00  0.00     0.167 HD
ATOM     59  C   UNL A   1      40.066  32.329  35.223  1.00  0.00     0.037 A 
ATOM     60  C   UNL A   1      40.619  28.573  29.328  1.00  0.00     0.037 A 
ATOM     61  C   UNL A   1      41.086  31.317  35.242  1.00  0.00     0.049 A 
ATOM     62  C   UNL A   1      41.535  28.354  30.502  1.00  0.00     0.074 A 
ATOM     63  C   UNL A   1      41.946  30.979  36.271  1.00  0.00     0.029 A 
ATOM     64  N   UNL A   1      41.378  30.475  34.179  1.00  0.00    -0.354 N 
ATOM     65  N   UNL A   1      41.540  28.950  31.670  1.00  0.00    -0.248 NA
ATOM     66  C   UNL A   1      42.577  27.329  30.347  1.00  0.00     0.031 C 
ATOM     67  C   UNL A   1      42.790  29.961  35.815  1.00  0.00     0.029 A 
ATOM     68  C   UNL A   1      42.420  29.630  34.521  1.00  0.00     0.049 A 
ATOM     69  H   UNL A   1      40.914  30.479  33.311  1.00  0.00     0.167 HD
ATOM     70  C   UNL A   1      42.560  28.353  32.398  1.00  0.00     0.074 A 
ATOM     71  C   UNL A   1      43.144  27.339  31.546  1.00  0.00     0.031 C 
ATOM     72  C   UNL A   1      42.977  28.617  33.661  1.00  0.00     0.037 A 
BRANCH  59  73
ATOM     73  C   UNL A   1      39.903  33.210  36.428  1.00  0.00     0.057 A 
ATOM     74  C   UNL A   1      39.029  32.880  37.473  1.00  0.00     0.134 A 
ATOM     75  C   UNL A   1      40.637  34.396  36.553  1.00  0.00     0.134 A 
ATOM     76  F   UNL A   1      38.282  31.767  37.410  1.00  0.00    -0.206 F 
ATOM     77  C   UNL A   1      38.869  33.711  38.583  1.00  0.00     0.040 A 
ATOM     78  C   UNL A   1      40.509  35.219  37.672  1.00  0.00     0.040 A 
ATOM     79  F   UNL A   1      41.492  34.772  35.590  1.00  0.00    -0.206 F 
ATOM     80  C   UNL A   1      39.616  34.881  38.687  1.00  0.00     0.006 A 
ENDBRANCH  59  73
BRANCH  60  81
ATOM     81  C   UNL A   1      40.774  27.773  28.086  1.00  0.00     0.057 A 
ATOM     82  C   UNL A   1      40.158  26.522  27.952  1.00  0.00     0.134 A 
ATOM     83  C   UNL A   1      41.549  28.225  27.011  1.00  0.00     0.134 A 
ATOM     84  F   UNL A   1      39.418  26.024  28.954  1.00  0.00    -0.206 F 
ATOM     85  C   UNL A   1      40.325  25.741  26.807  1.00  0.00     0.040 A 
ATOM     86  C   UNL A   1      41.703  27.467  25.849  1.00  0.00     0.040 A 
ATOM     87  F   UNL A   1      42.159  29.418  27.072  1.00  0.00    -0.206 F 
ATOM     88  C   UNL A   1      41.096  26.217  25.748  1.00  0.00     0.006 A 
ENDBRANCH  60  81
BRANCH  72  89
ATOM     89  C   UNL A   1      44.088  27.772  34.212  1.00  0.00     0.057 A 
ATOM     90  C   UNL A   1      43.849  26.526  34.802  1.00  0.00     0.134 A 
ATOM     91  C   UNL A   1      45.420  28.193  34.102  1.00  0.00     0.134 A 
ATOM     92  F   UNL A   1      42.595  26.071  34.948  1.00  0.00    -0.206 F 
ATOM     93  C   UNL A   1      44.894  25.737  35.285  1.00  0.00     0.040 A 
ATOM     94  C   UNL A   1      46.474  27.400  34.554  1.00  0.00     0.040 A 
ATOM     95  F   UNL A   1      45.717  29.372  33.536  1.00  0.00    -0.206 F 
ATOM     96  C   UNL A   1      46.212  26.170  35.153  1.00  0.00     0.006 A 
ENDBRANCH  72  89
ENDBRANCH  46  47
ENDBRANCH  38  41
ENDBRANCH  36  37
ENDBRANCH  35  36
ENDBRANCH   1  35
TORSDOF 16
ENDMDL
MODEL 2
REMARK VINA RESULT:     -12.8      1.087      6.075
REMARK SMILES Cc1cc(C(=O)N[C@@H]2C(=O)N3C(C(=O)NCCCCNC(=O)c4ccc(-c5c6nc(c(-c7c(F)cccc7F)c7ccc([nH]7)c(-c7c(F)cccc7F)c7nc(c(-c8c(F)cccc8F)c8ccc5[nH]8)C=C7)C=C6)cc4)=C(CSc4nnc(C)s4)CS[C@H]23)n(C)n1
REMARK SMILES IDX 17 1 16 2 15 3 13 4 14 5 12 7 8 8 9 9 88 10 10 11 11 12
REMARK SMILES IDX 87 13 86 14 77 15 7 16 5 17 6 18 4 20 1 21 2 22 3 23 91 24
REMARK SMILES IDX 89 25 90 26 78 27 79 28 80 29 81 30 85 31 82 32 83 33 84 34
REMARK SMILES IDX 18 35 19 36 20 37 21 38 22 40 23 41 24 42 76 43 25 44 75 45
REMARK SMILES IDX 26 46 27 47 28 48 69 49 29 50 74 51 68 52 70 53 30 54 73 55
REMARK SMILES IDX 67 56 66 57 31 59 57 60 40 61 56 62 41 63 44 64 55 65 71 66
REMARK SMILES IDX 42 67 43 68 54 70 72 71 45 72 32 73 33 74 38 75 34 76 35 77
REMARK SMILES IDX 37 78 39 79 36 80 58 81 59 82 64 83 60 84 61 85 63 86 65 87
REMARK SMILES IDX 62 88 46 89 47 90 52 91 48 92 49 93 51 94 53 95 50 96
REMARK H PARENT 15 6 7 19 20 39 70 58 44 69
REMARK Flexibility Score: inf
ROOT
ATOM      1  C   UNL A   1      32.486  30.397  26.261  1.00  0.00     0.023 C 
ENDROOT
BRANCH   1   2
ATOM      2  C   UNL A   1      33.316  29.112  26.159  1.00  0.00     0.116 C 
BRANCH   2   3
ATOM      3  N   UNL A   1      34.018  29.058  24.894  1.00  0.00    -0.351 N 
ATOM      4  C   UNL A   1      33.870  28.436  23.701  1.00  0.00     0.268 C 
ATOM      5  O   UNL A   1      34.640  28.882  22.841  1.00  0.00    -0.268 OA
ATOM      6  H   UNL A   1      34.819  29.629  24.906  1.00  0.00     0.163 HD
BRANCH   4   7
ATOM      7  C   UNL A   1      32.769  27.440  23.291  1.00  0.00     0.111 C 
ATOM      8  C   UNL A   1      33.280  24.126  24.102  1.00  0.00     0.206 C 
ATOM      9  C   UNL A   1      33.608  25.534  24.679  1.00  0.00     0.253 C 
ATOM     10  C   UNL A   1      32.426  24.946  23.095  1.00  0.00     0.181 C 
ATOM     11  O   UNL A   1      33.974  25.939  25.764  1.00  0.00    -0.272 OA
ATOM     12  N   UNL A   1      33.157  26.124  23.525  1.00  0.00    -0.290 N 
ATOM     13  S   UNL A   1      30.660  25.157  23.493  1.00  0.00    -0.129 SA
ATOM     14  C   UNL A   1      30.585  26.549  22.367  1.00  0.00     0.106 C 
ATOM     15  C   UNL A   1      31.468  27.656  22.913  1.00  0.00    -0.020 C 
BRANCH   8  16
ATOM     16  N   UNL A   1      32.632  23.138  25.006  1.00  0.00    -0.336 N 
ATOM     17  C   UNL A   1      33.202  22.265  25.916  1.00  0.00     0.270 C 
ATOM     18  O   UNL A   1      32.444  21.558  26.576  1.00  0.00    -0.268 OA
ATOM     19  H   UNL A   1      31.650  23.099  24.949  1.00  0.00     0.164 HD
BRANCH  17  20
ATOM     20  C   UNL A   1      34.643  22.169  25.987  1.00  0.00     0.126 A 
ATOM     21  C   UNL A   1      37.985  23.585  25.733  1.00  0.00     0.069 C 
ATOM     22  C   UNL A   1      36.785  22.725  25.871  1.00  0.00     0.060 A 
ATOM     23  C   UNL A   1      35.588  23.004  26.565  1.00  0.00     0.059 A 
ATOM     24  N   UNL A   1      36.693  21.576  25.200  1.00  0.00    -0.178 NA
ATOM     25  N   UNL A   1      35.405  21.199  25.370  1.00  0.00    -0.263 N 
ATOM     26  C   UNL A   1      35.005  19.925  24.822  1.00  0.00     0.174 C 
ENDBRANCH  17  20
ENDBRANCH   8  16
BRANCH  15  27
ATOM     27  C   UNL A   1      30.610  28.829  23.322  1.00  0.00     0.111 C 
BRANCH  27  28
ATOM     28  S   UNL A   1      28.900  28.346  23.063  1.00  0.00    -0.089 SA
BRANCH  28  29
ATOM     29  C   UNL A   1      28.057  29.801  22.708  1.00  0.00     0.174 A 
ATOM     30  N   UNL A   1      27.099  30.276  23.470  1.00  0.00    -0.132 NA
ATOM     31  S   UNL A   1      28.795  30.971  21.698  1.00  0.00    -0.091 S 
ATOM     32  N   UNL A   1      27.203  31.655  23.568  1.00  0.00    -0.143 NA
ATOM     33  C   UNL A   1      28.210  32.107  22.845  1.00  0.00     0.115 A 
ATOM     34  C   UNL A   1      28.931  33.382  23.055  1.00  0.00     0.081 C 
ENDBRANCH  28  29
ENDBRANCH  27  28
ENDBRANCH  15  27
ENDBRANCH   4   7
ENDBRANCH   2   3
ENDBRANCH   1   2
BRANCH   1  35
ATOM     35  C   UNL A   1      32.620  31.206  27.534  1.00  0.00     0.023 C 
BRANCH  35  36
ATOM     36  C   UNL A   1      33.508  32.422  27.410  1.00  0.00     0.116 C 
BRANCH  36  37
ATOM     37  N   UNL A   1      32.824  33.696  27.600  1.00  0.00    -0.352 N 
ATOM     38  C   UNL A   1      33.120  34.667  28.535  1.00  0.00     0.251 C 
ATOM     39  H   UNL A   1      32.070  33.884  26.996  1.00  0.00     0.163 HD
ATOM     40  O   UNL A   1      32.447  35.684  28.637  1.00  0.00    -0.269 OA
BRANCH  38  41
ATOM     41  C   UNL A   1      34.244  34.404  29.455  1.00  0.00     0.039 A 
ATOM     42  C   UNL A   1      33.992  33.753  30.663  1.00  0.00     0.014 A 
ATOM     43  C   UNL A   1      35.553  34.621  29.017  1.00  0.00     0.014 A 
ATOM     44  C   UNL A   1      35.061  33.226  31.386  1.00  0.00     0.010 A 
ATOM     45  C   UNL A   1      36.596  33.984  29.669  1.00  0.00     0.010 A 
ATOM     46  C   UNL A   1      36.365  33.284  30.864  1.00  0.00    -0.014 A 
BRANCH  46  47
ATOM     47  C   UNL A   1      37.511  32.636  31.552  1.00  0.00     0.031 A 
ATOM     48  C   UNL A   1      38.217  31.485  30.889  1.00  0.00     0.074 A 
ATOM     49  C   UNL A   1      37.867  33.026  32.793  1.00  0.00     0.049 A 
ATOM     50  N   UNL A   1      39.180  30.729  31.349  1.00  0.00    -0.248 NA
ATOM     51  C   UNL A   1      37.745  31.102  29.547  1.00  0.00     0.031 C 
ATOM     52  C   UNL A   1      37.218  34.083  33.573  1.00  0.00     0.029 A 
ATOM     53  N   UNL A   1      38.863  32.571  33.621  1.00  0.00    -0.354 N 
ATOM     54  C   UNL A   1      39.411  29.777  30.365  1.00  0.00     0.074 A 
ATOM     55  C   UNL A   1      38.438  29.998  29.320  1.00  0.00     0.031 C 
ATOM     56  C   UNL A   1      37.857  34.220  34.747  1.00  0.00     0.029 A 
ATOM     57  C   UNL A   1      38.932  33.236  34.822  1.00  0.00     0.049 A 
ATOM     58  H   UNL A   1      39.471  31.835  33.377  1.00  0.00     0.167 HD
ATOM     59  C   UNL A   1      40.371  28.825  30.315  1.00  0.00     0.037 A 
ATOM     60  C   UNL A   1      39.770  33.071  35.863  1.00  0.00     0.037 A 
ATOM     61  C   UNL A   1      41.365  28.635  31.335  1.00  0.00     0.049 A 
ATOM     62  C   UNL A   1      40.839  32.015  35.780  1.00  0.00     0.074 A 
ATOM     63  C   UNL A   1      42.424  27.747  31.351  1.00  0.00     0.029 A 
ATOM     64  N   UNL A   1      41.421  29.352  32.521  1.00  0.00    -0.354 N 
ATOM     65  N   UNL A   1      41.094  31.171  34.809  1.00  0.00    -0.248 NA
ATOM     66  C   UNL A   1      41.740  31.891  36.934  1.00  0.00     0.031 C 
ATOM     67  C   UNL A   1      43.097  27.895  32.569  1.00  0.00     0.029 A 
ATOM     68  C   UNL A   1      42.488  28.912  33.287  1.00  0.00     0.049 A 
ATOM     69  H   UNL A   1      40.796  30.066  32.781  1.00  0.00     0.167 HD
ATOM     70  C   UNL A   1      42.202  30.442  35.219  1.00  0.00     0.074 A 
ATOM     71  C   UNL A   1      42.578  30.950  36.522  1.00  0.00     0.031 C 
ATOM     72  C   UNL A   1      42.853  29.441  34.576  1.00  0.00     0.037 A 
BRANCH  59  73
ATOM     73  C   UNL A   1      40.397  27.932  29.108  1.00  0.00     0.057 A 
ATOM     74  C   UNL A   1      39.635  26.758  29.041  1.00  0.00     0.134 A 
ATOM     75  C   UNL A   1      41.181  28.257  27.995  1.00  0.00     0.134 A 
ATOM     76  F   UNL A   1      38.875  26.378  30.080  1.00  0.00    -0.206 F 
ATOM     77  C   UNL A   1      39.676  25.923  27.923  1.00  0.00     0.040 A 
ATOM     78  C   UNL A   1      41.206  27.447  26.859  1.00  0.00     0.040 A 
ATOM     79  F   UNL A   1      41.934  29.367  27.992  1.00  0.00    -0.206 F 
ATOM     80  C   UNL A   1      40.458  26.271  26.825  1.00  0.00     0.006 A 
ENDBRANCH  59  73
BRANCH  60  81
ATOM     81  C   UNL A   1      39.658  33.943  37.061  1.00  0.00     0.057 A 
ATOM     82  C   UNL A   1      40.368  35.148  37.145  1.00  0.00     0.134 A 
ATOM     83  C   UNL A   1      38.856  33.592  38.154  1.00  0.00     0.134 A 
ATOM     84  F   UNL A   1      41.169  35.531  36.140  1.00  0.00    -0.206 F 
ATOM     85  C   UNL A   1      40.303  35.959  38.280  1.00  0.00     0.040 A 
ATOM     86  C   UNL A   1      38.761  34.407  39.283  1.00  0.00     0.040 A 
ATOM     87  F   UNL A   1      38.144  32.456  38.133  1.00  0.00    -0.206 F 
ATOM     88  C   UNL A   1      39.493  35.591  39.351  1.00  0.00     0.006 A 
ENDBRANCH  60  81
BRANCH  72  89
ATOM     89  C   UNL A   1      44.061  28.859  35.249  1.00  0.00     0.057 A 
ATOM     90  C   UNL A   1      45.345  29.376  35.044  1.00  0.00     0.134 A 
ATOM     91  C   UNL A   1      43.926  27.799  36.156  1.00  0.00     0.134 A 
ATOM     92  F   UNL A   1      45.544  30.384  34.180  1.00  0.00    -0.206 F 
ATOM     93  C   UNL A   1      46.457  28.844  35.699  1.00  0.00     0.040 A 
ATOM     94  C   UNL A   1      45.025  27.279  36.837  1.00  0.00     0.040 A 
ATOM     95  F   UNL A   1      42.720  27.266  36.405  1.00  0.00    -0.206 F 
ATOM     96  C   UNL A   1      46.296  27.797  36.605  1.00  0.00     0.006 A 
ENDBRANCH  72  89
ENDBRANCH  46  47
ENDBRANCH  38  41
ENDBRANCH  36  37
ENDBRANCH  35  36
ENDBRANCH   1  35
TORSDOF 16
ENDMDL
MODEL 3
REMARK VINA RESULT:     -12.7      2.859      8.717
REMARK SMILES Cc1cc(C(=O)N[C@@H]2C(=O)N3C(C(=O)NCCCCNC(=O)c4ccc(-c5c6nc(c(-c7c(F)cccc7F)c7ccc([nH]7)c(-c7c(F)cccc7F)c7nc(c(-c8c(F)cccc8F)c8ccc5[nH]8)C=C7)C=C6)cc4)=C(CSc4nnc(C)s4)CS[C@H]23)n(C)n1
REMARK SMILES IDX 17 1 16 2 15 3 13 4 14 5 12 7 8 8 9 9 88 10 10 11 11 12
REMARK SMILES IDX 87 13 86 14 77 15 7 16 5 17 6 18 4 20 1 21 2 22 3 23 91 24
REMARK SMILES IDX 89 25 90 26 78 27 79 28 80 29 81 30 85 31 82 32 83 33 84 34
REMARK SMILES IDX 18 35 19 36 20 37 21 38 22 40 23 41 24 42 76 43 25 44 75 45
REMARK SMILES IDX 26 46 27 47 28 48 69 49 29 50 74 51 68 52 70 53 30 54 73 55
REMARK SMILES IDX 67 56 66 57 31 59 57 60 40 61 56 62 41 63 44 64 55 65 71 66
REMARK SMILES IDX 42 67 43 68 54 70 72 71 45 72 32 73 33 74 38 75 34 76 35 77
REMARK SMILES IDX 37 78 39 79 36 80 58 81 59 82 64 83 60 84 61 85 63 86 65 87
REMARK SMILES IDX 62 88 46 89 47 90 52 91 48 92 49 93 51 94 53 95 50 96
REMARK H PARENT 15 6 7 19 20 39 70 58 44 69
REMARK Flexibility Score: inf
ROOT
ATOM      1  C   UNL A   1      38.861  23.492  26.461  1.00  0.00     0.023 C 
ENDROOT
BRANCH   1   2
ATOM      2  C   UNL A   1      37.354  23.424  26.183  1.00  0.00     0.116 C 
BRANCH   2   3
ATOM      3  N   UNL A   1      36.974  22.096  25.756  1.00  0.00    -0.351 N 
ATOM      4  C   UNL A   1      35.836  21.451  25.407  1.00  0.00     0.268 C 
ATOM      5  O   UNL A   1      36.059  20.341  24.907  1.00  0.00    -0.268 OA
ATOM      6  H   UNL A   1      37.755  21.499  25.705  1.00  0.00     0.163 HD
BRANCH   4   7
ATOM      7  C   UNL A   1      34.403  22.018  25.387  1.00  0.00     0.111 C 
ATOM      8  C   UNL A   1      33.867  24.840  23.476  1.00  0.00     0.206 C 
ATOM      9  C   UNL A   1      34.760  23.565  23.451  1.00  0.00     0.253 C 
ATOM     10  C   UNL A   1      33.188  24.112  24.668  1.00  0.00     0.181 C 
ATOM     11  O   UNL A   1      35.429  23.017  22.599  1.00  0.00    -0.272 OA
ATOM     12  N   UNL A   1      34.345  23.238  24.718  1.00  0.00    -0.290 N 
ATOM     13  S   UNL A   1      31.704  23.122  24.292  1.00  0.00    -0.129 SA
ATOM     14  C   UNL A   1      31.920  22.235  25.834  1.00  0.00     0.106 C 
ATOM     15  C   UNL A   1      33.213  21.446  25.757  1.00  0.00    -0.020 C 
BRANCH   8  16
ATOM     16  N   UNL A   1      33.087  25.166  22.251  1.00  0.00    -0.336 N 
ATOM     17  C   UNL A   1      32.312  26.275  21.965  1.00  0.00     0.270 C 
ATOM     18  O   UNL A   1      31.783  26.329  20.856  1.00  0.00    -0.268 OA
ATOM     19  H   UNL A   1      33.129  24.490  21.536  1.00  0.00     0.164 HD
BRANCH  17  20
ATOM     20  C   UNL A   1      32.098  27.266  22.997  1.00  0.00     0.126 A 
ATOM     21  C   UNL A   1      33.254  29.395  25.712  1.00  0.00     0.069 C 
ATOM     22  C   UNL A   1      32.486  28.634  24.696  1.00  0.00     0.060 A 
ATOM     23  C   UNL A   1      32.826  28.394  23.347  1.00  0.00     0.059 A 
ATOM     24  N   UNL A   1      31.383  27.968  25.039  1.00  0.00    -0.178 NA
ATOM     25  N   UNL A   1      31.102  27.216  23.949  1.00  0.00    -0.263 N 
ATOM     26  C   UNL A   1      29.893  26.428  23.976  1.00  0.00     0.174 C 
ENDBRANCH  17  20
ENDBRANCH   8  16
BRANCH  15  27
ATOM     27  C   UNL A   1      32.902  19.968  25.753  1.00  0.00     0.111 C 
BRANCH  27  28
ATOM     28  S   UNL A   1      32.528  19.514  24.057  1.00  0.00    -0.089 SA
BRANCH  28  29
ATOM     29  C   UNL A   1      32.805  17.820  23.959  1.00  0.00     0.174 A 
ATOM     30  N   UNL A   1      33.304  17.239  22.892  1.00  0.00    -0.132 NA
ATOM     31  S   UNL A   1      32.992  16.919  25.403  1.00  0.00    -0.091 S 
ATOM     32  N   UNL A   1      34.206  16.252  23.263  1.00  0.00    -0.143 NA
ATOM     33  C   UNL A   1      34.286  16.151  24.576  1.00  0.00     0.115 A 
ATOM     34  C   UNL A   1      35.427  15.601  25.340  1.00  0.00     0.081 C 
ENDBRANCH  28  29
ENDBRANCH  27  28
ENDBRANCH  15  27
ENDBRANCH   4   7
ENDBRANCH   2   3
ENDBRANCH   1   2
BRANCH   1  35
ATOM     35  C   UNL A   1      39.680  22.265  26.123  1.00  0.00     0.023 C 
BRANCH  35  36
ATOM     36  C   UNL A   1      41.121  22.333  26.570  1.00  0.00     0.116 C 
BRANCH  36  37
ATOM     37  N   UNL A   1      42.068  22.686  25.518  1.00  0.00    -0.352 N 
ATOM     38  C   UNL A   1      42.946  23.750  25.514  1.00  0.00     0.251 C 
ATOM     39  H   UNL A   1      42.083  22.102  24.726  1.00  0.00     0.163 HD
ATOM     40  O   UNL A   1      43.668  23.981  24.553  1.00  0.00    -0.269 OA
BRANCH  38  41
ATOM     41  C   UNL A   1      42.939  24.643  26.690  1.00  0.00     0.039 A 
ATOM     42  C   UNL A   1      43.286  25.984  26.523  1.00  0.00     0.014 A 
ATOM     43  C   UNL A   1      42.392  24.188  27.891  1.00  0.00     0.014 A 
ATOM     44  C   UNL A   1      42.987  26.894  27.537  1.00  0.00     0.010 A 
ATOM     45  C   UNL A   1      41.978  25.113  28.837  1.00  0.00     0.010 A 
ATOM     46  C   UNL A   1      42.275  26.476  28.675  1.00  0.00    -0.014 A 
BRANCH  46  47
ATOM     47  C   UNL A   1      41.841  27.436  29.721  1.00  0.00     0.031 A 
ATOM     48  C   UNL A   1      42.551  27.457  31.047  1.00  0.00     0.074 A 
ATOM     49  C   UNL A   1      40.771  28.230  29.512  1.00  0.00     0.049 A 
ATOM     50  N   UNL A   1      42.282  28.155  32.120  1.00  0.00    -0.248 NA
ATOM     51  C   UNL A   1      43.691  26.537  31.203  1.00  0.00     0.031 C 
ATOM     52  C   UNL A   1      39.953  28.257  28.297  1.00  0.00     0.029 A 
ATOM     53  N   UNL A   1      40.182  29.167  30.325  1.00  0.00    -0.354 N 
ATOM     54  C   UNL A   1      43.200  27.742  33.075  1.00  0.00     0.074 A 
ATOM     55  C   UNL A   1      43.982  26.680  32.485  1.00  0.00     0.031 C 
ATOM     56  C   UNL A   1      38.996  29.189  28.430  1.00  0.00     0.029 A 
ATOM     57  C   UNL A   1      39.104  29.798  29.751  1.00  0.00     0.049 A 
ATOM     58  H   UNL A   1      40.502  29.368  31.234  1.00  0.00     0.167 HD
ATOM     59  C   UNL A   1      43.403  28.227  34.321  1.00  0.00     0.037 A 
ATOM     60  C   UNL A   1      38.296  30.760  30.238  1.00  0.00     0.037 A 
ATOM     61  C   UNL A   1      42.652  29.312  34.891  1.00  0.00     0.049 A 
ATOM     62  C   UNL A   1      38.548  31.294  31.622  1.00  0.00     0.074 A 
ATOM     63  C   UNL A   1      42.822  29.927  36.118  1.00  0.00     0.029 A 
ATOM     64  N   UNL A   1      41.590  29.947  34.265  1.00  0.00    -0.354 N 
ATOM     65  N   UNL A   1      39.471  30.946  32.487  1.00  0.00    -0.248 NA
ATOM     66  C   UNL A   1      37.652  32.358  32.096  1.00  0.00     0.031 C 
ATOM     67  C   UNL A   1      41.832  30.906  36.254  1.00  0.00     0.029 A 
ATOM     68  C   UNL A   1      41.080  30.936  35.090  1.00  0.00     0.049 A 
ATOM     69  H   UNL A   1      41.248  29.727  33.369  1.00  0.00     0.167 HD
ATOM     70  C   UNL A   1      39.287  31.769  33.591  1.00  0.00     0.074 A 
ATOM     71  C   UNL A   1      38.174  32.641  33.282  1.00  0.00     0.031 C 
ATOM     72  C   UNL A   1      39.979  31.802  34.756  1.00  0.00     0.037 A 
BRANCH  59  73
ATOM     73  C   UNL A   1      44.490  27.594  35.141  1.00  0.00     0.057 A 
ATOM     74  C   UNL A   1      45.821  28.028  35.066  1.00  0.00     0.134 A 
ATOM     75  C   UNL A   1      44.202  26.549  36.027  1.00  0.00     0.134 A 
ATOM     76  F   UNL A   1      46.169  29.013  34.224  1.00  0.00    -0.206 F 
ATOM     77  C   UNL A   1      46.830  27.425  35.817  1.00  0.00     0.040 A 
ATOM     78  C   UNL A   1      45.197  25.959  36.808  1.00  0.00     0.040 A 
ATOM     79  F   UNL A   1      42.949  26.086  36.150  1.00  0.00    -0.206 F 
ATOM     80  C   UNL A   1      46.517  26.392  36.698  1.00  0.00     0.006 A 
ENDBRANCH  59  73
BRANCH  60  81
ATOM     81  C   UNL A   1      37.194  31.306  29.405  1.00  0.00     0.057 A 
ATOM     82  C   UNL A   1      36.031  30.561  29.167  1.00  0.00     0.134 A 
ATOM     83  C   UNL A   1      37.277  32.572  28.813  1.00  0.00     0.134 A 
ATOM     84  F   UNL A   1      35.899  29.333  29.690  1.00  0.00    -0.206 F 
ATOM     85  C   UNL A   1      35.004  31.045  28.355  1.00  0.00     0.040 A 
ATOM     86  C   UNL A   1      36.245  33.079  28.021  1.00  0.00     0.040 A 
ATOM     87  F   UNL A   1      38.359  33.340  29.008  1.00  0.00    -0.206 F 
ATOM     88  C   UNL A   1      35.108  32.311  27.783  1.00  0.00     0.006 A 
ENDBRANCH  60  81
BRANCH  72  89
ATOM     89  C   UNL A   1      39.581  32.839  35.765  1.00  0.00     0.057 A 
ATOM     90  C   UNL A   1      38.620  32.586  36.750  1.00  0.00     0.134 A 
ATOM     91  C   UNL A   1      40.211  34.092  35.780  1.00  0.00     0.134 A 
ATOM     92  F   UNL A   1      37.973  31.411  36.783  1.00  0.00    -0.206 F 
ATOM     93  C   UNL A   1      38.280  33.550  37.700  1.00  0.00     0.040 A 
ATOM     94  C   UNL A   1      39.900  35.052  36.742  1.00  0.00     0.040 A 
ATOM     95  F   UNL A   1      41.149  34.393  34.870  1.00  0.00    -0.206 F 
ATOM     96  C   UNL A   1      38.927  34.784  37.703  1.00  0.00     0.006 A 
ENDBRANCH  72  89
ENDBRANCH  46  47
ENDBRANCH  38  41
ENDBRANCH  36  37
ENDBRANCH  35  36
ENDBRANCH   1  35
TORSDOF 16
ENDMDL
