MODEL 1
REMARK VINA RESULT:     -12.4      0.000      0.000
REMARK SMILES Cc1sc2nc(SCc3ccc(C(=O)NCCCCNC(=O)c4ccc(-c5c6nc(c(-c7c(F)cccc7F)c7ccc([nH]7)c(-c7c(F)cccc7F)c7nc(c(-c8c(F)cccc8F)c8ccc5[nH]8)C=C7)C=C6)cc4)cc3)n(Cc3ccco3)c(=O)c2c1C
REMARK SMILES IDX 16 1 15 2 13 3 14 4 12 6 9 7 10 8 78 9 11 10 77 11 8 12 7 13
REMARK SMILES IDX 6 14 1 15 2 16 3 17 89 18 4 19 88 20 90 21 5 22 86 23 79 24
REMARK SMILES IDX 87 25 80 26 81 27 82 28 85 29 83 30 84 31 17 32 18 33 19 34
REMARK SMILES IDX 20 35 21 36 22 38 23 39 24 40 76 41 25 42 75 43 26 44 27 45
REMARK SMILES IDX 28 46 69 47 29 48 74 49 68 50 70 51 30 52 73 53 67 54 66 55
REMARK SMILES IDX 31 57 57 58 40 59 56 60 41 61 44 62 55 63 71 64 42 65 43 66
REMARK SMILES IDX 54 68 72 69 45 70 32 71 33 72 38 73 34 74 35 75 37 76 39 77
REMARK SMILES IDX 36 78 58 79 59 80 64 81 60 82 61 83 63 84 65 85 62 86 46 87
REMARK SMILES IDX 47 88 52 89 48 90 49 91 51 92 53 93 50 94
REMARK H PARENT 15 5 20 37 70 56 44 67
REMARK Flexibility Score: inf
ROOT
ATOM      1  C   UNL A   1      37.992  33.831  28.790  1.00  0.00     0.116 C 
ENDROOT
BRANCH   1   2
ATOM      2  N   UNL A   1      36.669  34.278  29.180  1.00  0.00    -0.352 N 
ATOM      3  C   UNL A   1      35.414  33.710  29.141  1.00  0.00     0.251 C 
ATOM      4  O   UNL A   1      34.552  34.296  29.806  1.00  0.00    -0.269 OA
ATOM      5  H   UNL A   1      36.667  35.187  29.556  1.00  0.00     0.163 HD
BRANCH   3   6
ATOM      6  C   UNL A   1      34.984  32.536  28.301  1.00  0.00     0.039 A 
ATOM      7  C   UNL A   1      34.220  29.940  27.424  1.00  0.00    -0.038 A 
ATOM      8  C   UNL A   1      35.566  30.249  27.635  1.00  0.00     0.005 A 
ATOM      9  C   UNL A   1      33.326  31.015  27.369  1.00  0.00     0.005 A 
ATOM     10  C   UNL A   1      35.931  31.512  28.127  1.00  0.00     0.014 A 
ATOM     11  C   UNL A   1      33.717  32.303  27.772  1.00  0.00     0.014 A 
BRANCH   7  12
ATOM     12  C   UNL A   1      33.713  28.501  27.390  1.00  0.00     0.113 C 
BRANCH  12  13
ATOM     13  S   UNL A   1      32.040  28.401  26.682  1.00  0.00    -0.083 SA
BRANCH  13  14
ATOM     14  C   UNL A   1      31.693  26.919  25.789  1.00  0.00     0.173 A 
ATOM     15  C   UNL A   1      32.262  20.831  25.405  1.00  0.00     0.057 C 
ATOM     16  C   UNL A   1      31.998  22.300  25.340  1.00  0.00     0.007 A 
ATOM     17  S   UNL A   1      31.838  23.199  26.799  1.00  0.00    -0.120 S 
ATOM     18  C   UNL A   1      31.890  23.108  24.220  1.00  0.00    -0.022 A 
ATOM     19  C   UNL A   1      31.631  24.669  25.961  1.00  0.00     0.132 A 
ATOM     20  C   UNL A   1      31.575  24.451  24.611  1.00  0.00     0.080 A 
ATOM     21  C   UNL A   1      32.114  22.677  22.804  1.00  0.00     0.046 C 
ATOM     22  N   UNL A   1      31.607  25.881  26.576  1.00  0.00    -0.213 NA
ATOM     23  C   UNL A   1      31.348  25.598  23.777  1.00  0.00     0.263 A 
ATOM     24  N   UNL A   1      31.646  26.813  24.398  1.00  0.00    -0.279 N 
ATOM     25  O   UNL A   1      30.946  25.489  22.620  1.00  0.00    -0.268 OA
BRANCH  24  26
ATOM     26  C   UNL A   1      31.997  27.825  23.443  1.00  0.00     0.203 C 
BRANCH  26  27
ATOM     27  C   UNL A   1      30.839  28.740  23.259  1.00  0.00     0.123 A 
ATOM     28  C   UNL A   1      30.344  29.829  23.952  1.00  0.00     0.047 A 
ATOM     29  O   UNL A   1      30.064  28.503  22.162  1.00  0.00    -0.467 OA
ATOM     30  C   UNL A   1      29.198  30.265  23.246  1.00  0.00     0.042 A 
ATOM     31  C   UNL A   1      29.073  29.429  22.165  1.00  0.00     0.195 A 
ENDBRANCH  26  27
ENDBRANCH  24  26
ENDBRANCH  13  14
ENDBRANCH  12  13
ENDBRANCH   7  12
ENDBRANCH   3   6
ENDBRANCH   1   2
BRANCH   1  32
ATOM     32  C   UNL A   1      38.982  33.692  29.947  1.00  0.00     0.023 C 
BRANCH  32  33
ATOM     33  C   UNL A   1      40.290  34.490  29.868  1.00  0.00     0.023 C 
BRANCH  33  34
ATOM     34  C   UNL A   1      41.499  33.938  30.643  1.00  0.00     0.116 C 
BRANCH  34  35
ATOM     35  N   UNL A   1      42.448  33.259  29.777  1.00  0.00    -0.352 N 
ATOM     36  C   UNL A   1      43.224  33.695  28.735  1.00  0.00     0.251 C 
ATOM     37  H   UNL A   1      42.555  32.301  29.978  1.00  0.00     0.163 HD
ATOM     38  O   UNL A   1      43.803  32.852  28.050  1.00  0.00    -0.269 OA
BRANCH  36  39
ATOM     39  C   UNL A   1      43.408  35.125  28.400  1.00  0.00     0.039 A 
ATOM     40  C   UNL A   1      42.618  35.673  27.377  1.00  0.00     0.014 A 
ATOM     41  C   UNL A   1      44.444  35.883  28.939  1.00  0.00     0.014 A 
ATOM     42  C   UNL A   1      42.827  36.986  26.932  1.00  0.00     0.010 A 
ATOM     43  C   UNL A   1      44.660  37.191  28.481  1.00  0.00     0.010 A 
ATOM     44  C   UNL A   1      43.844  37.771  27.489  1.00  0.00    -0.014 A 
BRANCH  44  45
ATOM     45  C   UNL A   1      43.937  39.217  27.141  1.00  0.00     0.031 A 
ATOM     46  C   UNL A   1      43.436  40.156  28.187  1.00  0.00     0.074 A 
ATOM     47  C   UNL A   1      44.782  39.752  26.229  1.00  0.00     0.049 A 
ATOM     48  N   UNL A   1      44.172  40.495  29.204  1.00  0.00    -0.248 NA
ATOM     49  C   UNL A   1      42.040  40.570  28.304  1.00  0.00     0.031 C 
ATOM     50  C   UNL A   1      46.052  39.141  25.830  1.00  0.00     0.029 A 
ATOM     51  N   UNL A   1      44.824  41.015  25.667  1.00  0.00    -0.354 N 
ATOM     52  C   UNL A   1      43.343  41.081  30.137  1.00  0.00     0.074 A 
ATOM     53  C   UNL A   1      42.035  41.145  29.521  1.00  0.00     0.031 C 
ATOM     54  C   UNL A   1      46.816  40.082  25.235  1.00  0.00     0.029 A 
ATOM     55  C   UNL A   1      46.046  41.318  25.062  1.00  0.00     0.049 A 
ATOM     56  H   UNL A   1      44.065  41.641  25.689  1.00  0.00     0.167 HD
ATOM     57  C   UNL A   1      43.786  41.438  31.370  1.00  0.00     0.037 A 
ATOM     58  C   UNL A   1      46.634  42.548  25.041  1.00  0.00     0.037 A 
ATOM     59  C   UNL A   1      45.165  41.151  31.641  1.00  0.00     0.049 A 
ATOM     60  C   UNL A   1      46.842  42.842  26.496  1.00  0.00     0.074 A 
ATOM     61  C   UNL A   1      45.892  40.116  32.187  1.00  0.00     0.029 A 
ATOM     62  N   UNL A   1      46.112  42.055  31.220  1.00  0.00    -0.354 N 
ATOM     63  N   UNL A   1      47.815  42.382  27.231  1.00  0.00    -0.248 NA
ATOM     64  C   UNL A   1      45.736  43.442  27.241  1.00  0.00     0.031 C 
ATOM     65  C   UNL A   1      47.208  40.243  31.638  1.00  0.00     0.029 A 
ATOM     66  C   UNL A   1      47.168  41.316  30.750  1.00  0.00     0.049 A 
ATOM     67  H   UNL A   1      46.045  43.037  31.250  1.00  0.00     0.167 HD
ATOM     68  C   UNL A   1      47.327  42.395  28.537  1.00  0.00     0.074 A 
ATOM     69  C   UNL A   1      46.066  43.107  28.482  1.00  0.00     0.031 C 
ATOM     70  C   UNL A   1      47.880  41.657  29.543  1.00  0.00     0.037 A 
BRANCH  57  71
ATOM     71  C   UNL A   1      43.008  42.172  32.380  1.00  0.00     0.057 A 
ATOM     72  C   UNL A   1      42.715  41.636  33.634  1.00  0.00     0.134 A 
ATOM     73  C   UNL A   1      42.796  43.541  32.180  1.00  0.00     0.134 A 
ATOM     74  F   UNL A   1      42.914  40.334  33.884  1.00  0.00    -0.206 F 
ATOM     75  C   UNL A   1      42.271  42.455  34.675  1.00  0.00     0.040 A 
ATOM     76  C   UNL A   1      42.363  44.369  33.211  1.00  0.00     0.040 A 
ATOM     77  F   UNL A   1      43.082  44.100  30.991  1.00  0.00    -0.206 F 
ATOM     78  C   UNL A   1      42.115  43.829  34.469  1.00  0.00     0.006 A 
ENDBRANCH  57  71
BRANCH  58  79
ATOM     79  C   UNL A   1      46.125  43.579  24.083  1.00  0.00     0.057 A 
ATOM     80  C   UNL A   1      44.814  44.081  24.056  1.00  0.00     0.134 A 
ATOM     81  C   UNL A   1      47.014  44.168  23.166  1.00  0.00     0.134 A 
ATOM     82  F   UNL A   1      43.902  43.705  24.962  1.00  0.00    -0.206 F 
ATOM     83  C   UNL A   1      44.380  45.005  23.096  1.00  0.00     0.040 A 
ATOM     84  C   UNL A   1      46.603  45.114  22.219  1.00  0.00     0.040 A 
ATOM     85  F   UNL A   1      48.318  43.854  23.187  1.00  0.00    -0.206 F 
ATOM     86  C   UNL A   1      45.273  45.515  22.163  1.00  0.00     0.006 A 
ENDBRANCH  58  79
BRANCH  70  87
ATOM     87  C   UNL A   1      49.142  40.952  29.175  1.00  0.00     0.057 A 
ATOM     88  C   UNL A   1      49.134  39.680  28.586  1.00  0.00     0.134 A 
ATOM     89  C   UNL A   1      50.386  41.562  29.372  1.00  0.00     0.134 A 
ATOM     90  F   UNL A   1      47.980  39.040  28.338  1.00  0.00    -0.206 F 
ATOM     91  C   UNL A   1      50.319  39.028  28.236  1.00  0.00     0.040 A 
ATOM     92  C   UNL A   1      51.575  40.931  29.002  1.00  0.00     0.040 A 
ATOM     93  F   UNL A   1      50.466  42.780  29.934  1.00  0.00    -0.206 F 
ATOM     94  C   UNL A   1      51.543  39.657  28.440  1.00  0.00     0.006 A 
ENDBRANCH  70  87
ENDBRANCH  44  45
ENDBRANCH  36  39
ENDBRANCH  34  35
ENDBRANCH  33  34
ENDBRANCH  32  33
ENDBRANCH   1  32
TORSDOF 16
ENDMDL
MODEL 2
REMARK VINA RESULT:     -12.4      6.834     11.745
REMARK SMILES Cc1sc2nc(SCc3ccc(C(=O)NCCCCNC(=O)c4ccc(-c5c6nc(c(-c7c(F)cccc7F)c7ccc([nH]7)c(-c7c(F)cccc7F)c7nc(c(-c8c(F)cccc8F)c8ccc5[nH]8)C=C7)C=C6)cc4)cc3)n(Cc3ccco3)c(=O)c2c1C
REMARK SMILES IDX 16 1 15 2 13 3 14 4 12 6 9 7 10 8 78 9 11 10 77 11 8 12 7 13
REMARK SMILES IDX 6 14 1 15 2 16 3 17 89 18 4 19 88 20 90 21 5 22 86 23 79 24
REMARK SMILES IDX 87 25 80 26 81 27 82 28 85 29 83 30 84 31 17 32 18 33 19 34
REMARK SMILES IDX 20 35 21 36 22 38 23 39 24 40 76 41 25 42 75 43 26 44 27 45
REMARK SMILES IDX 28 46 69 47 29 48 74 49 68 50 70 51 30 52 73 53 67 54 66 55
REMARK SMILES IDX 31 57 57 58 40 59 56 60 41 61 44 62 55 63 71 64 42 65 43 66
REMARK SMILES IDX 54 68 72 69 45 70 32 71 33 72 38 73 34 74 35 75 37 76 39 77
REMARK SMILES IDX 36 78 58 79 59 80 64 81 60 82 61 83 63 84 65 85 62 86 46 87
REMARK SMILES IDX 47 88 52 89 48 90 49 91 51 92 53 93 50 94
REMARK H PARENT 15 5 20 37 70 56 44 67
REMARK Flexibility Score: inf
ROOT
ATOM      1  C   UNL A   1      43.127  21.499  25.696  1.00  0.00     0.116 C 
ENDROOT
BRANCH   1   2
ATOM      2  N   UNL A   1      42.417  21.278  26.941  1.00  0.00    -0.352 N 
ATOM      3  C   UNL A   1      41.106  21.432  27.337  1.00  0.00     0.251 C 
ATOM      4  O   UNL A   1      40.817  20.893  28.412  1.00  0.00    -0.269 OA
ATOM      5  H   UNL A   1      42.999  20.944  27.660  1.00  0.00     0.163 HD
BRANCH   3   6
ATOM      6  C   UNL A   1      40.052  22.263  26.656  1.00  0.00     0.039 A 
ATOM      7  C   UNL A   1      37.575  23.410  25.853  1.00  0.00    -0.038 A 
ATOM      8  C   UNL A   1      37.971  22.163  25.362  1.00  0.00     0.005 A 
ATOM      9  C   UNL A   1      38.555  24.177  26.492  1.00  0.00     0.005 A 
ATOM     10  C   UNL A   1      39.164  21.576  25.809  1.00  0.00     0.014 A 
ATOM     11  C   UNL A   1      39.790  23.617  26.857  1.00  0.00     0.014 A 
BRANCH   7  12
ATOM     12  C   UNL A   1      36.119  23.869  25.824  1.00  0.00     0.113 C 
BRANCH  12  13
ATOM     13  S   UNL A   1      35.164  22.973  24.562  1.00  0.00    -0.083 SA
BRANCH  13  14
ATOM     14  C   UNL A   1      33.744  23.826  23.953  1.00  0.00     0.173 A 
ATOM     15  C   UNL A   1      31.131  29.166  22.473  1.00  0.00     0.057 C 
ATOM     16  C   UNL A   1      31.604  27.777  22.754  1.00  0.00     0.007 A 
ATOM     17  S   UNL A   1      33.272  27.395  22.566  1.00  0.00    -0.120 S 
ATOM     18  C   UNL A   1      30.872  26.690  23.201  1.00  0.00    -0.022 A 
ATOM     19  C   UNL A   1      33.041  25.787  23.083  1.00  0.00     0.132 A 
ATOM     20  C   UNL A   1      31.710  25.531  23.281  1.00  0.00     0.080 A 
ATOM     21  C   UNL A   1      29.428  26.710  23.596  1.00  0.00     0.046 C 
ATOM     22  N   UNL A   1      34.065  24.928  23.330  1.00  0.00    -0.213 NA
ATOM     23  C   UNL A   1      31.358  24.194  23.668  1.00  0.00     0.263 A 
ATOM     24  N   UNL A   1      32.420  23.465  24.207  1.00  0.00    -0.279 N 
ATOM     25  O   UNL A   1      30.213  23.763  23.544  1.00  0.00    -0.268 OA
BRANCH  24  26
ATOM     26  C   UNL A   1      31.962  22.440  25.102  1.00  0.00     0.203 C 
BRANCH  26  27
ATOM     27  C   UNL A   1      32.201  21.111  24.479  1.00  0.00     0.123 A 
ATOM     28  C   UNL A   1      32.188  20.630  23.184  1.00  0.00     0.047 A 
ATOM     29  O   UNL A   1      32.527  20.103  25.339  1.00  0.00    -0.467 OA
ATOM     30  C   UNL A   1      32.506  19.254  23.263  1.00  0.00     0.042 A 
ATOM     31  C   UNL A   1      32.707  18.984  24.595  1.00  0.00     0.195 A 
ENDBRANCH  26  27
ENDBRANCH  24  26
ENDBRANCH  13  14
ENDBRANCH  12  13
ENDBRANCH   7  12
ENDBRANCH   3   6
ENDBRANCH   1   2
BRANCH   1  32
ATOM     32  C   UNL A   1      43.028  22.925  25.153  1.00  0.00     0.023 C 
BRANCH  32  33
ATOM     33  C   UNL A   1      43.792  24.029  25.898  1.00  0.00     0.023 C 
BRANCH  33  34
ATOM     34  C   UNL A   1      42.978  25.240  26.388  1.00  0.00     0.116 C 
BRANCH  34  35
ATOM     35  N   UNL A   1      43.029  26.354  25.456  1.00  0.00    -0.352 N 
ATOM     36  C   UNL A   1      42.398  27.570  25.435  1.00  0.00     0.251 C 
ATOM     37  H   UNL A   1      43.634  26.207  24.693  1.00  0.00     0.163 HD
ATOM     38  O   UNL A   1      42.485  28.252  24.415  1.00  0.00    -0.269 OA
BRANCH  36  39
ATOM     39  C   UNL A   1      41.628  28.108  26.580  1.00  0.00     0.039 A 
ATOM     40  C   UNL A   1      42.332  28.758  27.605  1.00  0.00     0.014 A 
ATOM     41  C   UNL A   1      40.272  27.837  26.751  1.00  0.00     0.014 A 
ATOM     42  C   UNL A   1      41.678  29.183  28.769  1.00  0.00     0.010 A 
ATOM     43  C   UNL A   1      39.624  28.250  27.925  1.00  0.00     0.010 A 
ATOM     44  C   UNL A   1      40.308  28.947  28.941  1.00  0.00    -0.014 A 
BRANCH  44  45
ATOM     45  C   UNL A   1      39.590  29.562  30.092  1.00  0.00     0.031 A 
ATOM     46  C   UNL A   1      39.836  28.914  31.414  1.00  0.00     0.074 A 
ATOM     47  C   UNL A   1      39.125  30.832  30.140  1.00  0.00     0.049 A 
ATOM     48  N   UNL A   1      40.900  29.180  32.113  1.00  0.00    -0.248 NA
ATOM     49  C   UNL A   1      39.069  27.776  31.916  1.00  0.00     0.031 C 
ATOM     50  C   UNL A   1      39.672  31.936  29.347  1.00  0.00     0.029 A 
ATOM     51  N   UNL A   1      38.275  31.451  31.038  1.00  0.00    -0.354 N 
ATOM     52  C   UNL A   1      41.008  28.208  33.086  1.00  0.00     0.074 A 
ATOM     53  C   UNL A   1      39.828  27.381  32.953  1.00  0.00     0.031 C 
ATOM     54  C   UNL A   1      39.277  33.102  29.901  1.00  0.00     0.029 A 
ATOM     55  C   UNL A   1      38.325  32.846  30.986  1.00  0.00     0.049 A 
ATOM     56  H   UNL A   1      37.689  30.956  31.655  1.00  0.00     0.167 HD
ATOM     57  C   UNL A   1      42.085  28.132  33.909  1.00  0.00     0.037 A 
ATOM     58  C   UNL A   1      38.192  33.682  32.055  1.00  0.00     0.037 A 
ATOM     59  C   UNL A   1      43.106  29.115  33.689  1.00  0.00     0.049 A 
ATOM     60  C   UNL A   1      39.345  33.289  32.929  1.00  0.00     0.074 A 
ATOM     61  C   UNL A   1      44.262  29.221  32.947  1.00  0.00     0.029 A 
ATOM     62  N   UNL A   1      42.954  30.351  34.273  1.00  0.00    -0.354 N 
ATOM     63  N   UNL A   1      40.580  33.672  32.774  1.00  0.00    -0.248 NA
ATOM     64  C   UNL A   1      39.158  32.168  33.850  1.00  0.00     0.031 C 
ATOM     65  C   UNL A   1      44.464  30.626  32.755  1.00  0.00     0.029 A 
ATOM     66  C   UNL A   1      43.379  31.270  33.347  1.00  0.00     0.049 A 
ATOM     67  H   UNL A   1      42.610  30.539  35.176  1.00  0.00     0.167 HD
ATOM     68  C   UNL A   1      41.352  32.676  33.369  1.00  0.00     0.074 A 
ATOM     69  C   UNL A   1      40.418  31.809  34.058  1.00  0.00     0.031 C 
ATOM     70  C   UNL A   1      42.680  32.507  33.101  1.00  0.00     0.037 A 
BRANCH  57  71
ATOM     71  C   UNL A   1      42.230  27.209  35.045  1.00  0.00     0.057 A 
ATOM     72  C   UNL A   1      41.574  27.407  36.260  1.00  0.00     0.134 A 
ATOM     73  C   UNL A   1      42.818  25.960  34.807  1.00  0.00     0.134 A 
ATOM     74  F   UNL A   1      40.980  28.577  36.533  1.00  0.00    -0.206 F 
ATOM     75  C   UNL A   1      41.465  26.370  37.190  1.00  0.00     0.040 A 
ATOM     76  C   UNL A   1      42.708  24.917  35.721  1.00  0.00     0.040 A 
ATOM     77  F   UNL A   1      43.445  25.723  33.642  1.00  0.00    -0.206 F 
ATOM     78  C   UNL A   1      42.014  25.116  36.911  1.00  0.00     0.006 A 
ENDBRANCH  57  71
BRANCH  58  79
ATOM     79  C   UNL A   1      36.825  33.945  32.605  1.00  0.00     0.057 A 
ATOM     80  C   UNL A   1      36.545  34.341  33.923  1.00  0.00     0.134 A 
ATOM     81  C   UNL A   1      35.711  33.870  31.750  1.00  0.00     0.134 A 
ATOM     82  F   UNL A   1      37.525  34.581  34.804  1.00  0.00    -0.206 F 
ATOM     83  C   UNL A   1      35.239  34.516  34.396  1.00  0.00     0.040 A 
ATOM     84  C   UNL A   1      34.401  34.071  32.200  1.00  0.00     0.040 A 
ATOM     85  F   UNL A   1      35.874  33.622  30.442  1.00  0.00    -0.206 F 
ATOM     86  C   UNL A   1      34.158  34.367  33.536  1.00  0.00     0.006 A 
ENDBRANCH  58  79
BRANCH  70  87
ATOM     87  C   UNL A   1      43.279  33.565  32.237  1.00  0.00     0.057 A 
ATOM     88  C   UNL A   1      43.886  34.706  32.780  1.00  0.00     0.134 A 
ATOM     89  C   UNL A   1      43.289  33.432  30.844  1.00  0.00     0.134 A 
ATOM     90  F   UNL A   1      43.943  34.894  34.109  1.00  0.00    -0.206 F 
ATOM     91  C   UNL A   1      44.453  35.690  31.968  1.00  0.00     0.040 A 
ATOM     92  C   UNL A   1      43.876  34.397  30.023  1.00  0.00     0.040 A 
ATOM     93  F   UNL A   1      42.722  32.364  30.259  1.00  0.00    -0.206 F 
ATOM     94  C   UNL A   1      44.453  35.534  30.585  1.00  0.00     0.006 A 
ENDBRANCH  70  87
ENDBRANCH  44  45
ENDBRANCH  36  39
ENDBRANCH  34  35
ENDBRANCH  33  34
ENDBRANCH  32  33
ENDBRANCH   1  32
TORSDOF 16
ENDMDL
MODEL 3
REMARK VINA RESULT:     -11.9      8.526     15.076
REMARK SMILES Cc1sc2nc(SCc3ccc(C(=O)NCCCCNC(=O)c4ccc(-c5c6nc(c(-c7c(F)cccc7F)c7ccc([nH]7)c(-c7c(F)cccc7F)c7nc(c(-c8c(F)cccc8F)c8ccc5[nH]8)C=C7)C=C6)cc4)cc3)n(Cc3ccco3)c(=O)c2c1C
REMARK SMILES IDX 16 1 15 2 13 3 14 4 12 6 9 7 10 8 78 9 11 10 77 11 8 12 7 13
REMARK SMILES IDX 6 14 1 15 2 16 3 17 89 18 4 19 88 20 90 21 5 22 86 23 79 24
REMARK SMILES IDX 87 25 80 26 81 27 82 28 85 29 83 30 84 31 17 32 18 33 19 34
REMARK SMILES IDX 20 35 21 36 22 38 23 39 24 40 76 41 25 42 75 43 26 44 27 45
REMARK SMILES IDX 28 46 69 47 29 48 74 49 68 50 70 51 30 52 73 53 67 54 66 55
REMARK SMILES IDX 31 57 57 58 40 59 56 60 41 61 44 62 55 63 71 64 42 65 43 66
REMARK SMILES IDX 54 68 72 69 45 70 32 71 33 72 38 73 34 74 35 75 37 76 39 77
REMARK SMILES IDX 36 78 58 79 59 80 64 81 60 82 61 83 63 84 65 85 62 86 46 87
REMARK SMILES IDX 47 88 52 89 48 90 49 91 51 92 53 93 50 94
REMARK H PARENT 15 5 20 37 70 56 44 67
REMARK Flexibility Score: inf
ROOT
ATOM      1  C   UNL A   1      42.519  27.852  35.750  1.00  0.00     0.116 C 
ENDROOT
BRANCH   1   2
ATOM      2  N   UNL A   1      43.595  28.595  35.125  1.00  0.00    -0.352 N 
ATOM      3  C   UNL A   1      43.718  29.876  34.634  1.00  0.00     0.251 C 
ATOM      4  O   UNL A   1      44.876  30.242  34.407  1.00  0.00    -0.269 OA
ATOM      5  H   UNL A   1      44.421  28.067  35.030  1.00  0.00     0.163 HD
BRANCH   3   6
ATOM      6  C   UNL A   1      42.595  30.806  34.257  1.00  0.00     0.039 A 
ATOM      7  C   UNL A   1      40.996  32.776  32.971  1.00  0.00    -0.038 A 
ATOM      8  C   UNL A   1      42.007  33.154  33.858  1.00  0.00     0.005 A 
ATOM      9  C   UNL A   1      40.618  31.430  32.979  1.00  0.00     0.005 A 
ATOM     10  C   UNL A   1      42.832  32.180  34.441  1.00  0.00     0.014 A 
ATOM     11  C   UNL A   1      41.392  30.464  33.644  1.00  0.00     0.014 A 
BRANCH   7  12
ATOM     12  C   UNL A   1      40.418  33.743  31.940  1.00  0.00     0.113 C 
BRANCH  12  13
ATOM     13  S   UNL A   1      38.838  34.447  32.501  1.00  0.00    -0.083 SA
BRANCH  13  14
ATOM     14  C   UNL A   1      38.570  34.389  34.244  1.00  0.00     0.173 A 
ATOM     15  C   UNL A   1      40.694  35.568  39.868  1.00  0.00     0.057 C 
ATOM     16  C   UNL A   1      40.001  35.233  38.588  1.00  0.00     0.007 A 
ATOM     17  S   UNL A   1      40.302  36.185  37.186  1.00  0.00    -0.120 S 
ATOM     18  C   UNL A   1      39.128  34.190  38.327  1.00  0.00    -0.022 A 
ATOM     19  C   UNL A   1      39.282  35.221  36.218  1.00  0.00     0.132 A 
ATOM     20  C   UNL A   1      38.651  34.273  36.978  1.00  0.00     0.080 A 
ATOM     21  C   UNL A   1      38.759  33.097  39.281  1.00  0.00     0.046 C 
ATOM     22  N   UNL A   1      39.193  35.352  34.869  1.00  0.00    -0.213 NA
ATOM     23  C   UNL A   1      37.715  33.418  36.303  1.00  0.00     0.263 A 
ATOM     24  N   UNL A   1      37.892  33.372  34.919  1.00  0.00    -0.279 N 
ATOM     25  O   UNL A   1      36.860  32.782  36.916  1.00  0.00    -0.268 OA
BRANCH  24  26
ATOM     26  C   UNL A   1      37.414  32.138  34.363  1.00  0.00     0.203 C 
BRANCH  26  27
ATOM     27  C   UNL A   1      36.257  32.425  33.472  1.00  0.00     0.123 A 
ATOM     28  C   UNL A   1      35.956  32.143  32.153  1.00  0.00     0.047 A 
ATOM     29  O   UNL A   1      35.223  33.107  34.043  1.00  0.00    -0.467 OA
ATOM     30  C   UNL A   1      34.679  32.698  31.906  1.00  0.00     0.042 A 
ATOM     31  C   UNL A   1      34.275  33.269  33.088  1.00  0.00     0.195 A 
ENDBRANCH  26  27
ENDBRANCH  24  26
ENDBRANCH  13  14
ENDBRANCH  12  13
ENDBRANCH   7  12
ENDBRANCH   3   6
ENDBRANCH   1   2
BRANCH   1  32
ATOM     32  C   UNL A   1      41.926  26.741  34.882  1.00  0.00     0.023 C 
BRANCH  32  33
ATOM     33  C   UNL A   1      41.805  25.340  35.499  1.00  0.00     0.023 C 
BRANCH  33  34
ATOM     34  C   UNL A   1      42.788  24.981  36.627  1.00  0.00     0.116 C 
BRANCH  34  35
ATOM     35  N   UNL A   1      43.547  23.777  36.337  1.00  0.00    -0.352 N 
ATOM     36  C   UNL A   1      44.234  23.363  35.226  1.00  0.00     0.251 C 
ATOM     37  H   UNL A   1      43.574  23.134  37.083  1.00  0.00     0.163 HD
ATOM     38  O   UNL A   1      44.633  22.200  35.190  1.00  0.00    -0.269 OA
BRANCH  36  39
ATOM     39  C   UNL A   1      44.529  24.247  34.075  1.00  0.00     0.039 A 
ATOM     40  C   UNL A   1      44.086  23.850  32.804  1.00  0.00     0.014 A 
ATOM     41  C   UNL A   1      45.368  25.353  34.188  1.00  0.00     0.014 A 
ATOM     42  C   UNL A   1      44.434  24.581  31.660  1.00  0.00     0.010 A 
ATOM     43  C   UNL A   1      45.728  26.072  33.039  1.00  0.00     0.010 A 
ATOM     44  C   UNL A   1      45.251  25.714  31.763  1.00  0.00    -0.014 A 
BRANCH  44  45
ATOM     45  C   UNL A   1      45.463  26.584  30.571  1.00  0.00     0.031 A 
ATOM     46  C   UNL A   1      45.455  25.875  29.257  1.00  0.00     0.074 A 
ATOM     47  C   UNL A   1      45.228  27.915  30.520  1.00  0.00     0.049 A 
ATOM     48  N   UNL A   1      44.342  25.563  28.661  1.00  0.00    -0.248 NA
ATOM     49  C   UNL A   1      46.638  25.261  28.660  1.00  0.00     0.031 C 
ATOM     50  C   UNL A   1      44.278  28.615  31.388  1.00  0.00     0.029 A 
ATOM     51  N   UNL A   1      45.575  28.859  29.570  1.00  0.00    -0.354 N 
ATOM     52  C   UNL A   1      44.646  24.649  27.674  1.00  0.00     0.074 A 
ATOM     53  C   UNL A   1      46.087  24.521  27.680  1.00  0.00     0.031 C 
ATOM     54  C   UNL A   1      43.990  29.813  30.836  1.00  0.00     0.029 A 
ATOM     55  C   UNL A   1      44.843  30.044  29.665  1.00  0.00     0.049 A 
ATOM     56  H   UNL A   1      46.272  28.710  28.891  1.00  0.00     0.167 HD
ATOM     57  C   UNL A   1      43.681  24.032  26.944  1.00  0.00     0.037 A 
ATOM     58  C   UNL A   1      44.446  30.816  28.614  1.00  0.00     0.037 A 
ATOM     59  C   UNL A   1      42.330  24.380  27.279  1.00  0.00     0.049 A 
ATOM     60  C   UNL A   1      43.569  29.885  27.832  1.00  0.00     0.074 A 
ATOM     61  C   UNL A   1      41.346  23.911  28.121  1.00  0.00     0.029 A 
ATOM     62  N   UNL A   1      41.795  25.517  26.720  1.00  0.00    -0.354 N 
ATOM     63  N   UNL A   1      42.326  29.606  28.103  1.00  0.00    -0.248 NA
ATOM     64  C   UNL A   1      44.206  28.990  26.867  1.00  0.00     0.031 C 
ATOM     65  C   UNL A   1      40.491  25.032  28.370  1.00  0.00     0.029 A 
ATOM     66  C   UNL A   1      41.053  26.120  27.706  1.00  0.00     0.049 A 
ATOM     67  H   UNL A   1      41.919  25.835  25.797  1.00  0.00     0.167 HD
ATOM     68  C   UNL A   1      42.102  28.347  27.549  1.00  0.00     0.074 A 
ATOM     69  C   UNL A   1      43.279  28.048  26.757  1.00  0.00     0.031 C 
ATOM     70  C   UNL A   1      41.064  27.545  27.926  1.00  0.00     0.037 A 
BRANCH  57  71
ATOM     71  C   UNL A   1      43.913  23.139  25.799  1.00  0.00     0.057 A 
ATOM     72  C   UNL A   1      44.585  23.554  24.649  1.00  0.00     0.134 A 
ATOM     73  C   UNL A   1      43.701  21.767  25.982  1.00  0.00     0.134 A 
ATOM     74  F   UNL A   1      44.829  24.854  24.432  1.00  0.00    -0.206 F 
ATOM     75  C   UNL A   1      45.075  22.620  23.732  1.00  0.00     0.040 A 
ATOM     76  C   UNL A   1      44.193  20.827  25.082  1.00  0.00     0.040 A 
ATOM     77  F   UNL A   1      43.074  21.324  27.085  1.00  0.00    -0.206 F 
ATOM     78  C   UNL A   1      44.898  21.253  23.959  1.00  0.00     0.006 A 
ENDBRANCH  57  71
BRANCH  58  79
ATOM     79  C   UNL A   1      45.447  31.714  27.956  1.00  0.00     0.057 A 
ATOM     80  C   UNL A   1      46.710  31.315  27.490  1.00  0.00     0.134 A 
ATOM     81  C   UNL A   1      45.108  33.054  27.700  1.00  0.00     0.134 A 
ATOM     82  F   UNL A   1      47.104  30.036  27.548  1.00  0.00    -0.206 F 
ATOM     83  C   UNL A   1      47.627  32.215  26.933  1.00  0.00     0.040 A 
ATOM     84  C   UNL A   1      46.003  33.961  27.118  1.00  0.00     0.040 A 
ATOM     85  F   UNL A   1      43.880  33.512  27.989  1.00  0.00    -0.206 F 
ATOM     86  C   UNL A   1      47.280  33.548  26.758  1.00  0.00     0.006 A 
ENDBRANCH  58  79
BRANCH  70  87
ATOM     87  C   UNL A   1      40.097  28.180  28.867  1.00  0.00     0.057 A 
ATOM     88  C   UNL A   1      40.241  28.074  30.257  1.00  0.00     0.134 A 
ATOM     89  C   UNL A   1      39.027  28.942  28.387  1.00  0.00     0.134 A 
ATOM     90  F   UNL A   1      41.258  27.384  30.797  1.00  0.00    -0.206 F 
ATOM     91  C   UNL A   1      39.337  28.678  31.134  1.00  0.00     0.040 A 
ATOM     92  C   UNL A   1      38.132  29.572  29.255  1.00  0.00     0.040 A 
ATOM     93  F   UNL A   1      38.830  29.083  27.065  1.00  0.00    -0.206 F 
ATOM     94  C   UNL A   1      38.282  29.434  30.632  1.00  0.00     0.006 A 
ENDBRANCH  70  87
ENDBRANCH  44  45
ENDBRANCH  36  39
ENDBRANCH  34  35
ENDBRANCH  33  34
ENDBRANCH  32  33
ENDBRANCH   1  32
TORSDOF 16
ENDMDL
