MODEL 1
REMARK VINA RESULT:     -10.0      0.000      0.000
REMARK SMILES CCN(CCC(=O)NCCCCNC(=O)c1ccc(-c2c3nc(c(-c4c(F)cccc4F)c4ccc([nH]4)c(-c4c(F)cccc4F)c4nc(c(-c5c(F)cccc5F)c5ccc2[nH]5)C=C4)C=C3)cc1)C(=O)N(C)CCc1cccs1
REMARK SMILES IDX 6 1 7 2 8 3 5 5 4 6 3 7 2 8 1 9 70 10 71 11 72 12 73 13
REMARK SMILES IDX 74 14 75 15 76 16 77 17 80 18 78 19 79 20 9 21 10 22 11 23
REMARK SMILES IDX 12 24 13 25 14 26 15 28 16 29 17 30 69 31 18 32 68 33 19 34
REMARK SMILES IDX 20 35 21 36 62 37 22 38 67 39 61 40 63 41 23 42 66 43 60 44
REMARK SMILES IDX 59 45 24 47 50 48 33 49 49 50 34 51 37 52 48 53 64 54 35 55
REMARK SMILES IDX 36 56 47 58 65 59 38 60 25 61 26 62 31 63 27 64 28 65 30 66
REMARK SMILES IDX 32 67 29 68 51 69 52 70 57 71 53 72 54 73 56 74 58 75 55 76
REMARK SMILES IDX 39 77 40 78 45 79 41 80 42 81 44 82 46 83 43 84
REMARK H PARENT 8 4 13 27 63 46 37 57
REMARK Flexibility Score: inf
ROOT
ATOM      1  C   UNL A   1      33.700  28.141  23.427  1.00  0.00     0.221 C 
ATOM      2  O   UNL A   1      34.098  28.389  22.283  1.00  0.00    -0.275 OA
ATOM      3  N   UNL A   1      33.318  29.181  24.213  1.00  0.00    -0.356 N 
ATOM      4  H   UNL A   1      33.497  30.039  23.766  1.00  0.00     0.163 HD
ENDROOT
BRANCH   1   5
ATOM      5  C   UNL A   1      33.661  26.730  23.903  1.00  0.00     0.121 C 
BRANCH   5   6
ATOM      6  C   UNL A   1      32.341  26.097  23.531  1.00  0.00     0.131 C 
BRANCH   6   7
ATOM      7  N   UNL A   1      31.335  26.206  24.591  1.00  0.00    -0.324 N 
BRANCH   7   8
ATOM      8  C   UNL A   1      30.185  27.051  24.168  1.00  0.00     0.118 C 
ATOM      9  C   UNL A   1      30.081  27.767  22.832  1.00  0.00     0.027 C 
ENDBRANCH   7   8
BRANCH   7  10
ATOM     10  C   UNL A   1      31.501  25.612  25.864  1.00  0.00     0.319 C 
ATOM     11  O   UNL A   1      31.460  26.262  26.908  1.00  0.00    -0.248 OA
BRANCH  10  12
ATOM     12  N   UNL A   1      31.706  24.190  25.884  1.00  0.00    -0.327 N 
ATOM     13  C   UNL A   1      30.554  23.558  26.532  1.00  0.00     0.148 C 
BRANCH  12  14
ATOM     14  C   UNL A   1      33.024  23.581  26.361  1.00  0.00     0.126 C 
BRANCH  14  15
ATOM     15  C   UNL A   1      34.560  23.688  25.837  1.00  0.00     0.068 C 
BRANCH  15  16
ATOM     16  C   UNL A   1      35.749  22.699  25.522  1.00  0.00     0.006 A 
ATOM     17  C   UNL A   1      35.912  21.383  25.102  1.00  0.00     0.015 A 
ATOM     18  S   UNL A   1      37.377  23.320  25.738  1.00  0.00    -0.149 S 
ATOM     19  C   UNL A   1      37.237  20.857  25.073  1.00  0.00     0.012 A 
ATOM     20  C   UNL A   1      38.140  21.820  25.413  1.00  0.00     0.065 A 
ENDBRANCH  15  16
ENDBRANCH  14  15
ENDBRANCH  12  14
ENDBRANCH  10  12
ENDBRANCH   7  10
ENDBRANCH   6   7
ENDBRANCH   5   6
ENDBRANCH   1   5
BRANCH   3  21
ATOM     21  C   UNL A   1      32.711  29.401  25.538  1.00  0.00     0.116 C 
BRANCH  21  22
ATOM     22  C   UNL A   1      31.702  30.585  25.963  1.00  0.00     0.023 C 
BRANCH  22  23
ATOM     23  C   UNL A   1      31.619  31.950  26.754  1.00  0.00     0.023 C 
BRANCH  23  24
ATOM     24  C   UNL A   1      32.750  32.800  27.357  1.00  0.00     0.116 C 
BRANCH  24  25
ATOM     25  N   UNL A   1      32.354  34.144  27.714  1.00  0.00    -0.352 N 
ATOM     26  C   UNL A   1      32.984  35.023  28.561  1.00  0.00     0.251 C 
ATOM     27  H   UNL A   1      31.524  34.470  27.297  1.00  0.00     0.163 HD
ATOM     28  O   UNL A   1      32.504  36.136  28.763  1.00  0.00    -0.269 OA
BRANCH  26  29
ATOM     29  C   UNL A   1      34.179  34.592  29.317  1.00  0.00     0.039 A 
ATOM     30  C   UNL A   1      33.969  34.027  30.578  1.00  0.00     0.014 A 
ATOM     31  C   UNL A   1      35.476  34.703  28.806  1.00  0.00     0.014 A 
ATOM     32  C   UNL A   1      35.042  33.488  31.284  1.00  0.00     0.010 A 
ATOM     33  C   UNL A   1      36.543  34.115  29.491  1.00  0.00     0.010 A 
ATOM     34  C   UNL A   1      36.330  33.481  30.725  1.00  0.00    -0.014 A 
BRANCH  34  35
ATOM     35  C   UNL A   1      37.421  32.747  31.411  1.00  0.00     0.031 A 
ATOM     36  C   UNL A   1      38.071  31.557  30.771  1.00  0.00     0.074 A 
ATOM     37  C   UNL A   1      37.822  33.173  32.626  1.00  0.00     0.049 A 
ATOM     38  N   UNL A   1      39.090  30.849  31.190  1.00  0.00    -0.248 NA
ATOM     39  C   UNL A   1      37.491  31.088  29.505  1.00  0.00     0.031 C 
ATOM     40  C   UNL A   1      37.217  34.282  33.369  1.00  0.00     0.029 A 
ATOM     41  N   UNL A   1      38.832  32.740  33.446  1.00  0.00    -0.354 N 
ATOM     42  C   UNL A   1      39.273  29.854  30.239  1.00  0.00     0.074 A 
ATOM     43  C   UNL A   1      38.227  30.015  29.252  1.00  0.00     0.031 C 
ATOM     44  C   UNL A   1      37.896  34.471  34.511  1.00  0.00     0.029 A 
ATOM     45  C   UNL A   1      38.968  33.485  34.594  1.00  0.00     0.049 A 
ATOM     46  H   UNL A   1      39.407  31.969  33.233  1.00  0.00     0.167 HD
ATOM     47  C   UNL A   1      40.241  28.906  30.185  1.00  0.00     0.037 A 
ATOM     48  C   UNL A   1      39.868  33.393  35.591  1.00  0.00     0.037 A 
ATOM     49  C   UNL A   1      41.279  28.762  31.172  1.00  0.00     0.049 A 
ATOM     50  C   UNL A   1      40.947  32.350  35.494  1.00  0.00     0.074 A 
ATOM     51  C   UNL A   1      42.330  27.862  31.198  1.00  0.00     0.029 A 
ATOM     52  N   UNL A   1      41.393  29.544  32.313  1.00  0.00    -0.354 N 
ATOM     53  N   UNL A   1      41.155  31.466  34.550  1.00  0.00    -0.248 NA
ATOM     54  C   UNL A   1      41.921  32.301  36.593  1.00  0.00     0.031 C 
ATOM     55  C   UNL A   1      43.061  28.079  32.372  1.00  0.00     0.029 A 
ATOM     56  C   UNL A   1      42.488  29.140  33.058  1.00  0.00     0.049 A 
ATOM     57  H   UNL A   1      40.785  30.279  32.557  1.00  0.00     0.167 HD
ATOM     58  C   UNL A   1      42.295  30.767  34.926  1.00  0.00     0.074 A 
ATOM     59  C   UNL A   1      42.743  31.347  36.177  1.00  0.00     0.031 C 
ATOM     60  C   UNL A   1      42.913  29.738  34.298  1.00  0.00     0.037 A 
BRANCH  47  61
ATOM     61  C   UNL A   1      40.209  27.961  29.018  1.00  0.00     0.057 A 
ATOM     62  C   UNL A   1      39.498  26.754  29.066  1.00  0.00     0.134 A 
ATOM     63  C   UNL A   1      40.896  28.257  27.834  1.00  0.00     0.134 A 
ATOM     64  F   UNL A   1      38.827  26.405  30.174  1.00  0.00    -0.206 F 
ATOM     65  C   UNL A   1      39.503  25.858  27.996  1.00  0.00     0.040 A 
ATOM     66  C   UNL A   1      40.887  27.381  26.746  1.00  0.00     0.040 A 
ATOM     67  F   UNL A   1      41.590  29.399  27.714  1.00  0.00    -0.206 F 
ATOM     68  C   UNL A   1      40.197  26.172  26.830  1.00  0.00     0.006 A 
ENDBRANCH  47  61
BRANCH  48  69
ATOM     69  C   UNL A   1      39.815  34.340  36.735  1.00  0.00     0.057 A 
ATOM     70  C   UNL A   1      39.169  33.999  37.929  1.00  0.00     0.134 A 
ATOM     71  C   UNL A   1      40.413  35.605  36.668  1.00  0.00     0.134 A 
ATOM     72  F   UNL A   1      38.563  32.808  38.052  1.00  0.00    -0.206 F 
ATOM     73  C   UNL A   1      39.102  34.885  39.007  1.00  0.00     0.040 A 
ATOM     74  C   UNL A   1      40.376  36.491  37.746  1.00  0.00     0.040 A 
ATOM     75  F   UNL A   1      41.057  35.990  35.557  1.00  0.00    -0.206 F 
ATOM     76  C   UNL A   1      39.712  36.133  38.918  1.00  0.00     0.006 A 
ENDBRANCH  48  69
BRANCH  60  77
ATOM     77  C   UNL A   1      44.149  29.189  34.946  1.00  0.00     0.057 A 
ATOM     78  C   UNL A   1      44.090  28.132  35.862  1.00  0.00     0.134 A 
ATOM     79  C   UNL A   1      45.412  29.695  34.617  1.00  0.00     0.134 A 
ATOM     80  F   UNL A   1      42.908  27.613  36.228  1.00  0.00    -0.206 F 
ATOM     81  C   UNL A   1      45.247  27.607  36.440  1.00  0.00     0.040 A 
ATOM     82  C   UNL A   1      46.576  29.164  35.171  1.00  0.00     0.040 A 
ATOM     83  F   UNL A   1      45.534  30.705  33.741  1.00  0.00    -0.206 F 
ATOM     84  C   UNL A   1      46.494  28.119  36.089  1.00  0.00     0.006 A 
ENDBRANCH  60  77
ENDBRANCH  34  35
ENDBRANCH  26  29
ENDBRANCH  24  25
ENDBRANCH  23  24
ENDBRANCH  22  23
ENDBRANCH  21  22
ENDBRANCH   3  21
TORSDOF 19
ENDMDL
MODEL 2
REMARK VINA RESULT:      -9.9      0.547      6.382
REMARK SMILES CCN(CCC(=O)NCCCCNC(=O)c1ccc(-c2c3nc(c(-c4c(F)cccc4F)c4ccc([nH]4)c(-c4c(F)cccc4F)c4nc(c(-c5c(F)cccc5F)c5ccc2[nH]5)C=C4)C=C3)cc1)C(=O)N(C)CCc1cccs1
REMARK SMILES IDX 6 1 7 2 8 3 5 5 4 6 3 7 2 8 1 9 70 10 71 11 72 12 73 13
REMARK SMILES IDX 74 14 75 15 76 16 77 17 80 18 78 19 79 20 9 21 10 22 11 23
REMARK SMILES IDX 12 24 13 25 14 26 15 28 16 29 17 30 69 31 18 32 68 33 19 34
REMARK SMILES IDX 20 35 21 36 62 37 22 38 67 39 61 40 63 41 23 42 66 43 60 44
REMARK SMILES IDX 59 45 24 47 50 48 33 49 49 50 34 51 37 52 48 53 64 54 35 55
REMARK SMILES IDX 36 56 47 58 65 59 38 60 25 61 26 62 31 63 27 64 28 65 30 66
REMARK SMILES IDX 32 67 29 68 51 69 52 70 57 71 53 72 54 73 56 74 58 75 55 76
REMARK SMILES IDX 39 77 40 78 45 79 41 80 42 81 44 82 46 83 43 84
REMARK H PARENT 8 4 13 27 63 46 37 57
REMARK Flexibility Score: inf
ROOT
ATOM      1  C   UNL A   1      33.631  27.997  23.268  1.00  0.00     0.221 C 
ATOM      2  O   UNL A   1      34.008  28.243  22.117  1.00  0.00    -0.275 OA
ATOM      3  N   UNL A   1      33.323  29.042  24.080  1.00  0.00    -0.356 N 
ATOM      4  H   UNL A   1      33.533  29.897  23.640  1.00  0.00     0.163 HD
ENDROOT
BRANCH   1   5
ATOM      5  C   UNL A   1      33.534  26.582  23.724  1.00  0.00     0.121 C 
BRANCH   5   6
ATOM      6  C   UNL A   1      32.245  25.968  23.228  1.00  0.00     0.131 C 
BRANCH   6   7
ATOM      7  N   UNL A   1      31.177  25.993  24.231  1.00  0.00    -0.324 N 
BRANCH   7   8
ATOM      8  C   UNL A   1      29.945  26.637  23.700  1.00  0.00     0.118 C 
ATOM      9  C   UNL A   1      29.883  28.038  23.115  1.00  0.00     0.027 C 
ENDBRANCH   7   8
BRANCH   7  10
ATOM     10  C   UNL A   1      31.354  25.505  25.547  1.00  0.00     0.319 C 
ATOM     11  O   UNL A   1      30.910  26.089  26.535  1.00  0.00    -0.248 OA
BRANCH  10  12
ATOM     12  N   UNL A   1      32.073  24.267  25.679  1.00  0.00    -0.327 N 
ATOM     13  C   UNL A   1      31.148  23.234  26.151  1.00  0.00     0.148 C 
BRANCH  12  14
ATOM     14  C   UNL A   1      33.413  24.198  26.408  1.00  0.00     0.126 C 
BRANCH  14  15
ATOM     15  C   UNL A   1      34.954  24.047  25.906  1.00  0.00     0.068 C 
BRANCH  15  16
ATOM     16  C   UNL A   1      35.929  22.878  25.489  1.00  0.00     0.006 A 
ATOM     17  C   UNL A   1      35.838  21.621  24.903  1.00  0.00     0.015 A 
ATOM     18  S   UNL A   1      37.637  23.112  25.821  1.00  0.00    -0.149 S 
ATOM     19  C   UNL A   1      37.027  20.836  24.833  1.00  0.00     0.012 A 
ATOM     20  C   UNL A   1      38.091  21.539  25.318  1.00  0.00     0.065 A 
ENDBRANCH  15  16
ENDBRANCH  14  15
ENDBRANCH  12  14
ENDBRANCH  10  12
ENDBRANCH   7  10
ENDBRANCH   6   7
ENDBRANCH   5   6
ENDBRANCH   1   5
BRANCH   3  21
ATOM     21  C   UNL A   1      32.766  29.271  25.425  1.00  0.00     0.116 C 
BRANCH  21  22
ATOM     22  C   UNL A   1      31.764  30.450  25.876  1.00  0.00     0.023 C 
BRANCH  22  23
ATOM     23  C   UNL A   1      31.668  31.757  26.760  1.00  0.00     0.023 C 
BRANCH  23  24
ATOM     24  C   UNL A   1      32.790  32.681  27.262  1.00  0.00     0.116 C 
BRANCH  24  25
ATOM     25  N   UNL A   1      32.338  33.988  27.681  1.00  0.00    -0.352 N 
ATOM     26  C   UNL A   1      32.962  34.880  28.519  1.00  0.00     0.251 C 
ATOM     27  H   UNL A   1      31.469  34.276  27.319  1.00  0.00     0.163 HD
ATOM     28  O   UNL A   1      32.430  35.957  28.780  1.00  0.00    -0.269 OA
BRANCH  26  29
ATOM     29  C   UNL A   1      34.220  34.500  29.197  1.00  0.00     0.039 A 
ATOM     30  C   UNL A   1      34.112  33.873  30.441  1.00  0.00     0.014 A 
ATOM     31  C   UNL A   1      35.478  34.717  28.628  1.00  0.00     0.014 A 
ATOM     32  C   UNL A   1      35.252  33.380  31.070  1.00  0.00     0.010 A 
ATOM     33  C   UNL A   1      36.616  34.176  29.235  1.00  0.00     0.010 A 
ATOM     34  C   UNL A   1      36.507  33.481  30.449  1.00  0.00    -0.014 A 
BRANCH  34  35
ATOM     35  C   UNL A   1      37.678  32.795  31.049  1.00  0.00     0.031 A 
ATOM     36  C   UNL A   1      38.233  33.236  32.371  1.00  0.00     0.074 A 
ATOM     37  C   UNL A   1      38.236  31.764  30.384  1.00  0.00     0.049 A 
ATOM     38  N   UNL A   1      39.197  32.703  33.079  1.00  0.00    -0.248 NA
ATOM     39  C   UNL A   1      37.644  34.444  32.967  1.00  0.00     0.031 C 
ATOM     40  C   UNL A   1      37.814  31.292  29.062  1.00  0.00     0.029 A 
ATOM     41  N   UNL A   1      39.262  30.919  30.724  1.00  0.00    -0.354 N 
ATOM     42  C   UNL A   1      39.328  33.507  34.203  1.00  0.00     0.074 A 
ATOM     43  C   UNL A   1      38.385  34.595  34.056  1.00  0.00     0.031 C 
ATOM     44  C   UNL A   1      38.543  30.216  28.725  1.00  0.00     0.029 A 
ATOM     45  C   UNL A   1      39.497  29.935  29.792  1.00  0.00     0.049 A 
ATOM     46  H   UNL A   1      39.780  31.008  31.556  1.00  0.00     0.167 HD
ATOM     47  C   UNL A   1      40.146  33.339  35.271  1.00  0.00     0.037 A 
ATOM     48  C   UNL A   1      40.371  28.912  29.808  1.00  0.00     0.037 A 
ATOM     49  C   UNL A   1      41.074  32.248  35.407  1.00  0.00     0.049 A 
ATOM     50  C   UNL A   1      41.249  28.732  31.016  1.00  0.00     0.074 A 
ATOM     51  C   UNL A   1      41.924  31.960  36.461  1.00  0.00     0.029 A 
ATOM     52  N   UNL A   1      41.275  31.263  34.450  1.00  0.00    -0.354 N 
ATOM     53  N   UNL A   1      41.307  29.456  32.107  1.00  0.00    -0.248 NA
ATOM     54  C   UNL A   1      42.172  27.590  31.001  1.00  0.00     0.031 C 
ATOM     55  C   UNL A   1      42.662  30.818  36.126  1.00  0.00     0.029 A 
ATOM     56  C   UNL A   1      42.244  30.373  34.881  1.00  0.00     0.049 A 
ATOM     57  H   UNL A   1      40.797  31.205  33.591  1.00  0.00     0.167 HD
ATOM     58  C   UNL A   1      42.255  28.848  32.919  1.00  0.00     0.074 A 
ATOM     59  C   UNL A   1      42.731  27.683  32.199  1.00  0.00     0.031 C 
ATOM     60  C   UNL A   1      42.696  29.219  34.145  1.00  0.00     0.037 A 
BRANCH  47  61
ATOM     61  C   UNL A   1      40.061  34.364  36.367  1.00  0.00     0.057 A 
ATOM     62  C   UNL A   1      40.788  35.561  36.314  1.00  0.00     0.134 A 
ATOM     63  C   UNL A   1      39.247  34.155  37.487  1.00  0.00     0.134 A 
ATOM     64  F   UNL A   1      41.595  35.820  35.274  1.00  0.00    -0.206 F 
ATOM     65  C   UNL A   1      40.740  36.493  37.351  1.00  0.00     0.040 A 
ATOM     66  C   UNL A   1      39.170  35.092  38.519  1.00  0.00     0.040 A 
ATOM     67  F   UNL A   1      38.515  33.036  37.599  1.00  0.00    -0.206 F 
ATOM     68  C   UNL A   1      39.926  36.261  38.458  1.00  0.00     0.006 A 
ENDBRANCH  47  61
BRANCH  48  69
ATOM     69  C   UNL A   1      40.425  27.958  28.671  1.00  0.00     0.057 A 
ATOM     70  C   UNL A   1      41.169  28.244  27.519  1.00  0.00     0.134 A 
ATOM     71  C   UNL A   1      39.743  26.735  28.707  1.00  0.00     0.134 A 
ATOM     72  F   UNL A   1      41.833  29.405  27.416  1.00  0.00    -0.206 F 
ATOM     73  C   UNL A   1      41.217  27.360  26.439  1.00  0.00     0.040 A 
ATOM     74  C   UNL A   1      39.802  25.831  27.643  1.00  0.00     0.040 A 
ATOM     75  F   UNL A   1      39.020  26.395  29.784  1.00  0.00    -0.206 F 
ATOM     76  C   UNL A   1      40.537  26.147  26.503  1.00  0.00     0.006 A 
ENDBRANCH  48  69
BRANCH  60  77
ATOM     77  C   UNL A   1      43.729  28.345  34.790  1.00  0.00     0.057 A 
ATOM     78  C   UNL A   1      45.099  28.595  34.641  1.00  0.00     0.134 A 
ATOM     79  C   UNL A   1      43.349  27.271  35.603  1.00  0.00     0.134 A 
ATOM     80  F   UNL A   1      45.526  29.602  33.864  1.00  0.00    -0.206 F 
ATOM     81  C   UNL A   1      46.056  27.795  35.266  1.00  0.00     0.040 A 
ATOM     82  C   UNL A   1      44.295  26.478  36.251  1.00  0.00     0.040 A 
ATOM     83  F   UNL A   1      42.051  26.983  35.789  1.00  0.00    -0.206 F 
ATOM     84  C   UNL A   1      45.654  26.737  36.080  1.00  0.00     0.006 A 
ENDBRANCH  60  77
ENDBRANCH  34  35
ENDBRANCH  26  29
ENDBRANCH  24  25
ENDBRANCH  23  24
ENDBRANCH  22  23
ENDBRANCH  21  22
ENDBRANCH   3  21
TORSDOF 19
ENDMDL
MODEL 3
REMARK VINA RESULT:      -9.8      2.771      7.682
REMARK SMILES CCN(CCC(=O)NCCCCNC(=O)c1ccc(-c2c3nc(c(-c4c(F)cccc4F)c4ccc([nH]4)c(-c4c(F)cccc4F)c4nc(c(-c5c(F)cccc5F)c5ccc2[nH]5)C=C4)C=C3)cc1)C(=O)N(C)CCc1cccs1
REMARK SMILES IDX 6 1 7 2 8 3 5 5 4 6 3 7 2 8 1 9 70 10 71 11 72 12 73 13
REMARK SMILES IDX 74 14 75 15 76 16 77 17 80 18 78 19 79 20 9 21 10 22 11 23
REMARK SMILES IDX 12 24 13 25 14 26 15 28 16 29 17 30 69 31 18 32 68 33 19 34
REMARK SMILES IDX 20 35 21 36 62 37 22 38 67 39 61 40 63 41 23 42 66 43 60 44
REMARK SMILES IDX 59 45 24 47 50 48 33 49 49 50 34 51 37 52 48 53 64 54 35 55
REMARK SMILES IDX 36 56 47 58 65 59 38 60 25 61 26 62 31 63 27 64 28 65 30 66
REMARK SMILES IDX 32 67 29 68 51 69 52 70 57 71 53 72 54 73 56 74 58 75 55 76
REMARK SMILES IDX 39 77 40 78 45 79 41 80 42 81 44 82 46 83 43 84
REMARK H PARENT 8 4 13 27 63 46 37 57
REMARK Flexibility Score: inf
ROOT
ATOM      1  C   UNL A   1      36.286  23.086  24.002  1.00  0.00     0.221 C 
ATOM      2  O   UNL A   1      35.946  23.270  22.828  1.00  0.00    -0.275 OA
ATOM      3  N   UNL A   1      37.292  22.206  24.248  1.00  0.00    -0.356 N 
ATOM      4  H   UNL A   1      37.569  21.754  23.419  1.00  0.00     0.163 HD
ENDROOT
BRANCH   1   5
ATOM      5  C   UNL A   1      35.587  23.819  25.094  1.00  0.00     0.121 C 
BRANCH   5   6
ATOM      6  C   UNL A   1      34.504  24.699  24.514  1.00  0.00     0.131 C 
BRANCH   6   7
ATOM      7  N   UNL A   1      33.298  24.745  25.346  1.00  0.00    -0.324 N 
BRANCH   7   8
ATOM      8  C   UNL A   1      33.215  26.015  26.116  1.00  0.00     0.118 C 
ATOM      9  C   UNL A   1      33.889  27.317  25.716  1.00  0.00     0.027 C 
ENDBRANCH   7   8
BRANCH   7  10
ATOM     10  C   UNL A   1      32.381  23.670  25.421  1.00  0.00     0.319 C 
ATOM     11  O   UNL A   1      31.592  23.538  26.355  1.00  0.00    -0.248 OA
BRANCH  10  12
ATOM     12  N   UNL A   1      32.402  22.735  24.330  1.00  0.00    -0.327 N 
ATOM     13  C   UNL A   1      31.326  23.076  23.397  1.00  0.00     0.148 C 
BRANCH  12  14
ATOM     14  C   UNL A   1      32.479  21.229  24.573  1.00  0.00     0.126 C 
BRANCH  14  15
ATOM     15  C   UNL A   1      33.697  20.150  24.536  1.00  0.00     0.068 C 
BRANCH  15  16
ATOM     16  C   UNL A   1      33.861  18.583  24.631  1.00  0.00     0.006 A 
ATOM     17  C   UNL A   1      34.795  17.621  24.264  1.00  0.00     0.015 A 
ATOM     18  S   UNL A   1      32.550  17.691  25.385  1.00  0.00    -0.149 S 
ATOM     19  C   UNL A   1      34.443  16.251  24.451  1.00  0.00     0.012 A 
ATOM     20  C   UNL A   1      33.222  16.151  25.051  1.00  0.00     0.065 A 
ENDBRANCH  15  16
ENDBRANCH  14  15
ENDBRANCH  12  14
ENDBRANCH  10  12
ENDBRANCH   7  10
ENDBRANCH   6   7
ENDBRANCH   5   6
ENDBRANCH   1   5
BRANCH   3  21
ATOM     21  C   UNL A   1      38.090  21.731  25.392  1.00  0.00     0.116 C 
BRANCH  21  22
ATOM     22  C   UNL A   1      39.054  22.611  26.339  1.00  0.00     0.023 C 
BRANCH  22  23
ATOM     23  C   UNL A   1      40.385  22.551  27.189  1.00  0.00     0.023 C 
BRANCH  23  24
ATOM     24  C   UNL A   1      41.750  23.205  26.915  1.00  0.00     0.116 C 
BRANCH  24  25
ATOM     25  N   UNL A   1      41.735  24.180  25.849  1.00  0.00    -0.352 N 
ATOM     26  C   UNL A   1      41.645  25.547  25.944  1.00  0.00     0.251 C 
ATOM     27  H   UNL A   1      41.797  23.817  24.936  1.00  0.00     0.163 HD
ATOM     28  O   UNL A   1      41.638  26.237  24.926  1.00  0.00    -0.269 OA
BRANCH  26  29
ATOM     29  C   UNL A   1      41.443  26.184  27.262  1.00  0.00     0.039 A 
ATOM     30  C   UNL A   1      42.427  27.074  27.701  1.00  0.00     0.014 A 
ATOM     31  C   UNL A   1      40.310  25.950  28.047  1.00  0.00     0.014 A 
ATOM     32  C   UNL A   1      42.234  27.799  28.874  1.00  0.00     0.010 A 
ATOM     33  C   UNL A   1      40.092  26.716  29.196  1.00  0.00     0.010 A 
ATOM     34  C   UNL A   1      41.042  27.666  29.604  1.00  0.00    -0.014 A 
BRANCH  34  35
ATOM     35  C   UNL A   1      40.780  28.572  30.749  1.00  0.00     0.031 A 
ATOM     36  C   UNL A   1      41.595  28.484  32.003  1.00  0.00     0.074 A 
ATOM     37  C   UNL A   1      39.791  29.482  30.640  1.00  0.00     0.049 A 
ATOM     38  N   UNL A   1      41.558  29.247  33.067  1.00  0.00    -0.248 NA
ATOM     39  C   UNL A   1      42.568  27.384  32.085  1.00  0.00     0.031 C 
ATOM     40  C   UNL A   1      38.895  29.615  29.487  1.00  0.00     0.029 A 
ATOM     41  N   UNL A   1      39.379  30.474  31.493  1.00  0.00    -0.354 N 
ATOM     42  C   UNL A   1      42.500  28.722  33.941  1.00  0.00     0.074 A 
ATOM     43  C   UNL A   1      43.053  27.544  33.308  1.00  0.00     0.031 C 
ATOM     44  C   UNL A   1      38.070  30.656  29.686  1.00  0.00     0.029 A 
ATOM     45  C   UNL A   1      38.363  31.250  30.986  1.00  0.00     0.049 A 
ATOM     46  H   UNL A   1      39.773  30.618  32.383  1.00  0.00     0.167 HD
ATOM     47  C   UNL A   1      42.884  29.195  35.152  1.00  0.00     0.037 A 
ATOM     48  C   UNL A   1      37.750  32.331  31.505  1.00  0.00     0.037 A 
ATOM     49  C   UNL A   1      42.330  30.372  35.767  1.00  0.00     0.049 A 
ATOM     50  C   UNL A   1      38.212  32.851  32.838  1.00  0.00     0.074 A 
ATOM     51  C   UNL A   1      42.668  30.961  36.972  1.00  0.00     0.029 A 
ATOM     52  N   UNL A   1      41.313  31.140  35.218  1.00  0.00    -0.354 N 
ATOM     53  N   UNL A   1      39.159  32.390  33.619  1.00  0.00    -0.248 NA
ATOM     54  C   UNL A   1      37.531  34.045  33.356  1.00  0.00     0.031 C 
ATOM     55  C   UNL A   1      41.833  32.068  37.167  1.00  0.00     0.029 A 
ATOM     56  C   UNL A   1      41.001  32.191  36.065  1.00  0.00     0.049 A 
ATOM     57  H   UNL A   1      40.877  30.965  34.352  1.00  0.00     0.167 HD
ATOM     58  C   UNL A   1      39.204  33.247  34.710  1.00  0.00     0.074 A 
ATOM     59  C   UNL A   1      38.201  34.268  34.478  1.00  0.00     0.031 C 
ATOM     60  C   UNL A   1      39.999  33.194  35.806  1.00  0.00     0.037 A 
BRANCH  47  61
ATOM     61  C   UNL A   1      43.953  28.429  35.879  1.00  0.00     0.057 A 
ATOM     62  C   UNL A   1      43.641  27.388  36.764  1.00  0.00     0.134 A 
ATOM     63  C   UNL A   1      45.308  28.734  35.695  1.00  0.00     0.134 A 
ATOM     64  F   UNL A   1      42.364  27.051  36.993  1.00  0.00    -0.206 F 
ATOM     65  C   UNL A   1      44.634  26.704  37.468  1.00  0.00     0.040 A 
ATOM     66  C   UNL A   1      46.311  28.040  36.375  1.00  0.00     0.040 A 
ATOM     67  F   UNL A   1      45.680  29.712  34.856  1.00  0.00    -0.206 F 
ATOM     68  C   UNL A   1      45.974  27.028  37.273  1.00  0.00     0.006 A 
ENDBRANCH  47  61
BRANCH  48  69
ATOM     69  C   UNL A   1      36.673  33.016  30.745  1.00  0.00     0.057 A 
ATOM     70  C   UNL A   1      35.325  32.840  31.080  1.00  0.00     0.134 A 
ATOM     71  C   UNL A   1      36.961  33.867  29.671  1.00  0.00     0.134 A 
ATOM     72  F   UNL A   1      34.981  32.027  32.089  1.00  0.00    -0.206 F 
ATOM     73  C   UNL A   1      34.303  33.470  30.365  1.00  0.00     0.040 A 
ATOM     74  C   UNL A   1      35.951  34.522  28.963  1.00  0.00     0.040 A 
ATOM     75  F   UNL A   1      38.232  34.086  29.304  1.00  0.00    -0.206 F 
ATOM     76  C   UNL A   1      34.617  34.318  29.307  1.00  0.00     0.006 A 
ENDBRANCH  48  69
BRANCH  60  77
ATOM     77  C   UNL A   1      39.827  34.281  36.824  1.00  0.00     0.057 A 
ATOM     78  C   UNL A   1      40.440  35.531  36.676  1.00  0.00     0.134 A 
ATOM     79  C   UNL A   1      39.003  34.089  37.940  1.00  0.00     0.134 A 
ATOM     80  F   UNL A   1      41.251  35.772  35.635  1.00  0.00    -0.206 F 
ATOM     81  C   UNL A   1      40.252  36.548  37.613  1.00  0.00     0.040 A 
ATOM     82  C   UNL A   1      38.790  35.105  38.871  1.00  0.00     0.040 A 
ATOM     83  F   UNL A   1      38.384  32.914  38.136  1.00  0.00    -0.206 F 
ATOM     84  C   UNL A   1      39.420  36.339  38.710  1.00  0.00     0.006 A 
ENDBRANCH  60  77
ENDBRANCH  34  35
ENDBRANCH  26  29
ENDBRANCH  24  25
ENDBRANCH  23  24
ENDBRANCH  22  23
ENDBRANCH  21  22
ENDBRANCH   3  21
TORSDOF 19
ENDMDL
