MODEL 1
REMARK VINA RESULT:     -10.8      0.000      0.000
REMARK SMILES CCC(CC)(NC(=O)NCCc1nccs1)C(=O)NCCCCNC(=O)c1ccc(-c2c3nc(c(-c4c(F)cccc4F)c4ccc([nH]4)c(-c4c(F)cccc4F)c4nc(c(-c5c(F)cccc5F)c5ccc2[nH]5)C=C4)C=C3)cc1
REMARK SMILES IDX 20 1 19 2 17 3 18 4 3 6 2 7 1 8 4 9 5 10 6 11 7 12 8 14 9 15
REMARK SMILES IDX 10 17 11 18 12 19 13 20 16 21 14 22 15 23 21 24 22 25 23 26
REMARK SMILES IDX 24 27 25 28 26 30 27 31 28 32 80 33 29 34 79 35 30 36 31 37
REMARK SMILES IDX 32 38 73 39 33 40 78 41 72 42 74 43 34 44 77 45 71 46 70 47
REMARK SMILES IDX 35 49 61 50 44 51 60 52 45 53 48 54 59 55 75 56 46 57 47 58
REMARK SMILES IDX 58 60 76 61 49 62 36 63 37 64 42 65 38 66 39 67 41 68 43 69
REMARK SMILES IDX 40 70 62 71 63 72 68 73 64 74 65 75 67 76 69 77 66 78 50 79
REMARK SMILES IDX 51 80 56 81 52 82 53 83 55 84 57 85 54 86
REMARK H PARENT 19 5 6 13 9 16 24 29 74 48 48 59
REMARK Flexibility Score: inf
ROOT
ATOM      1  C   UNL A   1      32.056  29.715  25.573  1.00  0.00     0.116 C 
ENDROOT
BRANCH   1   2
ATOM      2  N   UNL A   1      33.090  29.646  24.544  1.00  0.00    -0.354 N 
ATOM      3  C   UNL A   1      33.429  28.697  23.606  1.00  0.00     0.245 C 
ATOM      4  O   UNL A   1      34.210  29.060  22.719  1.00  0.00    -0.272 OA
ATOM      5  H   UNL A   1      33.667  30.444  24.516  1.00  0.00     0.163 HD
BRANCH   3   6
ATOM      6  C   UNL A   1      32.768  27.291  23.576  1.00  0.00     0.120 C 
BRANCH   6   7
ATOM      7  C   UNL A   1      31.267  27.195  23.973  1.00  0.00     0.035 C 
ATOM      8  C   UNL A   1      30.240  27.824  23.039  1.00  0.00     0.007 C 
ENDBRANCH   6   7
BRANCH   6   9
ATOM      9  C   UNL A   1      33.618  26.455  24.600  1.00  0.00     0.035 C 
ATOM     10  C   UNL A   1      33.006  26.197  25.969  1.00  0.00     0.007 C 
ENDBRANCH   6   9
BRANCH   6  11
ATOM     11  N   UNL A   1      32.896  26.788  22.193  1.00  0.00    -0.324 N 
ATOM     12  C   UNL A   1      32.785  25.599  21.590  1.00  0.00     0.315 C 
ATOM     13  H   UNL A   1      33.117  27.506  21.557  1.00  0.00     0.166 HD
ATOM     14  O   UNL A   1      33.119  25.559  20.401  1.00  0.00    -0.249 OA
ATOM     15  N   UNL A   1      32.276  24.474  22.103  1.00  0.00    -0.338 N 
ATOM     16  H   UNL A   1      32.003  23.858  21.385  1.00  0.00     0.165 HD
BRANCH  15  17
ATOM     17  C   UNL A   1      32.006  23.889  23.415  1.00  0.00     0.125 C 
BRANCH  17  18
ATOM     18  C   UNL A   1      32.750  22.608  23.800  1.00  0.00     0.089 C 
BRANCH  18  19
ATOM     19  C   UNL A   1      34.249  22.572  23.840  1.00  0.00     0.094 A 
ATOM     20  N   UNL A   1      34.964  23.215  22.933  1.00  0.00    -0.250 NA
ATOM     21  S   UNL A   1      35.169  21.728  25.017  1.00  0.00    -0.127 S 
ATOM     22  C   UNL A   1      36.310  23.011  23.150  1.00  0.00     0.123 A 
ATOM     23  C   UNL A   1      36.616  22.242  24.250  1.00  0.00     0.087 A 
ENDBRANCH  18  19
ENDBRANCH  17  18
ENDBRANCH  15  17
ENDBRANCH   6  11
ENDBRANCH   3   6
ENDBRANCH   1   2
BRANCH   1  24
ATOM     24  C   UNL A   1      31.010  30.827  25.462  1.00  0.00     0.023 C 
BRANCH  24  25
ATOM     25  C   UNL A   1      31.053  31.947  26.492  1.00  0.00     0.023 C 
BRANCH  25  26
ATOM     26  C   UNL A   1      32.439  32.423  26.893  1.00  0.00     0.116 C 
BRANCH  26  27
ATOM     27  N   UNL A   1      32.428  33.788  27.390  1.00  0.00    -0.352 N 
ATOM     28  C   UNL A   1      33.205  34.371  28.360  1.00  0.00     0.251 C 
ATOM     29  H   UNL A   1      31.765  34.382  26.972  1.00  0.00     0.163 HD
ATOM     30  O   UNL A   1      32.937  35.501  28.755  1.00  0.00    -0.269 OA
BRANCH  28  31
ATOM     31  C   UNL A   1      34.353  33.642  28.943  1.00  0.00     0.039 A 
ATOM     32  C   UNL A   1      35.645  34.076  28.631  1.00  0.00     0.014 A 
ATOM     33  C   UNL A   1      34.171  32.518  29.753  1.00  0.00     0.014 A 
ATOM     34  C   UNL A   1      36.751  33.410  29.161  1.00  0.00     0.010 A 
ATOM     35  C   UNL A   1      35.273  31.892  30.332  1.00  0.00     0.010 A 
ATOM     36  C   UNL A   1      36.573  32.323  30.031  1.00  0.00    -0.014 A 
BRANCH  36  37
ATOM     37  C   UNL A   1      37.737  31.613  30.615  1.00  0.00     0.031 A 
ATOM     38  C   UNL A   1      38.193  31.933  32.011  1.00  0.00     0.074 A 
ATOM     39  C   UNL A   1      38.412  30.715  29.873  1.00  0.00     0.049 A 
ATOM     40  N   UNL A   1      39.218  31.464  32.675  1.00  0.00    -0.248 NA
ATOM     41  C   UNL A   1      37.403  32.931  32.752  1.00  0.00     0.031 C 
ATOM     42  C   UNL A   1      38.091  30.343  28.494  1.00  0.00     0.029 A 
ATOM     43  N   UNL A   1      39.516  29.959  30.174  1.00  0.00    -0.354 N 
ATOM     44  C   UNL A   1      39.205  32.116  33.902  1.00  0.00     0.074 A 
ATOM     45  C   UNL A   1      38.098  33.048  33.874  1.00  0.00     0.031 C 
ATOM     46  C   UNL A   1      38.969  29.418  28.075  1.00  0.00     0.029 A 
ATOM     47  C   UNL A   1      39.930  29.155  29.142  1.00  0.00     0.049 A 
ATOM     48  H   UNL A   1      39.969  29.989  31.048  1.00  0.00     0.167 HD
ATOM     49  C   UNL A   1      40.028  31.941  34.963  1.00  0.00     0.037 A 
ATOM     50  C   UNL A   1      40.971  28.304  29.063  1.00  0.00     0.037 A 
ATOM     51  C   UNL A   1      41.113  30.996  35.000  1.00  0.00     0.049 A 
ATOM     52  C   UNL A   1      41.869  28.126  30.255  1.00  0.00     0.074 A 
ATOM     53  C   UNL A   1      41.971  30.707  36.047  1.00  0.00     0.029 A 
ATOM     54  N   UNL A   1      41.489  30.186  33.939  1.00  0.00    -0.354 N 
ATOM     55  N   UNL A   1      41.811  28.707  31.428  1.00  0.00    -0.248 NA
ATOM     56  C   UNL A   1      42.975  27.167  30.114  1.00  0.00     0.031 C 
ATOM     57  C   UNL A   1      42.888  29.747  35.609  1.00  0.00     0.029 A 
ATOM     58  C   UNL A   1      42.577  29.409  34.302  1.00  0.00     0.049 A 
ATOM     59  H   UNL A   1      41.049  30.166  33.060  1.00  0.00     0.167 HD
ATOM     60  C   UNL A   1      42.853  28.169  32.173  1.00  0.00     0.074 A 
ATOM     61  C   UNL A   1      43.520  27.205  31.322  1.00  0.00     0.031 C 
ATOM     62  C   UNL A   1      43.225  28.449  33.446  1.00  0.00     0.037 A 
BRANCH  49  63
ATOM     63  C   UNL A   1      39.779  32.787  36.176  1.00  0.00     0.057 A 
ATOM     64  C   UNL A   1      40.483  33.977  36.402  1.00  0.00     0.134 A 
ATOM     65  C   UNL A   1      38.804  32.425  37.115  1.00  0.00     0.134 A 
ATOM     66  F   UNL A   1      41.439  34.372  35.547  1.00  0.00    -0.206 F 
ATOM     67  C   UNL A   1      40.245  34.764  37.530  1.00  0.00     0.040 A 
ATOM     68  C   UNL A   1      38.540  33.217  38.233  1.00  0.00     0.040 A 
ATOM     69  F   UNL A   1      38.090  31.301  36.956  1.00  0.00    -0.206 F 
ATOM     70  C   UNL A   1      39.267  34.387  38.446  1.00  0.00     0.006 A 
ENDBRANCH  49  63
BRANCH  50  71
ATOM     71  C   UNL A   1      41.208  27.539  27.815  1.00  0.00     0.057 A 
ATOM     72  C   UNL A   1      41.969  28.079  26.772  1.00  0.00     0.134 A 
ATOM     73  C   UNL A   1      40.680  26.255  27.633  1.00  0.00     0.134 A 
ATOM     74  F   UNL A   1      42.486  29.312  26.882  1.00  0.00    -0.206 F 
ATOM     75  C   UNL A   1      42.183  27.377  25.584  1.00  0.00     0.040 A 
ATOM     76  C   UNL A   1      40.904  25.534  26.459  1.00  0.00     0.040 A 
ATOM     77  F   UNL A   1      39.950  25.679  28.600  1.00  0.00    -0.206 F 
ATOM     78  C   UNL A   1      41.652  26.098  25.428  1.00  0.00     0.006 A 
ENDBRANCH  50  71
BRANCH  62  79
ATOM     79  C   UNL A   1      44.386  27.683  34.004  1.00  0.00     0.057 A 
ATOM     80  C   UNL A   1      45.693  28.182  33.952  1.00  0.00     0.134 A 
ATOM     81  C   UNL A   1      44.188  26.449  34.636  1.00  0.00     0.134 A 
ATOM     82  F   UNL A   1      45.950  29.352  33.347  1.00  0.00    -0.206 F 
ATOM     83  C   UNL A   1      46.766  27.471  34.491  1.00  0.00     0.040 A 
ATOM     84  C   UNL A   1      45.249  25.741  35.200  1.00  0.00     0.040 A 
ATOM     85  F   UNL A   1      42.959  25.920  34.727  1.00  0.00    -0.206 F 
ATOM     86  C   UNL A   1      46.544  26.250  35.124  1.00  0.00     0.006 A 
ENDBRANCH  62  79
ENDBRANCH  36  37
ENDBRANCH  28  31
ENDBRANCH  26  27
ENDBRANCH  25  26
ENDBRANCH  24  25
ENDBRANCH   1  24
TORSDOF 17
ENDMDL
MODEL 2
REMARK VINA RESULT:     -10.5      4.583      8.868
REMARK SMILES CCC(CC)(NC(=O)NCCc1nccs1)C(=O)NCCCCNC(=O)c1ccc(-c2c3nc(c(-c4c(F)cccc4F)c4ccc([nH]4)c(-c4c(F)cccc4F)c4nc(c(-c5c(F)cccc5F)c5ccc2[nH]5)C=C4)C=C3)cc1
REMARK SMILES IDX 20 1 19 2 17 3 18 4 3 6 2 7 1 8 4 9 5 10 6 11 7 12 8 14 9 15
REMARK SMILES IDX 10 17 11 18 12 19 13 20 16 21 14 22 15 23 21 24 22 25 23 26
REMARK SMILES IDX 24 27 25 28 26 30 27 31 28 32 80 33 29 34 79 35 30 36 31 37
REMARK SMILES IDX 32 38 73 39 33 40 78 41 72 42 74 43 34 44 77 45 71 46 70 47
REMARK SMILES IDX 35 49 61 50 44 51 60 52 45 53 48 54 59 55 75 56 46 57 47 58
REMARK SMILES IDX 58 60 76 61 49 62 36 63 37 64 42 65 38 66 39 67 41 68 43 69
REMARK SMILES IDX 40 70 62 71 63 72 68 73 64 74 65 75 67 76 69 77 66 78 50 79
REMARK SMILES IDX 51 80 56 81 52 82 53 83 55 84 57 85 54 86
REMARK H PARENT 19 5 6 13 9 16 24 29 74 48 48 59
REMARK Flexibility Score: inf
ROOT
ATOM      1  C   UNL A   1      35.672  20.784  24.988  1.00  0.00     0.116 C 
ENDROOT
BRANCH   1   2
ATOM      2  N   UNL A   1      35.231  21.135  26.336  1.00  0.00    -0.354 N 
ATOM      3  C   UNL A   1      34.125  21.791  26.827  1.00  0.00     0.245 C 
ATOM      4  O   UNL A   1      33.936  21.705  28.046  1.00  0.00    -0.272 OA
ATOM      5  H   UNL A   1      35.854  20.842  27.039  1.00  0.00     0.163 HD
BRANCH   3   6
ATOM      6  C   UNL A   1      33.094  22.486  25.897  1.00  0.00     0.120 C 
BRANCH   6   7
ATOM      7  C   UNL A   1      32.769  21.795  24.541  1.00  0.00     0.035 C 
ATOM      8  C   UNL A   1      32.163  20.398  24.580  1.00  0.00     0.007 C 
ENDBRANCH   6   7
BRANCH   6   9
ATOM      9  C   UNL A   1      33.737  23.892  25.607  1.00  0.00     0.035 C 
ATOM     10  C   UNL A   1      34.359  24.106  24.235  1.00  0.00     0.007 C 
ENDBRANCH   6   9
BRANCH   6  11
ATOM     11  N   UNL A   1      31.832  22.589  26.657  1.00  0.00    -0.324 N 
ATOM     12  C   UNL A   1      30.672  23.239  26.508  1.00  0.00     0.315 C 
ATOM     13  H   UNL A   1      31.848  22.044  27.476  1.00  0.00     0.166 HD
ATOM     14  O   UNL A   1      29.891  23.181  27.464  1.00  0.00    -0.249 OA
ATOM     15  N   UNL A   1      30.229  23.870  25.415  1.00  0.00    -0.338 N 
ATOM     16  H   UNL A   1      29.250  23.968  25.444  1.00  0.00     0.165 HD
BRANCH  15  17
ATOM     17  C   UNL A   1      30.772  24.456  24.191  1.00  0.00     0.125 C 
BRANCH  17  18
ATOM     18  C   UNL A   1      30.456  25.924  23.895  1.00  0.00     0.089 C 
BRANCH  18  19
ATOM     19  C   UNL A   1      30.995  27.017  24.769  1.00  0.00     0.094 A 
ATOM     20  N   UNL A   1      31.453  26.749  25.980  1.00  0.00    -0.250 NA
ATOM     21  S   UNL A   1      31.073  28.671  24.320  1.00  0.00    -0.127 S 
ATOM     22  C   UNL A   1      31.861  27.907  26.607  1.00  0.00     0.123 A 
ATOM     23  C   UNL A   1      31.747  29.052  25.851  1.00  0.00     0.087 A 
ENDBRANCH  18  19
ENDBRANCH  17  18
ENDBRANCH  15  17
ENDBRANCH   6  11
ENDBRANCH   3   6
ENDBRANCH   1   2
BRANCH   1  24
ATOM     24  C   UNL A   1      37.119  21.099  24.605  1.00  0.00     0.023 C 
BRANCH  24  25
ATOM     25  C   UNL A   1      38.151  19.990  24.756  1.00  0.00     0.023 C 
BRANCH  25  26
ATOM     26  C   UNL A   1      39.053  20.087  25.975  1.00  0.00     0.116 C 
BRANCH  26  27
ATOM     27  N   UNL A   1      40.230  19.245  25.856  1.00  0.00    -0.352 N 
ATOM     28  C   UNL A   1      41.553  19.563  26.032  1.00  0.00     0.251 C 
ATOM     29  H   UNL A   1      40.054  18.308  25.611  1.00  0.00     0.163 HD
ATOM     30  O   UNL A   1      42.420  18.749  25.728  1.00  0.00    -0.269 OA
BRANCH  28  31
ATOM     31  C   UNL A   1      41.944  20.884  26.569  1.00  0.00     0.039 A 
ATOM     32  C   UNL A   1      42.301  21.891  25.667  1.00  0.00     0.014 A 
ATOM     33  C   UNL A   1      42.005  21.127  27.945  1.00  0.00     0.014 A 
ATOM     34  C   UNL A   1      42.678  23.149  26.140  1.00  0.00     0.010 A 
ATOM     35  C   UNL A   1      42.320  22.400  28.414  1.00  0.00     0.010 A 
ATOM     36  C   UNL A   1      42.673  23.419  27.517  1.00  0.00    -0.014 A 
BRANCH  36  37
ATOM     37  C   UNL A   1      43.058  24.754  28.036  1.00  0.00     0.031 A 
ATOM     38  C   UNL A   1      42.004  25.798  28.286  1.00  0.00     0.074 A 
ATOM     39  C   UNL A   1      44.357  25.044  28.235  1.00  0.00     0.049 A 
ATOM     40  N   UNL A   1      42.145  27.036  28.683  1.00  0.00    -0.248 NA
ATOM     41  C   UNL A   1      40.609  25.401  28.036  1.00  0.00     0.031 C 
ATOM     42  C   UNL A   1      45.475  24.131  27.996  1.00  0.00     0.029 A 
ATOM     43  N   UNL A   1      44.955  26.196  28.678  1.00  0.00    -0.354 N 
ATOM     44  C   UNL A   1      40.862  27.570  28.718  1.00  0.00     0.074 A 
ATOM     45  C   UNL A   1      39.961  26.536  28.257  1.00  0.00     0.031 C 
ATOM     46  C   UNL A   1      46.623  24.754  28.309  1.00  0.00     0.029 A 
ATOM     47  C   UNL A   1      46.324  26.116  28.742  1.00  0.00     0.049 A 
ATOM     48  H   UNL A   1      44.452  27.005  28.927  1.00  0.00     0.167 HD
ATOM     49  C   UNL A   1      40.468  28.803  29.115  1.00  0.00     0.037 A 
ATOM     50  C   UNL A   1      47.236  27.038  29.104  1.00  0.00     0.037 A 
ATOM     51  C   UNL A   1      41.362  29.824  29.596  1.00  0.00     0.049 A 
ATOM     52  C   UNL A   1      46.774  28.399  29.543  1.00  0.00     0.074 A 
ATOM     53  C   UNL A   1      41.054  31.087  30.072  1.00  0.00     0.029 A 
ATOM     54  N   UNL A   1      42.741  29.696  29.663  1.00  0.00    -0.354 N 
ATOM     55  N   UNL A   1      45.554  28.871  29.624  1.00  0.00    -0.248 NA
ATOM     56  C   UNL A   1      47.816  29.354  29.947  1.00  0.00     0.031 C 
ATOM     57  C   UNL A   1      42.250  31.736  30.394  1.00  0.00     0.029 A 
ATOM     58  C   UNL A   1      43.299  30.864  30.157  1.00  0.00     0.049 A 
ATOM     59  H   UNL A   1      43.248  28.895  29.399  1.00  0.00     0.167 HD
ATOM     60  C   UNL A   1      45.678  30.166  30.111  1.00  0.00     0.074 A 
ATOM     61  C   UNL A   1      47.092  30.401  30.318  1.00  0.00     0.031 C 
ATOM     62  C   UNL A   1      44.709  31.079  30.363  1.00  0.00     0.037 A 
BRANCH  49  63
ATOM     63  C   UNL A   1      39.002  29.113  29.052  1.00  0.00     0.057 A 
ATOM     64  C   UNL A   1      38.381  29.499  27.856  1.00  0.00     0.134 A 
ATOM     65  C   UNL A   1      38.195  28.997  30.191  1.00  0.00     0.134 A 
ATOM     66  F   UNL A   1      39.100  29.641  26.733  1.00  0.00    -0.206 F 
ATOM     67  C   UNL A   1      37.015  29.782  27.801  1.00  0.00     0.040 A 
ATOM     68  C   UNL A   1      36.824  29.253  30.142  1.00  0.00     0.040 A 
ATOM     69  F   UNL A   1      38.725  28.627  31.366  1.00  0.00    -0.206 F 
ATOM     70  C   UNL A   1      36.232  29.653  28.945  1.00  0.00     0.006 A 
ENDBRANCH  49  63
BRANCH  50  71
ATOM     71  C   UNL A   1      48.680  26.697  29.087  1.00  0.00     0.057 A 
ATOM     72  C   UNL A   1      49.298  26.122  30.204  1.00  0.00     0.134 A 
ATOM     73  C   UNL A   1      49.475  26.938  27.961  1.00  0.00     0.134 A 
ATOM     74  F   UNL A   1      48.590  25.883  31.318  1.00  0.00    -0.206 F 
ATOM     75  C   UNL A   1      50.659  25.814  30.208  1.00  0.00     0.040 A 
ATOM     76  C   UNL A   1      50.833  26.616  27.944  1.00  0.00     0.040 A 
ATOM     77  F   UNL A   1      48.939  27.479  26.856  1.00  0.00    -0.206 F 
ATOM     78  C   UNL A   1      51.429  26.058  29.073  1.00  0.00     0.006 A 
ENDBRANCH  50  71
BRANCH  62  79
ATOM     79  C   UNL A   1      45.141  32.403  30.917  1.00  0.00     0.057 A 
ATOM     80  C   UNL A   1      45.428  33.493  30.086  1.00  0.00     0.134 A 
ATOM     81  C   UNL A   1      45.236  32.600  32.301  1.00  0.00     0.134 A 
ATOM     82  F   UNL A   1      45.368  33.363  28.752  1.00  0.00    -0.206 F 
ATOM     83  C   UNL A   1      45.811  34.728  30.610  1.00  0.00     0.040 A 
ATOM     84  C   UNL A   1      45.595  33.836  32.838  1.00  0.00     0.040 A 
ATOM     85  F   UNL A   1      44.968  31.598  33.151  1.00  0.00    -0.206 F 
ATOM     86  C   UNL A   1      45.889  34.903  31.991  1.00  0.00     0.006 A 
ENDBRANCH  62  79
ENDBRANCH  36  37
ENDBRANCH  28  31
ENDBRANCH  26  27
ENDBRANCH  25  26
ENDBRANCH  24  25
ENDBRANCH   1  24
TORSDOF 17
ENDMDL
MODEL 3
REMARK VINA RESULT:     -10.4      4.520      9.575
REMARK SMILES CCC(CC)(NC(=O)NCCc1nccs1)C(=O)NCCCCNC(=O)c1ccc(-c2c3nc(c(-c4c(F)cccc4F)c4ccc([nH]4)c(-c4c(F)cccc4F)c4nc(c(-c5c(F)cccc5F)c5ccc2[nH]5)C=C4)C=C3)cc1
REMARK SMILES IDX 20 1 19 2 17 3 18 4 3 6 2 7 1 8 4 9 5 10 6 11 7 12 8 14 9 15
REMARK SMILES IDX 10 17 11 18 12 19 13 20 16 21 14 22 15 23 21 24 22 25 23 26
REMARK SMILES IDX 24 27 25 28 26 30 27 31 28 32 80 33 29 34 79 35 30 36 31 37
REMARK SMILES IDX 32 38 73 39 33 40 78 41 72 42 74 43 34 44 77 45 71 46 70 47
REMARK SMILES IDX 35 49 61 50 44 51 60 52 45 53 48 54 59 55 75 56 46 57 47 58
REMARK SMILES IDX 58 60 76 61 49 62 36 63 37 64 42 65 38 66 39 67 41 68 43 69
REMARK SMILES IDX 40 70 62 71 63 72 68 73 64 74 65 75 67 76 69 77 66 78 50 79
REMARK SMILES IDX 51 80 56 81 52 82 53 83 55 84 57 85 54 86
REMARK H PARENT 19 5 6 13 9 16 24 29 74 48 48 59
REMARK Flexibility Score: inf
ROOT
ATOM      1  C   UNL A   1      35.907  20.500  24.959  1.00  0.00     0.116 C 
ENDROOT
BRANCH   1   2
ATOM      2  N   UNL A   1      35.317  21.078  26.164  1.00  0.00    -0.354 N 
ATOM      3  C   UNL A   1      34.030  21.409  26.521  1.00  0.00     0.245 C 
ATOM      4  O   UNL A   1      33.841  21.655  27.717  1.00  0.00    -0.272 OA
ATOM      5  H   UNL A   1      35.978  21.273  26.867  1.00  0.00     0.163 HD
BRANCH   3   6
ATOM      6  C   UNL A   1      32.849  21.346  25.513  1.00  0.00     0.120 C 
BRANCH   6   7
ATOM      7  C   UNL A   1      32.489  19.955  24.916  1.00  0.00     0.035 C 
ATOM      8  C   UNL A   1      32.767  18.720  25.764  1.00  0.00     0.007 C 
ENDBRANCH   6   7
BRANCH   6   9
ATOM      9  C   UNL A   1      33.301  22.297  24.346  1.00  0.00     0.035 C 
ATOM     10  C   UNL A   1      32.487  22.260  23.061  1.00  0.00     0.007 C 
ENDBRANCH   6   9
BRANCH   6  11
ATOM     11  N   UNL A   1      31.654  21.849  26.221  1.00  0.00    -0.324 N 
ATOM     12  C   UNL A   1      31.277  23.015  26.759  1.00  0.00     0.315 C 
ATOM     13  H   UNL A   1      30.965  21.154  26.323  1.00  0.00     0.166 HD
ATOM     14  O   UNL A   1      30.228  22.997  27.412  1.00  0.00    -0.249 OA
ATOM     15  N   UNL A   1      31.858  24.208  26.598  1.00  0.00    -0.338 N 
ATOM     16  H   UNL A   1      31.225  24.933  26.805  1.00  0.00     0.165 HD
BRANCH  15  17
ATOM     17  C   UNL A   1      33.156  24.753  26.205  1.00  0.00     0.125 C 
BRANCH  17  18
ATOM     18  C   UNL A   1      33.180  26.086  25.452  1.00  0.00     0.089 C 
BRANCH  18  19
ATOM     19  C   UNL A   1      32.908  27.376  26.166  1.00  0.00     0.094 A 
ATOM     20  N   UNL A   1      31.736  27.597  26.738  1.00  0.00    -0.250 NA
ATOM     21  S   UNL A   1      34.035  28.661  26.314  1.00  0.00    -0.127 S 
ATOM     22  C   UNL A   1      31.705  28.856  27.298  1.00  0.00     0.123 A 
ATOM     23  C   UNL A   1      32.872  29.577  27.183  1.00  0.00     0.087 A 
ENDBRANCH  18  19
ENDBRANCH  17  18
ENDBRANCH  15  17
ENDBRANCH   6  11
ENDBRANCH   3   6
ENDBRANCH   1   2
BRANCH   1  24
ATOM     24  C   UNL A   1      37.375  20.810  24.663  1.00  0.00     0.023 C 
BRANCH  24  25
ATOM     25  C   UNL A   1      38.386  19.685  24.836  1.00  0.00     0.023 C 
BRANCH  25  26
ATOM     26  C   UNL A   1      39.287  19.787  26.056  1.00  0.00     0.116 C 
BRANCH  26  27
ATOM     27  N   UNL A   1      40.533  19.061  25.881  1.00  0.00    -0.352 N 
ATOM     28  C   UNL A   1      41.825  19.512  25.964  1.00  0.00     0.251 C 
ATOM     29  H   UNL A   1      40.436  18.104  25.671  1.00  0.00     0.163 HD
ATOM     30  O   UNL A   1      42.749  18.778  25.625  1.00  0.00    -0.269 OA
BRANCH  28  31
ATOM     31  C   UNL A   1      42.115  20.881  26.444  1.00  0.00     0.039 A 
ATOM     32  C   UNL A   1      42.104  21.120  27.822  1.00  0.00     0.014 A 
ATOM     33  C   UNL A   1      42.354  21.934  25.555  1.00  0.00     0.014 A 
ATOM     34  C   UNL A   1      42.369  22.401  28.309  1.00  0.00     0.010 A 
ATOM     35  C   UNL A   1      42.680  23.197  26.044  1.00  0.00     0.010 A 
ATOM     36  C   UNL A   1      42.678  23.446  27.424  1.00  0.00    -0.014 A 
BRANCH  36  37
ATOM     37  C   UNL A   1      42.977  24.809  27.925  1.00  0.00     0.031 A 
ATOM     38  C   UNL A   1      44.397  25.214  28.208  1.00  0.00     0.074 A 
ATOM     39  C   UNL A   1      41.968  25.666  28.172  1.00  0.00     0.049 A 
ATOM     40  N   UNL A   1      44.855  26.336  28.701  1.00  0.00    -0.248 NA
ATOM     41  C   UNL A   1      45.439  24.216  27.917  1.00  0.00     0.031 C 
ATOM     42  C   UNL A   1      40.547  25.381  27.973  1.00  0.00     0.029 A 
ATOM     43  N   UNL A   1      41.987  26.950  28.652  1.00  0.00    -0.354 N 
ATOM     44  C   UNL A   1      46.232  26.175  28.792  1.00  0.00     0.074 A 
ATOM     45  C   UNL A   1      46.531  24.831  28.347  1.00  0.00     0.031 C 
ATOM     46  C   UNL A   1      39.831  26.464  28.314  1.00  0.00     0.029 A 
ATOM     47  C   UNL A   1      40.739  27.507  28.783  1.00  0.00     0.049 A 
ATOM     48  H   UNL A   1      42.816  27.429  28.882  1.00  0.00     0.167 HD
ATOM     49  C   UNL A   1      47.165  27.071  29.191  1.00  0.00     0.037 A 
ATOM     50  C   UNL A   1      40.368  28.720  29.234  1.00  0.00     0.037 A 
ATOM     51  C   UNL A   1      46.870  28.416  29.610  1.00  0.00     0.049 A 
ATOM     52  C   UNL A   1      41.423  29.698  29.671  1.00  0.00     0.074 A 
ATOM     53  C   UNL A   1      47.751  29.417  29.983  1.00  0.00     0.029 A 
ATOM     54  N   UNL A   1      45.593  28.949  29.711  1.00  0.00    -0.354 N 
ATOM     55  N   UNL A   1      42.725  29.552  29.698  1.00  0.00    -0.248 NA
ATOM     56  C   UNL A   1      40.956  31.013  30.133  1.00  0.00     0.031 C 
ATOM     57  C   UNL A   1      47.005  30.544  30.344  1.00  0.00     0.029 A 
ATOM     58  C   UNL A   1      45.662  30.258  30.156  1.00  0.00     0.049 A 
ATOM     59  H   UNL A   1      44.762  28.467  29.498  1.00  0.00     0.167 HD
ATOM     60  C   UNL A   1      43.234  30.761  30.155  1.00  0.00     0.074 A 
ATOM     61  C   UNL A   1      42.101  31.634  30.381  1.00  0.00     0.031 C 
ATOM     62  C   UNL A   1      44.525  31.116  30.370  1.00  0.00     0.037 A 
BRANCH  49  63
ATOM     63  C   UNL A   1      48.597  26.626  29.187  1.00  0.00     0.057 A 
ATOM     64  C   UNL A   1      49.419  26.794  28.065  1.00  0.00     0.134 A 
ATOM     65  C   UNL A   1      49.172  26.048  30.327  1.00  0.00     0.134 A 
ATOM     66  F   UNL A   1      48.926  27.329  26.938  1.00  0.00    -0.206 F 
ATOM     67  C   UNL A   1      50.752  26.382  28.067  1.00  0.00     0.040 A 
ATOM     68  C   UNL A   1      50.510  25.655  30.349  1.00  0.00     0.040 A 
ATOM     69  F   UNL A   1      48.442  25.863  31.437  1.00  0.00    -0.206 F 
ATOM     70  C   UNL A   1      51.303  25.816  29.214  1.00  0.00     0.006 A 
ENDBRANCH  49  63
BRANCH  50  71
ATOM     71  C   UNL A   1      38.931  29.086  29.277  1.00  0.00     0.057 A 
ATOM     72  C   UNL A   1      38.185  28.942  30.452  1.00  0.00     0.134 A 
ATOM     73  C   UNL A   1      38.270  29.584  28.148  1.00  0.00     0.134 A 
ATOM     74  F   UNL A   1      38.761  28.454  31.562  1.00  0.00    -0.206 F 
ATOM     75  C   UNL A   1      36.828  29.265  30.501  1.00  0.00     0.040 A 
ATOM     76  C   UNL A   1      36.918  29.930  28.188  1.00  0.00     0.040 A 
ATOM     77  F   UNL A   1      38.932  29.753  26.994  1.00  0.00    -0.206 F 
ATOM     78  C   UNL A   1      36.193  29.764  29.366  1.00  0.00     0.006 A 
ENDBRANCH  50  71
BRANCH  62  79
ATOM     79  C   UNL A   1      44.781  32.514  30.845  1.00  0.00     0.057 A 
ATOM     80  C   UNL A   1      44.877  32.825  32.206  1.00  0.00     0.134 A 
ATOM     81  C   UNL A   1      44.971  33.555  29.927  1.00  0.00     0.134 A 
ATOM     82  F   UNL A   1      44.690  31.874  33.135  1.00  0.00    -0.206 F 
ATOM     83  C   UNL A   1      45.135  34.126  32.641  1.00  0.00     0.040 A 
ATOM     84  C   UNL A   1      45.253  34.855  30.348  1.00  0.00     0.040 A 
ATOM     85  F   UNL A   1      44.900  33.322  28.608  1.00  0.00    -0.206 F 
ATOM     86  C   UNL A   1      45.330  35.144  31.709  1.00  0.00     0.006 A 
ENDBRANCH  62  79
ENDBRANCH  36  37
ENDBRANCH  28  31
ENDBRANCH  26  27
ENDBRANCH  25  26
ENDBRANCH  24  25
ENDBRANCH   1  24
TORSDOF 17
ENDMDL
