MODEL 1
REMARK VINA RESULT:     -11.7      0.000      0.000
REMARK SMILES O=C(C[N@H+]1CCC[C@@H]1C(=O)NCCCCNC(=O)c1ccc(-c2c3nc(c(-c4c(F)cccc4F)c4ccc([nH]4)c(-c4c(F)cccc4F)c4nc(c(-c5c(F)cccc5F)c5ccc2[nH]5)C=C4)C=C3)cc1)NCc1ccc(Cl)cc1
REMARK SMILES IDX 12 1 11 2 9 3 10 4 8 6 4 7 5 8 6 10 7 11 3 12 2 13 1 14
REMARK SMILES IDX 73 15 74 17 75 18 76 19 81 20 77 21 80 22 78 23 79 24 13 25
REMARK SMILES IDX 14 26 15 27 16 28 17 29 18 31 19 32 20 33 72 34 21 35 71 36
REMARK SMILES IDX 22 37 23 38 24 39 65 40 25 41 70 42 64 43 66 44 26 45 69 46
REMARK SMILES IDX 63 47 62 48 27 50 53 51 36 52 52 53 37 54 40 55 51 56 67 57
REMARK SMILES IDX 38 58 39 59 50 61 68 62 41 63 28 64 29 65 34 66 30 67 31 68
REMARK SMILES IDX 33 69 35 70 32 71 54 72 55 73 60 74 56 75 57 76 59 77 61 78
REMARK SMILES IDX 58 79 42 80 43 81 48 82 44 83 45 84 47 85 49 86 46 87
REMARK H PARENT 11 5 4 9 73 16 16 30 66 49 40 60
REMARK Flexibility Score: inf
ROOT
ATOM      1  C   UNL A   1      35.822  22.526  26.123  1.00  0.00     0.116 C 
ENDROOT
BRANCH   1   2
ATOM      2  N   UNL A   1      35.541  23.809  25.533  1.00  0.00    -0.351 N 
ATOM      3  C   UNL A   1      34.381  24.519  25.614  1.00  0.00     0.278 C 
ATOM      4  O   UNL A   1      34.448  25.729  25.372  1.00  0.00    -0.268 OA
ATOM      5  H   UNL A   1      36.270  24.220  25.014  1.00  0.00     0.163 HD
BRANCH   3   6
ATOM      6  C   UNL A   1      33.020  23.874  25.912  1.00  0.00     0.274 C 
ATOM      7  N   UNL A   1      32.267  23.284  24.807  1.00  0.00    -0.317 N 
ATOM      8  C   UNL A   1      30.925  23.033  25.278  1.00  0.00     0.263 C 
ATOM      9  H   UNL A   1      32.382  23.923  24.020  1.00  0.00     0.349 HD
ATOM     10  C   UNL A   1      30.644  24.428  25.808  1.00  0.00     0.068 C 
ATOM     11  C   UNL A   1      31.962  24.833  26.491  1.00  0.00     0.081 C 
BRANCH   7  12
ATOM     12  C   UNL A   1      32.809  22.630  23.636  1.00  0.00     0.364 C 
BRANCH  12  13
ATOM     13  C   UNL A   1      33.252  23.719  22.620  1.00  0.00     0.275 C 
ATOM     14  O   UNL A   1      34.435  23.993  22.425  1.00  0.00    -0.268 OA
ATOM     15  N   UNL A   1      32.228  24.401  21.995  1.00  0.00    -0.347 N 
ATOM     16  H   UNL A   1      31.345  23.966  21.946  1.00  0.00     0.164 HD
BRANCH  15  17
ATOM     17  C   UNL A   1      32.372  25.711  21.408  1.00  0.00     0.151 C 
BRANCH  17  18
ATOM     18  C   UNL A   1      32.454  26.805  22.431  1.00  0.00    -0.029 A 
ATOM     19  C   UNL A   1      31.452  26.961  23.401  1.00  0.00     0.007 A 
ATOM     20  C   UNL A   1      33.575  27.645  22.468  1.00  0.00     0.007 A 
ATOM     21  C   UNL A   1      31.568  27.948  24.383  1.00  0.00     0.021 A 
ATOM     22  C   UNL A   1      33.689  28.633  23.445  1.00  0.00     0.021 A 
ATOM     23  C   UNL A   1      32.685  28.781  24.397  1.00  0.00     0.041 A 
ATOM     24  Cl  UNL A   1      32.829  29.996  25.606  1.00  0.00    -0.084 Cl
ENDBRANCH  17  18
ENDBRANCH  15  17
ENDBRANCH  12  13
ENDBRANCH   7  12
ENDBRANCH   3   6
ENDBRANCH   1   2
BRANCH   1  25
ATOM     25  C   UNL A   1      35.983  21.387  25.130  1.00  0.00     0.023 C 
BRANCH  25  26
ATOM     26  C   UNL A   1      37.405  21.180  24.606  1.00  0.00     0.023 C 
BRANCH  26  27
ATOM     27  C   UNL A   1      38.523  21.150  25.651  1.00  0.00     0.116 C 
BRANCH  27  28
ATOM     28  N   UNL A   1      39.385  19.980  25.565  1.00  0.00    -0.352 N 
ATOM     29  C   UNL A   1      40.697  19.825  25.956  1.00  0.00     0.251 C 
ATOM     30  H   UNL A   1      38.968  19.181  25.169  1.00  0.00     0.163 HD
ATOM     31  O   UNL A   1      41.289  18.777  25.753  1.00  0.00    -0.269 OA
BRANCH  29  32
ATOM     32  C   UNL A   1      41.399  20.972  26.569  1.00  0.00     0.039 A 
ATOM     33  C   UNL A   1      42.008  21.911  25.733  1.00  0.00     0.014 A 
ATOM     34  C   UNL A   1      41.383  21.158  27.953  1.00  0.00     0.014 A 
ATOM     35  C   UNL A   1      42.505  23.096  26.279  1.00  0.00     0.010 A 
ATOM     36  C   UNL A   1      41.810  22.371  28.484  1.00  0.00     0.010 A 
ATOM     37  C   UNL A   1      42.355  23.359  27.650  1.00  0.00    -0.014 A 
BRANCH  37  38
ATOM     38  C   UNL A   1      42.723  24.678  28.227  1.00  0.00     0.031 A 
ATOM     39  C   UNL A   1      41.670  25.727  28.447  1.00  0.00     0.074 A 
ATOM     40  C   UNL A   1      44.020  24.962  28.460  1.00  0.00     0.049 A 
ATOM     41  N   UNL A   1      41.809  26.965  28.848  1.00  0.00    -0.248 NA
ATOM     42  C   UNL A   1      40.281  25.346  28.147  1.00  0.00     0.031 C 
ATOM     43  C   UNL A   1      45.146  24.054  28.222  1.00  0.00     0.029 A 
ATOM     44  N   UNL A   1      44.616  26.106  28.931  1.00  0.00    -0.354 N 
ATOM     45  C   UNL A   1      40.535  27.517  28.817  1.00  0.00     0.074 A 
ATOM     46  C   UNL A   1      39.640  26.492  28.326  1.00  0.00     0.031 C 
ATOM     47  C   UNL A   1      46.290  24.670  28.564  1.00  0.00     0.029 A 
ATOM     48  C   UNL A   1      45.985  26.024  29.011  1.00  0.00     0.049 A 
ATOM     49  H   UNL A   1      44.109  26.910  29.188  1.00  0.00     0.167 HD
ATOM     50  C   UNL A   1      40.145  28.760  29.184  1.00  0.00     0.037 A 
ATOM     51  C   UNL A   1      46.894  26.941  29.394  1.00  0.00     0.037 A 
ATOM     52  C   UNL A   1      41.029  29.760  29.723  1.00  0.00     0.049 A 
ATOM     53  C   UNL A   1      46.425  28.301  29.833  1.00  0.00     0.074 A 
ATOM     54  C   UNL A   1      40.710  31.012  30.220  1.00  0.00     0.029 A 
ATOM     55  N   UNL A   1      42.403  29.620  29.837  1.00  0.00    -0.354 N 
ATOM     56  N   UNL A   1      45.205  28.776  29.891  1.00  0.00    -0.248 NA
ATOM     57  C   UNL A   1      47.460  29.253  30.265  1.00  0.00     0.031 C 
ATOM     58  C   UNL A   1      41.896  31.646  30.602  1.00  0.00     0.029 A 
ATOM     59  C   UNL A   1      42.948  30.773  30.378  1.00  0.00     0.049 A 
ATOM     60  H   UNL A   1      42.914  28.822  29.573  1.00  0.00     0.167 HD
ATOM     61  C   UNL A   1      45.323  30.064  30.393  1.00  0.00     0.074 A 
ATOM     62  C   UNL A   1      46.731  30.295  30.635  1.00  0.00     0.031 C 
ATOM     63  C   UNL A   1      44.350  30.977  30.631  1.00  0.00     0.037 A 
BRANCH  50  64
ATOM     64  C   UNL A   1      38.697  29.112  29.029  1.00  0.00     0.057 A 
ATOM     65  C   UNL A   1      37.805  29.059  30.107  1.00  0.00     0.134 A 
ATOM     66  C   UNL A   1      38.202  29.567  27.800  1.00  0.00     0.134 A 
ATOM     67  F   UNL A   1      38.215  28.620  31.307  1.00  0.00    -0.206 F 
ATOM     68  C   UNL A   1      36.468  29.432  29.965  1.00  0.00     0.040 A 
ATOM     69  C   UNL A   1      36.873  29.965  27.652  1.00  0.00     0.040 A 
ATOM     70  F   UNL A   1      39.007  29.647  26.729  1.00  0.00    -0.206 F 
ATOM     71  C   UNL A   1      36.001  29.896  28.736  1.00  0.00     0.006 A 
ENDBRANCH  50  64
BRANCH  51  72
ATOM     72  C   UNL A   1      48.341  26.609  29.402  1.00  0.00     0.057 A 
ATOM     73  C   UNL A   1      48.934  25.997  30.514  1.00  0.00     0.134 A 
ATOM     74  C   UNL A   1      49.172  26.928  28.322  1.00  0.00     0.134 A 
ATOM     75  F   UNL A   1      48.193  25.686  31.587  1.00  0.00    -0.206 F 
ATOM     76  C   UNL A   1      50.305  25.740  30.562  1.00  0.00     0.040 A 
ATOM     77  C   UNL A   1      50.541  26.655  28.347  1.00  0.00     0.040 A 
ATOM     78  F   UNL A   1      48.664  27.510  27.226  1.00  0.00    -0.206 F 
ATOM     79  C   UNL A   1      51.113  26.068  29.475  1.00  0.00     0.006 A 
ENDBRANCH  51  72
BRANCH  63  80
ATOM     80  C   UNL A   1      44.770  32.290  31.221  1.00  0.00     0.057 A 
ATOM     81  C   UNL A   1      45.091  33.390  30.418  1.00  0.00     0.134 A 
ATOM     82  C   UNL A   1      44.815  32.463  32.610  1.00  0.00     0.134 A 
ATOM     83  F   UNL A   1      45.080  33.283  29.081  1.00  0.00    -0.206 F 
ATOM     84  C   UNL A   1      45.460  34.615  30.976  1.00  0.00     0.040 A 
ATOM     85  C   UNL A   1      45.158  33.689  33.179  1.00  0.00     0.040 A 
ATOM     86  F   UNL A   1      44.511  31.449  33.433  1.00  0.00    -0.206 F 
ATOM     87  C   UNL A   1      45.487  34.768  32.362  1.00  0.00     0.006 A 
ENDBRANCH  63  80
ENDBRANCH  37  38
ENDBRANCH  29  32
ENDBRANCH  27  28
ENDBRANCH  26  27
ENDBRANCH  25  26
ENDBRANCH   1  25
TORSDOF 15
ENDMDL
MODEL 2
REMARK VINA RESULT:     -11.7      2.365      7.086
REMARK SMILES O=C(C[N@H+]1CCC[C@@H]1C(=O)NCCCCNC(=O)c1ccc(-c2c3nc(c(-c4c(F)cccc4F)c4ccc([nH]4)c(-c4c(F)cccc4F)c4nc(c(-c5c(F)cccc5F)c5ccc2[nH]5)C=C4)C=C3)cc1)NCc1ccc(Cl)cc1
REMARK SMILES IDX 12 1 11 2 9 3 10 4 8 6 4 7 5 8 6 10 7 11 3 12 2 13 1 14
REMARK SMILES IDX 73 15 74 17 75 18 76 19 81 20 77 21 80 22 78 23 79 24 13 25
REMARK SMILES IDX 14 26 15 27 16 28 17 29 18 31 19 32 20 33 72 34 21 35 71 36
REMARK SMILES IDX 22 37 23 38 24 39 65 40 25 41 70 42 64 43 66 44 26 45 69 46
REMARK SMILES IDX 63 47 62 48 27 50 53 51 36 52 52 53 37 54 40 55 51 56 67 57
REMARK SMILES IDX 38 58 39 59 50 61 68 62 41 63 28 64 29 65 34 66 30 67 31 68
REMARK SMILES IDX 33 69 35 70 32 71 54 72 55 73 60 74 56 75 57 76 59 77 61 78
REMARK SMILES IDX 58 79 42 80 43 81 48 82 44 83 45 84 47 85 49 86 46 87
REMARK H PARENT 11 5 4 9 73 16 16 30 66 49 40 60
REMARK Flexibility Score: inf
ROOT
ATOM      1  C   UNL A   1      33.096  27.383  24.459  1.00  0.00     0.116 C 
ENDROOT
BRANCH   1   2
ATOM      2  N   UNL A   1      33.510  26.934  23.155  1.00  0.00    -0.351 N 
ATOM      3  C   UNL A   1      33.645  25.647  22.729  1.00  0.00     0.278 C 
ATOM      4  O   UNL A   1      33.643  25.459  21.507  1.00  0.00    -0.268 OA
ATOM      5  H   UNL A   1      33.717  27.636  22.496  1.00  0.00     0.163 HD
BRANCH   3   6
ATOM      6  C   UNL A   1      33.870  24.465  23.683  1.00  0.00     0.274 C 
ATOM      7  N   UNL A   1      32.716  23.890  24.371  1.00  0.00    -0.317 N 
ATOM      8  C   UNL A   1      33.215  23.027  25.416  1.00  0.00     0.263 C 
ATOM      9  H   UNL A   1      32.135  24.683  24.646  1.00  0.00     0.349 HD
ATOM     10  C   UNL A   1      34.140  24.037  26.071  1.00  0.00     0.068 C 
ATOM     11  C   UNL A   1      34.789  24.766  24.883  1.00  0.00     0.081 C 
BRANCH   7  12
ATOM     12  C   UNL A   1      31.364  23.789  23.866  1.00  0.00     0.364 C 
BRANCH  12  13
ATOM     13  C   UNL A   1      30.507  24.914  24.510  1.00  0.00     0.275 C 
ATOM     14  O   UNL A   1      30.356  25.011  25.726  1.00  0.00    -0.268 OA
ATOM     15  N   UNL A   1      29.878  25.763  23.622  1.00  0.00    -0.347 N 
ATOM     16  H   UNL A   1      30.251  25.842  22.714  1.00  0.00     0.164 HD
BRANCH  15  17
ATOM     17  C   UNL A   1      28.706  26.542  23.944  1.00  0.00     0.151 C 
BRANCH  17  18
ATOM     18  C   UNL A   1      28.692  27.883  23.274  1.00  0.00    -0.029 A 
ATOM     19  C   UNL A   1      27.509  28.633  23.187  1.00  0.00     0.007 A 
ATOM     20  C   UNL A   1      29.884  28.433  22.784  1.00  0.00     0.007 A 
ATOM     21  C   UNL A   1      27.521  29.906  22.611  1.00  0.00     0.021 A 
ATOM     22  C   UNL A   1      29.895  29.700  22.204  1.00  0.00     0.021 A 
ATOM     23  C   UNL A   1      28.714  30.431  22.119  1.00  0.00     0.041 A 
ATOM     24  Cl  UNL A   1      28.730  31.998  21.409  1.00  0.00    -0.084 Cl
ENDBRANCH  17  18
ENDBRANCH  15  17
ENDBRANCH  12  13
ENDBRANCH   7  12
ENDBRANCH   3   6
ENDBRANCH   1   2
BRANCH   1  25
ATOM     25  C   UNL A   1      33.144  28.889  24.661  1.00  0.00     0.023 C 
BRANCH  25  26
ATOM     26  C   UNL A   1      32.717  29.370  26.049  1.00  0.00     0.023 C 
BRANCH  26  27
ATOM     27  C   UNL A   1      33.785  29.339  27.144  1.00  0.00     0.116 C 
BRANCH  27  28
ATOM     28  N   UNL A   1      33.844  30.549  27.950  1.00  0.00    -0.352 N 
ATOM     29  C   UNL A   1      34.875  31.043  28.719  1.00  0.00     0.251 C 
ATOM     30  H   UNL A   1      33.026  31.096  27.946  1.00  0.00     0.163 HD
ATOM     31  O   UNL A   1      34.728  32.055  29.384  1.00  0.00    -0.269 OA
BRANCH  29  32
ATOM     32  C   UNL A   1      36.146  30.290  28.777  1.00  0.00     0.039 A 
ATOM     33  C   UNL A   1      36.995  30.320  27.668  1.00  0.00     0.014 A 
ATOM     34  C   UNL A   1      36.530  29.632  29.948  1.00  0.00     0.014 A 
ATOM     35  C   UNL A   1      38.279  29.781  27.772  1.00  0.00     0.010 A 
ATOM     36  C   UNL A   1      37.834  29.165  30.073  1.00  0.00     0.010 A 
ATOM     37  C   UNL A   1      38.727  29.255  28.994  1.00  0.00    -0.014 A 
BRANCH  37  38
ATOM     38  C   UNL A   1      40.138  28.830  29.180  1.00  0.00     0.031 A 
ATOM     39  C   UNL A   1      41.149  29.788  29.744  1.00  0.00     0.074 A 
ATOM     40  C   UNL A   1      40.528  27.612  28.749  1.00  0.00     0.049 A 
ATOM     41  N   UNL A   1      42.440  29.634  29.890  1.00  0.00    -0.248 NA
ATOM     42  C   UNL A   1      40.649  31.104  30.171  1.00  0.00     0.031 C 
ATOM     43  C   UNL A   1      39.657  26.615  28.118  1.00  0.00     0.029 A 
ATOM     44  N   UNL A   1      41.763  27.013  28.755  1.00  0.00    -0.354 N 
ATOM     45  C   UNL A   1      42.909  30.841  30.394  1.00  0.00     0.074 A 
ATOM     46  C   UNL A   1      41.772  31.729  30.496  1.00  0.00     0.031 C 
ATOM     47  C   UNL A   1      40.382  25.525  27.816  1.00  0.00     0.029 A 
ATOM     48  C   UNL A   1      41.771  25.757  28.197  1.00  0.00     0.049 A 
ATOM     49  H   UNL A   1      42.568  27.443  29.125  1.00  0.00     0.167 HD
ATOM     50  C   UNL A   1      44.171  31.171  30.756  1.00  0.00     0.037 A 
ATOM     51  C   UNL A   1      42.785  24.893  28.006  1.00  0.00     0.037 A 
ATOM     52  C   UNL A   1      45.290  30.268  30.705  1.00  0.00     0.049 A 
ATOM     53  C   UNL A   1      44.170  25.274  28.455  1.00  0.00     0.074 A 
ATOM     54  C   UNL A   1      46.585  30.478  31.147  1.00  0.00     0.029 A 
ATOM     55  N   UNL A   1      45.247  28.986  30.181  1.00  0.00    -0.354 N 
ATOM     56  N   UNL A   1      44.579  26.383  29.020  1.00  0.00    -0.248 NA
ATOM     57  C   UNL A   1      45.233  24.280  28.244  1.00  0.00     0.031 C 
ATOM     58  C   UNL A   1      47.336  29.335  30.858  1.00  0.00     0.029 A 
ATOM     59  C   UNL A   1      46.498  28.400  30.271  1.00  0.00     0.049 A 
ATOM     60  H   UNL A   1      44.446  28.556  29.802  1.00  0.00     0.167 HD
ATOM     61  C   UNL A   1      45.935  26.210  29.260  1.00  0.00     0.074 A 
ATOM     62  C   UNL A   1      46.278  24.884  28.790  1.00  0.00     0.031 C 
ATOM     63  C   UNL A   1      46.818  27.073  29.817  1.00  0.00     0.037 A 
BRANCH  50  64
ATOM     64  C   UNL A   1      44.412  32.563  31.254  1.00  0.00     0.057 A 
ATOM     65  C   UNL A   1      44.683  33.623  30.381  1.00  0.00     0.134 A 
ATOM     66  C   UNL A   1      44.312  32.858  32.620  1.00  0.00     0.134 A 
ATOM     67  F   UNL A   1      44.803  33.404  29.063  1.00  0.00    -0.206 F 
ATOM     68  C   UNL A   1      44.861  34.926  30.849  1.00  0.00     0.040 A 
ATOM     69  C   UNL A   1      44.465  34.160  33.097  1.00  0.00     0.040 A 
ATOM     70  F   UNL A   1      44.049  31.888  33.509  1.00  0.00    -0.206 F 
ATOM     71  C   UNL A   1      44.743  35.199  32.211  1.00  0.00     0.006 A 
ENDBRANCH  50  64
BRANCH  51  72
ATOM     72  C   UNL A   1      42.540  23.570  27.377  1.00  0.00     0.057 A 
ATOM     73  C   UNL A   1      42.190  22.458  28.152  1.00  0.00     0.134 A 
ATOM     74  C   UNL A   1      42.686  23.376  25.998  1.00  0.00     0.134 A 
ATOM     75  F   UNL A   1      42.054  22.577  29.481  1.00  0.00    -0.206 F 
ATOM     76  C   UNL A   1      42.021  21.194  27.583  1.00  0.00     0.040 A 
ATOM     77  C   UNL A   1      42.497  22.123  25.413  1.00  0.00     0.040 A 
ATOM     78  F   UNL A   1      43.015  24.403  25.201  1.00  0.00    -0.206 F 
ATOM     79  C   UNL A   1      42.173  21.025  26.208  1.00  0.00     0.006 A 
ENDBRANCH  51  72
BRANCH  63  80
ATOM     80  C   UNL A   1      48.228  26.594  29.990  1.00  0.00     0.057 A 
ATOM     81  C   UNL A   1      48.632  25.883  31.125  1.00  0.00     0.134 A 
ATOM     82  C   UNL A   1      49.182  26.815  28.988  1.00  0.00     0.134 A 
ATOM     83  F   UNL A   1      47.769  25.652  32.126  1.00  0.00    -0.206 F 
ATOM     84  C   UNL A   1      49.941  25.422  31.268  1.00  0.00     0.040 A 
ATOM     85  C   UNL A   1      50.487  26.338  29.108  1.00  0.00     0.040 A 
ATOM     86  F   UNL A   1      48.855  27.483  27.872  1.00  0.00    -0.206 F 
ATOM     87  C   UNL A   1      50.871  25.644  30.252  1.00  0.00     0.006 A 
ENDBRANCH  63  80
ENDBRANCH  37  38
ENDBRANCH  29  32
ENDBRANCH  27  28
ENDBRANCH  26  27
ENDBRANCH  25  26
ENDBRANCH   1  25
TORSDOF 15
ENDMDL
MODEL 3
REMARK VINA RESULT:     -11.6      2.153      6.861
REMARK SMILES O=C(C[N@H+]1CCC[C@@H]1C(=O)NCCCCNC(=O)c1ccc(-c2c3nc(c(-c4c(F)cccc4F)c4ccc([nH]4)c(-c4c(F)cccc4F)c4nc(c(-c5c(F)cccc5F)c5ccc2[nH]5)C=C4)C=C3)cc1)NCc1ccc(Cl)cc1
REMARK SMILES IDX 12 1 11 2 9 3 10 4 8 6 4 7 5 8 6 10 7 11 3 12 2 13 1 14
REMARK SMILES IDX 73 15 74 17 75 18 76 19 81 20 77 21 80 22 78 23 79 24 13 25
REMARK SMILES IDX 14 26 15 27 16 28 17 29 18 31 19 32 20 33 72 34 21 35 71 36
REMARK SMILES IDX 22 37 23 38 24 39 65 40 25 41 70 42 64 43 66 44 26 45 69 46
REMARK SMILES IDX 63 47 62 48 27 50 53 51 36 52 52 53 37 54 40 55 51 56 67 57
REMARK SMILES IDX 38 58 39 59 50 61 68 62 41 63 28 64 29 65 34 66 30 67 31 68
REMARK SMILES IDX 33 69 35 70 32 71 54 72 55 73 60 74 56 75 57 76 59 77 61 78
REMARK SMILES IDX 58 79 42 80 43 81 48 82 44 83 45 84 47 85 49 86 46 87
REMARK H PARENT 11 5 4 9 73 16 16 30 66 49 40 60
REMARK Flexibility Score: inf
ROOT
ATOM      1  C   UNL A   1      32.154  26.381  26.494  1.00  0.00     0.116 C 
ENDROOT
BRANCH   1   2
ATOM      2  N   UNL A   1      31.186  25.322  26.625  1.00  0.00    -0.351 N 
ATOM      3  C   UNL A   1      31.431  24.010  26.899  1.00  0.00     0.278 C 
ATOM      4  O   UNL A   1      30.484  23.344  27.336  1.00  0.00    -0.268 OA
ATOM      5  H   UNL A   1      30.243  25.575  26.505  1.00  0.00     0.163 HD
BRANCH   3   6
ATOM      6  C   UNL A   1      32.779  23.330  26.622  1.00  0.00     0.274 C 
ATOM      7  N   UNL A   1      32.895  22.450  25.461  1.00  0.00    -0.317 N 
ATOM      8  C   UNL A   1      34.128  21.710  25.595  1.00  0.00     0.263 C 
ATOM      9  H   UNL A   1      32.024  21.919  25.428  1.00  0.00     0.349 HD
ATOM     10  C   UNL A   1      33.886  21.187  26.999  1.00  0.00     0.068 C 
ATOM     11  C   UNL A   1      33.270  22.388  27.738  1.00  0.00     0.081 C 
BRANCH   7  12
ATOM     12  C   UNL A   1      32.209  22.586  24.194  1.00  0.00     0.364 C 
BRANCH  12  13
ATOM     13  C   UNL A   1      32.761  23.840  23.463  1.00  0.00     0.275 C 
ATOM     14  O   UNL A   1      33.959  23.991  23.230  1.00  0.00    -0.268 OA
ATOM     15  N   UNL A   1      31.824  24.803  23.145  1.00  0.00    -0.347 N 
ATOM     16  H   UNL A   1      30.882  24.525  23.072  1.00  0.00     0.164 HD
BRANCH  15  17
ATOM     17  C   UNL A   1      32.142  26.191  22.913  1.00  0.00     0.151 C 
BRANCH  17  18
ATOM     18  C   UNL A   1      30.932  27.077  22.914  1.00  0.00    -0.029 A 
ATOM     19  C   UNL A   1      29.717  26.638  23.462  1.00  0.00     0.007 A 
ATOM     20  C   UNL A   1      31.025  28.387  22.424  1.00  0.00     0.007 A 
ATOM     21  C   UNL A   1      28.614  27.494  23.507  1.00  0.00     0.021 A 
ATOM     22  C   UNL A   1      29.922  29.239  22.464  1.00  0.00     0.021 A 
ATOM     23  C   UNL A   1      28.721  28.789  23.005  1.00  0.00     0.041 A 
ATOM     24  Cl  UNL A   1      27.363  29.843  23.060  1.00  0.00    -0.084 Cl
ENDBRANCH  17  18
ENDBRANCH  15  17
ENDBRANCH  12  13
ENDBRANCH   7  12
ENDBRANCH   3   6
ENDBRANCH   1   2
BRANCH   1  25
ATOM     25  C   UNL A   1      31.566  27.781  26.448  1.00  0.00     0.023 C 
BRANCH  25  26
ATOM     26  C   UNL A   1      32.579  28.902  26.205  1.00  0.00     0.023 C 
BRANCH  26  27
ATOM     27  C   UNL A   1      33.724  29.021  27.213  1.00  0.00     0.116 C 
BRANCH  27  28
ATOM     28  N   UNL A   1      33.803  30.317  27.871  1.00  0.00    -0.352 N 
ATOM     29  C   UNL A   1      34.860  30.903  28.531  1.00  0.00     0.251 C 
ATOM     30  H   UNL A   1      32.979  30.854  27.839  1.00  0.00     0.163 HD
ATOM     31  O   UNL A   1      34.730  31.985  29.081  1.00  0.00    -0.269 OA
BRANCH  29  32
ATOM     32  C   UNL A   1      36.141  30.171  28.620  1.00  0.00     0.039 A 
ATOM     33  C   UNL A   1      37.017  30.215  27.532  1.00  0.00     0.014 A 
ATOM     34  C   UNL A   1      36.507  29.519  29.799  1.00  0.00     0.014 A 
ATOM     35  C   UNL A   1      38.306  29.698  27.667  1.00  0.00     0.010 A 
ATOM     36  C   UNL A   1      37.815  29.073  29.956  1.00  0.00     0.010 A 
ATOM     37  C   UNL A   1      38.733  29.177  28.899  1.00  0.00    -0.014 A 
BRANCH  37  38
ATOM     38  C   UNL A   1      40.146  28.775  29.119  1.00  0.00     0.031 A 
ATOM     39  C   UNL A   1      41.129  29.751  29.702  1.00  0.00     0.074 A 
ATOM     40  C   UNL A   1      40.563  27.561  28.703  1.00  0.00     0.049 A 
ATOM     41  N   UNL A   1      42.418  29.618  29.878  1.00  0.00    -0.248 NA
ATOM     42  C   UNL A   1      40.599  31.062  30.110  1.00  0.00     0.031 C 
ATOM     43  C   UNL A   1      39.723  26.548  28.059  1.00  0.00     0.029 A 
ATOM     44  N   UNL A   1      41.807  26.981  28.741  1.00  0.00    -0.354 N 
ATOM     45  C   UNL A   1      42.857  30.834  30.385  1.00  0.00     0.074 A 
ATOM     46  C   UNL A   1      41.704  31.705  30.457  1.00  0.00     0.031 C 
ATOM     47  C   UNL A   1      40.470  25.468  27.779  1.00  0.00     0.029 A 
ATOM     48  C   UNL A   1      41.846  25.723  28.190  1.00  0.00     0.049 A 
ATOM     49  H   UNL A   1      42.597  27.425  29.127  1.00  0.00     0.167 HD
ATOM     50  C   UNL A   1      44.105  31.185  30.774  1.00  0.00     0.037 A 
ATOM     51  C   UNL A   1      42.878  24.873  28.027  1.00  0.00     0.037 A 
ATOM     52  C   UNL A   1      45.239  30.300  30.753  1.00  0.00     0.049 A 
ATOM     53  C   UNL A   1      44.246  25.278  28.504  1.00  0.00     0.074 A 
ATOM     54  C   UNL A   1      46.520  30.531  31.223  1.00  0.00     0.029 A 
ATOM     55  N   UNL A   1      45.227  29.015  30.235  1.00  0.00    -0.354 N 
ATOM     56  N   UNL A   1      44.625  26.396  29.073  1.00  0.00    -0.248 NA
ATOM     57  C   UNL A   1      45.329  24.299  28.323  1.00  0.00     0.031 C 
ATOM     58  C   UNL A   1      47.295  29.398  30.957  1.00  0.00     0.029 A 
ATOM     59  C   UNL A   1      46.485  28.448  30.356  1.00  0.00     0.049 A 
ATOM     60  H   UNL A   1      44.442  28.571  29.840  1.00  0.00     0.167 HD
ATOM     61  C   UNL A   1      45.978  26.244  29.344  1.00  0.00     0.074 A 
ATOM     62  C   UNL A   1      46.352  24.921  28.890  1.00  0.00     0.031 C 
ATOM     63  C   UNL A   1      46.835  27.123  29.917  1.00  0.00     0.037 A 
BRANCH  50  64
ATOM     64  C   UNL A   1      44.314  32.583  31.270  1.00  0.00     0.057 A 
ATOM     65  C   UNL A   1      44.181  32.914  32.624  1.00  0.00     0.134 A 
ATOM     66  C   UNL A   1      44.713  33.599  30.391  1.00  0.00     0.134 A 
ATOM     67  F   UNL A   1      43.791  31.989  33.514  1.00  0.00    -0.206 F 
ATOM     68  C   UNL A   1      44.423  34.209  33.085  1.00  0.00     0.040 A 
ATOM     69  C   UNL A   1      44.979  34.892  30.845  1.00  0.00     0.040 A 
ATOM     70  F   UNL A   1      44.864  33.347  29.082  1.00  0.00    -0.206 F 
ATOM     71  C   UNL A   1      44.833  35.200  32.195  1.00  0.00     0.006 A 
ENDBRANCH  50  64
BRANCH  51  72
ATOM     72  C   UNL A   1      42.667  23.544  27.399  1.00  0.00     0.057 A 
ATOM     73  C   UNL A   1      42.791  23.373  26.015  1.00  0.00     0.134 A 
ATOM     74  C   UNL A   1      42.299  22.426  28.156  1.00  0.00     0.134 A 
ATOM     75  F   UNL A   1      43.121  24.412  25.234  1.00  0.00    -0.206 F 
ATOM     76  C   UNL A   1      42.530  22.146  25.403  1.00  0.00     0.040 A 
ATOM     77  C   UNL A   1      42.059  21.187  27.561  1.00  0.00     0.040 A 
ATOM     78  F   UNL A   1      42.169  22.523  29.487  1.00  0.00    -0.206 F 
ATOM     79  C   UNL A   1      42.164  21.047  26.178  1.00  0.00     0.006 A 
ENDBRANCH  51  72
BRANCH  63  80
ATOM     80  C   UNL A   1      48.248  26.668  30.125  1.00  0.00     0.057 A 
ATOM     81  C   UNL A   1      49.259  26.956  29.201  1.00  0.00     0.134 A 
ATOM     82  C   UNL A   1      48.606  25.967  31.283  1.00  0.00     0.134 A 
ATOM     83  F   UNL A   1      48.976  27.612  28.066  1.00  0.00    -0.206 F 
ATOM     84  C   UNL A   1      50.576  26.547  29.413  1.00  0.00     0.040 A 
ATOM     85  C   UNL A   1      49.924  25.574  31.518  1.00  0.00     0.040 A 
ATOM     86  F   UNL A   1      47.684  25.666  32.210  1.00  0.00    -0.206 F 
ATOM     87  C   UNL A   1      50.912  25.860  30.579  1.00  0.00     0.006 A 
ENDBRANCH  63  80
ENDBRANCH  37  38
ENDBRANCH  29  32
ENDBRANCH  27  28
ENDBRANCH  26  27
ENDBRANCH  25  26
ENDBRANCH   1  25
TORSDOF 15
ENDMDL
