MODEL 1
REMARK VINA RESULT:     -11.6      0.000      0.000
REMARK SMILES C[C@@H]1CC[C@@]1(SC1CCCCC1)C(=O)NCCCCNC(=O)c1ccc(-c2c3nc(c(-c4c(F)cccc4F)c4ccc([nH]4)c(-c4c(F)cccc4F)c4nc(c(-c5c(F)cccc5F)c5ccc2[nH]5)C=C4)C=C3)cc1
REMARK SMILES IDX 17 1 16 2 15 3 13 4 14 5 5 7 1 8 2 9 3 10 4 11 6 12 7 13
REMARK SMILES IDX 8 14 12 15 9 16 11 17 10 18 18 19 19 20 20 21 21 22 22 24
REMARK SMILES IDX 23 25 24 26 76 27 25 28 75 29 26 30 27 31 28 32 69 33 29 34
REMARK SMILES IDX 74 35 68 36 70 37 30 38 73 39 67 40 66 41 31 43 57 44 40 45
REMARK SMILES IDX 56 46 41 47 44 48 55 49 71 50 42 51 43 52 54 54 72 55 45 56
REMARK SMILES IDX 32 57 33 58 38 59 34 60 35 61 37 62 39 63 36 64 58 65 59 66
REMARK SMILES IDX 64 67 60 68 61 69 63 70 65 71 62 72 46 73 47 74 52 75 48 76
REMARK SMILES IDX 49 77 51 78 53 79 50 80
REMARK H PARENT 15 6 20 23 70 42 44 53
REMARK Flexibility Score: inf
ROOT
ATOM      1  C   UNL A   1      31.310  30.650  25.758  1.00  0.00     0.023 C 
ENDROOT
BRANCH   1   2
ATOM      2  C   UNL A   1      32.665  29.981  25.942  1.00  0.00     0.116 C 
BRANCH   2   3
ATOM      3  N   UNL A   1      33.285  29.700  24.666  1.00  0.00    -0.355 N 
ATOM      4  C   UNL A   1      33.247  28.572  23.880  1.00  0.00     0.236 C 
ATOM      5  O   UNL A   1      33.806  28.694  22.779  1.00  0.00    -0.273 OA
ATOM      6  H   UNL A   1      33.823  30.438  24.299  1.00  0.00     0.163 HD
BRANCH   4   7
ATOM      7  C   UNL A   1      32.568  27.231  24.366  1.00  0.00     0.097 C 
ATOM      8  C   UNL A   1      33.855  25.046  23.262  1.00  0.00     0.009 C 
ATOM      9  C   UNL A   1      33.652  26.043  24.389  1.00  0.00     0.012 C 
ATOM     10  C   UNL A   1      32.959  25.482  25.642  1.00  0.00     0.007 C 
ATOM     11  C   UNL A   1      32.350  26.869  25.870  1.00  0.00     0.028 C 
BRANCH   7  12
ATOM     12  S   UNL A   1      31.118  26.733  23.284  1.00  0.00    -0.141 SA
BRANCH  12  13
ATOM     13  C   UNL A   1      29.972  28.157  23.222  1.00  0.00     0.047 C 
ATOM     14  C   UNL A   1      30.412  29.235  22.228  1.00  0.00     0.014 C 
ATOM     15  C   UNL A   1      28.480  27.825  23.129  1.00  0.00     0.014 C 
ATOM     16  C   UNL A   1      29.516  30.470  22.304  1.00  0.00     0.001 C 
ATOM     17  C   UNL A   1      27.595  29.074  23.127  1.00  0.00     0.001 C 
ATOM     18  C   UNL A   1      28.053  30.097  22.092  1.00  0.00     0.000 C 
ENDBRANCH  12  13
ENDBRANCH   7  12
ENDBRANCH   4   7
ENDBRANCH   2   3
ENDBRANCH   1   2
BRANCH   1  19
ATOM     19  C   UNL A   1      31.198  32.013  26.446  1.00  0.00     0.023 C 
BRANCH  19  20
ATOM     20  C   UNL A   1      32.488  32.513  27.088  1.00  0.00     0.116 C 
BRANCH  20  21
ATOM     21  N   UNL A   1      32.400  33.898  27.521  1.00  0.00    -0.352 N 
ATOM     22  C   UNL A   1      33.150  34.550  28.465  1.00  0.00     0.251 C 
ATOM     23  H   UNL A   1      31.709  34.440  27.076  1.00  0.00     0.163 HD
ATOM     24  O   UNL A   1      32.841  35.684  28.824  1.00  0.00    -0.269 OA
BRANCH  22  25
ATOM     25  C   UNL A   1      34.317  33.875  29.067  1.00  0.00     0.039 A 
ATOM     26  C   UNL A   1      34.102  32.883  30.025  1.00  0.00     0.014 A 
ATOM     27  C   UNL A   1      35.619  34.221  28.692  1.00  0.00     0.014 A 
ATOM     28  C   UNL A   1      35.191  32.213  30.581  1.00  0.00     0.010 A 
ATOM     29  C   UNL A   1      36.699  33.496  29.186  1.00  0.00     0.010 A 
ATOM     30  C   UNL A   1      36.498  32.501  30.152  1.00  0.00    -0.014 A 
BRANCH  30  31
ATOM     31  C   UNL A   1      37.665  31.793  30.741  1.00  0.00     0.031 A 
ATOM     32  C   UNL A   1      38.121  32.125  32.137  1.00  0.00     0.074 A 
ATOM     33  C   UNL A   1      38.332  30.878  30.009  1.00  0.00     0.049 A 
ATOM     34  N   UNL A   1      39.121  31.628  32.820  1.00  0.00    -0.248 NA
ATOM     35  C   UNL A   1      37.373  33.171  32.854  1.00  0.00     0.031 C 
ATOM     36  C   UNL A   1      38.025  30.508  28.625  1.00  0.00     0.029 A 
ATOM     37  N   UNL A   1      39.411  30.092  30.328  1.00  0.00    -0.354 N 
ATOM     38  C   UNL A   1      39.133  32.311  34.029  1.00  0.00     0.074 A 
ATOM     39  C   UNL A   1      38.074  33.294  33.972  1.00  0.00     0.031 C 
ATOM     40  C   UNL A   1      38.878  29.551  28.225  1.00  0.00     0.029 A 
ATOM     41  C   UNL A   1      39.810  29.261  29.309  1.00  0.00     0.049 A 
ATOM     42  H   UNL A   1      39.857  30.121  31.206  1.00  0.00     0.167 HD
ATOM     43  C   UNL A   1      39.938  32.122  35.101  1.00  0.00     0.037 A 
ATOM     44  C   UNL A   1      40.816  28.368  29.257  1.00  0.00     0.037 A 
ATOM     45  C   UNL A   1      40.962  31.114  35.173  1.00  0.00     0.049 A 
ATOM     46  C   UNL A   1      41.676  28.163  30.477  1.00  0.00     0.074 A 
ATOM     47  C   UNL A   1      41.778  30.792  36.244  1.00  0.00     0.029 A 
ATOM     48  N   UNL A   1      41.311  30.266  34.134  1.00  0.00    -0.354 N 
ATOM     49  N   UNL A   1      41.614  28.754  31.646  1.00  0.00    -0.248 NA
ATOM     50  C   UNL A   1      42.736  27.150  30.374  1.00  0.00     0.031 C 
ATOM     51  C   UNL A   1      42.656  29.784  35.837  1.00  0.00     0.029 A 
ATOM     52  C   UNL A   1      42.344  29.435  34.533  1.00  0.00     0.049 A 
ATOM     53  H   UNL A   1      40.888  30.257  33.246  1.00  0.00     0.167 HD
ATOM     54  C   UNL A   1      42.592  28.154  32.428  1.00  0.00     0.074 A 
ATOM     55  C   UNL A   1      43.221  27.142  31.607  1.00  0.00     0.031 C 
ATOM     56  C   UNL A   1      42.942  28.415  33.712  1.00  0.00     0.037 A 
BRANCH  43  57
ATOM     57  C   UNL A   1      39.745  33.014  36.292  1.00  0.00     0.057 A 
ATOM     58  C   UNL A   1      40.455  34.212  36.445  1.00  0.00     0.134 A 
ATOM     59  C   UNL A   1      38.781  32.708  37.261  1.00  0.00     0.134 A 
ATOM     60  F   UNL A   1      41.402  34.560  35.561  1.00  0.00    -0.206 F 
ATOM     61  C   UNL A   1      40.221  35.067  37.524  1.00  0.00     0.040 A 
ATOM     62  C   UNL A   1      38.518  33.568  38.329  1.00  0.00     0.040 A 
ATOM     63  F   UNL A   1      38.062  31.579  37.173  1.00  0.00    -0.206 F 
ATOM     64  C   UNL A   1      39.241  34.751  38.463  1.00  0.00     0.006 A 
ENDBRANCH  43  57
BRANCH  44  65
ATOM     65  C   UNL A   1      41.070  27.580  28.022  1.00  0.00     0.057 A 
ATOM     66  C   UNL A   1      41.858  28.092  26.982  1.00  0.00     0.134 A 
ATOM     67  C   UNL A   1      40.478  26.328  27.822  1.00  0.00     0.134 A 
ATOM     68  F   UNL A   1      42.439  29.294  27.106  1.00  0.00    -0.206 F 
ATOM     69  C   UNL A   1      42.010  27.410  25.774  1.00  0.00     0.040 A 
ATOM     70  C   UNL A   1      40.648  25.620  26.630  1.00  0.00     0.040 A 
ATOM     71  F   UNL A   1      39.721  25.774  28.781  1.00  0.00    -0.206 F 
ATOM     72  C   UNL A   1      41.402  26.169  25.596  1.00  0.00     0.006 A 
ENDBRANCH  44  65
BRANCH  56  73
ATOM     73  C   UNL A   1      44.001  27.545  34.326  1.00  0.00     0.057 A 
ATOM     74  C   UNL A   1      43.701  26.319  34.935  1.00  0.00     0.134 A 
ATOM     75  C   UNL A   1      45.345  27.938  34.292  1.00  0.00     0.134 A 
ATOM     76  F   UNL A   1      42.433  25.888  35.011  1.00  0.00    -0.206 F 
ATOM     77  C   UNL A   1      44.695  25.540  35.531  1.00  0.00     0.040 A 
ATOM     78  C   UNL A   1      46.351  27.149  34.851  1.00  0.00     0.040 A 
ATOM     79  F   UNL A   1      45.704  29.092  33.710  1.00  0.00    -0.206 F 
ATOM     80  C   UNL A   1      46.026  25.953  35.485  1.00  0.00     0.006 A 
ENDBRANCH  56  73
ENDBRANCH  30  31
ENDBRANCH  22  25
ENDBRANCH  20  21
ENDBRANCH  19  20
ENDBRANCH   1  19
TORSDOF 13
ENDMDL
MODEL 2
REMARK VINA RESULT:     -11.5      0.351      1.492
REMARK SMILES C[C@@H]1CC[C@@]1(SC1CCCCC1)C(=O)NCCCCNC(=O)c1ccc(-c2c3nc(c(-c4c(F)cccc4F)c4ccc([nH]4)c(-c4c(F)cccc4F)c4nc(c(-c5c(F)cccc5F)c5ccc2[nH]5)C=C4)C=C3)cc1
REMARK SMILES IDX 17 1 16 2 15 3 13 4 14 5 5 7 1 8 2 9 3 10 4 11 6 12 7 13
REMARK SMILES IDX 8 14 12 15 9 16 11 17 10 18 18 19 19 20 20 21 21 22 22 24
REMARK SMILES IDX 23 25 24 26 76 27 25 28 75 29 26 30 27 31 28 32 69 33 29 34
REMARK SMILES IDX 74 35 68 36 70 37 30 38 73 39 67 40 66 41 31 43 57 44 40 45
REMARK SMILES IDX 56 46 41 47 44 48 55 49 71 50 42 51 43 52 54 54 72 55 45 56
REMARK SMILES IDX 32 57 33 58 38 59 34 60 35 61 37 62 39 63 36 64 58 65 59 66
REMARK SMILES IDX 64 67 60 68 61 69 63 70 65 71 62 72 46 73 47 74 52 75 48 76
REMARK SMILES IDX 49 77 51 78 53 79 50 80
REMARK H PARENT 15 6 20 23 70 42 44 53
REMARK Flexibility Score: inf
ROOT
ATOM      1  C   UNL A   1      31.114  30.846  25.639  1.00  0.00     0.023 C 
ENDROOT
BRANCH   1   2
ATOM      2  C   UNL A   1      32.290  29.927  25.938  1.00  0.00     0.116 C 
BRANCH   2   3
ATOM      3  N   UNL A   1      33.130  29.761  24.773  1.00  0.00    -0.355 N 
ATOM      4  C   UNL A   1      33.206  28.732  23.862  1.00  0.00     0.236 C 
ATOM      5  O   UNL A   1      33.966  28.949  22.905  1.00  0.00    -0.273 OA
ATOM      6  H   UNL A   1      33.750  30.506  24.603  1.00  0.00     0.163 HD
BRANCH   4   7
ATOM      7  C   UNL A   1      32.408  27.383  24.050  1.00  0.00     0.097 C 
ATOM      8  C   UNL A   1      33.702  25.311  22.753  1.00  0.00     0.009 C 
ATOM      9  C   UNL A   1      33.420  26.133  23.997  1.00  0.00     0.012 C 
ATOM     10  C   UNL A   1      32.557  25.435  25.062  1.00  0.00     0.007 C 
ATOM     11  C   UNL A   1      31.998  26.808  25.443  1.00  0.00     0.028 C 
BRANCH   7  12
ATOM     12  S   UNL A   1      31.071  27.159  22.753  1.00  0.00    -0.141 SA
BRANCH  12  13
ATOM     13  C   UNL A   1      29.857  28.507  22.986  1.00  0.00     0.047 C 
ATOM     14  C   UNL A   1      30.107  29.701  22.061  1.00  0.00     0.014 C 
ATOM     15  C   UNL A   1      28.385  28.092  23.049  1.00  0.00     0.014 C 
ATOM     16  C   UNL A   1      29.168  30.864  22.379  1.00  0.00     0.001 C 
ATOM     17  C   UNL A   1      27.446  29.277  23.290  1.00  0.00     0.001 C 
ATOM     18  C   UNL A   1      27.710  30.422  22.317  1.00  0.00     0.000 C 
ENDBRANCH  12  13
ENDBRANCH   7  12
ENDBRANCH   4   7
ENDBRANCH   2   3
ENDBRANCH   1   2
BRANCH   1  19
ATOM     19  C   UNL A   1      31.078  32.103  26.513  1.00  0.00     0.023 C 
BRANCH  19  20
ATOM     20  C   UNL A   1      32.447  32.646  26.910  1.00  0.00     0.116 C 
BRANCH  20  21
ATOM     21  N   UNL A   1      32.378  33.982  27.477  1.00  0.00    -0.352 N 
ATOM     22  C   UNL A   1      33.143  34.531  28.474  1.00  0.00     0.251 C 
ATOM     23  H   UNL A   1      31.691  34.573  27.094  1.00  0.00     0.163 HD
ATOM     24  O   UNL A   1      32.851  35.627  28.944  1.00  0.00    -0.269 OA
BRANCH  22  25
ATOM     25  C   UNL A   1      34.307  33.787  28.997  1.00  0.00     0.039 A 
ATOM     26  C   UNL A   1      35.590  34.192  28.622  1.00  0.00     0.014 A 
ATOM     27  C   UNL A   1      34.135  32.692  29.849  1.00  0.00     0.014 A 
ATOM     28  C   UNL A   1      36.701  33.521  29.131  1.00  0.00     0.010 A 
ATOM     29  C   UNL A   1      35.246  32.076  30.420  1.00  0.00     0.010 A 
ATOM     30  C   UNL A   1      36.539  32.470  30.049  1.00  0.00    -0.014 A 
BRANCH  30  31
ATOM     31  C   UNL A   1      37.718  31.748  30.594  1.00  0.00     0.031 A 
ATOM     32  C   UNL A   1      38.209  32.050  31.986  1.00  0.00     0.074 A 
ATOM     33  C   UNL A   1      38.364  30.846  29.829  1.00  0.00     0.049 A 
ATOM     34  N   UNL A   1      39.224  31.537  32.633  1.00  0.00    -0.248 NA
ATOM     35  C   UNL A   1      37.482  33.084  32.742  1.00  0.00     0.031 C 
ATOM     36  C   UNL A   1      38.022  30.505  28.445  1.00  0.00     0.029 A 
ATOM     37  N   UNL A   1      39.449  30.052  30.105  1.00  0.00    -0.354 N 
ATOM     38  C   UNL A   1      39.268  32.197  33.855  1.00  0.00     0.074 A 
ATOM     39  C   UNL A   1      38.211  33.182  33.844  1.00  0.00     0.031 C 
ATOM     40  C   UNL A   1      38.863  29.554  28.006  1.00  0.00     0.029 A 
ATOM     41  C   UNL A   1      39.821  29.240  29.060  1.00  0.00     0.049 A 
ATOM     42  H   UNL A   1      39.916  30.062  30.972  1.00  0.00     0.167 HD
ATOM     43  C   UNL A   1      40.098  31.984  34.903  1.00  0.00     0.037 A 
ATOM     44  C   UNL A   1      40.823  28.346  28.966  1.00  0.00     0.037 A 
ATOM     45  C   UNL A   1      41.121  30.973  34.930  1.00  0.00     0.049 A 
ATOM     46  C   UNL A   1      41.712  28.114  30.159  1.00  0.00     0.074 A 
ATOM     47  C   UNL A   1      41.962  30.627  35.974  1.00  0.00     0.029 A 
ATOM     48  N   UNL A   1      41.442  30.145  33.866  1.00  0.00    -0.354 N 
ATOM     49  N   UNL A   1      41.680  28.682  31.341  1.00  0.00    -0.248 NA
ATOM     50  C   UNL A   1      42.766  27.102  30.011  1.00  0.00     0.031 C 
ATOM     51  C   UNL A   1      42.827  29.625  35.525  1.00  0.00     0.029 A 
ATOM     52  C   UNL A   1      42.482  29.303  34.223  1.00  0.00     0.049 A 
ATOM     53  H   UNL A   1      40.997  30.154  32.988  1.00  0.00     0.167 HD
ATOM     54  C   UNL A   1      42.675  28.064  32.087  1.00  0.00     0.074 A 
ATOM     55  C   UNL A   1      43.281  27.067  31.230  1.00  0.00     0.031 C 
ATOM     56  C   UNL A   1      43.057  28.299  33.367  1.00  0.00     0.037 A 
BRANCH  43  57
ATOM     57  C   UNL A   1      39.937  32.853  36.117  1.00  0.00     0.057 A 
ATOM     58  C   UNL A   1      40.673  34.032  36.289  1.00  0.00     0.134 A 
ATOM     59  C   UNL A   1      38.978  32.544  37.089  1.00  0.00     0.134 A 
ATOM     60  F   UNL A   1      41.618  34.380  35.402  1.00  0.00    -0.206 F 
ATOM     61  C   UNL A   1      40.469  34.867  37.389  1.00  0.00     0.040 A 
ATOM     62  C   UNL A   1      38.744  33.384  38.179  1.00  0.00     0.040 A 
ATOM     63  F   UNL A   1      38.234  31.432  36.984  1.00  0.00    -0.206 F 
ATOM     64  C   UNL A   1      39.493  34.549  38.331  1.00  0.00     0.006 A 
ENDBRANCH  43  57
BRANCH  44  65
ATOM     65  C   UNL A   1      41.044  27.583  27.709  1.00  0.00     0.057 A 
ATOM     66  C   UNL A   1      40.427  26.343  27.494  1.00  0.00     0.134 A 
ATOM     67  C   UNL A   1      41.926  28.040  26.724  1.00  0.00     0.134 A 
ATOM     68  F   UNL A   1      39.583  25.842  28.407  1.00  0.00    -0.206 F 
ATOM     69  C   UNL A   1      40.714  25.567  26.369  1.00  0.00     0.040 A 
ATOM     70  C   UNL A   1      42.198  27.288  25.579  1.00  0.00     0.040 A 
ATOM     71  F   UNL A   1      42.542  29.224  26.861  1.00  0.00    -0.206 F 
ATOM     72  C   UNL A   1      41.604  26.041  25.408  1.00  0.00     0.006 A 
ENDBRANCH  44  65
BRANCH  56  73
ATOM     73  C   UNL A   1      44.128  27.414  33.937  1.00  0.00     0.057 A 
ATOM     74  C   UNL A   1      45.487  27.748  33.873  1.00  0.00     0.134 A 
ATOM     75  C   UNL A   1      43.788  26.212  34.571  1.00  0.00     0.134 A 
ATOM     76  F   UNL A   1      45.883  28.880  33.270  1.00  0.00    -0.206 F 
ATOM     77  C   UNL A   1      46.472  26.896  34.378  1.00  0.00     0.040 A 
ATOM     78  C   UNL A   1      44.761  25.370  35.113  1.00  0.00     0.040 A 
ATOM     79  F   UNL A   1      42.504  25.838  34.682  1.00  0.00    -0.206 F 
ATOM     80  C   UNL A   1      46.108  25.705  35.005  1.00  0.00     0.006 A 
ENDBRANCH  56  73
ENDBRANCH  30  31
ENDBRANCH  22  25
ENDBRANCH  20  21
ENDBRANCH  19  20
ENDBRANCH   1  19
TORSDOF 13
ENDMDL
MODEL 3
REMARK VINA RESULT:     -11.4      5.037      9.308
REMARK SMILES C[C@@H]1CC[C@@]1(SC1CCCCC1)C(=O)NCCCCNC(=O)c1ccc(-c2c3nc(c(-c4c(F)cccc4F)c4ccc([nH]4)c(-c4c(F)cccc4F)c4nc(c(-c5c(F)cccc5F)c5ccc2[nH]5)C=C4)C=C3)cc1
REMARK SMILES IDX 17 1 16 2 15 3 13 4 14 5 5 7 1 8 2 9 3 10 4 11 6 12 7 13
REMARK SMILES IDX 8 14 12 15 9 16 11 17 10 18 18 19 19 20 20 21 21 22 22 24
REMARK SMILES IDX 23 25 24 26 76 27 25 28 75 29 26 30 27 31 28 32 69 33 29 34
REMARK SMILES IDX 74 35 68 36 70 37 30 38 73 39 67 40 66 41 31 43 57 44 40 45
REMARK SMILES IDX 56 46 41 47 44 48 55 49 71 50 42 51 43 52 54 54 72 55 45 56
REMARK SMILES IDX 32 57 33 58 38 59 34 60 35 61 37 62 39 63 36 64 58 65 59 66
REMARK SMILES IDX 64 67 60 68 61 69 63 70 65 71 62 72 46 73 47 74 52 75 48 76
REMARK SMILES IDX 49 77 51 78 53 79 50 80
REMARK H PARENT 15 6 20 23 70 42 44 53
REMARK Flexibility Score: inf
ROOT
ATOM      1  C   UNL A   1      36.492  20.376  25.007  1.00  0.00     0.023 C 
ENDROOT
BRANCH   1   2
ATOM      2  C   UNL A   1      36.649  21.853  25.341  1.00  0.00     0.116 C 
BRANCH   2   3
ATOM      3  N   UNL A   1      35.896  22.202  26.525  1.00  0.00    -0.355 N 
ATOM      4  C   UNL A   1      34.665  22.802  26.660  1.00  0.00     0.236 C 
ATOM      5  O   UNL A   1      34.250  22.863  27.828  1.00  0.00    -0.273 OA
ATOM      6  H   UNL A   1      36.337  21.973  27.375  1.00  0.00     0.163 HD
BRANCH   4   7
ATOM      7  C   UNL A   1      33.873  23.383  25.424  1.00  0.00     0.097 C 
ATOM      8  C   UNL A   1      32.804  25.858  26.044  1.00  0.00     0.009 C 
ATOM      9  C   UNL A   1      33.904  24.991  25.458  1.00  0.00     0.012 C 
ATOM     10  C   UNL A   1      33.986  24.987  23.923  1.00  0.00     0.007 C 
ATOM     11  C   UNL A   1      34.492  23.544  23.999  1.00  0.00     0.028 C 
BRANCH   7  12
ATOM     12  S   UNL A   1      32.092  22.794  25.377  1.00  0.00    -0.141 SA
BRANCH  12  13
ATOM     13  C   UNL A   1      32.119  21.020  24.933  1.00  0.00     0.047 C 
ATOM     14  C   UNL A   1      32.389  20.781  23.445  1.00  0.00     0.014 C 
ATOM     15  C   UNL A   1      32.936  20.103  25.848  1.00  0.00     0.014 C 
ATOM     16  C   UNL A   1      32.263  19.302  23.082  1.00  0.00     0.001 C 
ATOM     17  C   UNL A   1      32.866  18.633  25.427  1.00  0.00     0.001 C 
ATOM     18  C   UNL A   1      33.181  18.447  23.946  1.00  0.00     0.000 C 
ENDBRANCH  12  13
ENDBRANCH   7  12
ENDBRANCH   4   7
ENDBRANCH   2   3
ENDBRANCH   1   2
BRANCH   1  19
ATOM     19  C   UNL A   1      37.823  19.649  24.797  1.00  0.00     0.023 C 
BRANCH  19  20
ATOM     20  C   UNL A   1      38.970  20.149  25.668  1.00  0.00     0.116 C 
BRANCH  20  21
ATOM     21  N   UNL A   1      40.059  19.191  25.768  1.00  0.00    -0.352 N 
ATOM     22  C   UNL A   1      41.366  19.412  26.118  1.00  0.00     0.251 C 
ATOM     23  H   UNL A   1      39.827  18.258  25.556  1.00  0.00     0.163 HD
ATOM     24  O   UNL A   1      42.197  18.514  26.001  1.00  0.00    -0.269 OA
BRANCH  22  25
ATOM     25  C   UNL A   1      41.776  20.741  26.615  1.00  0.00     0.039 A 
ATOM     26  C   UNL A   1      42.203  21.701  25.696  1.00  0.00     0.014 A 
ATOM     27  C   UNL A   1      41.743  21.039  27.980  1.00  0.00     0.014 A 
ATOM     28  C   UNL A   1      42.565  22.971  26.143  1.00  0.00     0.010 A 
ATOM     29  C   UNL A   1      42.024  22.330  28.415  1.00  0.00     0.010 A 
ATOM     30  C   UNL A   1      42.460  23.303  27.505  1.00  0.00    -0.014 A 
BRANCH  30  31
ATOM     31  C   UNL A   1      42.844  24.654  27.991  1.00  0.00     0.031 A 
ATOM     32  C   UNL A   1      41.784  25.695  28.240  1.00  0.00     0.074 A 
ATOM     33  C   UNL A   1      44.146  24.954  28.176  1.00  0.00     0.049 A 
ATOM     34  N   UNL A   1      41.920  26.929  28.652  1.00  0.00    -0.248 NA
ATOM     35  C   UNL A   1      40.390  25.308  27.967  1.00  0.00     0.031 C 
ATOM     36  C   UNL A   1      45.271  24.052  27.915  1.00  0.00     0.029 A 
ATOM     37  N   UNL A   1      44.743  26.104  28.625  1.00  0.00    -0.354 N 
ATOM     38  C   UNL A   1      40.640  27.467  28.667  1.00  0.00     0.074 A 
ATOM     39  C   UNL A   1      39.743  26.445  28.175  1.00  0.00     0.031 C 
ATOM     40  C   UNL A   1      46.417  24.675  28.234  1.00  0.00     0.029 A 
ATOM     41  C   UNL A   1      46.114  26.027  28.690  1.00  0.00     0.049 A 
ATOM     42  H   UNL A   1      44.237  26.911  28.877  1.00  0.00     0.167 HD
ATOM     43  C   UNL A   1      40.241  28.695  29.076  1.00  0.00     0.037 A 
ATOM     44  C   UNL A   1      47.020  26.946  29.073  1.00  0.00     0.037 A 
ATOM     45  C   UNL A   1      41.129  29.696  29.606  1.00  0.00     0.049 A 
ATOM     46  C   UNL A   1      46.542  28.293  29.547  1.00  0.00     0.074 A 
ATOM     47  C   UNL A   1      40.811  30.942  30.120  1.00  0.00     0.029 A 
ATOM     48  N   UNL A   1      42.506  29.566  29.692  1.00  0.00    -0.354 N 
ATOM     49  N   UNL A   1      45.318  28.753  29.642  1.00  0.00    -0.248 NA
ATOM     50  C   UNL A   1      47.574  29.242  29.987  1.00  0.00     0.031 C 
ATOM     51  C   UNL A   1      42.001  31.587  30.468  1.00  0.00     0.029 A 
ATOM     52  C   UNL A   1      43.053  30.718  30.231  1.00  0.00     0.049 A 
ATOM     53  H   UNL A   1      43.017  28.774  29.410  1.00  0.00     0.167 HD
ATOM     54  C   UNL A   1      45.430  30.023  30.194  1.00  0.00     0.074 A 
ATOM     55  C   UNL A   1      46.840  30.253  30.427  1.00  0.00     0.031 C 
ATOM     56  C   UNL A   1      44.456  30.922  30.481  1.00  0.00     0.037 A 
BRANCH  43  57
ATOM     57  C   UNL A   1      38.782  29.032  28.977  1.00  0.00     0.057 A 
ATOM     58  C   UNL A   1      37.919  28.925  30.075  1.00  0.00     0.134 A 
ATOM     59  C   UNL A   1      38.249  29.542  27.786  1.00  0.00     0.134 A 
ATOM     60  F   UNL A   1      38.361  28.431  31.242  1.00  0.00    -0.206 F 
ATOM     61  C   UNL A   1      36.578  29.303  29.990  1.00  0.00     0.040 A 
ATOM     62  C   UNL A   1      36.918  29.949  27.696  1.00  0.00     0.040 A 
ATOM     63  F   UNL A   1      39.021  29.674  26.697  1.00  0.00    -0.206 F 
ATOM     64  C   UNL A   1      36.077  29.828  28.801  1.00  0.00     0.006 A 
ENDBRANCH  43  57
BRANCH  44  65
ATOM     65  C   UNL A   1      48.474  26.635  29.046  1.00  0.00     0.057 A 
ATOM     66  C   UNL A   1      49.261  26.935  27.926  1.00  0.00     0.134 A 
ATOM     67  C   UNL A   1      49.097  25.971  30.109  1.00  0.00     0.134 A 
ATOM     68  F   UNL A   1      48.719  27.556  26.868  1.00  0.00    -0.206 F 
ATOM     69  C   UNL A   1      50.599  26.547  27.845  1.00  0.00     0.040 A 
ATOM     70  C   UNL A   1      50.444  25.606  30.054  1.00  0.00     0.040 A 
ATOM     71  F   UNL A   1      48.405  25.664  31.216  1.00  0.00    -0.206 F 
ATOM     72  C   UNL A   1      51.194  25.879  28.913  1.00  0.00     0.006 A 
ENDBRANCH  44  65
BRANCH  56  73
ATOM     73  C   UNL A   1      44.877  32.200  31.147  1.00  0.00     0.057 A 
ATOM     74  C   UNL A   1      45.212  33.348  30.417  1.00  0.00     0.134 A 
ATOM     75  C   UNL A   1      44.934  32.283  32.544  1.00  0.00     0.134 A 
ATOM     76  F   UNL A   1      45.188  33.334  29.075  1.00  0.00    -0.206 F 
ATOM     77  C   UNL A   1      45.634  34.518  31.052  1.00  0.00     0.040 A 
ATOM     78  C   UNL A   1      45.319  33.459  33.191  1.00  0.00     0.040 A 
ATOM     79  F   UNL A   1      44.612  31.227  33.305  1.00  0.00    -0.206 F 
ATOM     80  C   UNL A   1      45.683  34.576  32.444  1.00  0.00     0.006 A 
ENDBRANCH  56  73
ENDBRANCH  30  31
ENDBRANCH  22  25
ENDBRANCH  20  21
ENDBRANCH  19  20
ENDBRANCH   1  19
TORSDOF 13
ENDMDL
