MODEL 1
REMARK VINA RESULT:     -12.3      0.000      0.000
REMARK SMILES COC(=O)c1ccc(-c2ccc(C(=O)NCCCCNC(=O)c3ccc(-c4c5nc(c(-c6c(F)cccc6F)c6ccc([nH]6)c(-c6c(F)cccc6F)c6nc(c(-c7c(F)cccc7F)c7ccc4[nH]7)C=C6)C=C5)cc3)cc2O)cc1F
REMARK SMILES IDX 17 1 16 2 15 3 13 4 14 5 12 7 9 8 10 9 78 10 11 11 77 12
REMARK SMILES IDX 8 13 5 14 6 15 81 16 7 17 80 18 82 19 3 20 4 21 2 22 1 23
REMARK SMILES IDX 79 24 18 26 19 27 20 28 21 29 22 31 23 32 24 33 76 34 25 35
REMARK SMILES IDX 75 36 26 37 27 38 28 39 69 40 29 41 74 42 68 43 70 44 30 45
REMARK SMILES IDX 73 46 67 47 66 48 31 50 57 51 40 52 56 53 41 54 44 55 55 56
REMARK SMILES IDX 71 57 42 58 43 59 54 61 72 62 45 63 32 64 33 65 38 66 34 67
REMARK SMILES IDX 35 68 37 69 39 70 36 71 58 72 59 73 64 74 60 75 61 76 63 77
REMARK SMILES IDX 65 78 62 79 46 80 47 81 52 82 48 83 49 84 51 85 53 86 50 87
REMARK H PARENT 15 6 79 25 20 30 70 49 44 60
REMARK Flexibility Score: inf
ROOT
ATOM      1  C   UNL A   1      36.527  20.288  25.032  1.00  0.00     0.023 C 
ENDROOT
BRANCH   1   2
ATOM      2  C   UNL A   1      35.256  21.050  25.414  1.00  0.00     0.116 C 
BRANCH   2   3
ATOM      3  N   UNL A   1      34.103  20.179  25.322  1.00  0.00    -0.352 N 
ATOM      4  C   UNL A   1      32.763  20.419  25.156  1.00  0.00     0.251 C 
ATOM      5  O   UNL A   1      32.019  19.437  25.134  1.00  0.00    -0.269 OA
ATOM      6  H   UNL A   1      34.325  19.223  25.392  1.00  0.00     0.163 HD
BRANCH   4   7
ATOM      7  C   UNL A   1      32.175  21.775  24.947  1.00  0.00     0.043 A 
ATOM      8  C   UNL A   1      31.212  24.375  24.350  1.00  0.00     0.024 A 
ATOM      9  C   UNL A   1      31.630  23.518  23.326  1.00  0.00     0.013 A 
ATOM     10  C   UNL A   1      31.246  23.892  25.665  1.00  0.00     0.124 A 
ATOM     11  C   UNL A   1      32.116  22.240  23.623  1.00  0.00     0.015 A 
ATOM     12  C   UNL A   1      31.675  22.595  25.959  1.00  0.00     0.060 A 
BRANCH   8  13
ATOM     13  C   UNL A   1      30.764  25.739  24.050  1.00  0.00    -0.012 A 
ATOM     14  C   UNL A   1      29.890  28.316  23.334  1.00  0.00     0.095 A 
ATOM     15  C   UNL A   1      31.259  28.045  23.449  1.00  0.00     0.019 A 
ATOM     16  C   UNL A   1      28.967  27.302  23.575  1.00  0.00     0.138 A 
ATOM     17  C   UNL A   1      31.691  26.766  23.814  1.00  0.00     0.010 A 
ATOM     18  C   UNL A   1      29.396  26.026  23.935  1.00  0.00     0.049 A 
ATOM     19  F   UNL A   1      27.650  27.502  23.427  1.00  0.00    -0.206 F 
BRANCH  14  20
ATOM     20  C   UNL A   1      29.475  29.665  22.907  1.00  0.00     0.340 C 
ATOM     21  O   UNL A   1      29.347  30.599  23.680  1.00  0.00    -0.246 OA
BRANCH  20  22
ATOM     22  O   UNL A   1      29.197  29.676  21.581  1.00  0.00    -0.465 OA
ATOM     23  C   UNL A   1      28.039  30.435  21.236  1.00  0.00     0.282 C 
ENDBRANCH  20  22
ENDBRANCH  14  20
ENDBRANCH   8  13
BRANCH  10  24
ATOM     24  O   UNL A   1      30.850  24.717  26.686  1.00  0.00    -0.507 OA
ATOM     25  H   UNL A   1      31.286  24.678  27.515  1.00  0.00     0.293 HD
ENDBRANCH  10  24
ENDBRANCH   4   7
ENDBRANCH   2   3
ENDBRANCH   1   2
BRANCH   1  26
ATOM     26  C   UNL A   1      37.732  21.197  24.767  1.00  0.00     0.023 C 
BRANCH  26  27
ATOM     27  C   UNL A   1      38.818  21.145  25.837  1.00  0.00     0.116 C 
BRANCH  27  28
ATOM     28  N   UNL A   1      39.670  19.967  25.734  1.00  0.00    -0.352 N 
ATOM     29  C   UNL A   1      41.007  19.857  26.030  1.00  0.00     0.251 C 
ATOM     30  H   UNL A   1      39.232  19.148  25.410  1.00  0.00     0.163 HD
ATOM     31  O   UNL A   1      41.622  18.826  25.789  1.00  0.00    -0.269 OA
BRANCH  29  32
ATOM     32  C   UNL A   1      41.698  21.026  26.604  1.00  0.00     0.039 A 
ATOM     33  C   UNL A   1      42.232  21.985  25.742  1.00  0.00     0.014 A 
ATOM     34  C   UNL A   1      41.724  21.213  27.988  1.00  0.00     0.014 A 
ATOM     35  C   UNL A   1      42.710  23.186  26.268  1.00  0.00     0.010 A 
ATOM     36  C   UNL A   1      42.136  22.435  28.504  1.00  0.00     0.010 A 
ATOM     37  C   UNL A   1      42.611  23.441  27.646  1.00  0.00    -0.014 A 
BRANCH  37  38
ATOM     38  C   UNL A   1      42.942  24.771  28.211  1.00  0.00     0.031 A 
ATOM     39  C   UNL A   1      41.866  25.797  28.406  1.00  0.00     0.074 A 
ATOM     40  C   UNL A   1      44.230  25.081  28.459  1.00  0.00     0.049 A 
ATOM     41  N   UNL A   1      41.977  27.048  28.773  1.00  0.00    -0.248 NA
ATOM     42  C   UNL A   1      40.483  25.370  28.132  1.00  0.00     0.031 C 
ATOM     43  C   UNL A   1      45.367  24.176  28.277  1.00  0.00     0.029 A 
ATOM     44  N   UNL A   1      44.803  26.247  28.903  1.00  0.00    -0.354 N 
ATOM     45  C   UNL A   1      40.686  27.557  28.768  1.00  0.00     0.074 A 
ATOM     46  C   UNL A   1      39.812  26.498  28.314  1.00  0.00     0.031 C 
ATOM     47  C   UNL A   1      46.496  24.813  28.625  1.00  0.00     0.029 A 
ATOM     48  C   UNL A   1      46.172  26.185  29.005  1.00  0.00     0.049 A 
ATOM     49  H   UNL A   1      44.282  27.052  29.127  1.00  0.00     0.167 HD
ATOM     50  C   UNL A   1      40.270  28.792  29.132  1.00  0.00     0.037 A 
ATOM     51  C   UNL A   1      47.070  27.130  29.346  1.00  0.00     0.037 A 
ATOM     52  C   UNL A   1      41.145  29.834  29.600  1.00  0.00     0.049 A 
ATOM     53  C   UNL A   1      46.586  28.509  29.696  1.00  0.00     0.074 A 
ATOM     54  C   UNL A   1      40.807  31.098  30.049  1.00  0.00     0.029 A 
ATOM     55  N   UNL A   1      42.525  29.735  29.677  1.00  0.00    -0.354 N 
ATOM     56  N   UNL A   1      45.356  28.961  29.744  1.00  0.00    -0.248 NA
ATOM     57  C   UNL A   1      47.607  29.512  30.032  1.00  0.00     0.031 C 
ATOM     58  C   UNL A   1      41.987  31.785  30.341  1.00  0.00     0.029 A 
ATOM     59  C   UNL A   1      43.057  30.929  30.131  1.00  0.00     0.049 A 
ATOM     60  H   UNL A   1      43.049  28.934  29.444  1.00  0.00     0.167 HD
ATOM     61  C   UNL A   1      45.453  30.290  30.134  1.00  0.00     0.074 A 
ATOM     62  C   UNL A   1      46.861  30.571  30.319  1.00  0.00     0.031 C 
ATOM     63  C   UNL A   1      44.461  31.194  30.318  1.00  0.00     0.037 A 
BRANCH  50  64
ATOM     64  C   UNL A   1      38.802  29.090  29.053  1.00  0.00     0.057 A 
ATOM     65  C   UNL A   1      38.227  29.543  27.858  1.00  0.00     0.134 A 
ATOM     66  C   UNL A   1      37.974  29.014  30.180  1.00  0.00     0.134 A 
ATOM     67  F   UNL A   1      38.967  29.647  26.743  1.00  0.00    -0.206 F 
ATOM     68  C   UNL A   1      36.888  29.926  27.792  1.00  0.00     0.040 A 
ATOM     69  C   UNL A   1      36.625  29.368  30.120  1.00  0.00     0.040 A 
ATOM     70  F   UNL A   1      38.460  28.579  31.352  1.00  0.00    -0.206 F 
ATOM     71  C   UNL A   1      36.082  29.837  28.925  1.00  0.00     0.006 A 
ENDBRANCH  50  64
BRANCH  51  72
ATOM     72  C   UNL A   1      48.516  26.792  29.381  1.00  0.00     0.057 A 
ATOM     73  C   UNL A   1      49.352  27.024  28.282  1.00  0.00     0.134 A 
ATOM     74  C   UNL A   1      49.086  26.193  30.510  1.00  0.00     0.134 A 
ATOM     75  F   UNL A   1      48.866  27.587  27.167  1.00  0.00    -0.206 F 
ATOM     76  C   UNL A   1      50.698  26.652  28.297  1.00  0.00     0.040 A 
ATOM     77  C   UNL A   1      50.436  25.840  30.547  1.00  0.00     0.040 A 
ATOM     78  F   UNL A   1      48.340  25.962  31.601  1.00  0.00    -0.206 F 
ATOM     79  C   UNL A   1      51.244  26.060  29.434  1.00  0.00     0.006 A 
ENDBRANCH  51  72
BRANCH  63  80
ATOM     80  C   UNL A   1      44.840  32.578  30.757  1.00  0.00     0.057 A 
ATOM     81  C   UNL A   1      45.132  33.570  29.813  1.00  0.00     0.134 A 
ATOM     82  C   UNL A   1      45.040  32.887  32.107  1.00  0.00     0.134 A 
ATOM     83  F   UNL A   1      44.972  33.331  28.502  1.00  0.00    -0.206 F 
ATOM     84  C   UNL A   1      45.641  34.812  30.194  1.00  0.00     0.040 A 
ATOM     85  C   UNL A   1      45.525  34.134  32.503  1.00  0.00     0.040 A 
ATOM     86  F   UNL A   1      44.768  31.982  33.060  1.00  0.00    -0.206 F 
ATOM     87  C   UNL A   1      45.842  35.095  31.543  1.00  0.00     0.006 A 
ENDBRANCH  63  80
ENDBRANCH  37  38
ENDBRANCH  29  32
ENDBRANCH  27  28
ENDBRANCH  26  27
ENDBRANCH   1  26
TORSDOF 15
ENDMDL
MODEL 2
REMARK VINA RESULT:     -12.3      2.566      7.884
REMARK SMILES COC(=O)c1ccc(-c2ccc(C(=O)NCCCCNC(=O)c3ccc(-c4c5nc(c(-c6c(F)cccc6F)c6ccc([nH]6)c(-c6c(F)cccc6F)c6nc(c(-c7c(F)cccc7F)c7ccc4[nH]7)C=C6)C=C5)cc3)cc2O)cc1F
REMARK SMILES IDX 17 1 16 2 15 3 13 4 14 5 12 7 9 8 10 9 78 10 11 11 77 12
REMARK SMILES IDX 8 13 5 14 6 15 81 16 7 17 80 18 82 19 3 20 4 21 2 22 1 23
REMARK SMILES IDX 79 24 18 26 19 27 20 28 21 29 22 31 23 32 24 33 76 34 25 35
REMARK SMILES IDX 75 36 26 37 27 38 28 39 69 40 29 41 74 42 68 43 70 44 30 45
REMARK SMILES IDX 73 46 67 47 66 48 31 50 57 51 40 52 56 53 41 54 44 55 55 56
REMARK SMILES IDX 71 57 42 58 43 59 54 61 72 62 45 63 32 64 33 65 38 66 34 67
REMARK SMILES IDX 35 68 37 69 39 70 36 71 58 72 59 73 64 74 60 75 61 76 63 77
REMARK SMILES IDX 65 78 62 79 46 80 47 81 52 82 48 83 49 84 51 85 53 86 50 87
REMARK H PARENT 15 6 79 25 20 30 70 49 44 60
REMARK Flexibility Score: inf
ROOT
ATOM      1  C   UNL A   1      32.939  29.708  25.040  1.00  0.00     0.023 C 
ENDROOT
BRANCH   1   2
ATOM      2  C   UNL A   1      31.412  29.781  25.134  1.00  0.00     0.116 C 
BRANCH   2   3
ATOM      3  N   UNL A   1      30.821  29.616  23.822  1.00  0.00    -0.352 N 
ATOM      4  C   UNL A   1      30.677  28.532  22.994  1.00  0.00     0.251 C 
ATOM      5  O   UNL A   1      30.130  28.731  21.907  1.00  0.00    -0.269 OA
ATOM      6  H   UNL A   1      30.449  30.447  23.451  1.00  0.00     0.163 HD
BRANCH   4   7
ATOM      7  C   UNL A   1      31.088  27.143  23.353  1.00  0.00     0.043 A 
ATOM      8  C   UNL A   1      31.970  24.486  23.807  1.00  0.00     0.024 A 
ATOM      9  C   UNL A   1      32.706  25.351  22.989  1.00  0.00     0.013 A 
ATOM     10  C   UNL A   1      30.816  24.989  24.422  1.00  0.00     0.124 A 
ATOM     11  C   UNL A   1      32.263  26.658  22.756  1.00  0.00     0.015 A 
ATOM     12  C   UNL A   1      30.404  26.311  24.239  1.00  0.00     0.060 A 
BRANCH   8  13
ATOM     13  C   UNL A   1      32.394  23.096  23.999  1.00  0.00    -0.012 A 
ATOM     14  C   UNL A   1      33.075  20.399  24.423  1.00  0.00     0.095 A 
ATOM     15  C   UNL A   1      33.442  21.372  25.361  1.00  0.00     0.019 A 
ATOM     16  C   UNL A   1      32.372  20.776  23.282  1.00  0.00     0.138 A 
ATOM     17  C   UNL A   1      33.110  22.713  25.144  1.00  0.00     0.010 A 
ATOM     18  C   UNL A   1      32.038  22.111  23.066  1.00  0.00     0.049 A 
ATOM     19  F   UNL A   1      31.956  19.871  22.384  1.00  0.00    -0.206 F 
BRANCH  14  20
ATOM     20  C   UNL A   1      33.406  18.990  24.708  1.00  0.00     0.340 C 
ATOM     21  O   UNL A   1      34.505  18.508  24.494  1.00  0.00    -0.246 OA
BRANCH  20  22
ATOM     22  O   UNL A   1      32.312  18.329  25.155  1.00  0.00    -0.465 OA
ATOM     23  C   UNL A   1      32.518  16.930  25.352  1.00  0.00     0.282 C 
ENDBRANCH  20  22
ENDBRANCH  14  20
ENDBRANCH   8  13
BRANCH  10  24
ATOM     24  O   UNL A   1      30.074  24.157  25.221  1.00  0.00    -0.507 OA
ATOM     25  H   UNL A   1      29.254  24.450  25.568  1.00  0.00     0.293 HD
ENDBRANCH  10  24
ENDBRANCH   4   7
ENDBRANCH   2   3
ENDBRANCH   1   2
BRANCH   1  26
ATOM     26  C   UNL A   1      33.551  28.565  25.857  1.00  0.00     0.023 C 
BRANCH  26  27
ATOM     27  C   UNL A   1      33.561  28.791  27.365  1.00  0.00     0.116 C 
BRANCH  27  28
ATOM     28  N   UNL A   1      33.667  30.197  27.734  1.00  0.00    -0.352 N 
ATOM     29  C   UNL A   1      34.752  30.859  28.255  1.00  0.00     0.251 C 
ATOM     30  H   UNL A   1      32.859  30.741  27.590  1.00  0.00     0.163 HD
ATOM     31  O   UNL A   1      34.662  32.024  28.622  1.00  0.00    -0.269 OA
BRANCH  29  32
ATOM     32  C   UNL A   1      36.019  30.121  28.408  1.00  0.00     0.039 A 
ATOM     33  C   UNL A   1      36.940  30.136  27.361  1.00  0.00     0.014 A 
ATOM     34  C   UNL A   1      36.326  29.504  29.624  1.00  0.00     0.014 A 
ATOM     35  C   UNL A   1      38.217  29.613  27.566  1.00  0.00     0.010 A 
ATOM     36  C   UNL A   1      37.618  29.046  29.848  1.00  0.00     0.010 A 
ATOM     37  C   UNL A   1      38.581  29.118  28.829  1.00  0.00    -0.014 A 
BRANCH  37  38
ATOM     38  C   UNL A   1      39.978  28.722  29.130  1.00  0.00     0.031 A 
ATOM     39  C   UNL A   1      40.910  29.690  29.795  1.00  0.00     0.074 A 
ATOM     40  C   UNL A   1      40.427  27.520  28.716  1.00  0.00     0.049 A 
ATOM     41  N   UNL A   1      42.191  29.569  30.031  1.00  0.00    -0.248 NA
ATOM     42  C   UNL A   1      40.334  30.972  30.234  1.00  0.00     0.031 C 
ATOM     43  C   UNL A   1      39.622  26.507  28.029  1.00  0.00     0.029 A 
ATOM     44  N   UNL A   1      41.674  26.951  28.799  1.00  0.00    -0.354 N 
ATOM     45  C   UNL A   1      42.574  30.757  30.638  1.00  0.00     0.074 A 
ATOM     46  C   UNL A   1      41.405  31.606  30.690  1.00  0.00     0.031 C 
ATOM     47  C   UNL A   1      40.388  25.436  27.773  1.00  0.00     0.029 A 
ATOM     48  C   UNL A   1      41.750  25.703  28.227  1.00  0.00     0.049 A 
ATOM     49  H   UNL A   1      42.442  27.395  29.226  1.00  0.00     0.167 HD
ATOM     50  C   UNL A   1      43.790  31.096  31.127  1.00  0.00     0.037 A 
ATOM     51  C   UNL A   1      42.801  24.875  28.068  1.00  0.00     0.037 A 
ATOM     52  C   UNL A   1      44.944  30.238  31.087  1.00  0.00     0.049 A 
ATOM     53  C   UNL A   1      44.151  25.296  28.574  1.00  0.00     0.074 A 
ATOM     54  C   UNL A   1      46.202  30.471  31.611  1.00  0.00     0.029 A 
ATOM     55  N   UNL A   1      44.982  28.988  30.490  1.00  0.00    -0.354 N 
ATOM     56  N   UNL A   1      44.487  26.398  29.199  1.00  0.00    -0.248 NA
ATOM     57  C   UNL A   1      45.270  24.369  28.349  1.00  0.00     0.031 C 
ATOM     58  C   UNL A   1      47.020  29.389  31.279  1.00  0.00     0.029 A 
ATOM     59  C   UNL A   1      46.254  28.454  30.600  1.00  0.00     0.049 A 
ATOM     60  H   UNL A   1      44.218  28.546  30.053  1.00  0.00     0.167 HD
ATOM     61  C   UNL A   1      45.846  26.289  29.460  1.00  0.00     0.074 A 
ATOM     62  C   UNL A   1      46.274  25.010  28.934  1.00  0.00     0.031 C 
ATOM     63  C   UNL A   1      46.665  27.175  30.078  1.00  0.00     0.037 A 
BRANCH  50  64
ATOM     64  C   UNL A   1      43.941  32.448  31.759  1.00  0.00     0.057 A 
ATOM     65  C   UNL A   1      43.668  32.636  33.121  1.00  0.00     0.134 A 
ATOM     66  C   UNL A   1      44.272  33.580  31.004  1.00  0.00     0.134 A 
ATOM     67  F   UNL A   1      43.338  31.594  33.900  1.00  0.00    -0.206 F 
ATOM     68  C   UNL A   1      43.701  33.903  33.703  1.00  0.00     0.040 A 
ATOM     69  C   UNL A   1      44.335  34.849  31.581  1.00  0.00     0.040 A 
ATOM     70  F   UNL A   1      44.554  33.467  29.698  1.00  0.00    -0.206 F 
ATOM     71  C   UNL A   1      44.037  35.014  32.933  1.00  0.00     0.006 A 
ENDBRANCH  50  64
BRANCH  51  72
ATOM     72  C   UNL A   1      42.604  23.558  27.408  1.00  0.00     0.057 A 
ATOM     73  C   UNL A   1      42.277  22.410  28.141  1.00  0.00     0.134 A 
ATOM     74  C   UNL A   1      42.774  23.413  26.027  1.00  0.00     0.134 A 
ATOM     75  F   UNL A   1      42.108  22.479  29.470  1.00  0.00    -0.206 F 
ATOM     76  C   UNL A   1      42.149  21.162  27.528  1.00  0.00     0.040 A 
ATOM     77  C   UNL A   1      42.624  22.177  25.397  1.00  0.00     0.040 A 
ATOM     78  F   UNL A   1      43.070  24.480  25.269  1.00  0.00    -0.206 F 
ATOM     79  C   UNL A   1      42.320  21.044  26.150  1.00  0.00     0.006 A 
ENDBRANCH  51  72
BRANCH  63  80
ATOM     80  C   UNL A   1      48.109  26.804  30.244  1.00  0.00     0.057 A 
ATOM     81  C   UNL A   1      49.057  27.181  29.284  1.00  0.00     0.134 A 
ATOM     82  C   UNL A   1      48.534  25.967  31.282  1.00  0.00     0.134 A 
ATOM     83  F   UNL A   1      48.708  27.972  28.258  1.00  0.00    -0.206 F 
ATOM     84  C   UNL A   1      50.370  26.712  29.333  1.00  0.00     0.040 A 
ATOM     85  C   UNL A   1      49.851  25.512  31.356  1.00  0.00     0.040 A 
ATOM     86  F   UNL A   1      47.676  25.579  32.238  1.00  0.00    -0.206 F 
ATOM     87  C   UNL A   1      50.769  25.872  30.371  1.00  0.00     0.006 A 
ENDBRANCH  63  80
ENDBRANCH  37  38
ENDBRANCH  29  32
ENDBRANCH  27  28
ENDBRANCH  26  27
ENDBRANCH   1  26
TORSDOF 15
ENDMDL
MODEL 3
REMARK VINA RESULT:     -12.2      1.134      6.425
REMARK SMILES COC(=O)c1ccc(-c2ccc(C(=O)NCCCCNC(=O)c3ccc(-c4c5nc(c(-c6c(F)cccc6F)c6ccc([nH]6)c(-c6c(F)cccc6F)c6nc(c(-c7c(F)cccc7F)c7ccc4[nH]7)C=C6)C=C5)cc3)cc2O)cc1F
REMARK SMILES IDX 17 1 16 2 15 3 13 4 14 5 12 7 9 8 10 9 78 10 11 11 77 12
REMARK SMILES IDX 8 13 5 14 6 15 81 16 7 17 80 18 82 19 3 20 4 21 2 22 1 23
REMARK SMILES IDX 79 24 18 26 19 27 20 28 21 29 22 31 23 32 24 33 76 34 25 35
REMARK SMILES IDX 75 36 26 37 27 38 28 39 69 40 29 41 74 42 68 43 70 44 30 45
REMARK SMILES IDX 73 46 67 47 66 48 31 50 57 51 40 52 56 53 41 54 44 55 55 56
REMARK SMILES IDX 71 57 42 58 43 59 54 61 72 62 45 63 32 64 33 65 38 66 34 67
REMARK SMILES IDX 35 68 37 69 39 70 36 71 58 72 59 73 64 74 60 75 61 76 63 77
REMARK SMILES IDX 65 78 62 79 46 80 47 81 52 82 48 83 49 84 51 85 53 86 50 87
REMARK H PARENT 15 6 79 25 20 30 70 49 44 60
REMARK Flexibility Score: inf
ROOT
ATOM      1  C   UNL A   1      36.923  22.086  24.400  1.00  0.00     0.023 C 
ENDROOT
BRANCH   1   2
ATOM      2  C   UNL A   1      36.368  22.990  25.503  1.00  0.00     0.116 C 
BRANCH   2   3
ATOM      3  N   UNL A   1      35.357  22.287  26.266  1.00  0.00    -0.352 N 
ATOM      4  C   UNL A   1      34.004  22.463  26.407  1.00  0.00     0.251 C 
ATOM      5  O   UNL A   1      33.417  21.687  27.163  1.00  0.00    -0.269 OA
ATOM      6  H   UNL A   1      35.712  21.532  26.787  1.00  0.00     0.163 HD
BRANCH   4   7
ATOM      7  C   UNL A   1      33.212  23.488  25.665  1.00  0.00     0.043 A 
ATOM      8  C   UNL A   1      31.586  25.484  24.474  1.00  0.00     0.024 A 
ATOM      9  C   UNL A   1      31.982  25.593  25.812  1.00  0.00     0.013 A 
ATOM     10  C   UNL A   1      32.054  24.385  23.739  1.00  0.00     0.124 A 
ATOM     11  C   UNL A   1      32.773  24.601  26.402  1.00  0.00     0.015 A 
ATOM     12  C   UNL A   1      32.893  23.425  24.309  1.00  0.00     0.060 A 
BRANCH   8  13
ATOM     13  C   UNL A   1      30.702  26.485  23.870  1.00  0.00    -0.012 A 
ATOM     14  C   UNL A   1      29.028  28.493  22.828  1.00  0.00     0.095 A 
ATOM     15  C   UNL A   1      28.476  27.399  23.507  1.00  0.00     0.019 A 
ATOM     16  C   UNL A   1      30.409  28.578  22.674  1.00  0.00     0.138 A 
ATOM     17  C   UNL A   1      29.309  26.399  24.016  1.00  0.00     0.010 A 
ATOM     18  C   UNL A   1      31.241  27.584  23.183  1.00  0.00     0.049 A 
ATOM     19  F   UNL A   1      30.984  29.632  22.075  1.00  0.00    -0.206 F 
BRANCH  14  20
ATOM     20  C   UNL A   1      28.121  29.548  22.342  1.00  0.00     0.340 C 
ATOM     21  O   UNL A   1      28.058  29.888  21.172  1.00  0.00    -0.246 OA
BRANCH  20  22
ATOM     22  O   UNL A   1      27.451  30.109  23.378  1.00  0.00    -0.465 OA
ATOM     23  C   UNL A   1      27.656  31.515  23.510  1.00  0.00     0.282 C 
ENDBRANCH  20  22
ENDBRANCH  14  20
ENDBRANCH   8  13
BRANCH  10  24
ATOM     24  O   UNL A   1      31.672  24.253  22.428  1.00  0.00    -0.507 OA
ATOM     25  H   UNL A   1      31.876  23.468  21.959  1.00  0.00     0.293 HD
ENDBRANCH  10  24
ENDBRANCH   4   7
ENDBRANCH   2   3
ENDBRANCH   1   2
BRANCH   1  26
ATOM     26  C   UNL A   1      37.546  20.788  24.925  1.00  0.00     0.023 C 
BRANCH  26  27
ATOM     27  C   UNL A   1      38.807  20.979  25.761  1.00  0.00     0.116 C 
BRANCH  27  28
ATOM     28  N   UNL A   1      39.675  19.808  25.766  1.00  0.00    -0.352 N 
ATOM     29  C   UNL A   1      41.008  19.740  26.092  1.00  0.00     0.251 C 
ATOM     30  H   UNL A   1      39.252  18.959  25.502  1.00  0.00     0.163 HD
ATOM     31  O   UNL A   1      41.640  18.700  25.943  1.00  0.00    -0.269 OA
BRANCH  29  32
ATOM     32  C   UNL A   1      41.675  20.959  26.581  1.00  0.00     0.039 A 
ATOM     33  C   UNL A   1      42.229  21.844  25.655  1.00  0.00     0.014 A 
ATOM     34  C   UNL A   1      41.657  21.267  27.944  1.00  0.00     0.014 A 
ATOM     35  C   UNL A   1      42.684  23.090  26.088  1.00  0.00     0.010 A 
ATOM     36  C   UNL A   1      42.047  22.532  28.363  1.00  0.00     0.010 A 
ATOM     37  C   UNL A   1      42.542  23.463  27.435  1.00  0.00    -0.014 A 
BRANCH  37  38
ATOM     38  C   UNL A   1      42.848  24.841  27.892  1.00  0.00     0.031 A 
ATOM     39  C   UNL A   1      44.254  25.221  28.250  1.00  0.00     0.074 A 
ATOM     40  C   UNL A   1      41.839  25.716  28.070  1.00  0.00     0.049 A 
ATOM     41  N   UNL A   1      44.696  26.334  28.777  1.00  0.00    -0.248 NA
ATOM     42  C   UNL A   1      45.298  24.213  28.004  1.00  0.00     0.031 C 
ATOM     43  C   UNL A   1      40.427  25.449  27.788  1.00  0.00     0.029 A 
ATOM     44  N   UNL A   1      41.843  27.004  28.547  1.00  0.00    -0.354 N 
ATOM     45  C   UNL A   1      46.064  26.158  28.931  1.00  0.00     0.074 A 
ATOM     46  C   UNL A   1      46.374  24.816  28.491  1.00  0.00     0.031 C 
ATOM     47  C   UNL A   1      39.706  26.542  28.076  1.00  0.00     0.029 A 
ATOM     48  C   UNL A   1      40.592  27.571  28.612  1.00  0.00     0.049 A 
ATOM     49  H   UNL A   1      42.663  27.476  28.816  1.00  0.00     0.167 HD
ATOM     50  C   UNL A   1      46.979  27.048  29.381  1.00  0.00     0.037 A 
ATOM     51  C   UNL A   1      40.200  28.776  29.071  1.00  0.00     0.037 A 
ATOM     52  C   UNL A   1      46.664  28.387  29.801  1.00  0.00     0.049 A 
ATOM     53  C   UNL A   1      41.229  29.726  29.613  1.00  0.00     0.074 A 
ATOM     54  C   UNL A   1      47.533  29.381  30.215  1.00  0.00     0.029 A 
ATOM     55  N   UNL A   1      45.386  28.918  29.863  1.00  0.00    -0.354 N 
ATOM     56  N   UNL A   1      42.528  29.570  29.699  1.00  0.00    -0.248 NA
ATOM     57  C   UNL A   1      40.745  31.015  30.128  1.00  0.00     0.031 C 
ATOM     58  C   UNL A   1      46.775  30.494  30.585  1.00  0.00     0.029 A 
ATOM     59  C   UNL A   1      45.439  30.215  30.345  1.00  0.00     0.049 A 
ATOM     60  H   UNL A   1      44.562  28.445  29.603  1.00  0.00     0.167 HD
ATOM     61  C   UNL A   1      43.017  30.743  30.257  1.00  0.00     0.074 A 
ATOM     62  C   UNL A   1      41.878  31.608  30.481  1.00  0.00     0.031 C 
ATOM     63  C   UNL A   1      44.297  31.069  30.557  1.00  0.00     0.037 A 
BRANCH  50  64
ATOM     64  C   UNL A   1      48.414  26.614  29.436  1.00  0.00     0.057 A 
ATOM     65  C   UNL A   1      48.932  25.996  30.581  1.00  0.00     0.134 A 
ATOM     66  C   UNL A   1      49.304  26.885  28.389  1.00  0.00     0.134 A 
ATOM     67  F   UNL A   1      48.134  25.714  31.623  1.00  0.00    -0.206 F 
ATOM     68  C   UNL A   1      50.286  25.680  30.691  1.00  0.00     0.040 A 
ATOM     69  C   UNL A   1      50.656  26.550  28.476  1.00  0.00     0.040 A 
ATOM     70  F   UNL A   1      48.870  27.466  27.261  1.00  0.00    -0.206 F 
ATOM     71  C   UNL A   1      51.152  25.956  29.635  1.00  0.00     0.006 A 
ENDBRANCH  50  64
BRANCH  51  72
ATOM     72  C   UNL A   1      38.761  29.147  29.021  1.00  0.00     0.057 A 
ATOM     73  C   UNL A   1      37.934  29.034  30.146  1.00  0.00     0.134 A 
ATOM     74  C   UNL A   1      38.174  29.591  27.832  1.00  0.00     0.134 A 
ATOM     75  F   UNL A   1      38.434  28.606  31.315  1.00  0.00    -0.206 F 
ATOM     76  C   UNL A   1      36.571  29.328  30.083  1.00  0.00     0.040 A 
ATOM     77  C   UNL A   1      36.818  29.913  27.762  1.00  0.00     0.040 A 
ATOM     78  F   UNL A   1      38.919  29.737  26.725  1.00  0.00    -0.206 F 
ATOM     79  C   UNL A   1      36.010  29.772  28.887  1.00  0.00     0.006 A 
ENDBRANCH  51  72
BRANCH  63  80
ATOM     80  C   UNL A   1      44.560  32.422  31.150  1.00  0.00     0.057 A 
ATOM     81  C   UNL A   1      44.516  32.614  32.537  1.00  0.00     0.134 A 
ATOM     82  C   UNL A   1      44.728  33.553  30.343  1.00  0.00     0.134 A 
ATOM     83  F   UNL A   1      44.346  31.570  33.363  1.00  0.00    -0.206 F 
ATOM     84  C   UNL A   1      44.597  33.888  33.099  1.00  0.00     0.040 A 
ATOM     85  C   UNL A   1      44.835  34.830  30.895  1.00  0.00     0.040 A 
ATOM     86  F   UNL A   1      44.788  33.434  29.008  1.00  0.00    -0.206 F 
ATOM     87  C   UNL A   1      44.753  35.001  32.277  1.00  0.00     0.006 A 
ENDBRANCH  63  80
ENDBRANCH  37  38
ENDBRANCH  29  32
ENDBRANCH  27  28
ENDBRANCH  26  27
ENDBRANCH   1  26
TORSDOF 15
ENDMDL
