MODEL 1
REMARK VINA RESULT:     -12.3      0.000      0.000
REMARK SMILES Cc1ccc(C(=O)NCCCCNC(=O)c2ccc(-c3c4nc(c(-c5c(F)cccc5F)c5ccc([nH]5)c(-c5c(F)cccc5F)c5nc(c(-c6c(F)cccc6F)c6ccc3[nH]6)C=C5)C=C4)cc2)cc1S(=O)(=O)N(C)[C@H]1CCSC1
REMARK SMILES IDX 10 1 9 2 8 3 6 4 7 5 5 7 1 8 2 9 3 10 71 11 4 12 70 13 72 14
REMARK SMILES IDX 73 15 74 16 75 17 76 18 77 19 78 20 81 21 79 22 80 23 11 24
REMARK SMILES IDX 12 25 13 26 14 27 15 29 16 30 17 31 69 32 18 33 68 34 19 35
REMARK SMILES IDX 20 36 21 37 62 38 22 39 67 40 61 41 63 42 23 43 66 44 60 45
REMARK SMILES IDX 59 46 24 48 50 49 33 50 49 51 34 52 37 53 48 54 64 55 35 56
REMARK SMILES IDX 36 57 47 59 65 60 38 61 25 62 26 63 31 64 27 65 28 66 30 67
REMARK SMILES IDX 32 68 29 69 51 70 52 71 57 72 53 73 54 74 56 75 58 76 55 77
REMARK SMILES IDX 39 78 40 79 45 80 41 81 42 82 44 83 46 84 43 85
REMARK H PARENT 8 6 13 28 63 47 37 58
REMARK Flexibility Score: inf
ROOT
ATOM      1  C   UNL A   1      36.631  19.874  24.914  1.00  0.00     0.023 C 
ENDROOT
BRANCH   1   2
ATOM      2  C   UNL A   1      35.356  20.547  25.452  1.00  0.00     0.116 C 
BRANCH   2   3
ATOM      3  N   UNL A   1      34.200  19.675  25.336  1.00  0.00    -0.352 N 
ATOM      4  C   UNL A   1      32.892  19.881  24.977  1.00  0.00     0.251 C 
ATOM      5  O   UNL A   1      32.163  18.886  24.956  1.00  0.00    -0.269 OA
ATOM      6  H   UNL A   1      34.397  18.738  25.564  1.00  0.00     0.163 HD
BRANCH   4   7
ATOM      7  C   UNL A   1      32.313  21.202  24.592  1.00  0.00     0.041 A 
ATOM      8  C   UNL A   1      30.589  24.875  23.036  1.00  0.00     0.046 C 
ATOM      9  C   UNL A   1      31.231  23.690  23.683  1.00  0.00    -0.031 A 
ATOM     10  C   UNL A   1      31.548  22.644  22.793  1.00  0.00     0.005 A 
ATOM     11  C   UNL A   1      31.466  23.468  25.047  1.00  0.00     0.086 A 
ATOM     12  C   UNL A   1      32.091  21.434  23.233  1.00  0.00     0.014 A 
ATOM     13  C   UNL A   1      31.956  22.214  25.476  1.00  0.00     0.035 A 
BRANCH  11  14
ATOM     14  S   UNL A   1      31.253  24.606  26.418  1.00  0.00     0.243 S 
ATOM     15  O   UNL A   1      29.908  25.098  26.325  1.00  0.00    -0.207 OA
ATOM     16  O   UNL A   1      31.702  23.873  27.600  1.00  0.00    -0.207 OA
BRANCH  14  17
ATOM     17  N   UNL A   1      32.330  25.881  26.221  1.00  0.00    -0.197 NA
ATOM     18  C   UNL A   1      33.687  25.544  25.781  1.00  0.00     0.125 C 
BRANCH  17  19
ATOM     19  C   UNL A   1      31.824  27.270  26.277  1.00  0.00     0.083 C 
ATOM     20  C   UNL A   1      32.590  28.187  27.228  1.00  0.00     0.032 C 
ATOM     21  C   UNL A   1      31.840  27.984  24.926  1.00  0.00     0.089 C 
ATOM     22  C   UNL A   1      31.886  29.530  27.130  1.00  0.00     0.071 C 
ATOM     23  S   UNL A   1      31.601  29.746  25.349  1.00  0.00    -0.160 SA
ENDBRANCH  17  19
ENDBRANCH  14  17
ENDBRANCH  11  14
ENDBRANCH   4   7
ENDBRANCH   2   3
ENDBRANCH   1   2
BRANCH   1  24
ATOM     24  C   UNL A   1      37.804  20.826  24.660  1.00  0.00     0.023 C 
BRANCH  24  25
ATOM     25  C   UNL A   1      37.972  21.885  25.735  1.00  0.00     0.116 C 
BRANCH  25  26
ATOM     26  N   UNL A   1      39.215  21.820  26.487  1.00  0.00    -0.352 N 
ATOM     27  C   UNL A   1      40.058  22.835  26.907  1.00  0.00     0.251 C 
ATOM     28  H   UNL A   1      39.501  20.912  26.737  1.00  0.00     0.163 HD
ATOM     29  O   UNL A   1      41.151  22.534  27.387  1.00  0.00    -0.269 OA
BRANCH  27  30
ATOM     30  C   UNL A   1      39.600  24.253  26.984  1.00  0.00     0.039 A 
ATOM     31  C   UNL A   1      40.275  25.179  26.173  1.00  0.00     0.014 A 
ATOM     32  C   UNL A   1      38.896  24.710  28.084  1.00  0.00     0.014 A 
ATOM     33  C   UNL A   1      40.552  26.443  26.674  1.00  0.00     0.010 A 
ATOM     34  C   UNL A   1      39.342  25.854  28.685  1.00  0.00     0.010 A 
ATOM     35  C   UNL A   1      40.225  26.686  27.996  1.00  0.00    -0.014 A 
BRANCH  35  36
ATOM     36  C   UNL A   1      40.619  27.843  28.761  1.00  0.00     0.031 A 
ATOM     37  C   UNL A   1      39.659  28.956  28.786  1.00  0.00     0.074 A 
ATOM     38  C   UNL A   1      41.656  27.702  29.616  1.00  0.00     0.049 A 
ATOM     39  N   UNL A   1      39.883  30.091  29.335  1.00  0.00    -0.248 NA
ATOM     40  C   UNL A   1      38.346  28.882  28.138  1.00  0.00     0.031 C 
ATOM     41  C   UNL A   1      41.986  28.496  30.793  1.00  0.00     0.029 A 
ATOM     42  N   UNL A   1      42.779  26.883  29.435  1.00  0.00    -0.354 N 
ATOM     43  C   UNL A   1      38.673  30.744  29.416  1.00  0.00     0.074 A 
ATOM     44  C   UNL A   1      37.793  30.030  28.535  1.00  0.00     0.031 C 
ATOM     45  C   UNL A   1      43.303  28.375  31.045  1.00  0.00     0.029 A 
ATOM     46  C   UNL A   1      43.871  27.633  29.930  1.00  0.00     0.049 A 
ATOM     47  H   UNL A   1      42.802  25.978  29.047  1.00  0.00     0.167 HD
ATOM     48  C   UNL A   1      38.547  31.711  30.364  1.00  0.00     0.037 A 
ATOM     49  C   UNL A   1      44.797  28.140  29.058  1.00  0.00     0.037 A 
ATOM     50  C   UNL A   1      39.873  32.050  30.883  1.00  0.00     0.049 A 
ATOM     51  C   UNL A   1      44.802  29.654  29.057  1.00  0.00     0.074 A 
ATOM     52  C   UNL A   1      40.551  31.690  32.034  1.00  0.00     0.029 A 
ATOM     53  N   UNL A   1      40.827  32.545  29.996  1.00  0.00    -0.354 N 
ATOM     54  N   UNL A   1      43.760  30.389  29.345  1.00  0.00    -0.248 NA
ATOM     55  C   UNL A   1      46.001  30.448  28.808  1.00  0.00     0.031 C 
ATOM     56  C   UNL A   1      41.944  31.837  31.769  1.00  0.00     0.029 A 
ATOM     57  C   UNL A   1      42.101  32.334  30.484  1.00  0.00     0.049 A 
ATOM     58  H   UNL A   1      40.620  32.985  29.140  1.00  0.00     0.167 HD
ATOM     59  C   UNL A   1      44.129  31.710  29.369  1.00  0.00     0.074 A 
ATOM     60  C   UNL A   1      45.539  31.693  29.017  1.00  0.00     0.031 C 
ATOM     61  C   UNL A   1      43.269  32.719  29.701  1.00  0.00     0.037 A 
BRANCH  48  62
ATOM     62  C   UNL A   1      37.252  32.187  30.983  1.00  0.00     0.057 A 
ATOM     63  C   UNL A   1      36.504  33.190  30.335  1.00  0.00     0.134 A 
ATOM     64  C   UNL A   1      36.748  31.823  32.249  1.00  0.00     0.134 A 
ATOM     65  F   UNL A   1      36.856  33.652  29.127  1.00  0.00    -0.206 F 
ATOM     66  C   UNL A   1      35.370  33.789  30.904  1.00  0.00     0.040 A 
ATOM     67  C   UNL A   1      35.592  32.385  32.810  1.00  0.00     0.040 A 
ATOM     68  F   UNL A   1      37.360  30.945  33.048  1.00  0.00    -0.206 F 
ATOM     69  C   UNL A   1      34.904  33.383  32.144  1.00  0.00     0.006 A 
ENDBRANCH  48  62
BRANCH  49  70
ATOM     70  C   UNL A   1      44.984  27.248  27.871  1.00  0.00     0.057 A 
ATOM     71  C   UNL A   1      44.390  27.663  26.660  1.00  0.00     0.134 A 
ATOM     72  C   UNL A   1      46.073  26.378  27.774  1.00  0.00     0.134 A 
ATOM     73  F   UNL A   1      43.316  28.469  26.682  1.00  0.00    -0.206 F 
ATOM     74  C   UNL A   1      44.986  27.409  25.422  1.00  0.00     0.040 A 
ATOM     75  C   UNL A   1      46.649  26.079  26.531  1.00  0.00     0.040 A 
ATOM     76  F   UNL A   1      46.686  25.921  28.875  1.00  0.00    -0.206 F 
ATOM     77  C   UNL A   1      46.152  26.655  25.361  1.00  0.00     0.006 A 
ENDBRANCH  49  70
BRANCH  61  78
ATOM     78  C   UNL A   1      43.498  34.184  29.405  1.00  0.00     0.057 A 
ATOM     79  C   UNL A   1      43.588  34.720  28.111  1.00  0.00     0.134 A 
ATOM     80  C   UNL A   1      43.472  35.145  30.443  1.00  0.00     0.134 A 
ATOM     81  F   UNL A   1      43.480  33.951  27.019  1.00  0.00    -0.206 F 
ATOM     82  C   UNL A   1      43.734  36.091  27.871  1.00  0.00     0.040 A 
ATOM     83  C   UNL A   1      43.546  36.520  30.211  1.00  0.00     0.040 A 
ATOM     84  F   UNL A   1      43.341  34.796  31.731  1.00  0.00    -0.206 F 
ATOM     85  C   UNL A   1      43.702  36.999  28.921  1.00  0.00     0.006 A 
ENDBRANCH  61  78
ENDBRANCH  35  36
ENDBRANCH  27  30
ENDBRANCH  25  26
ENDBRANCH  24  25
ENDBRANCH   1  24
TORSDOF 14
ENDMDL
MODEL 2
REMARK VINA RESULT:     -12.1      3.295      8.510
REMARK SMILES Cc1ccc(C(=O)NCCCCNC(=O)c2ccc(-c3c4nc(c(-c5c(F)cccc5F)c5ccc([nH]5)c(-c5c(F)cccc5F)c5nc(c(-c6c(F)cccc6F)c6ccc3[nH]6)C=C5)C=C4)cc2)cc1S(=O)(=O)N(C)[C@H]1CCSC1
REMARK SMILES IDX 10 1 9 2 8 3 6 4 7 5 5 7 1 8 2 9 3 10 71 11 4 12 70 13 72 14
REMARK SMILES IDX 73 15 74 16 75 17 76 18 77 19 78 20 81 21 79 22 80 23 11 24
REMARK SMILES IDX 12 25 13 26 14 27 15 29 16 30 17 31 69 32 18 33 68 34 19 35
REMARK SMILES IDX 20 36 21 37 62 38 22 39 67 40 61 41 63 42 23 43 66 44 60 45
REMARK SMILES IDX 59 46 24 48 50 49 33 50 49 51 34 52 37 53 48 54 64 55 35 56
REMARK SMILES IDX 36 57 47 59 65 60 38 61 25 62 26 63 31 64 27 65 28 66 30 67
REMARK SMILES IDX 32 68 29 69 51 70 52 71 57 72 53 73 54 74 56 75 58 76 55 77
REMARK SMILES IDX 39 78 40 79 45 80 41 81 42 82 44 83 46 84 43 85
REMARK H PARENT 8 6 13 28 63 47 37 58
REMARK Flexibility Score: inf
ROOT
ATOM      1  C   UNL A   1      31.641  30.392  25.660  1.00  0.00     0.023 C 
ENDROOT
BRANCH   1   2
ATOM      2  C   UNL A   1      31.371  29.453  24.471  1.00  0.00     0.116 C 
BRANCH   2   3
ATOM      3  N   UNL A   1      32.583  29.176  23.720  1.00  0.00    -0.352 N 
ATOM      4  C   UNL A   1      33.369  28.061  23.569  1.00  0.00     0.251 C 
ATOM      5  O   UNL A   1      34.335  28.167  22.811  1.00  0.00    -0.269 OA
ATOM      6  H   UNL A   1      32.909  29.952  23.211  1.00  0.00     0.163 HD
BRANCH   4   7
ATOM      7  C   UNL A   1      33.117  26.747  24.230  1.00  0.00     0.041 A 
ATOM      8  C   UNL A   1      32.177  23.161  26.500  1.00  0.00     0.046 C 
ATOM      9  C   UNL A   1      32.600  24.315  25.649  1.00  0.00    -0.031 A 
ATOM     10  C   UNL A   1      32.329  25.580  26.210  1.00  0.00     0.005 A 
ATOM     11  C   UNL A   1      33.139  24.288  24.355  1.00  0.00     0.086 A 
ATOM     12  C   UNL A   1      32.596  26.769  25.525  1.00  0.00     0.014 A 
ATOM     13  C   UNL A   1      33.341  25.500  23.656  1.00  0.00     0.035 A 
BRANCH  11  14
ATOM     14  S   UNL A   1      33.668  22.868  23.393  1.00  0.00     0.243 S 
ATOM     15  O   UNL A   1      32.471  22.171  23.016  1.00  0.00    -0.207 OA
ATOM     16  O   UNL A   1      34.573  23.405  22.380  1.00  0.00    -0.207 OA
BRANCH  14  17
ATOM     17  N   UNL A   1      34.602  21.880  24.380  1.00  0.00    -0.197 NA
ATOM     18  C   UNL A   1      34.037  20.577  24.744  1.00  0.00     0.125 C 
BRANCH  17  19
ATOM     19  C   UNL A   1      36.008  22.250  24.653  1.00  0.00     0.083 C 
ATOM     20  C   UNL A   1      36.189  23.288  25.759  1.00  0.00     0.032 C 
ATOM     21  C   UNL A   1      36.887  21.068  25.059  1.00  0.00     0.089 C 
ATOM     22  C   UNL A   1      37.689  23.518  25.840  1.00  0.00     0.071 C 
ATOM     23  S   UNL A   1      38.394  21.846  25.744  1.00  0.00    -0.160 SA
ENDBRANCH  17  19
ENDBRANCH  14  17
ENDBRANCH  11  14
ENDBRANCH   4   7
ENDBRANCH   2   3
ENDBRANCH   1   2
BRANCH   1  24
ATOM     24  C   UNL A   1      33.088  30.397  26.161  1.00  0.00     0.023 C 
BRANCH  24  25
ATOM     25  C   UNL A   1      33.222  30.760  27.629  1.00  0.00     0.116 C 
BRANCH  25  26
ATOM     26  N   UNL A   1      34.232  31.760  27.937  1.00  0.00    -0.352 N 
ATOM     27  C   UNL A   1      35.500  31.613  28.474  1.00  0.00     0.251 C 
ATOM     28  H   UNL A   1      33.974  32.687  27.731  1.00  0.00     0.163 HD
ATOM     29  O   UNL A   1      36.121  32.622  28.808  1.00  0.00    -0.269 OA
BRANCH  27  30
ATOM     30  C   UNL A   1      36.206  30.298  28.465  1.00  0.00     0.039 A 
ATOM     31  C   UNL A   1      36.293  29.620  29.692  1.00  0.00     0.014 A 
ATOM     32  C   UNL A   1      37.102  29.983  27.458  1.00  0.00     0.014 A 
ATOM     33  C   UNL A   1      37.464  28.952  30.016  1.00  0.00     0.010 A 
ATOM     34  C   UNL A   1      38.336  29.531  27.834  1.00  0.00     0.010 A 
ATOM     35  C   UNL A   1      38.527  29.076  29.138  1.00  0.00    -0.014 A 
BRANCH  35  36
ATOM     36  C   UNL A   1      39.881  28.645  29.391  1.00  0.00     0.031 A 
ATOM     37  C   UNL A   1      40.216  27.283  28.952  1.00  0.00     0.074 A 
ATOM     38  C   UNL A   1      40.786  29.594  29.715  1.00  0.00     0.049 A 
ATOM     39  N   UNL A   1      41.337  26.706  29.177  1.00  0.00    -0.248 NA
ATOM     40  C   UNL A   1      39.266  26.428  28.234  1.00  0.00     0.031 C 
ATOM     41  C   UNL A   1      42.238  29.555  29.588  1.00  0.00     0.029 A 
ATOM     42  N   UNL A   1      40.543  30.760  30.454  1.00  0.00    -0.354 N 
ATOM     43  C   UNL A   1      41.384  25.590  28.371  1.00  0.00     0.074 A 
ATOM     44  C   UNL A   1      40.035  25.380  27.929  1.00  0.00     0.031 C 
ATOM     45  C   UNL A   1      42.775  30.428  30.461  1.00  0.00     0.029 A 
ATOM     46  C   UNL A   1      41.679  30.921  31.281  1.00  0.00     0.049 A 
ATOM     47  H   UNL A   1      39.751  31.342  30.408  1.00  0.00     0.167 HD
ATOM     48  C   UNL A   1      42.612  25.098  28.058  1.00  0.00     0.037 A 
ATOM     49  C   UNL A   1      41.572  30.713  32.631  1.00  0.00     0.037 A 
ATOM     50  C   UNL A   1      43.613  25.709  28.934  1.00  0.00     0.049 A 
ATOM     51  C   UNL A   1      42.409  29.538  33.089  1.00  0.00     0.074 A 
ATOM     52  C   UNL A   1      44.515  26.742  28.751  1.00  0.00     0.029 A 
ATOM     53  N   UNL A   1      43.496  25.521  30.309  1.00  0.00    -0.354 N 
ATOM     54  N   UNL A   1      42.713  28.517  32.331  1.00  0.00    -0.248 NA
ATOM     55  C   UNL A   1      43.026  29.464  34.409  1.00  0.00     0.031 C 
ATOM     56  C   UNL A   1      44.824  27.269  30.038  1.00  0.00     0.029 A 
ATOM     57  C   UNL A   1      44.153  26.522  30.996  1.00  0.00     0.049 A 
ATOM     58  H   UNL A   1      43.012  24.776  30.733  1.00  0.00     0.167 HD
ATOM     59  C   UNL A   1      43.575  27.691  33.008  1.00  0.00     0.074 A 
ATOM     60  C   UNL A   1      43.732  28.324  34.306  1.00  0.00     0.031 C 
ATOM     61  C   UNL A   1      44.122  26.568  32.452  1.00  0.00     0.037 A 
BRANCH  48  62
ATOM     62  C   UNL A   1      42.952  24.259  26.846  1.00  0.00     0.057 A 
ATOM     63  C   UNL A   1      42.730  22.869  26.884  1.00  0.00     0.134 A 
ATOM     64  C   UNL A   1      43.610  24.704  25.681  1.00  0.00     0.134 A 
ATOM     65  F   UNL A   1      42.121  22.287  27.927  1.00  0.00    -0.206 F 
ATOM     66  C   UNL A   1      43.143  21.998  25.864  1.00  0.00     0.040 A 
ATOM     67  C   UNL A   1      43.992  23.849  24.636  1.00  0.00     0.040 A 
ATOM     68  F   UNL A   1      43.975  25.975  25.494  1.00  0.00    -0.206 F 
ATOM     69  C   UNL A   1      43.771  22.487  24.731  1.00  0.00     0.006 A 
ENDBRANCH  48  62
BRANCH  49  70
ATOM     70  C   UNL A   1      40.220  31.097  33.142  1.00  0.00     0.057 A 
ATOM     71  C   UNL A   1      39.905  32.472  33.145  1.00  0.00     0.134 A 
ATOM     72  C   UNL A   1      39.144  30.205  33.110  1.00  0.00     0.134 A 
ATOM     73  F   UNL A   1      40.888  33.384  33.213  1.00  0.00    -0.206 F 
ATOM     74  C   UNL A   1      38.608  32.933  32.902  1.00  0.00     0.040 A 
ATOM     75  C   UNL A   1      37.833  30.661  32.914  1.00  0.00     0.040 A 
ATOM     76  F   UNL A   1      39.352  28.880  33.121  1.00  0.00    -0.206 F 
ATOM     77  C   UNL A   1      37.574  32.020  32.734  1.00  0.00     0.006 A 
ENDBRANCH  49  70
BRANCH  61  78
ATOM     78  C   UNL A   1      44.773  25.447  33.231  1.00  0.00     0.057 A 
ATOM     79  C   UNL A   1      46.151  25.185  33.227  1.00  0.00     0.134 A 
ATOM     80  C   UNL A   1      44.026  24.680  34.156  1.00  0.00     0.134 A 
ATOM     81  F   UNL A   1      47.009  25.925  32.512  1.00  0.00    -0.206 F 
ATOM     82  C   UNL A   1      46.730  24.180  34.012  1.00  0.00     0.040 A 
ATOM     83  C   UNL A   1      44.604  23.724  34.995  1.00  0.00     0.040 A 
ATOM     84  F   UNL A   1      42.705  24.845  34.314  1.00  0.00    -0.206 F 
ATOM     85  C   UNL A   1      45.959  23.452  34.908  1.00  0.00     0.006 A 
ENDBRANCH  61  78
ENDBRANCH  35  36
ENDBRANCH  27  30
ENDBRANCH  25  26
ENDBRANCH  24  25
ENDBRANCH   1  24
TORSDOF 14
ENDMDL
MODEL 3
REMARK VINA RESULT:     -12.1      3.564      8.758
REMARK SMILES Cc1ccc(C(=O)NCCCCNC(=O)c2ccc(-c3c4nc(c(-c5c(F)cccc5F)c5ccc([nH]5)c(-c5c(F)cccc5F)c5nc(c(-c6c(F)cccc6F)c6ccc3[nH]6)C=C5)C=C4)cc2)cc1S(=O)(=O)N(C)[C@H]1CCSC1
REMARK SMILES IDX 10 1 9 2 8 3 6 4 7 5 5 7 1 8 2 9 3 10 71 11 4 12 70 13 72 14
REMARK SMILES IDX 73 15 74 16 75 17 76 18 77 19 78 20 81 21 79 22 80 23 11 24
REMARK SMILES IDX 12 25 13 26 14 27 15 29 16 30 17 31 69 32 18 33 68 34 19 35
REMARK SMILES IDX 20 36 21 37 62 38 22 39 67 40 61 41 63 42 23 43 66 44 60 45
REMARK SMILES IDX 59 46 24 48 50 49 33 50 49 51 34 52 37 53 48 54 64 55 35 56
REMARK SMILES IDX 36 57 47 59 65 60 38 61 25 62 26 63 31 64 27 65 28 66 30 67
REMARK SMILES IDX 32 68 29 69 51 70 52 71 57 72 53 73 54 74 56 75 58 76 55 77
REMARK SMILES IDX 39 78 40 79 45 80 41 81 42 82 44 83 46 84 43 85
REMARK H PARENT 8 6 13 28 63 47 37 58
REMARK Flexibility Score: inf
ROOT
ATOM      1  C   UNL A   1      31.862  30.430  26.567  1.00  0.00     0.023 C 
ENDROOT
BRANCH   1   2
ATOM      2  C   UNL A   1      32.283  29.788  25.233  1.00  0.00     0.116 C 
BRANCH   2   3
ATOM      3  N   UNL A   1      31.197  29.796  24.268  1.00  0.00    -0.352 N 
ATOM      4  C   UNL A   1      30.491  28.807  23.631  1.00  0.00     0.251 C 
ATOM      5  O   UNL A   1      29.589  29.174  22.875  1.00  0.00    -0.269 OA
ATOM      6  H   UNL A   1      30.907  30.703  24.018  1.00  0.00     0.163 HD
BRANCH   4   7
ATOM      7  C   UNL A   1      30.723  27.344  23.811  1.00  0.00     0.041 A 
ATOM      8  C   UNL A   1      30.982  23.069  24.553  1.00  0.00     0.046 C 
ATOM      9  C   UNL A   1      31.037  24.538  24.279  1.00  0.00    -0.031 A 
ATOM     10  C   UNL A   1      29.961  25.270  24.821  1.00  0.00     0.005 A 
ATOM     11  C   UNL A   1      31.962  25.240  23.493  1.00  0.00     0.086 A 
ATOM     12  C   UNL A   1      29.814  26.643  24.606  1.00  0.00     0.014 A 
ATOM     13  C   UNL A   1      31.759  26.615  23.237  1.00  0.00     0.035 A 
BRANCH  11  14
ATOM     14  S   UNL A   1      33.470  24.635  22.732  1.00  0.00     0.243 S 
ATOM     15  O   UNL A   1      33.121  23.410  22.069  1.00  0.00    -0.207 OA
ATOM     16  O   UNL A   1      34.003  25.768  21.979  1.00  0.00    -0.207 OA
BRANCH  14  17
ATOM     17  N   UNL A   1      34.584  24.315  23.948  1.00  0.00    -0.197 NA
ATOM     18  C   UNL A   1      34.638  25.259  25.068  1.00  0.00     0.125 C 
BRANCH  17  19
ATOM     19  C   UNL A   1      35.290  23.014  23.958  1.00  0.00     0.083 C 
ATOM     20  C   UNL A   1      36.727  23.075  24.474  1.00  0.00     0.032 C 
ATOM     21  C   UNL A   1      34.600  21.948  24.808  1.00  0.00     0.089 C 
ATOM     22  C   UNL A   1      37.241  21.649  24.372  1.00  0.00     0.071 C 
ATOM     23  S   UNL A   1      35.865  20.642  25.000  1.00  0.00    -0.160 SA
ENDBRANCH  17  19
ENDBRANCH  14  17
ENDBRANCH  11  14
ENDBRANCH   4   7
ENDBRANCH   2   3
ENDBRANCH   1   2
BRANCH   1  24
ATOM     24  C   UNL A   1      32.873  31.421  27.153  1.00  0.00     0.023 C 
BRANCH  24  25
ATOM     25  C   UNL A   1      34.264  30.838  27.328  1.00  0.00     0.116 C 
BRANCH  25  26
ATOM     26  N   UNL A   1      35.234  31.717  27.963  1.00  0.00    -0.352 N 
ATOM     27  C   UNL A   1      36.397  31.413  28.650  1.00  0.00     0.251 C 
ATOM     28  H   UNL A   1      35.032  32.677  27.893  1.00  0.00     0.163 HD
ATOM     29  O   UNL A   1      36.979  32.315  29.253  1.00  0.00    -0.269 OA
BRANCH  27  30
ATOM     30  C   UNL A   1      37.067  30.087  28.509  1.00  0.00     0.039 A 
ATOM     31  C   UNL A   1      36.985  29.219  29.610  1.00  0.00     0.014 A 
ATOM     32  C   UNL A   1      38.072  29.898  27.577  1.00  0.00     0.014 A 
ATOM     33  C   UNL A   1      38.091  28.457  29.955  1.00  0.00     0.010 A 
ATOM     34  C   UNL A   1      39.238  29.338  28.015  1.00  0.00     0.010 A 
ATOM     35  C   UNL A   1      39.257  28.672  29.241  1.00  0.00    -0.014 A 
BRANCH  35  36
ATOM     36  C   UNL A   1      40.558  28.148  29.577  1.00  0.00     0.031 A 
ATOM     37  C   UNL A   1      40.866  26.808  29.057  1.00  0.00     0.074 A 
ATOM     38  C   UNL A   1      41.474  29.016  30.058  1.00  0.00     0.049 A 
ATOM     39  N   UNL A   1      41.931  26.153  29.332  1.00  0.00    -0.248 NA
ATOM     40  C   UNL A   1      39.947  26.067  28.188  1.00  0.00     0.031 C 
ATOM     41  C   UNL A   1      42.928  28.905  30.060  1.00  0.00     0.029 A 
ATOM     42  N   UNL A   1      41.219  30.131  30.868  1.00  0.00    -0.354 N 
ATOM     43  C   UNL A   1      41.999  25.103  28.444  1.00  0.00     0.074 A 
ATOM     44  C   UNL A   1      40.689  25.004  27.867  1.00  0.00     0.031 C 
ATOM     45  C   UNL A   1      43.422  29.675  31.047  1.00  0.00     0.029 A 
ATOM     46  C   UNL A   1      42.280  30.162  31.804  1.00  0.00     0.049 A 
ATOM     47  H   UNL A   1      40.465  30.759  30.800  1.00  0.00     0.167 HD
ATOM     48  C   UNL A   1      43.225  24.568  28.202  1.00  0.00     0.037 A 
ATOM     49  C   UNL A   1      42.037  29.855  33.116  1.00  0.00     0.037 A 
ATOM     50  C   UNL A   1      44.169  25.052  29.211  1.00  0.00     0.049 A 
ATOM     51  C   UNL A   1      42.768  28.603  33.548  1.00  0.00     0.074 A 
ATOM     52  C   UNL A   1      45.133  26.043  29.197  1.00  0.00     0.029 A 
ATOM     53  N   UNL A   1      43.914  24.762  30.550  1.00  0.00    -0.354 N 
ATOM     54  N   UNL A   1      43.093  27.628  32.738  1.00  0.00    -0.248 NA
ATOM     55  C   UNL A   1      43.255  28.391  34.907  1.00  0.00     0.031 C 
ATOM     56  C   UNL A   1      45.345  26.449  30.546  1.00  0.00     0.029 A 
ATOM     57  C   UNL A   1      44.552  25.668  31.374  1.00  0.00     0.049 A 
ATOM     58  H   UNL A   1      43.356  24.015  30.866  1.00  0.00     0.167 HD
ATOM     59  C   UNL A   1      43.846  26.705  33.417  1.00  0.00     0.074 A 
ATOM     60  C   UNL A   1      43.911  27.224  34.772  1.00  0.00     0.031 C 
ATOM     61  C   UNL A   1      44.387  25.600  32.821  1.00  0.00     0.037 A 
BRANCH  48  62
ATOM     62  C   UNL A   1      43.637  23.810  26.960  1.00  0.00     0.057 A 
ATOM     63  C   UNL A   1      44.251  24.503  25.898  1.00  0.00     0.134 A 
ATOM     64  C   UNL A   1      43.352  22.458  26.674  1.00  0.00     0.134 A 
ATOM     65  F   UNL A   1      44.579  25.798  26.008  1.00  0.00    -0.206 F 
ATOM     66  C   UNL A   1      44.537  23.911  24.659  1.00  0.00     0.040 A 
ATOM     67  C   UNL A   1      43.671  21.844  25.453  1.00  0.00     0.040 A 
ATOM     68  F   UNL A   1      42.705  21.657  27.524  1.00  0.00    -0.206 F 
ATOM     69  C   UNL A   1      44.253  22.574  24.433  1.00  0.00     0.006 A 
ENDBRANCH  48  62
BRANCH  49  70
ATOM     70  C   UNL A   1      40.663  30.273  33.534  1.00  0.00     0.057 A 
ATOM     71  C   UNL A   1      40.456  31.650  33.765  1.00  0.00     0.134 A 
ATOM     72  C   UNL A   1      39.535  29.512  33.211  1.00  0.00     0.134 A 
ATOM     73  F   UNL A   1      41.489  32.432  34.117  1.00  0.00    -0.206 F 
ATOM     74  C   UNL A   1      39.241  32.273  33.469  1.00  0.00     0.040 A 
ATOM     75  C   UNL A   1      38.300  30.124  32.959  1.00  0.00     0.040 A 
ATOM     76  F   UNL A   1      39.638  28.193  32.992  1.00  0.00    -0.206 F 
ATOM     77  C   UNL A   1      38.171  31.513  33.014  1.00  0.00     0.006 A 
ENDBRANCH  49  70
BRANCH  61  78
ATOM     78  C   UNL A   1      44.906  24.386  33.558  1.00  0.00     0.057 A 
ATOM     79  C   UNL A   1      46.263  24.151  33.826  1.00  0.00     0.134 A 
ATOM     80  C   UNL A   1      44.014  23.477  34.174  1.00  0.00     0.134 A 
ATOM     81  F   UNL A   1      47.219  25.005  33.434  1.00  0.00    -0.206 F 
ATOM     82  C   UNL A   1      46.706  23.051  34.570  1.00  0.00     0.040 A 
ATOM     83  C   UNL A   1      44.442  22.416  34.976  1.00  0.00     0.040 A 
ATOM     84  F   UNL A   1      42.684  23.595  34.054  1.00  0.00    -0.206 F 
ATOM     85  C   UNL A   1      45.794  22.184  35.157  1.00  0.00     0.006 A 
ENDBRANCH  61  78
ENDBRANCH  35  36
ENDBRANCH  27  30
ENDBRANCH  25  26
ENDBRANCH  24  25
ENDBRANCH   1  24
TORSDOF 14
ENDMDL
