MODEL 1
REMARK VINA RESULT:     -12.5      0.000      0.000
REMARK SMILES COc1ccc(NC(=O)N[C@@H]2C=C[C@H](C(=O)NCCCCNC(=O)c3ccc(-c4c5nc(c(-c6c(F)cccc6F)c6ccc([nH]6)c(-c6c(F)cccc6F)c6nc(c(-c7c(F)cccc7F)c7ccc4[nH]7)C=C6)C=C5)cc3)C2)c(C)c1
REMARK SMILES IDX 19 1 18 2 17 3 15 4 16 5 14 7 11 8 12 9 79 10 13 11 10 12
REMARK SMILES IDX 7 13 8 14 9 16 6 18 3 19 4 20 82 21 5 22 80 23 81 24 2 25
REMARK SMILES IDX 1 26 20 27 21 28 22 29 23 30 24 32 25 33 26 34 78 35 27 36
REMARK SMILES IDX 77 37 28 38 29 39 30 40 71 41 31 42 76 43 70 44 72 45 32 46
REMARK SMILES IDX 75 47 69 48 68 49 33 51 59 52 42 53 58 54 43 55 46 56 57 57
REMARK SMILES IDX 73 58 44 59 45 60 56 62 74 63 47 64 34 65 35 66 40 67 36 68
REMARK SMILES IDX 37 69 39 70 41 71 38 72 60 73 61 74 66 75 62 76 63 77 65 78
REMARK SMILES IDX 67 79 64 80 48 81 49 82 54 83 50 84 51 85 53 86 55 87 52 88
REMARK H PARENT 17 6 7 15 10 17 22 31 72 50 46 61
REMARK Flexibility Score: inf
ROOT
ATOM      1  C   UNL A   1      37.473  21.463  24.739  1.00  0.00     0.023 C 
ENDROOT
BRANCH   1   2
ATOM      2  C   UNL A   1      36.170  22.185  25.107  1.00  0.00     0.116 C 
BRANCH   2   3
ATOM      3  N   UNL A   1      35.602  21.720  26.357  1.00  0.00    -0.356 N 
ATOM      4  C   UNL A   1      34.372  21.918  26.903  1.00  0.00     0.227 C 
ATOM      5  O   UNL A   1      34.192  21.491  28.045  1.00  0.00    -0.274 OA
ATOM      6  H   UNL A   1      36.208  21.166  26.901  1.00  0.00     0.163 HD
BRANCH   4   7
ATOM      7  C   UNL A   1      33.287  22.621  26.095  1.00  0.00     0.103 C 
ATOM      8  C   UNL A   1      31.891  24.614  26.132  1.00  0.00     0.107 C 
ATOM      9  C   UNL A   1      31.219  23.458  26.804  1.00  0.00    -0.006 C 
ATOM     10  C   UNL A   1      33.359  24.159  26.181  1.00  0.00     0.047 C 
ATOM     11  C   UNL A   1      31.949  22.344  26.719  1.00  0.00    -0.016 C 
BRANCH   8  12
ATOM     12  N   UNL A   1      31.553  25.805  26.859  1.00  0.00    -0.332 N 
ATOM     13  N   UNL A   1      31.502  27.690  25.345  1.00  0.00    -0.308 N 
ATOM     14  C   UNL A   1      31.323  27.083  26.533  1.00  0.00     0.319 C 
ATOM     15  H   UNL A   1      31.317  28.654  25.422  1.00  0.00     0.171 HD
ATOM     16  O   UNL A   1      30.968  27.816  27.466  1.00  0.00    -0.248 OA
ATOM     17  H   UNL A   1      31.472  25.644  27.827  1.00  0.00     0.165 HD
BRANCH  13  18
ATOM     18  C   UNL A   1      31.874  27.366  24.025  1.00  0.00     0.046 A 
ATOM     19  C   UNL A   1      32.713  26.310  21.530  1.00  0.00     0.119 A 
ATOM     20  C   UNL A   1      31.375  26.318  21.874  1.00  0.00     0.048 A 
ATOM     21  C   UNL A   1      33.607  26.990  22.355  1.00  0.00     0.052 A 
ATOM     22  C   UNL A   1      30.977  26.891  23.083  1.00  0.00     0.030 A 
ATOM     23  C   UNL A   1      33.201  27.552  23.590  1.00  0.00    -0.024 A 
ATOM     24  C   UNL A   1      34.206  28.422  24.300  1.00  0.00     0.047 C 
BRANCH  19  25
ATOM     25  O   UNL A   1      33.238  25.742  20.404  1.00  0.00    -0.497 OA
ATOM     26  C   UNL A   1      32.315  25.476  19.351  1.00  0.00     0.278 C 
ENDBRANCH  19  25
ENDBRANCH  13  18
ENDBRANCH   8  12
ENDBRANCH   4   7
ENDBRANCH   2   3
ENDBRANCH   1   2
BRANCH   1  27
ATOM     27  C   UNL A   1      38.618  21.582  25.751  1.00  0.00     0.023 C 
BRANCH  27  28
ATOM     28  C   UNL A   1      39.002  23.003  26.142  1.00  0.00     0.116 C 
BRANCH  28  29
ATOM     29  N   UNL A   1      40.402  23.198  26.481  1.00  0.00    -0.352 N 
ATOM     30  C   UNL A   1      41.040  24.352  26.913  1.00  0.00     0.251 C 
ATOM     31  H   UNL A   1      40.975  22.402  26.391  1.00  0.00     0.163 HD
ATOM     32  O   UNL A   1      42.244  24.348  27.111  1.00  0.00    -0.269 OA
BRANCH  30  33
ATOM     33  C   UNL A   1      40.231  25.550  27.265  1.00  0.00     0.039 A 
ATOM     34  C   UNL A   1      40.511  26.745  26.593  1.00  0.00     0.014 A 
ATOM     35  C   UNL A   1      39.369  25.554  28.360  1.00  0.00     0.014 A 
ATOM     36  C   UNL A   1      40.147  27.958  27.175  1.00  0.00     0.010 A 
ATOM     37  C   UNL A   1      39.079  26.754  28.985  1.00  0.00     0.010 A 
ATOM     38  C   UNL A   1      39.535  27.951  28.429  1.00  0.00    -0.014 A 
BRANCH  38  39
ATOM     39  C   UNL A   1      39.478  29.137  29.275  1.00  0.00     0.031 A 
ATOM     40  C   UNL A   1      38.441  30.166  29.080  1.00  0.00     0.074 A 
ATOM     41  C   UNL A   1      40.402  29.323  30.244  1.00  0.00     0.049 A 
ATOM     42  N   UNL A   1      38.664  31.432  29.216  1.00  0.00    -0.248 NA
ATOM     43  C   UNL A   1      37.072  29.845  28.693  1.00  0.00     0.031 C 
ATOM     44  C   UNL A   1      40.402  30.356  31.277  1.00  0.00     0.029 A 
ATOM     45  N   UNL A   1      41.659  28.718  30.354  1.00  0.00    -0.354 N 
ATOM     46  C   UNL A   1      37.442  32.057  29.200  1.00  0.00     0.074 A 
ATOM     47  C   UNL A   1      36.492  31.046  28.789  1.00  0.00     0.031 C 
ATOM     48  C   UNL A   1      41.655  30.515  31.728  1.00  0.00     0.029 A 
ATOM     49  C   UNL A   1      42.522  29.683  30.913  1.00  0.00     0.049 A 
ATOM     50  H   UNL A   1      41.895  27.799  30.091  1.00  0.00     0.167 HD
ATOM     51  C   UNL A   1      37.304  33.322  29.686  1.00  0.00     0.037 A 
ATOM     52  C   UNL A   1      43.645  30.109  30.268  1.00  0.00     0.037 A 
ATOM     53  C   UNL A   1      38.544  33.843  30.239  1.00  0.00     0.049 A 
ATOM     54  C   UNL A   1      43.685  31.596  30.016  1.00  0.00     0.074 A 
ATOM     55  C   UNL A   1      39.032  33.873  31.535  1.00  0.00     0.029 A 
ATOM     56  N   UNL A   1      39.618  34.137  29.408  1.00  0.00    -0.354 N 
ATOM     57  N   UNL A   1      42.635  32.366  30.059  1.00  0.00    -0.248 NA
ATOM     58  C   UNL A   1      44.896  32.323  29.640  1.00  0.00     0.031 C 
ATOM     59  C   UNL A   1      40.414  34.159  31.483  1.00  0.00     0.029 A 
ATOM     60  C   UNL A   1      40.768  34.314  30.155  1.00  0.00     0.049 A 
ATOM     61  H   UNL A   1      39.567  34.210  28.427  1.00  0.00     0.167 HD
ATOM     62  C   UNL A   1      42.983  33.634  29.665  1.00  0.00     0.074 A 
ATOM     63  C   UNL A   1      44.415  33.564  29.450  1.00  0.00     0.031 C 
ATOM     64  C   UNL A   1      42.044  34.617  29.528  1.00  0.00     0.037 A 
BRANCH  51  65
ATOM     65  C   UNL A   1      35.942  33.904  29.933  1.00  0.00     0.057 A 
ATOM     66  C   UNL A   1      35.132  34.372  28.885  1.00  0.00     0.134 A 
ATOM     67  C   UNL A   1      35.411  34.073  31.223  1.00  0.00     0.134 A 
ATOM     68  F   UNL A   1      35.483  34.225  27.601  1.00  0.00    -0.206 F 
ATOM     69  C   UNL A   1      33.926  35.046  29.107  1.00  0.00     0.040 A 
ATOM     70  C   UNL A   1      34.225  34.781  31.462  1.00  0.00     0.040 A 
ATOM     71  F   UNL A   1      36.040  33.569  32.297  1.00  0.00    -0.206 F 
ATOM     72  C   UNL A   1      33.484  35.281  30.400  1.00  0.00     0.006 A 
ENDBRANCH  51  65
BRANCH  52  73
ATOM     73  C   UNL A   1      44.220  29.092  29.350  1.00  0.00     0.057 A 
ATOM     74  C   UNL A   1      45.030  28.075  29.883  1.00  0.00     0.134 A 
ATOM     75  C   UNL A   1      43.702  28.891  28.069  1.00  0.00     0.134 A 
ATOM     76  F   UNL A   1      45.554  28.202  31.114  1.00  0.00    -0.206 F 
ATOM     77  C   UNL A   1      45.226  26.863  29.217  1.00  0.00     0.040 A 
ATOM     78  C   UNL A   1      43.900  27.685  27.388  1.00  0.00     0.040 A 
ATOM     79  F   UNL A   1      42.905  29.808  27.502  1.00  0.00    -0.206 F 
ATOM     80  C   UNL A   1      44.629  26.654  27.978  1.00  0.00     0.006 A 
ENDBRANCH  52  73
BRANCH  64  81
ATOM     81  C   UNL A   1      42.246  35.974  28.896  1.00  0.00     0.057 A 
ATOM     82  C   UNL A   1      42.983  37.019  29.472  1.00  0.00     0.134 A 
ATOM     83  C   UNL A   1      41.802  36.219  27.575  1.00  0.00     0.134 A 
ATOM     84  F   UNL A   1      43.562  36.892  30.673  1.00  0.00    -0.206 F 
ATOM     85  C   UNL A   1      43.210  38.235  28.810  1.00  0.00     0.040 A 
ATOM     86  C   UNL A   1      42.069  37.406  26.886  1.00  0.00     0.040 A 
ATOM     87  F   UNL A   1      41.105  35.304  26.883  1.00  0.00    -0.206 F 
ATOM     88  C   UNL A   1      42.764  38.428  27.510  1.00  0.00     0.006 A 
ENDBRANCH  64  81
ENDBRANCH  38  39
ENDBRANCH  30  33
ENDBRANCH  28  29
ENDBRANCH  27  28
ENDBRANCH   1  27
TORSDOF 14
ENDMDL
MODEL 2
REMARK VINA RESULT:     -12.5      1.210      1.583
REMARK SMILES COc1ccc(NC(=O)N[C@@H]2C=C[C@H](C(=O)NCCCCNC(=O)c3ccc(-c4c5nc(c(-c6c(F)cccc6F)c6ccc([nH]6)c(-c6c(F)cccc6F)c6nc(c(-c7c(F)cccc7F)c7ccc4[nH]7)C=C6)C=C5)cc3)C2)c(C)c1
REMARK SMILES IDX 19 1 18 2 17 3 15 4 16 5 14 7 11 8 12 9 79 10 13 11 10 12
REMARK SMILES IDX 7 13 8 14 9 16 6 18 3 19 4 20 82 21 5 22 80 23 81 24 2 25
REMARK SMILES IDX 1 26 20 27 21 28 22 29 23 30 24 32 25 33 26 34 78 35 27 36
REMARK SMILES IDX 77 37 28 38 29 39 30 40 71 41 31 42 76 43 70 44 72 45 32 46
REMARK SMILES IDX 75 47 69 48 68 49 33 51 59 52 42 53 58 54 43 55 46 56 57 57
REMARK SMILES IDX 73 58 44 59 45 60 56 62 74 63 47 64 34 65 35 66 40 67 36 68
REMARK SMILES IDX 37 69 39 70 41 71 38 72 60 73 61 74 66 75 62 76 63 77 65 78
REMARK SMILES IDX 67 79 64 80 48 81 49 82 54 83 50 84 51 85 53 86 55 87 52 88
REMARK H PARENT 17 6 7 15 10 17 22 31 72 50 46 61
REMARK Flexibility Score: inf
ROOT
ATOM      1  C   UNL A   1      38.154  21.254  25.069  1.00  0.00     0.023 C 
ENDROOT
BRANCH   1   2
ATOM      2  C   UNL A   1      36.727  21.375  25.619  1.00  0.00     0.116 C 
BRANCH   2   3
ATOM      3  N   UNL A   1      35.875  20.269  25.228  1.00  0.00    -0.356 N 
ATOM      4  C   UNL A   1      34.576  20.246  24.827  1.00  0.00     0.227 C 
ATOM      5  O   UNL A   1      34.062  19.138  24.657  1.00  0.00    -0.274 OA
ATOM      6  H   UNL A   1      36.312  19.388  25.255  1.00  0.00     0.163 HD
BRANCH   4   7
ATOM      7  C   UNL A   1      33.831  21.555  24.588  1.00  0.00     0.103 C 
ATOM      8  C   UNL A   1      31.977  22.866  25.464  1.00  0.00     0.107 C 
ATOM      9  C   UNL A   1      31.531  21.935  24.380  1.00  0.00    -0.006 C 
ATOM     10  C   UNL A   1      33.300  22.202  25.883  1.00  0.00     0.047 C 
ATOM     11  C   UNL A   1      32.557  21.270  23.845  1.00  0.00    -0.016 C 
BRANCH   8  12
ATOM     12  N   UNL A   1      30.936  22.925  26.451  1.00  0.00    -0.332 N 
ATOM     13  N   UNL A   1      29.789  25.047  26.289  1.00  0.00    -0.308 N 
ATOM     14  C   UNL A   1      29.974  23.800  26.763  1.00  0.00     0.319 C 
ATOM     15  H   UNL A   1      29.038  25.482  26.755  1.00  0.00     0.171 HD
ATOM     16  O   UNL A   1      29.196  23.442  27.659  1.00  0.00    -0.248 OA
ATOM     17  H   UNL A   1      30.930  22.134  27.038  1.00  0.00     0.165 HD
BRANCH  13  18
ATOM     18  C   UNL A   1      30.341  25.918  25.330  1.00  0.00     0.046 A 
ATOM     19  C   UNL A   1      31.793  27.384  23.383  1.00  0.00     0.119 A 
ATOM     20  C   UNL A   1      30.813  26.488  23.001  1.00  0.00     0.048 A 
ATOM     21  C   UNL A   1      31.922  27.675  24.740  1.00  0.00     0.052 A 
ATOM     22  C   UNL A   1      30.073  25.817  23.975  1.00  0.00     0.030 A 
ATOM     23  C   UNL A   1      31.183  26.976  25.725  1.00  0.00    -0.024 A 
ATOM     24  C   UNL A   1      31.264  27.507  27.134  1.00  0.00     0.047 C 
BRANCH  19  25
ATOM     25  O   UNL A   1      32.616  28.067  22.534  1.00  0.00    -0.497 OA
ATOM     26  C   UNL A   1      33.945  28.288  22.998  1.00  0.00     0.278 C 
ENDBRANCH  19  25
ENDBRANCH  13  18
ENDBRANCH   8  12
ENDBRANCH   4   7
ENDBRANCH   2   3
ENDBRANCH   1   2
BRANCH   1  27
ATOM     27  C   UNL A   1      39.286  21.439  26.086  1.00  0.00     0.023 C 
BRANCH  27  28
ATOM     28  C   UNL A   1      39.562  22.878  26.503  1.00  0.00     0.116 C 
BRANCH  28  29
ATOM     29  N   UNL A   1      40.960  23.275  26.479  1.00  0.00    -0.352 N 
ATOM     30  C   UNL A   1      41.508  24.540  26.636  1.00  0.00     0.251 C 
ATOM     31  H   UNL A   1      41.606  22.546  26.330  1.00  0.00     0.163 HD
ATOM     32  O   UNL A   1      42.714  24.701  26.540  1.00  0.00    -0.269 OA
BRANCH  30  33
ATOM     33  C   UNL A   1      40.637  25.670  27.057  1.00  0.00     0.039 A 
ATOM     34  C   UNL A   1      40.778  26.888  26.382  1.00  0.00     0.014 A 
ATOM     35  C   UNL A   1      39.855  25.601  28.209  1.00  0.00     0.014 A 
ATOM     36  C   UNL A   1      40.365  28.066  27.002  1.00  0.00     0.010 A 
ATOM     37  C   UNL A   1      39.520  26.771  28.867  1.00  0.00     0.010 A 
ATOM     38  C   UNL A   1      39.844  28.003  28.296  1.00  0.00    -0.014 A 
BRANCH  38  39
ATOM     39  C   UNL A   1      39.756  29.175  29.158  1.00  0.00     0.031 A 
ATOM     40  C   UNL A   1      38.687  30.174  28.984  1.00  0.00     0.074 A 
ATOM     41  C   UNL A   1      40.682  29.377  30.123  1.00  0.00     0.049 A 
ATOM     42  N   UNL A   1      38.871  31.445  29.135  1.00  0.00    -0.248 NA
ATOM     43  C   UNL A   1      37.325  29.816  28.602  1.00  0.00     0.031 C 
ATOM     44  C   UNL A   1      40.657  30.395  31.170  1.00  0.00     0.029 A 
ATOM     45  N   UNL A   1      41.957  28.810  30.216  1.00  0.00    -0.354 N 
ATOM     46  C   UNL A   1      37.631  32.031  29.136  1.00  0.00     0.074 A 
ATOM     47  C   UNL A   1      36.709  30.996  28.719  1.00  0.00     0.031 C 
ATOM     48  C   UNL A   1      41.908  30.588  31.615  1.00  0.00     0.029 A 
ATOM     49  C   UNL A   1      42.794  29.794  30.783  1.00  0.00     0.049 A 
ATOM     50  H   UNL A   1      42.220  27.902  29.939  1.00  0.00     0.167 HD
ATOM     51  C   UNL A   1      37.457  33.284  29.640  1.00  0.00     0.037 A 
ATOM     52  C   UNL A   1      43.898  30.263  30.135  1.00  0.00     0.037 A 
ATOM     53  C   UNL A   1      38.684  33.836  30.192  1.00  0.00     0.049 A 
ATOM     54  C   UNL A   1      43.891  31.754  29.903  1.00  0.00     0.074 A 
ATOM     55  C   UNL A   1      39.181  33.865  31.485  1.00  0.00     0.029 A 
ATOM     56  N   UNL A   1      39.743  34.175  29.357  1.00  0.00    -0.354 N 
ATOM     57  N   UNL A   1      42.817  32.490  29.963  1.00  0.00    -0.248 NA
ATOM     58  C   UNL A   1      45.075  32.523  29.529  1.00  0.00     0.031 C 
ATOM     59  C   UNL A   1      40.552  34.194  31.427  1.00  0.00     0.029 A 
ATOM     60  C   UNL A   1      40.892  34.377  30.099  1.00  0.00     0.049 A 
ATOM     61  H   UNL A   1      39.682  34.260  28.378  1.00  0.00     0.167 HD
ATOM     62  C   UNL A   1      43.123  33.773  29.585  1.00  0.00     0.074 A 
ATOM     63  C   UNL A   1      44.555  33.751  29.359  1.00  0.00     0.031 C 
ATOM     64  C   UNL A   1      42.153  34.729  29.467  1.00  0.00     0.037 A 
BRANCH  51  65
ATOM     65  C   UNL A   1      36.080  33.821  29.904  1.00  0.00     0.057 A 
ATOM     66  C   UNL A   1      35.244  34.270  28.867  1.00  0.00     0.134 A 
ATOM     67  C   UNL A   1      35.555  33.963  31.200  1.00  0.00     0.134 A 
ATOM     68  F   UNL A   1      35.588  34.145  27.579  1.00  0.00    -0.206 F 
ATOM     69  C   UNL A   1      34.020  34.904  29.105  1.00  0.00     0.040 A 
ATOM     70  C   UNL A   1      34.350  34.630  31.456  1.00  0.00     0.040 A 
ATOM     71  F   UNL A   1      36.210  33.471  32.264  1.00  0.00    -0.206 F 
ATOM     72  C   UNL A   1      33.583  35.114  30.405  1.00  0.00     0.006 A 
ENDBRANCH  51  65
BRANCH  52  73
ATOM     73  C   UNL A   1      44.498  29.277  29.200  1.00  0.00     0.057 A 
ATOM     74  C   UNL A   1      45.363  28.293  29.711  1.00  0.00     0.134 A 
ATOM     75  C   UNL A   1      43.963  29.060  27.928  1.00  0.00     0.134 A 
ATOM     76  F   UNL A   1      45.906  28.437  30.931  1.00  0.00    -0.206 F 
ATOM     77  C   UNL A   1      45.597  27.095  29.033  1.00  0.00     0.040 A 
ATOM     78  C   UNL A   1      44.199  27.868  27.236  1.00  0.00     0.040 A 
ATOM     79  F   UNL A   1      43.116  29.944  27.383  1.00  0.00    -0.206 F 
ATOM     80  C   UNL A   1      44.984  26.866  27.805  1.00  0.00     0.006 A 
ENDBRANCH  52  73
BRANCH  64  81
ATOM     81  C   UNL A   1      42.309  36.099  28.852  1.00  0.00     0.057 A 
ATOM     82  C   UNL A   1      42.965  37.177  29.464  1.00  0.00     0.134 A 
ATOM     83  C   UNL A   1      41.906  36.331  27.516  1.00  0.00     0.134 A 
ATOM     84  F   UNL A   1      43.500  37.071  30.687  1.00  0.00    -0.206 F 
ATOM     85  C   UNL A   1      43.154  38.409  28.820  1.00  0.00     0.040 A 
ATOM     86  C   UNL A   1      42.138  37.536  26.845  1.00  0.00     0.040 A 
ATOM     87  F   UNL A   1      41.287  35.387  26.790  1.00  0.00    -0.206 F 
ATOM     88  C   UNL A   1      42.751  38.588  27.503  1.00  0.00     0.006 A 
ENDBRANCH  64  81
ENDBRANCH  38  39
ENDBRANCH  30  33
ENDBRANCH  28  29
ENDBRANCH  27  28
ENDBRANCH   1  27
TORSDOF 14
ENDMDL
MODEL 3
REMARK VINA RESULT:     -12.4      1.288      2.341
REMARK SMILES COc1ccc(NC(=O)N[C@@H]2C=C[C@H](C(=O)NCCCCNC(=O)c3ccc(-c4c5nc(c(-c6c(F)cccc6F)c6ccc([nH]6)c(-c6c(F)cccc6F)c6nc(c(-c7c(F)cccc7F)c7ccc4[nH]7)C=C6)C=C5)cc3)C2)c(C)c1
REMARK SMILES IDX 19 1 18 2 17 3 15 4 16 5 14 7 11 8 12 9 79 10 13 11 10 12
REMARK SMILES IDX 7 13 8 14 9 16 6 18 3 19 4 20 82 21 5 22 80 23 81 24 2 25
REMARK SMILES IDX 1 26 20 27 21 28 22 29 23 30 24 32 25 33 26 34 78 35 27 36
REMARK SMILES IDX 77 37 28 38 29 39 30 40 71 41 31 42 76 43 70 44 72 45 32 46
REMARK SMILES IDX 75 47 69 48 68 49 33 51 59 52 42 53 58 54 43 55 46 56 57 57
REMARK SMILES IDX 73 58 44 59 45 60 56 62 74 63 47 64 34 65 35 66 40 67 36 68
REMARK SMILES IDX 37 69 39 70 41 71 38 72 60 73 61 74 66 75 62 76 63 77 65 78
REMARK SMILES IDX 67 79 64 80 48 81 49 82 54 83 50 84 51 85 53 86 55 87 52 88
REMARK H PARENT 17 6 7 15 10 17 22 31 72 50 46 61
REMARK Flexibility Score: inf
ROOT
ATOM      1  C   UNL A   1      37.782  21.439  25.027  1.00  0.00     0.023 C 
ENDROOT
BRANCH   1   2
ATOM      2  C   UNL A   1      36.406  21.534  25.698  1.00  0.00     0.116 C 
BRANCH   2   3
ATOM      3  N   UNL A   1      35.431  20.633  25.115  1.00  0.00    -0.356 N 
ATOM      4  C   UNL A   1      34.156  20.854  24.694  1.00  0.00     0.227 C 
ATOM      5  O   UNL A   1      33.508  19.869  24.335  1.00  0.00    -0.274 OA
ATOM      6  H   UNL A   1      35.745  19.707  25.004  1.00  0.00     0.163 HD
BRANCH   4   7
ATOM      7  C   UNL A   1      33.603  22.274  24.662  1.00  0.00     0.103 C 
ATOM      8  C   UNL A   1      32.957  24.020  23.093  1.00  0.00     0.107 C 
ATOM      9  C   UNL A   1      34.392  24.146  23.500  1.00  0.00    -0.006 C 
ATOM     10  C   UNL A   1      32.688  22.548  23.451  1.00  0.00     0.047 C 
ATOM     11  C   UNL A   1      34.729  23.238  24.417  1.00  0.00    -0.016 C 
BRANCH   8  12
ATOM     12  N   UNL A   1      32.856  24.383  21.708  1.00  0.00    -0.332 N 
ATOM     13  N   UNL A   1      32.747  26.790  21.510  1.00  0.00    -0.308 N 
ATOM     14  C   UNL A   1      32.835  25.536  21.029  1.00  0.00     0.319 C 
ATOM     15  H   UNL A   1      32.680  27.436  20.770  1.00  0.00     0.171 HD
ATOM     16  O   UNL A   1      32.819  25.428  19.795  1.00  0.00    -0.248 OA
ATOM     17  H   UNL A   1      32.785  23.598  21.118  1.00  0.00     0.165 HD
BRANCH  13  18
ATOM     18  C   UNL A   1      32.723  27.460  22.749  1.00  0.00     0.046 A 
ATOM     19  C   UNL A   1      32.689  28.402  25.425  1.00  0.00     0.119 A 
ATOM     20  C   UNL A   1      33.879  28.302  24.731  1.00  0.00     0.048 A 
ATOM     21  C   UNL A   1      31.502  28.201  24.722  1.00  0.00     0.052 A 
ATOM     22  C   UNL A   1      33.870  27.888  23.399  1.00  0.00     0.030 A 
ATOM     23  C   UNL A   1      31.498  27.761  23.376  1.00  0.00    -0.024 A 
ATOM     24  C   UNL A   1      30.168  27.763  22.668  1.00  0.00     0.047 C 
BRANCH  19  25
ATOM     25  O   UNL A   1      32.565  28.748  26.740  1.00  0.00    -0.497 OA
ATOM     26  C   UNL A   1      31.515  28.104  27.458  1.00  0.00     0.278 C 
ENDBRANCH  19  25
ENDBRANCH  13  18
ENDBRANCH   8  12
ENDBRANCH   4   7
ENDBRANCH   2   3
ENDBRANCH   1   2
BRANCH   1  27
ATOM     27  C   UNL A   1      38.993  21.467  25.967  1.00  0.00     0.023 C 
BRANCH  27  28
ATOM     28  C   UNL A   1      39.358  22.837  26.524  1.00  0.00     0.116 C 
BRANCH  28  29
ATOM     29  N   UNL A   1      40.764  23.194  26.423  1.00  0.00    -0.352 N 
ATOM     30  C   UNL A   1      41.350  24.450  26.501  1.00  0.00     0.251 C 
ATOM     31  H   UNL A   1      41.384  22.443  26.279  1.00  0.00     0.163 HD
ATOM     32  O   UNL A   1      42.553  24.573  26.347  1.00  0.00    -0.269 OA
BRANCH  30  33
ATOM     33  C   UNL A   1      40.526  25.620  26.908  1.00  0.00     0.039 A 
ATOM     34  C   UNL A   1      40.778  26.844  26.279  1.00  0.00     0.014 A 
ATOM     35  C   UNL A   1      39.679  25.568  28.014  1.00  0.00     0.014 A 
ATOM     36  C   UNL A   1      40.402  28.028  26.911  1.00  0.00     0.010 A 
ATOM     37  C   UNL A   1      39.379  26.739  28.688  1.00  0.00     0.010 A 
ATOM     38  C   UNL A   1      39.808  27.963  28.172  1.00  0.00    -0.014 A 
BRANCH  38  39
ATOM     39  C   UNL A   1      39.743  29.115  29.063  1.00  0.00     0.031 A 
ATOM     40  C   UNL A   1      38.677  30.124  28.933  1.00  0.00     0.074 A 
ATOM     41  C   UNL A   1      40.687  29.289  30.015  1.00  0.00     0.049 A 
ATOM     42  N   UNL A   1      38.871  31.390  29.110  1.00  0.00    -0.248 NA
ATOM     43  C   UNL A   1      37.306  29.783  28.568  1.00  0.00     0.031 C 
ATOM     44  C   UNL A   1      40.688  30.282  31.086  1.00  0.00     0.029 A 
ATOM     45  N   UNL A   1      41.961  28.712  30.071  1.00  0.00    -0.354 N 
ATOM     46  C   UNL A   1      37.635  31.983  29.148  1.00  0.00     0.074 A 
ATOM     47  C   UNL A   1      36.699  30.964  28.723  1.00  0.00     0.031 C 
ATOM     48  C   UNL A   1      41.948  30.457  31.512  1.00  0.00     0.029 A 
ATOM     49  C   UNL A   1      42.814  29.678  30.645  1.00  0.00     0.049 A 
ATOM     50  H   UNL A   1      42.213  27.810  29.768  1.00  0.00     0.167 HD
ATOM     51  C   UNL A   1      37.478  33.225  29.684  1.00  0.00     0.037 A 
ATOM     52  C   UNL A   1      43.909  30.156  29.989  1.00  0.00     0.037 A 
ATOM     53  C   UNL A   1      38.719  33.757  30.226  1.00  0.00     0.049 A 
ATOM     54  C   UNL A   1      43.906  31.652  29.792  1.00  0.00     0.074 A 
ATOM     55  C   UNL A   1      39.239  33.752  31.510  1.00  0.00     0.029 A 
ATOM     56  N   UNL A   1      39.764  34.109  29.380  1.00  0.00    -0.354 N 
ATOM     57  N   UNL A   1      42.839  32.392  29.889  1.00  0.00    -0.248 NA
ATOM     58  C   UNL A   1      45.088  32.422  29.414  1.00  0.00     0.031 C 
ATOM     59  C   UNL A   1      40.612  34.075  31.435  1.00  0.00     0.029 A 
ATOM     60  C   UNL A   1      40.928  34.287  30.105  1.00  0.00     0.049 A 
ATOM     61  H   UNL A   1      39.686  34.217  28.405  1.00  0.00     0.167 HD
ATOM     62  C   UNL A   1      43.145  33.683  29.536  1.00  0.00     0.074 A 
ATOM     63  C   UNL A   1      44.572  33.657  29.282  1.00  0.00     0.031 C 
ATOM     64  C   UNL A   1      42.179  34.646  29.459  1.00  0.00     0.037 A 
BRANCH  51  65
ATOM     65  C   UNL A   1      36.109  33.763  29.987  1.00  0.00     0.057 A 
ATOM     66  C   UNL A   1      35.257  34.240  28.976  1.00  0.00     0.134 A 
ATOM     67  C   UNL A   1      35.610  33.879  31.295  1.00  0.00     0.134 A 
ATOM     68  F   UNL A   1      35.575  34.141  27.679  1.00  0.00    -0.206 F 
ATOM     69  C   UNL A   1      34.041  34.874  29.252  1.00  0.00     0.040 A 
ATOM     70  C   UNL A   1      34.414  34.547  31.589  1.00  0.00     0.040 A 
ATOM     71  F   UNL A   1      36.283  33.360  32.336  1.00  0.00    -0.206 F 
ATOM     72  C   UNL A   1      33.630  35.058  30.564  1.00  0.00     0.006 A 
ENDBRANCH  51  65
BRANCH  52  73
ATOM     73  C   UNL A   1      44.485  29.189  29.019  1.00  0.00     0.057 A 
ATOM     74  C   UNL A   1      45.334  28.173  29.494  1.00  0.00     0.134 A 
ATOM     75  C   UNL A   1      43.940  29.022  27.744  1.00  0.00     0.134 A 
ATOM     76  F   UNL A   1      45.885  28.268  30.715  1.00  0.00    -0.206 F 
ATOM     77  C   UNL A   1      45.542  26.993  28.777  1.00  0.00     0.040 A 
ATOM     78  C   UNL A   1      44.150  27.848  27.014  1.00  0.00     0.040 A 
ATOM     79  F   UNL A   1      43.107  29.939  27.233  1.00  0.00    -0.206 F 
ATOM     80  C   UNL A   1      44.919  26.814  27.547  1.00  0.00     0.006 A 
ENDBRANCH  52  73
BRANCH  64  81
ATOM     81  C   UNL A   1      42.332  36.030  28.873  1.00  0.00     0.057 A 
ATOM     82  C   UNL A   1      43.007  37.089  29.497  1.00  0.00     0.134 A 
ATOM     83  C   UNL A   1      41.905  36.296  27.551  1.00  0.00     0.134 A 
ATOM     84  F   UNL A   1      43.565  36.950  30.707  1.00  0.00    -0.206 F 
ATOM     85  C   UNL A   1      43.191  38.335  28.879  1.00  0.00     0.040 A 
ATOM     86  C   UNL A   1      42.131  37.515  26.905  1.00  0.00     0.040 A 
ATOM     87  F   UNL A   1      41.265  35.373  26.815  1.00  0.00    -0.206 F 
ATOM     88  C   UNL A   1      42.765  38.548  27.575  1.00  0.00     0.006 A 
ENDBRANCH  64  81
ENDBRANCH  38  39
ENDBRANCH  30  33
ENDBRANCH  28  29
ENDBRANCH  27  28
ENDBRANCH   1  27
TORSDOF 14
ENDMDL
