MODEL 1
REMARK VINA RESULT:     -13.2      0.000      0.000
REMARK SMILES Cc1ccc(-c2cnnc(-n3nc(C)c4c3NC(=O)C[C@@H]4c3ccc(C(=O)NCCCCNC(=O)c4ccc(-c5c6nc(c(-c7c(F)cccc7F)c7ccc([nH]7)c(-c7c(F)cccc7F)c7nc(c(-c8c(F)cccc8F)c8ccc5[nH]8)C=C7)C=C6)cc4)cc3)n2)cc1
REMARK SMILES IDX 30 1 29 2 28 3 26 4 27 5 25 7 22 8 23 9 91 10 24 11 90 12
REMARK SMILES IDX 21 13 11 14 12 15 16 16 13 17 15 18 17 19 14 20 18 21 20 23
REMARK SMILES IDX 19 24 10 25 6 26 7 27 92 28 8 29 9 30 5 31 1 32 2 33 3 34
REMARK SMILES IDX 94 35 4 36 93 37 31 38 32 39 33 40 34 41 35 43 36 44 37 45
REMARK SMILES IDX 89 46 38 47 88 48 39 49 40 50 41 51 82 52 42 53 87 54 81 55
REMARK SMILES IDX 83 56 43 57 86 58 80 59 79 60 44 62 70 63 53 64 69 65 54 66
REMARK SMILES IDX 57 67 68 68 84 69 55 70 56 71 67 73 85 74 58 75 45 76 46 77
REMARK SMILES IDX 51 78 47 79 48 80 50 81 52 82 49 83 71 84 72 85 77 86 73 87
REMARK SMILES IDX 74 88 76 89 78 90 75 91 59 92 60 93 65 94 61 95 62 96 64 97
REMARK SMILES IDX 66 98 63 99
REMARK H PARENT 28 6 17 22 33 42 83 61 57 72
REMARK Flexibility Score: inf
ROOT
ATOM      1  C   UNL A   1      35.423  23.115  23.673  1.00  0.00     0.023 C 
ENDROOT
BRANCH   1   2
ATOM      2  C   UNL A   1      34.630  24.398  23.984  1.00  0.00     0.116 C 
BRANCH   2   3
ATOM      3  N   UNL A   1      34.035  25.012  22.800  1.00  0.00    -0.352 N 
ATOM      4  C   UNL A   1      33.475  26.254  22.598  1.00  0.00     0.251 C 
ATOM      5  O   UNL A   1      33.222  26.619  21.452  1.00  0.00    -0.269 OA
ATOM      6  H   UNL A   1      34.035  24.434  22.003  1.00  0.00     0.163 HD
BRANCH   4   7
ATOM      7  C   UNL A   1      33.224  27.183  23.723  1.00  0.00     0.039 A 
ATOM      8  C   UNL A   1      33.003  28.730  26.059  1.00  0.00    -0.040 A 
ATOM      9  C   UNL A   1      33.972  29.035  25.085  1.00  0.00     0.005 A 
ATOM     10  C   UNL A   1      32.029  27.780  25.734  1.00  0.00     0.005 A 
ATOM     11  C   UNL A   1      34.078  28.271  23.919  1.00  0.00     0.014 A 
ATOM     12  C   UNL A   1      32.148  27.011  24.584  1.00  0.00     0.014 A 
BRANCH   8  13
ATOM     13  C   UNL A   1      33.093  29.409  27.409  1.00  0.00     0.064 C 
ATOM     14  N   UNL A   1      33.285  33.020  27.591  1.00  0.00    -0.180 N 
ATOM     15  N   UNL A   1      32.202  32.996  26.766  1.00  0.00    -0.168 NA
ATOM     16  C   UNL A   1      33.928  31.796  27.507  1.00  0.00     0.143 A 
ATOM     17  C   UNL A   1      31.893  31.699  26.669  1.00  0.00     0.066 A 
ATOM     18  C   UNL A   1      32.914  30.888  27.247  1.00  0.00     0.026 A 
ATOM     19  N   UNL A   1      35.244  31.378  27.570  1.00  0.00    -0.310 N 
ATOM     20  C   UNL A   1      30.688  31.338  25.879  1.00  0.00     0.069 C 
ATOM     21  C   UNL A   1      35.508  29.963  27.587  1.00  0.00     0.226 C 
ATOM     22  H   UNL A   1      35.981  32.030  27.602  1.00  0.00     0.171 HD
ATOM     23  C   UNL A   1      34.398  29.101  28.141  1.00  0.00     0.113 C 
ATOM     24  O   UNL A   1      36.606  29.584  27.254  1.00  0.00    -0.275 OA
BRANCH  14  25
ATOM     25  C   UNL A   1      33.345  33.961  28.664  1.00  0.00     0.272 A 
ATOM     26  C   UNL A   1      33.658  34.569  30.842  1.00  0.00     0.095 A 
ATOM     27  C   UNL A   1      33.011  35.767  30.591  1.00  0.00     0.164 A 
ATOM     28  N   UNL A   1      33.791  33.600  29.888  1.00  0.00    -0.208 NA
ATOM     29  N   UNL A   1      32.553  36.060  29.368  1.00  0.00    -0.153 NA
ATOM     30  N   UNL A   1      32.765  35.161  28.388  1.00  0.00    -0.109 NA
BRANCH  26  31
ATOM     31  C   UNL A   1      34.338  34.355  32.125  1.00  0.00     0.002 A 
ATOM     32  C   UNL A   1      36.551  33.740  35.797  1.00  0.00     0.044 C 
ATOM     33  C   UNL A   1      35.808  33.957  34.511  1.00  0.00    -0.051 A 
ATOM     34  C   UNL A   1      35.140  35.164  34.283  1.00  0.00     0.004 A 
ATOM     35  C   UNL A   1      35.755  32.957  33.537  1.00  0.00     0.004 A 
ATOM     36  C   UNL A   1      34.415  35.362  33.102  1.00  0.00     0.011 A 
ATOM     37  C   UNL A   1      35.025  33.154  32.362  1.00  0.00     0.011 A 
ENDBRANCH  26  31
ENDBRANCH  14  25
ENDBRANCH   8  13
ENDBRANCH   4   7
ENDBRANCH   2   3
ENDBRANCH   1   2
BRANCH   1  38
ATOM     38  C   UNL A   1      36.835  23.064  24.251  1.00  0.00     0.023 C 
BRANCH  38  39
ATOM     39  C   UNL A   1      36.895  22.592  25.690  1.00  0.00     0.116 C 
BRANCH  39  40
ATOM     40  N   UNL A   1      38.198  22.116  26.130  1.00  0.00    -0.352 N 
ATOM     41  C   UNL A   1      39.319  22.835  26.520  1.00  0.00     0.251 C 
ATOM     42  H   UNL A   1      38.299  21.138  26.155  1.00  0.00     0.163 HD
ATOM     43  O   UNL A   1      40.367  22.231  26.734  1.00  0.00    -0.269 OA
BRANCH  41  44
ATOM     44  C   UNL A   1      39.213  24.275  26.882  1.00  0.00     0.039 A 
ATOM     45  C   UNL A   1      39.794  25.184  25.986  1.00  0.00     0.014 A 
ATOM     46  C   UNL A   1      38.970  24.661  28.191  1.00  0.00     0.014 A 
ATOM     47  C   UNL A   1      40.469  26.286  26.489  1.00  0.00     0.010 A 
ATOM     48  C   UNL A   1      39.768  25.636  28.720  1.00  0.00     0.010 A 
ATOM     49  C   UNL A   1      40.570  26.391  27.868  1.00  0.00    -0.014 A 
BRANCH  49  50
ATOM     50  C   UNL A   1      41.438  27.310  28.564  1.00  0.00     0.031 A 
ATOM     51  C   UNL A   1      40.877  28.633  28.853  1.00  0.00     0.074 A 
ATOM     52  C   UNL A   1      42.588  26.815  29.064  1.00  0.00     0.049 A 
ATOM     53  N   UNL A   1      41.564  29.687  29.087  1.00  0.00    -0.248 NA
ATOM     54  C   UNL A   1      39.435  28.878  28.836  1.00  0.00     0.031 C 
ATOM     55  C   UNL A   1      43.495  27.395  30.044  1.00  0.00     0.029 A 
ATOM     56  N   UNL A   1      43.266  25.680  28.602  1.00  0.00    -0.354 N 
ATOM     57  C   UNL A   1      40.692  30.645  29.565  1.00  0.00     0.074 A 
ATOM     58  C   UNL A   1      39.379  30.141  29.258  1.00  0.00     0.031 C 
ATOM     59  C   UNL A   1      44.708  26.824  29.900  1.00  0.00     0.029 A 
ATOM     60  C   UNL A   1      44.641  25.962  28.728  1.00  0.00     0.049 A 
ATOM     61  H   UNL A   1      42.863  24.851  28.257  1.00  0.00     0.167 HD
ATOM     62  C   UNL A   1      41.205  31.653  30.325  1.00  0.00     0.037 A 
ATOM     63  C   UNL A   1      45.388  26.131  27.593  1.00  0.00     0.037 A 
ATOM     64  C   UNL A   1      42.667  31.525  30.358  1.00  0.00     0.049 A 
ATOM     65  C   UNL A   1      45.833  27.568  27.434  1.00  0.00     0.074 A 
ATOM     66  C   UNL A   1      43.510  30.904  31.265  1.00  0.00     0.029 A 
ATOM     67  N   UNL A   1      43.394  31.667  29.177  1.00  0.00    -0.354 N 
ATOM     68  N   UNL A   1      45.199  28.592  27.945  1.00  0.00    -0.248 NA
ATOM     69  C   UNL A   1      47.065  27.951  26.753  1.00  0.00     0.031 C 
ATOM     70  C   UNL A   1      44.707  30.563  30.579  1.00  0.00     0.029 A 
ATOM     71  C   UNL A   1      44.605  31.004  29.270  1.00  0.00     0.049 A 
ATOM     72  H   UNL A   1      43.088  32.171  28.388  1.00  0.00     0.167 HD
ATOM     73  C   UNL A   1      45.914  29.734  27.703  1.00  0.00     0.074 A 
ATOM     74  C   UNL A   1      47.074  29.279  26.955  1.00  0.00     0.031 C 
ATOM     75  C   UNL A   1      45.529  30.969  28.144  1.00  0.00     0.037 A 
BRANCH  62  76
ATOM     76  C   UNL A   1      40.415  32.516  31.292  1.00  0.00     0.057 A 
ATOM     77  C   UNL A   1      39.638  33.586  30.802  1.00  0.00     0.134 A 
ATOM     78  C   UNL A   1      40.408  32.410  32.696  1.00  0.00     0.134 A 
ATOM     79  F   UNL A   1      39.466  33.787  29.487  1.00  0.00    -0.206 F 
ATOM     80  C   UNL A   1      38.991  34.514  31.631  1.00  0.00     0.040 A 
ATOM     81  C   UNL A   1      39.792  33.348  33.540  1.00  0.00     0.040 A 
ATOM     82  F   UNL A   1      40.949  31.373  33.339  1.00  0.00    -0.206 F 
ATOM     83  C   UNL A   1      39.086  34.413  33.009  1.00  0.00     0.006 A 
ENDBRANCH  62  76
BRANCH  63  84
ATOM     84  C   UNL A   1      44.944  25.211  26.499  1.00  0.00     0.057 A 
ATOM     85  C   UNL A   1      45.211  23.837  26.666  1.00  0.00     0.134 A 
ATOM     86  C   UNL A   1      43.911  25.550  25.620  1.00  0.00     0.134 A 
ATOM     87  F   UNL A   1      46.208  23.439  27.473  1.00  0.00    -0.206 F 
ATOM     88  C   UNL A   1      44.368  22.849  26.148  1.00  0.00     0.040 A 
ATOM     89  C   UNL A   1      43.081  24.563  25.069  1.00  0.00     0.040 A 
ATOM     90  F   UNL A   1      43.598  26.832  25.391  1.00  0.00    -0.206 F 
ATOM     91  C   UNL A   1      43.266  23.217  25.386  1.00  0.00     0.006 A 
ENDBRANCH  63  84
BRANCH  75  92
ATOM     92  C   UNL A   1      46.093  32.264  27.617  1.00  0.00     0.057 A 
ATOM     93  C   UNL A   1      45.506  33.001  26.578  1.00  0.00     0.134 A 
ATOM     94  C   UNL A   1      47.185  32.893  28.254  1.00  0.00     0.134 A 
ATOM     95  F   UNL A   1      44.371  32.601  25.985  1.00  0.00    -0.206 F 
ATOM     96  C   UNL A   1      46.029  34.217  26.131  1.00  0.00     0.040 A 
ATOM     97  C   UNL A   1      47.670  34.142  27.865  1.00  0.00     0.040 A 
ATOM     98  F   UNL A   1      47.813  32.336  29.301  1.00  0.00    -0.206 F 
ATOM     99  C   UNL A   1      47.111  34.797  26.779  1.00  0.00     0.006 A 
ENDBRANCH  75  92
ENDBRANCH  49  50
ENDBRANCH  41  44
ENDBRANCH  39  40
ENDBRANCH  38  39
ENDBRANCH   1  38
TORSDOF 14
ENDMDL
MODEL 2
REMARK VINA RESULT:     -12.0      3.529      8.821
REMARK SMILES Cc1ccc(-c2cnnc(-n3nc(C)c4c3NC(=O)C[C@@H]4c3ccc(C(=O)NCCCCNC(=O)c4ccc(-c5c6nc(c(-c7c(F)cccc7F)c7ccc([nH]7)c(-c7c(F)cccc7F)c7nc(c(-c8c(F)cccc8F)c8ccc5[nH]8)C=C7)C=C6)cc4)cc3)n2)cc1
REMARK SMILES IDX 30 1 29 2 28 3 26 4 27 5 25 7 22 8 23 9 91 10 24 11 90 12
REMARK SMILES IDX 21 13 11 14 12 15 16 16 13 17 15 18 17 19 14 20 18 21 20 23
REMARK SMILES IDX 19 24 10 25 6 26 7 27 92 28 8 29 9 30 5 31 1 32 2 33 3 34
REMARK SMILES IDX 94 35 4 36 93 37 31 38 32 39 33 40 34 41 35 43 36 44 37 45
REMARK SMILES IDX 89 46 38 47 88 48 39 49 40 50 41 51 82 52 42 53 87 54 81 55
REMARK SMILES IDX 83 56 43 57 86 58 80 59 79 60 44 62 70 63 53 64 69 65 54 66
REMARK SMILES IDX 57 67 68 68 84 69 55 70 56 71 67 73 85 74 58 75 45 76 46 77
REMARK SMILES IDX 51 78 47 79 48 80 50 81 52 82 49 83 71 84 72 85 77 86 73 87
REMARK SMILES IDX 74 88 76 89 78 90 75 91 59 92 60 93 65 94 61 95 62 96 64 97
REMARK SMILES IDX 66 98 63 99
REMARK H PARENT 28 6 17 22 33 42 83 61 57 72
REMARK Flexibility Score: inf
ROOT
ATOM      1  C   UNL A   1      44.449  33.064  32.087  1.00  0.00     0.023 C 
ENDROOT
BRANCH   1   2
ATOM      2  C   UNL A   1      43.313  34.048  31.752  1.00  0.00     0.116 C 
BRANCH   2   3
ATOM      3  N   UNL A   1      43.046  35.008  32.820  1.00  0.00    -0.352 N 
ATOM      4  C   UNL A   1      41.964  35.166  33.658  1.00  0.00     0.251 C 
ATOM      5  O   UNL A   1      42.056  35.925  34.619  1.00  0.00    -0.269 OA
ATOM      6  H   UNL A   1      43.769  35.659  32.968  1.00  0.00     0.163 HD
BRANCH   4   7
ATOM      7  C   UNL A   1      40.713  34.399  33.460  1.00  0.00     0.039 A 
ATOM      8  C   UNL A   1      38.437  32.932  32.709  1.00  0.00    -0.040 A 
ATOM      9  C   UNL A   1      39.625  32.275  33.077  1.00  0.00     0.005 A 
ATOM     10  C   UNL A   1      38.359  34.310  32.930  1.00  0.00     0.005 A 
ATOM     11  C   UNL A   1      40.756  33.003  33.458  1.00  0.00     0.014 A 
ATOM     12  C   UNL A   1      39.489  35.033  33.291  1.00  0.00     0.014 A 
BRANCH   8  13
ATOM     13  C   UNL A   1      37.334  32.125  32.057  1.00  0.00     0.064 C 
ATOM     14  N   UNL A   1      35.176  33.689  29.606  1.00  0.00    -0.180 N 
ATOM     15  N   UNL A   1      36.338  34.094  29.023  1.00  0.00    -0.168 NA
ATOM     16  C   UNL A   1      35.438  33.364  30.927  1.00  0.00     0.143 A 
ATOM     17  C   UNL A   1      37.291  33.495  29.743  1.00  0.00     0.066 A 
ATOM     18  C   UNL A   1      36.743  32.898  30.918  1.00  0.00     0.026 A 
ATOM     19  N   UNL A   1      34.738  33.462  32.114  1.00  0.00    -0.310 N 
ATOM     20  C   UNL A   1      38.699  33.682  29.308  1.00  0.00     0.069 C 
ATOM     21  C   UNL A   1      35.309  32.863  33.292  1.00  0.00     0.226 C 
ATOM     22  H   UNL A   1      33.872  33.929  32.154  1.00  0.00     0.171 HD
ATOM     23  C   UNL A   1      36.246  31.705  33.044  1.00  0.00     0.113 C 
ATOM     24  O   UNL A   1      34.934  33.258  34.371  1.00  0.00    -0.275 OA
BRANCH  14  25
ATOM     25  C   UNL A   1      34.091  33.230  28.798  1.00  0.00     0.272 A 
ATOM     26  C   UNL A   1      33.083  31.780  27.353  1.00  0.00     0.095 A 
ATOM     27  C   UNL A   1      32.146  32.752  27.045  1.00  0.00     0.164 A 
ATOM     28  N   UNL A   1      34.125  32.018  28.203  1.00  0.00    -0.208 NA
ATOM     29  N   UNL A   1      32.180  33.953  27.635  1.00  0.00    -0.153 NA
ATOM     30  N   UNL A   1      33.140  34.173  28.554  1.00  0.00    -0.109 NA
BRANCH  26  31
ATOM     31  C   UNL A   1      32.907  30.408  26.862  1.00  0.00     0.002 A 
ATOM     32  C   UNL A   1      32.492  26.424  25.215  1.00  0.00     0.044 C 
ATOM     33  C   UNL A   1      32.650  27.812  25.763  1.00  0.00    -0.051 A 
ATOM     34  C   UNL A   1      33.576  28.063  26.781  1.00  0.00     0.004 A 
ATOM     35  C   UNL A   1      31.867  28.865  25.284  1.00  0.00     0.004 A 
ATOM     36  C   UNL A   1      33.705  29.346  27.323  1.00  0.00     0.011 A 
ATOM     37  C   UNL A   1      31.992  30.145  25.831  1.00  0.00     0.011 A 
ENDBRANCH  26  31
ENDBRANCH  14  25
ENDBRANCH   8  13
ENDBRANCH   4   7
ENDBRANCH   2   3
ENDBRANCH   1   2
BRANCH   1  38
ATOM     38  C   UNL A   1      44.018  31.788  32.806  1.00  0.00     0.023 C 
BRANCH  38  39
ATOM     39  C   UNL A   1      45.112  30.746  32.922  1.00  0.00     0.116 C 
BRANCH  39  40
ATOM     40  N   UNL A   1      46.437  31.272  33.219  1.00  0.00    -0.352 N 
ATOM     41  C   UNL A   1      47.649  31.025  32.592  1.00  0.00     0.251 C 
ATOM     42  H   UNL A   1      46.478  31.896  33.978  1.00  0.00     0.163 HD
ATOM     43  O   UNL A   1      48.678  31.477  33.088  1.00  0.00    -0.269 OA
BRANCH  41  44
ATOM     44  C   UNL A   1      47.696  30.411  31.236  1.00  0.00     0.039 A 
ATOM     45  C   UNL A   1      47.342  31.245  30.165  1.00  0.00     0.014 A 
ATOM     46  C   UNL A   1      47.649  29.034  31.079  1.00  0.00     0.014 A 
ATOM     47  C   UNL A   1      46.590  30.722  29.125  1.00  0.00     0.010 A 
ATOM     48  C   UNL A   1      46.769  28.534  30.161  1.00  0.00     0.010 A 
ATOM     49  C   UNL A   1      46.188  29.399  29.238  1.00  0.00    -0.014 A 
BRANCH  49  50
ATOM     50  C   UNL A   1      45.202  28.763  28.398  1.00  0.00     0.031 A 
ATOM     51  C   UNL A   1      43.855  28.642  28.963  1.00  0.00     0.074 A 
ATOM     52  C   UNL A   1      45.542  28.530  27.114  1.00  0.00     0.049 A 
ATOM     53  N   UNL A   1      42.972  27.798  28.581  1.00  0.00    -0.248 NA
ATOM     54  C   UNL A   1      43.417  29.463  30.090  1.00  0.00     0.031 C 
ATOM     55  C   UNL A   1      44.693  28.197  25.978  1.00  0.00     0.029 A 
ATOM     56  N   UNL A   1      46.845  28.383  26.620  1.00  0.00    -0.354 N 
ATOM     57  C   UNL A   1      41.775  28.170  29.161  1.00  0.00     0.074 A 
ATOM     58  C   UNL A   1      42.135  29.113  30.187  1.00  0.00     0.031 C 
ATOM     59  C   UNL A   1      45.449  27.597  25.037  1.00  0.00     0.029 A 
ATOM     60  C   UNL A   1      46.776  27.406  25.607  1.00  0.00     0.049 A 
ATOM     61  H   UNL A   1      47.648  28.866  26.922  1.00  0.00     0.167 HD
ATOM     62  C   UNL A   1      40.621  27.761  28.563  1.00  0.00     0.037 A 
ATOM     63  C   UNL A   1      47.364  26.189  25.821  1.00  0.00     0.037 A 
ATOM     64  C   UNL A   1      40.957  26.877  27.440  1.00  0.00     0.049 A 
ATOM     65  C   UNL A   1      46.331  25.093  25.964  1.00  0.00     0.074 A 
ATOM     66  C   UNL A   1      41.134  27.139  26.091  1.00  0.00     0.029 A 
ATOM     67  N   UNL A   1      41.588  25.660  27.692  1.00  0.00    -0.354 N 
ATOM     68  N   UNL A   1      45.102  25.294  26.366  1.00  0.00    -0.248 NA
ATOM     69  C   UNL A   1      46.583  23.705  25.591  1.00  0.00     0.031 C 
ATOM     70  C   UNL A   1      41.984  26.130  25.562  1.00  0.00     0.029 A 
ATOM     71  C   UNL A   1      42.295  25.240  26.578  1.00  0.00     0.049 A 
ATOM     72  H   UNL A   1      41.537  25.167  28.543  1.00  0.00     0.167 HD
ATOM     73  C   UNL A   1      44.402  24.120  26.287  1.00  0.00     0.074 A 
ATOM     74  C   UNL A   1      45.373  23.157  25.796  1.00  0.00     0.031 C 
ATOM     75  C   UNL A   1      43.078  24.011  26.605  1.00  0.00     0.037 A 
BRANCH  62  76
ATOM     76  C   UNL A   1      39.258  28.401  28.749  1.00  0.00     0.057 A 
ATOM     77  C   UNL A   1      38.770  29.305  27.782  1.00  0.00     0.134 A 
ATOM     78  C   UNL A   1      38.401  28.242  29.854  1.00  0.00     0.134 A 
ATOM     79  F   UNL A   1      39.418  29.517  26.627  1.00  0.00    -0.206 F 
ATOM     80  C   UNL A   1      37.589  30.045  27.942  1.00  0.00     0.040 A 
ATOM     81  C   UNL A   1      37.232  28.997  30.045  1.00  0.00     0.040 A 
ATOM     82  F   UNL A   1      38.608  27.316  30.793  1.00  0.00    -0.206 F 
ATOM     83  C   UNL A   1      36.825  29.911  29.090  1.00  0.00     0.006 A 
ENDBRANCH  62  76
BRANCH  63  84
ATOM     84  C   UNL A   1      48.634  26.320  26.603  1.00  0.00     0.057 A 
ATOM     85  C   UNL A   1      48.616  25.872  27.940  1.00  0.00     0.134 A 
ATOM     86  C   UNL A   1      49.883  26.392  25.980  1.00  0.00     0.134 A 
ATOM     87  F   UNL A   1      47.454  25.805  28.611  1.00  0.00    -0.206 F 
ATOM     88  C   UNL A   1      49.749  25.333  28.557  1.00  0.00     0.040 A 
ATOM     89  C   UNL A   1      51.031  25.884  26.605  1.00  0.00     0.040 A 
ATOM     90  F   UNL A   1      49.995  26.820  24.715  1.00  0.00    -0.206 F 
ATOM     91  C   UNL A   1      50.954  25.292  27.865  1.00  0.00     0.006 A 
ENDBRANCH  63  84
BRANCH  75  92
ATOM     92  C   UNL A   1      42.377  22.701  26.857  1.00  0.00     0.057 A 
ATOM     93  C   UNL A   1      42.189  21.720  25.872  1.00  0.00     0.134 A 
ATOM     94  C   UNL A   1      41.994  22.320  28.162  1.00  0.00     0.134 A 
ATOM     95  F   UNL A   1      42.645  21.880  24.622  1.00  0.00    -0.206 F 
ATOM     96  C   UNL A   1      41.566  20.497  26.139  1.00  0.00     0.040 A 
ATOM     97  C   UNL A   1      41.439  21.073  28.454  1.00  0.00     0.040 A 
ATOM     98  F   UNL A   1      42.165  23.131  29.217  1.00  0.00    -0.206 F 
ATOM     99  C   UNL A   1      41.195  20.166  27.435  1.00  0.00     0.006 A 
ENDBRANCH  75  92
ENDBRANCH  49  50
ENDBRANCH  41  44
ENDBRANCH  39  40
ENDBRANCH  38  39
ENDBRANCH   1  38
TORSDOF 14
ENDMDL
MODEL 3
REMARK VINA RESULT:     -11.8      9.121     15.585
REMARK SMILES Cc1ccc(-c2cnnc(-n3nc(C)c4c3NC(=O)C[C@@H]4c3ccc(C(=O)NCCCCNC(=O)c4ccc(-c5c6nc(c(-c7c(F)cccc7F)c7ccc([nH]7)c(-c7c(F)cccc7F)c7nc(c(-c8c(F)cccc8F)c8ccc5[nH]8)C=C7)C=C6)cc4)cc3)n2)cc1
REMARK SMILES IDX 30 1 29 2 28 3 26 4 27 5 25 7 22 8 23 9 91 10 24 11 90 12
REMARK SMILES IDX 21 13 11 14 12 15 16 16 13 17 15 18 17 19 14 20 18 21 20 23
REMARK SMILES IDX 19 24 10 25 6 26 7 27 92 28 8 29 9 30 5 31 1 32 2 33 3 34
REMARK SMILES IDX 94 35 4 36 93 37 31 38 32 39 33 40 34 41 35 43 36 44 37 45
REMARK SMILES IDX 89 46 38 47 88 48 39 49 40 50 41 51 82 52 42 53 87 54 81 55
REMARK SMILES IDX 83 56 43 57 86 58 80 59 79 60 44 62 70 63 53 64 69 65 54 66
REMARK SMILES IDX 57 67 68 68 84 69 55 70 56 71 67 73 85 74 58 75 45 76 46 77
REMARK SMILES IDX 51 78 47 79 48 80 50 81 52 82 49 83 71 84 72 85 77 86 73 87
REMARK SMILES IDX 74 88 76 89 78 90 75 91 59 92 60 93 65 94 61 95 62 96 64 97
REMARK SMILES IDX 66 98 63 99
REMARK H PARENT 28 6 17 22 33 42 83 61 57 72
REMARK Flexibility Score: inf
ROOT
ATOM      1  C   UNL A   1      52.942  22.377  32.935  1.00  0.00     0.023 C 
ENDROOT
BRANCH   1   2
ATOM      2  C   UNL A   1      52.965  20.900  32.501  1.00  0.00     0.116 C 
BRANCH   2   3
ATOM      3  N   UNL A   1      53.511  20.006  33.518  1.00  0.00    -0.352 N 
ATOM      4  C   UNL A   1      52.983  19.531  34.697  1.00  0.00     0.251 C 
ATOM      5  O   UNL A   1      53.560  18.623  35.291  1.00  0.00    -0.269 OA
ATOM      6  H   UNL A   1      54.422  19.685  33.325  1.00  0.00     0.163 HD
BRANCH   4   7
ATOM      7  C   UNL A   1      51.705  20.049  35.237  1.00  0.00     0.039 A 
ATOM      8  C   UNL A   1      49.327  20.772  36.548  1.00  0.00    -0.040 A 
ATOM      9  C   UNL A   1      50.544  21.401  36.870  1.00  0.00     0.005 A 
ATOM     10  C   UNL A   1      49.300  19.941  35.424  1.00  0.00     0.005 A 
ATOM     11  C   UNL A   1      51.726  21.047  36.213  1.00  0.00     0.014 A 
ATOM     12  C   UNL A   1      50.479  19.577  34.786  1.00  0.00     0.014 A 
BRANCH   8  13
ATOM     13  C   UNL A   1      48.135  20.993  37.454  1.00  0.00     0.064 C 
ATOM     14  N   UNL A   1      46.848  18.243  39.427  1.00  0.00    -0.180 N 
ATOM     15  N   UNL A   1      48.142  18.077  39.816  1.00  0.00    -0.168 NA
ATOM     16  C   UNL A   1      46.833  18.973  38.250  1.00  0.00     0.143 A 
ATOM     17  C   UNL A   1      48.784  19.111  39.264  1.00  0.00     0.066 A 
ATOM     18  C   UNL A   1      47.941  19.800  38.341  1.00  0.00     0.026 A 
ATOM     19  N   UNL A   1      46.042  18.984  37.118  1.00  0.00    -0.310 N 
ATOM     20  C   UNL A   1      50.231  19.260  39.564  1.00  0.00     0.069 C 
ATOM     21  C   UNL A   1      46.260  20.022  36.145  1.00  0.00     0.226 C 
ATOM     22  H   UNL A   1      45.346  18.300  36.980  1.00  0.00     0.171 HD
ATOM     23  C   UNL A   1      46.853  21.303  36.683  1.00  0.00     0.113 C 
ATOM     24  O   UNL A   1      45.876  19.833  35.014  1.00  0.00    -0.275 OA
BRANCH  14  25
ATOM     25  C   UNL A   1      45.792  18.110  40.381  1.00  0.00     0.272 A 
ATOM     26  C   UNL A   1      43.961  17.089  41.282  1.00  0.00     0.095 A 
ATOM     27  C   UNL A   1      43.667  18.250  41.977  1.00  0.00     0.164 A 
ATOM     28  N   UNL A   1      45.011  17.008  40.412  1.00  0.00    -0.208 NA
ATOM     29  N   UNL A   1      44.453  19.328  41.881  1.00  0.00    -0.153 NA
ATOM     30  N   UNL A   1      45.551  19.236  41.107  1.00  0.00    -0.109 NA
BRANCH  26  31
ATOM     31  C   UNL A   1      43.216  15.855  41.562  1.00  0.00     0.002 A 
ATOM     32  C   UNL A   1      41.174  12.100  42.259  1.00  0.00     0.044 C 
ATOM     33  C   UNL A   1      41.901  13.387  42.004  1.00  0.00    -0.051 A 
ATOM     34  C   UNL A   1      42.622  14.001  43.033  1.00  0.00     0.004 A 
ATOM     35  C   UNL A   1      41.854  14.001  40.749  1.00  0.00     0.004 A 
ATOM     36  C   UNL A   1      43.274  15.220  42.815  1.00  0.00     0.011 A 
ATOM     37  C   UNL A   1      42.500  15.221  40.535  1.00  0.00     0.011 A 
ENDBRANCH  26  31
ENDBRANCH  14  25
ENDBRANCH   8  13
ENDBRANCH   4   7
ENDBRANCH   2   3
ENDBRANCH   1   2
BRANCH   1  38
ATOM     38  C   UNL A   1      51.554  23.000  33.058  1.00  0.00     0.023 C 
BRANCH  38  39
ATOM     39  C   UNL A   1      51.535  24.319  33.803  1.00  0.00     0.116 C 
BRANCH  39  40
ATOM     40  N   UNL A   1      52.816  25.007  33.874  1.00  0.00    -0.352 N 
ATOM     41  C   UNL A   1      53.423  25.848  32.953  1.00  0.00     0.251 C 
ATOM     42  H   UNL A   1      53.329  24.853  34.700  1.00  0.00     0.163 HD
ATOM     43  O   UNL A   1      54.575  26.223  33.159  1.00  0.00    -0.269 OA
BRANCH  41  44
ATOM     44  C   UNL A   1      52.637  26.461  31.847  1.00  0.00     0.039 A 
ATOM     45  C   UNL A   1      52.011  27.683  32.134  1.00  0.00     0.014 A 
ATOM     46  C   UNL A   1      52.186  25.690  30.786  1.00  0.00     0.014 A 
ATOM     47  C   UNL A   1      50.740  27.921  31.635  1.00  0.00     0.010 A 
ATOM     48  C   UNL A   1      50.875  25.821  30.424  1.00  0.00     0.010 A 
ATOM     49  C   UNL A   1      50.141  26.897  30.914  1.00  0.00    -0.014 A 
BRANCH  49  50
ATOM     50  C   UNL A   1      48.748  26.858  30.541  1.00  0.00     0.031 A 
ATOM     51  C   UNL A   1      47.867  26.085  31.421  1.00  0.00     0.074 A 
ATOM     52  C   UNL A   1      48.347  27.691  29.559  1.00  0.00     0.049 A 
ATOM     53  N   UNL A   1      46.730  25.602  31.082  1.00  0.00    -0.248 NA
ATOM     54  C   UNL A   1      48.256  25.735  32.786  1.00  0.00     0.031 C 
ATOM     55  C   UNL A   1      47.000  28.094  29.180  1.00  0.00     0.029 A 
ATOM     56  N   UNL A   1      49.159  28.225  28.551  1.00  0.00    -0.354 N 
ATOM     57  C   UNL A   1      46.106  25.179  32.238  1.00  0.00     0.074 A 
ATOM     58  C   UNL A   1      47.143  25.156  33.236  1.00  0.00     0.031 C 
ATOM     59  C   UNL A   1      47.023  28.527  27.904  1.00  0.00     0.029 A 
ATOM     60  C   UNL A   1      48.363  28.279  27.389  1.00  0.00     0.049 A 
ATOM     61  H   UNL A   1      50.099  28.506  28.636  1.00  0.00     0.167 HD
ATOM     62  C   UNL A   1      44.746  25.083  32.231  1.00  0.00     0.037 A 
ATOM     63  C   UNL A   1      48.655  27.440  26.348  1.00  0.00     0.037 A 
ATOM     64  C   UNL A   1      44.259  25.365  30.876  1.00  0.00     0.049 A 
ATOM     65  C   UNL A   1      47.586  26.385  26.172  1.00  0.00     0.074 A 
ATOM     66  C   UNL A   1      43.814  26.539  30.289  1.00  0.00     0.029 A 
ATOM     67  N   UNL A   1      44.605  24.509  29.831  1.00  0.00    -0.354 N 
ATOM     68  N   UNL A   1      46.805  25.967  27.135  1.00  0.00    -0.248 NA
ATOM     69  C   UNL A   1      47.268  25.778  24.884  1.00  0.00     0.031 C 
ATOM     70  C   UNL A   1      44.014  26.425  28.887  1.00  0.00     0.029 A 
ATOM     71  C   UNL A   1      44.547  25.174  28.619  1.00  0.00     0.049 A 
ATOM     72  H   UNL A   1      44.854  23.563  29.941  1.00  0.00     0.167 HD
ATOM     73  C   UNL A   1      45.888  25.088  26.625  1.00  0.00     0.074 A 
ATOM     74  C   UNL A   1      46.219  25.004  25.212  1.00  0.00     0.031 C 
ATOM     75  C   UNL A   1      44.908  24.503  27.377  1.00  0.00     0.037 A 
BRANCH  62  76
ATOM     76  C   UNL A   1      43.857  25.084  33.461  1.00  0.00     0.057 A 
ATOM     77  C   UNL A   1      43.509  23.862  34.074  1.00  0.00     0.134 A 
ATOM     78  C   UNL A   1      43.259  26.208  34.062  1.00  0.00     0.134 A 
ATOM     79  F   UNL A   1      44.049  22.699  33.683  1.00  0.00    -0.206 F 
ATOM     80  C   UNL A   1      42.585  23.762  35.126  1.00  0.00     0.040 A 
ATOM     81  C   UNL A   1      42.310  26.122  35.093  1.00  0.00     0.040 A 
ATOM     82  F   UNL A   1      43.588  27.458  33.730  1.00  0.00    -0.206 F 
ATOM     83  C   UNL A   1      41.961  24.893  35.624  1.00  0.00     0.006 A 
ENDBRANCH  62  76
BRANCH  63  84
ATOM     84  C   UNL A   1      50.131  27.245  26.194  1.00  0.00     0.057 A 
ATOM     85  C   UNL A   1      50.645  25.965  26.484  1.00  0.00     0.134 A 
ATOM     86  C   UNL A   1      50.903  28.059  25.360  1.00  0.00     0.134 A 
ATOM     87  F   UNL A   1      49.971  25.139  27.302  1.00  0.00    -0.206 F 
ATOM     88  C   UNL A   1      51.760  25.445  25.820  1.00  0.00     0.040 A 
ATOM     89  C   UNL A   1      52.043  27.557  24.716  1.00  0.00     0.040 A 
ATOM     90  F   UNL A   1      50.499  29.297  25.043  1.00  0.00    -0.206 F 
ATOM     91  C   UNL A   1      52.434  26.229  24.891  1.00  0.00     0.006 A 
ENDBRANCH  63  84
BRANCH  75  92
ATOM     92  C   UNL A   1      44.117  23.298  26.938  1.00  0.00     0.057 A 
ATOM     93  C   UNL A   1      42.717  23.232  26.976  1.00  0.00     0.134 A 
ATOM     94  C   UNL A   1      44.750  22.200  26.314  1.00  0.00     0.134 A 
ATOM     95  F   UNL A   1      41.974  24.267  27.398  1.00  0.00    -0.206 F 
ATOM     96  C   UNL A   1      42.004  22.115  26.530  1.00  0.00     0.040 A 
ATOM     97  C   UNL A   1      44.045  21.113  25.798  1.00  0.00     0.040 A 
ATOM     98  F   UNL A   1      46.081  22.147  26.152  1.00  0.00    -0.206 F 
ATOM     99  C   UNL A   1      42.666  21.053  25.932  1.00  0.00     0.006 A 
ENDBRANCH  75  92
ENDBRANCH  49  50
ENDBRANCH  41  44
ENDBRANCH  39  40
ENDBRANCH  38  39
ENDBRANCH   1  38
TORSDOF 14
ENDMDL
