MODEL 1
REMARK VINA RESULT:     -12.5      0.000      0.000
REMARK SMILES Cc1ccc(Cl)c(Nc2ccccc2C(=O)N[C@@H](C)C(=O)NCCCCNC(=O)c2ccc(-c3c4nc(c(-c5c(F)cccc5F)c5ccc([nH]5)c(-c5c(F)cccc5F)c5nc(c(-c6c(F)cccc6F)c6ccc3[nH]6)C=C5)C=C4)cc2)c1Cl
REMARK SMILES IDX 23 1 22 2 20 3 21 4 18 6 19 7 17 8 15 9 16 10 14 12 9 13
REMARK SMILES IDX 10 14 11 15 13 16 12 17 8 18 7 20 1 21 2 22 3 23 84 24 4 25
REMARK SMILES IDX 85 26 5 27 6 28 24 29 25 30 26 31 27 32 28 33 29 35 30 36
REMARK SMILES IDX 31 37 83 38 32 39 82 40 33 41 34 42 35 43 76 44 36 45 81 46
REMARK SMILES IDX 75 47 77 48 37 49 80 50 74 51 73 52 38 54 64 55 47 56 63 57
REMARK SMILES IDX 48 58 51 59 62 60 78 61 49 62 50 63 61 65 79 66 52 67 39 68
REMARK SMILES IDX 40 69 45 70 41 71 42 72 44 73 46 74 43 75 65 76 66 77 71 78
REMARK SMILES IDX 67 79 68 80 70 81 72 82 69 83 53 84 54 85 59 86 55 87 56 88
REMARK SMILES IDX 58 89 60 90 57 91
REMARK H PARENT 22 5 17 11 8 19 27 34 77 53 51 64
REMARK Flexibility Score: inf
ROOT
ATOM      1  C   UNL A   1      37.404  22.203  25.453  1.00  0.00     0.116 C 
ENDROOT
BRANCH   1   2
ATOM      2  N   UNL A   1      37.295  23.386  24.623  1.00  0.00    -0.354 N 
ATOM      3  C   UNL A   1      36.337  23.367  23.651  1.00  0.00     0.242 C 
ATOM      4  O   UNL A   1      36.652  22.860  22.575  1.00  0.00    -0.273 OA
ATOM      5  H   UNL A   1      37.881  24.165  24.753  1.00  0.00     0.163 HD
BRANCH   3   6
ATOM      6  C   UNL A   1      34.921  23.913  23.954  1.00  0.00     0.168 C 
ATOM      7  C   UNL A   1      34.717  24.516  25.335  1.00  0.00     0.041 C 
BRANCH   6   8
ATOM      8  N   UNL A   1      34.050  22.779  23.701  1.00  0.00    -0.340 N 
ATOM      9  C   UNL A   1      32.681  22.810  23.539  1.00  0.00     0.254 C 
ATOM     10  O   UNL A   1      32.228  22.078  22.654  1.00  0.00    -0.269 OA
ATOM     11  H   UNL A   1      34.482  21.897  23.639  1.00  0.00     0.164 HD
BRANCH   9  12
ATOM     12  C   UNL A   1      31.734  23.407  24.538  1.00  0.00     0.063 A 
ATOM     13  C   UNL A   1      30.984  24.603  24.510  1.00  0.00     0.051 A 
ATOM     14  C   UNL A   1      30.265  24.963  25.678  1.00  0.00     0.027 A 
ATOM     15  C   UNL A   1      30.209  24.145  26.806  1.00  0.00     0.002 A 
ATOM     16  C   UNL A   1      31.641  22.585  25.691  1.00  0.00     0.016 A 
ATOM     17  C   UNL A   1      30.880  22.939  26.803  1.00  0.00     0.001 A 
BRANCH  13  18
ATOM     18  N   UNL A   1      30.752  25.465  23.419  1.00  0.00    -0.352 N 
ATOM     19  H   UNL A   1      30.735  24.993  22.556  1.00  0.00     0.167 HD
BRANCH  18  20
ATOM     20  C   UNL A   1      30.540  26.863  23.288  1.00  0.00     0.077 A 
ATOM     21  C   UNL A   1      27.813  29.482  22.650  1.00  0.00     0.046 C 
ATOM     22  C   UNL A   1      29.163  28.860  22.892  1.00  0.00    -0.030 A 
ATOM     23  C   UNL A   1      30.313  29.608  22.593  1.00  0.00     0.006 A 
ATOM     24  C   UNL A   1      29.285  27.507  23.298  1.00  0.00     0.069 A 
ATOM     25  C   UNL A   1      31.568  29.021  22.673  1.00  0.00     0.023 A 
ATOM     26  Cl  UNL A   1      27.860  26.700  23.876  1.00  0.00    -0.082 Cl
ATOM     27  C   UNL A   1      31.675  27.668  22.998  1.00  0.00     0.066 A 
ATOM     28  Cl  UNL A   1      33.269  26.973  22.970  1.00  0.00    -0.082 Cl
ENDBRANCH  18  20
ENDBRANCH  13  18
ENDBRANCH   9  12
ENDBRANCH   6   8
ENDBRANCH   3   6
ENDBRANCH   1   2
BRANCH   1  29
ATOM     29  C   UNL A   1      37.117  20.902  24.688  1.00  0.00     0.023 C 
BRANCH  29  30
ATOM     30  C   UNL A   1      38.094  19.753  24.955  1.00  0.00     0.023 C 
BRANCH  30  31
ATOM     31  C   UNL A   1      39.270  20.114  25.854  1.00  0.00     0.116 C 
BRANCH  31  32
ATOM     32  N   UNL A   1      40.282  19.070  25.891  1.00  0.00    -0.352 N 
ATOM     33  C   UNL A   1      41.637  19.161  26.078  1.00  0.00     0.251 C 
ATOM     34  H   UNL A   1      39.942  18.155  25.761  1.00  0.00     0.163 HD
ATOM     35  O   UNL A   1      42.347  18.178  25.944  1.00  0.00    -0.269 OA
BRANCH  33  36
ATOM     36  C   UNL A   1      42.225  20.466  26.415  1.00  0.00     0.039 A 
ATOM     37  C   UNL A   1      42.705  21.268  25.379  1.00  0.00     0.014 A 
ATOM     38  C   UNL A   1      42.286  20.897  27.743  1.00  0.00     0.014 A 
ATOM     39  C   UNL A   1      43.200  22.537  25.669  1.00  0.00     0.010 A 
ATOM     40  C   UNL A   1      42.709  22.189  28.023  1.00  0.00     0.010 A 
ATOM     41  C   UNL A   1      43.175  23.016  26.989  1.00  0.00    -0.014 A 
BRANCH  41  42
ATOM     42  C   UNL A   1      43.648  24.379  27.317  1.00  0.00     0.031 A 
ATOM     43  C   UNL A   1      42.662  25.421  27.759  1.00  0.00     0.074 A 
ATOM     44  C   UNL A   1      44.946  24.690  27.146  1.00  0.00     0.049 A 
ATOM     45  N   UNL A   1      42.853  26.694  27.991  1.00  0.00    -0.248 NA
ATOM     46  C   UNL A   1      41.268  24.980  27.932  1.00  0.00     0.031 C 
ATOM     47  C   UNL A   1      45.985  23.766  26.687  1.00  0.00     0.029 A 
ATOM     48  N   UNL A   1      45.611  25.875  27.326  1.00  0.00    -0.354 N 
ATOM     49  C   UNL A   1      41.605  27.206  28.321  1.00  0.00     0.074 A 
ATOM     50  C   UNL A   1      40.655  26.123  28.204  1.00  0.00     0.031 C 
ATOM     51  C   UNL A   1      47.160  24.415  26.638  1.00  0.00     0.029 A 
ATOM     52  C   UNL A   1      46.948  25.808  27.019  1.00  0.00     0.049 A 
ATOM     53  H   UNL A   1      45.172  26.697  27.645  1.00  0.00     0.167 HD
ATOM     54  C   UNL A   1      41.286  28.464  28.707  1.00  0.00     0.037 A 
ATOM     55  C   UNL A   1      47.892  26.767  27.030  1.00  0.00     0.037 A 
ATOM     56  C   UNL A   1      42.244  29.528  28.842  1.00  0.00     0.049 A 
ATOM     57  C   UNL A   1      47.508  28.160  27.448  1.00  0.00     0.074 A 
ATOM     58  C   UNL A   1      42.037  30.825  29.274  1.00  0.00     0.029 A 
ATOM     59  N   UNL A   1      43.595  29.417  28.541  1.00  0.00    -0.354 N 
ATOM     60  N   UNL A   1      46.335  28.621  27.811  1.00  0.00    -0.248 NA
ATOM     61  C   UNL A   1      48.579  29.165  27.461  1.00  0.00     0.031 C 
ATOM     62  C   UNL A   1      43.251  31.513  29.190  1.00  0.00     0.029 A 
ATOM     63  C   UNL A   1      44.228  30.628  28.759  1.00  0.00     0.049 A 
ATOM     64  H   UNL A   1      44.037  28.598  28.220  1.00  0.00     0.167 HD
ATOM     65  C   UNL A   1      46.534  29.957  28.132  1.00  0.00     0.074 A 
ATOM     66  C   UNL A   1      47.942  30.230  27.926  1.00  0.00     0.031 C 
ATOM     67  C   UNL A   1      45.634  30.875  28.563  1.00  0.00     0.037 A 
BRANCH  54  68
ATOM     68  C   UNL A   1      39.845  28.751  29.010  1.00  0.00     0.057 A 
ATOM     69  C   UNL A   1      39.318  28.622  30.303  1.00  0.00     0.134 A 
ATOM     70  C   UNL A   1      38.977  29.189  28.002  1.00  0.00     0.134 A 
ATOM     71  F   UNL A   1      40.091  28.193  31.312  1.00  0.00    -0.206 F 
ATOM     72  C   UNL A   1      37.976  28.892  30.575  1.00  0.00     0.040 A 
ATOM     73  C   UNL A   1      37.640  29.492  28.268  1.00  0.00     0.040 A 
ATOM     74  F   UNL A   1      39.415  29.339  26.743  1.00  0.00    -0.206 F 
ATOM     75  C   UNL A   1      37.135  29.336  29.557  1.00  0.00     0.006 A 
ENDBRANCH  54  68
BRANCH  55  76
ATOM     76  C   UNL A   1      49.289  26.441  26.652  1.00  0.00     0.057 A 
ATOM     77  C   UNL A   1      50.191  25.928  27.593  1.00  0.00     0.134 A 
ATOM     78  C   UNL A   1      49.760  26.637  25.348  1.00  0.00     0.134 A 
ATOM     79  F   UNL A   1      49.803  25.734  28.862  1.00  0.00    -0.206 F 
ATOM     80  C   UNL A   1      51.516  25.643  27.258  1.00  0.00     0.040 A 
ATOM     81  C   UNL A   1      51.075  26.331  24.993  1.00  0.00     0.040 A 
ATOM     82  F   UNL A   1      48.945  27.114  24.397  1.00  0.00    -0.206 F 
ATOM     83  C   UNL A   1      51.959  25.840  25.951  1.00  0.00     0.006 A 
ENDBRANCH  55  76
BRANCH  67  84
ATOM     84  C   UNL A   1      46.151  32.245  28.891  1.00  0.00     0.057 A 
ATOM     85  C   UNL A   1      46.184  33.275  27.942  1.00  0.00     0.134 A 
ATOM     86  C   UNL A   1      46.572  32.549  30.193  1.00  0.00     0.134 A 
ATOM     87  F   UNL A   1      45.805  33.045  26.677  1.00  0.00    -0.206 F 
ATOM     88  C   UNL A   1      46.637  34.553  28.272  1.00  0.00     0.040 A 
ATOM     89  C   UNL A   1      46.999  33.830  30.541  1.00  0.00     0.040 A 
ATOM     90  F   UNL A   1      46.555  31.609  31.151  1.00  0.00    -0.206 F 
ATOM     91  C   UNL A   1      47.038  34.835  29.577  1.00  0.00     0.006 A 
ENDBRANCH  67  84
ENDBRANCH  41  42
ENDBRANCH  33  36
ENDBRANCH  31  32
ENDBRANCH  30  31
ENDBRANCH  29  30
ENDBRANCH   1  29
TORSDOF 15
ENDMDL
MODEL 2
REMARK VINA RESULT:     -12.5      1.329      3.174
REMARK SMILES Cc1ccc(Cl)c(Nc2ccccc2C(=O)N[C@@H](C)C(=O)NCCCCNC(=O)c2ccc(-c3c4nc(c(-c5c(F)cccc5F)c5ccc([nH]5)c(-c5c(F)cccc5F)c5nc(c(-c6c(F)cccc6F)c6ccc3[nH]6)C=C5)C=C4)cc2)c1Cl
REMARK SMILES IDX 23 1 22 2 20 3 21 4 18 6 19 7 17 8 15 9 16 10 14 12 9 13
REMARK SMILES IDX 10 14 11 15 13 16 12 17 8 18 7 20 1 21 2 22 3 23 84 24 4 25
REMARK SMILES IDX 85 26 5 27 6 28 24 29 25 30 26 31 27 32 28 33 29 35 30 36
REMARK SMILES IDX 31 37 83 38 32 39 82 40 33 41 34 42 35 43 76 44 36 45 81 46
REMARK SMILES IDX 75 47 77 48 37 49 80 50 74 51 73 52 38 54 64 55 47 56 63 57
REMARK SMILES IDX 48 58 51 59 62 60 78 61 49 62 50 63 61 65 79 66 52 67 39 68
REMARK SMILES IDX 40 69 45 70 41 71 42 72 44 73 46 74 43 75 65 76 66 77 71 78
REMARK SMILES IDX 67 79 68 80 70 81 72 82 69 83 53 84 54 85 59 86 55 87 56 88
REMARK SMILES IDX 58 89 60 90 57 91
REMARK H PARENT 22 5 17 11 8 19 27 34 77 53 51 64
REMARK Flexibility Score: inf
ROOT
ATOM      1  C   UNL A   1      37.127  22.095  25.668  1.00  0.00     0.116 C 
ENDROOT
BRANCH   1   2
ATOM      2  N   UNL A   1      37.403  23.156  24.721  1.00  0.00    -0.354 N 
ATOM      3  C   UNL A   1      36.500  23.329  23.712  1.00  0.00     0.242 C 
ATOM      4  O   UNL A   1      36.655  22.635  22.708  1.00  0.00    -0.273 OA
ATOM      5  H   UNL A   1      38.202  23.725  24.800  1.00  0.00     0.163 HD
BRANCH   3   6
ATOM      6  C   UNL A   1      35.322  24.316  23.893  1.00  0.00     0.168 C 
ATOM      7  C   UNL A   1      34.773  24.452  25.305  1.00  0.00     0.041 C 
BRANCH   6   8
ATOM      8  N   UNL A   1      34.327  23.846  22.945  1.00  0.00    -0.340 N 
ATOM      9  C   UNL A   1      33.241  24.551  22.471  1.00  0.00     0.254 C 
ATOM     10  O   UNL A   1      32.995  24.413  21.268  1.00  0.00    -0.269 OA
ATOM     11  H   UNL A   1      34.438  22.928  22.608  1.00  0.00     0.164 HD
BRANCH   9  12
ATOM     12  C   UNL A   1      32.208  25.188  23.351  1.00  0.00     0.063 A 
ATOM     13  C   UNL A   1      31.178  24.625  24.136  1.00  0.00     0.051 A 
ATOM     14  C   UNL A   1      30.266  25.508  24.768  1.00  0.00     0.027 A 
ATOM     15  C   UNL A   1      30.401  26.895  24.708  1.00  0.00     0.002 A 
ATOM     16  C   UNL A   1      32.333  26.602  23.326  1.00  0.00     0.016 A 
ATOM     17  C   UNL A   1      31.454  27.444  24.004  1.00  0.00     0.001 A 
BRANCH  13  18
ATOM     18  N   UNL A   1      30.981  23.273  24.480  1.00  0.00    -0.352 N 
ATOM     19  H   UNL A   1      30.031  23.023  24.520  1.00  0.00     0.167 HD
BRANCH  18  20
ATOM     20  C   UNL A   1      31.850  22.190  24.784  1.00  0.00     0.077 A 
ATOM     21  C   UNL A   1      32.901  18.702  23.586  1.00  0.00     0.046 C 
ATOM     22  C   UNL A   1      32.805  19.956  24.416  1.00  0.00    -0.030 A 
ATOM     23  C   UNL A   1      33.274  19.926  25.738  1.00  0.00     0.006 A 
ATOM     24  C   UNL A   1      32.149  21.112  23.924  1.00  0.00     0.069 A 
ATOM     25  C   UNL A   1      33.078  21.017  26.574  1.00  0.00     0.023 A 
ATOM     26  Cl  UNL A   1      31.797  21.187  22.225  1.00  0.00    -0.082 Cl
ATOM     27  C   UNL A   1      32.363  22.121  26.107  1.00  0.00     0.066 A 
ATOM     28  Cl  UNL A   1      32.059  23.402  27.243  1.00  0.00    -0.082 Cl
ENDBRANCH  18  20
ENDBRANCH  13  18
ENDBRANCH   9  12
ENDBRANCH   6   8
ENDBRANCH   3   6
ENDBRANCH   1   2
BRANCH   1  29
ATOM     29  C   UNL A   1      36.813  20.751  24.993  1.00  0.00     0.023 C 
BRANCH  29  30
ATOM     30  C   UNL A   1      37.958  19.735  24.988  1.00  0.00     0.023 C 
BRANCH  30  31
ATOM     31  C   UNL A   1      39.199  20.170  25.757  1.00  0.00     0.116 C 
BRANCH  31  32
ATOM     32  N   UNL A   1      40.200  19.118  25.838  1.00  0.00    -0.352 N 
ATOM     33  C   UNL A   1      41.548  19.199  26.070  1.00  0.00     0.251 C 
ATOM     34  H   UNL A   1      39.855  18.204  25.707  1.00  0.00     0.163 HD
ATOM     35  O   UNL A   1      42.253  18.207  25.970  1.00  0.00    -0.269 OA
BRANCH  33  36
ATOM     36  C   UNL A   1      42.137  20.502  26.412  1.00  0.00     0.039 A 
ATOM     37  C   UNL A   1      42.575  21.328  25.376  1.00  0.00     0.014 A 
ATOM     38  C   UNL A   1      42.239  20.908  27.745  1.00  0.00     0.014 A 
ATOM     39  C   UNL A   1      43.069  22.595  25.674  1.00  0.00     0.010 A 
ATOM     40  C   UNL A   1      42.661  22.198  28.035  1.00  0.00     0.010 A 
ATOM     41  C   UNL A   1      43.085  23.049  27.003  1.00  0.00    -0.014 A 
BRANCH  41  42
ATOM     42  C   UNL A   1      43.558  24.410  27.341  1.00  0.00     0.031 A 
ATOM     43  C   UNL A   1      42.572  25.448  27.792  1.00  0.00     0.074 A 
ATOM     44  C   UNL A   1      44.856  24.721  27.172  1.00  0.00     0.049 A 
ATOM     45  N   UNL A   1      42.763  26.718  28.033  1.00  0.00    -0.248 NA
ATOM     46  C   UNL A   1      41.178  25.005  27.962  1.00  0.00     0.031 C 
ATOM     47  C   UNL A   1      45.895  23.801  26.706  1.00  0.00     0.029 A 
ATOM     48  N   UNL A   1      45.521  25.905  27.360  1.00  0.00    -0.354 N 
ATOM     49  C   UNL A   1      41.515  27.229  28.368  1.00  0.00     0.074 A 
ATOM     50  C   UNL A   1      40.565  26.146  28.243  1.00  0.00     0.031 C 
ATOM     51  C   UNL A   1      47.070  24.451  26.661  1.00  0.00     0.029 A 
ATOM     52  C   UNL A   1      46.858  25.840  27.052  1.00  0.00     0.049 A 
ATOM     53  H   UNL A   1      45.082  26.725  27.686  1.00  0.00     0.167 HD
ATOM     54  C   UNL A   1      41.196  28.483  28.764  1.00  0.00     0.037 A 
ATOM     55  C   UNL A   1      47.801  26.800  27.071  1.00  0.00     0.037 A 
ATOM     56  C   UNL A   1      42.154  29.546  28.906  1.00  0.00     0.049 A 
ATOM     57  C   UNL A   1      47.417  28.190  27.499  1.00  0.00     0.074 A 
ATOM     58  C   UNL A   1      41.947  30.840  29.348  1.00  0.00     0.029 A 
ATOM     59  N   UNL A   1      43.505  29.438  28.604  1.00  0.00    -0.354 N 
ATOM     60  N   UNL A   1      46.245  28.647  27.866  1.00  0.00    -0.248 NA
ATOM     61  C   UNL A   1      48.488  29.195  27.520  1.00  0.00     0.031 C 
ATOM     62  C   UNL A   1      43.161  31.529  29.268  1.00  0.00     0.029 A 
ATOM     63  C   UNL A   1      44.138  30.647  28.831  1.00  0.00     0.049 A 
ATOM     64  H   UNL A   1      43.947  28.621  28.276  1.00  0.00     0.167 HD
ATOM     65  C   UNL A   1      46.444  29.981  28.198  1.00  0.00     0.074 A 
ATOM     66  C   UNL A   1      47.851  30.256  27.993  1.00  0.00     0.031 C 
ATOM     67  C   UNL A   1      45.543  30.896  28.636  1.00  0.00     0.037 A 
BRANCH  54  68
ATOM     68  C   UNL A   1      39.755  28.768  29.069  1.00  0.00     0.057 A 
ATOM     69  C   UNL A   1      39.231  28.637  30.363  1.00  0.00     0.134 A 
ATOM     70  C   UNL A   1      38.884  29.205  28.063  1.00  0.00     0.134 A 
ATOM     71  F   UNL A   1      40.006  28.208  31.370  1.00  0.00    -0.206 F 
ATOM     72  C   UNL A   1      37.889  28.904  30.638  1.00  0.00     0.040 A 
ATOM     73  C   UNL A   1      37.548  29.505  28.332  1.00  0.00     0.040 A 
ATOM     74  F   UNL A   1      39.320  29.356  26.803  1.00  0.00    -0.206 F 
ATOM     75  C   UNL A   1      37.045  29.348  29.622  1.00  0.00     0.006 A 
ENDBRANCH  54  68
BRANCH  55  76
ATOM     76  C   UNL A   1      49.199  26.477  26.690  1.00  0.00     0.057 A 
ATOM     77  C   UNL A   1      49.661  26.696  25.386  1.00  0.00     0.134 A 
ATOM     78  C   UNL A   1      50.104  25.940  27.613  1.00  0.00     0.134 A 
ATOM     79  F   UNL A   1      48.836  27.195  24.454  1.00  0.00    -0.206 F 
ATOM     80  C   UNL A   1      50.965  26.372  25.007  1.00  0.00     0.040 A 
ATOM     81  C   UNL A   1      51.419  25.636  27.255  1.00  0.00     0.040 A 
ATOM     82  F   UNL A   1      49.729  25.716  28.880  1.00  0.00    -0.206 F 
ATOM     83  C   UNL A   1      51.850  25.845  25.946  1.00  0.00     0.006 A 
ENDBRANCH  55  76
BRANCH  67  84
ATOM     84  C   UNL A   1      46.060  32.263  28.974  1.00  0.00     0.057 A 
ATOM     85  C   UNL A   1      46.553  32.579  30.246  1.00  0.00     0.134 A 
ATOM     86  C   UNL A   1      46.114  33.262  27.992  1.00  0.00     0.134 A 
ATOM     87  F   UNL A   1      46.519  31.671  31.233  1.00  0.00    -0.206 F 
ATOM     88  C   UNL A   1      47.061  33.847  30.535  1.00  0.00     0.040 A 
ATOM     89  C   UNL A   1      46.647  34.522  28.261  1.00  0.00     0.040 A 
ATOM     90  F   UNL A   1      45.667  33.020  26.750  1.00  0.00    -0.206 F 
ATOM     91  C   UNL A   1      47.117  34.819  29.538  1.00  0.00     0.006 A 
ENDBRANCH  67  84
ENDBRANCH  41  42
ENDBRANCH  33  36
ENDBRANCH  31  32
ENDBRANCH  30  31
ENDBRANCH  29  30
ENDBRANCH   1  29
TORSDOF 15
ENDMDL
MODEL 3
REMARK VINA RESULT:     -12.5      0.566      6.120
REMARK SMILES Cc1ccc(Cl)c(Nc2ccccc2C(=O)N[C@@H](C)C(=O)NCCCCNC(=O)c2ccc(-c3c4nc(c(-c5c(F)cccc5F)c5ccc([nH]5)c(-c5c(F)cccc5F)c5nc(c(-c6c(F)cccc6F)c6ccc3[nH]6)C=C5)C=C4)cc2)c1Cl
REMARK SMILES IDX 23 1 22 2 20 3 21 4 18 6 19 7 17 8 15 9 16 10 14 12 9 13
REMARK SMILES IDX 10 14 11 15 13 16 12 17 8 18 7 20 1 21 2 22 3 23 84 24 4 25
REMARK SMILES IDX 85 26 5 27 6 28 24 29 25 30 26 31 27 32 28 33 29 35 30 36
REMARK SMILES IDX 31 37 83 38 32 39 82 40 33 41 34 42 35 43 76 44 36 45 81 46
REMARK SMILES IDX 75 47 77 48 37 49 80 50 74 51 73 52 38 54 64 55 47 56 63 57
REMARK SMILES IDX 48 58 51 59 62 60 78 61 49 62 50 63 61 65 79 66 52 67 39 68
REMARK SMILES IDX 40 69 45 70 41 71 42 72 44 73 46 74 43 75 65 76 66 77 71 78
REMARK SMILES IDX 67 79 68 80 70 81 72 82 69 83 53 84 54 85 59 86 55 87 56 88
REMARK SMILES IDX 58 89 60 90 57 91
REMARK H PARENT 22 5 17 11 8 19 27 34 77 53 51 64
REMARK Flexibility Score: inf
ROOT
ATOM      1  C   UNL A   1      37.644  22.190  25.385  1.00  0.00     0.116 C 
ENDROOT
BRANCH   1   2
ATOM      2  N   UNL A   1      37.415  23.394  24.612  1.00  0.00    -0.354 N 
ATOM      3  C   UNL A   1      36.389  23.360  23.713  1.00  0.00     0.242 C 
ATOM      4  O   UNL A   1      36.646  22.909  22.598  1.00  0.00    -0.273 OA
ATOM      5  H   UNL A   1      37.971  24.197  24.730  1.00  0.00     0.163 HD
BRANCH   3   6
ATOM      6  C   UNL A   1      34.975  23.822  24.141  1.00  0.00     0.168 C 
ATOM      7  C   UNL A   1      34.841  24.341  25.564  1.00  0.00     0.041 C 
BRANCH   6   8
ATOM      8  N   UNL A   1      34.139  22.663  23.883  1.00  0.00    -0.340 N 
ATOM      9  C   UNL A   1      32.778  22.660  23.658  1.00  0.00     0.254 C 
ATOM     10  O   UNL A   1      32.382  21.891  22.776  1.00  0.00    -0.269 OA
ATOM     11  H   UNL A   1      34.590  21.789  23.870  1.00  0.00     0.164 HD
BRANCH   9  12
ATOM     12  C   UNL A   1      31.774  23.268  24.591  1.00  0.00     0.063 A 
ATOM     13  C   UNL A   1      31.066  24.488  24.531  1.00  0.00     0.051 A 
ATOM     14  C   UNL A   1      30.268  24.848  25.647  1.00  0.00     0.027 A 
ATOM     15  C   UNL A   1      30.097  24.011  26.749  1.00  0.00     0.002 A 
ATOM     16  C   UNL A   1      31.564  22.426  25.715  1.00  0.00     0.016 A 
ATOM     17  C   UNL A   1      30.729  22.783  26.772  1.00  0.00     0.001 A 
BRANCH  13  18
ATOM     18  N   UNL A   1      30.949  25.378  23.445  1.00  0.00    -0.352 N 
ATOM     19  H   UNL A   1      31.039  24.932  22.573  1.00  0.00     0.167 HD
BRANCH  18  20
ATOM     20  C   UNL A   1      30.731  26.778  23.329  1.00  0.00     0.077 A 
ATOM     21  C   UNL A   1      28.000  29.390  22.685  1.00  0.00     0.046 C 
ATOM     22  C   UNL A   1      29.350  28.772  22.938  1.00  0.00    -0.030 A 
ATOM     23  C   UNL A   1      30.499  29.529  22.666  1.00  0.00     0.006 A 
ATOM     24  C   UNL A   1      29.473  27.415  23.329  1.00  0.00     0.069 A 
ATOM     25  C   UNL A   1      31.757  28.948  22.756  1.00  0.00     0.023 A 
ATOM     26  Cl  UNL A   1      28.044  26.594  23.876  1.00  0.00    -0.082 Cl
ATOM     27  C   UNL A   1      31.866  27.591  23.065  1.00  0.00     0.066 A 
ATOM     28  Cl  UNL A   1      33.464  26.905  23.051  1.00  0.00    -0.082 Cl
ENDBRANCH  18  20
ENDBRANCH  13  18
ENDBRANCH   9  12
ENDBRANCH   6   8
ENDBRANCH   3   6
ENDBRANCH   1   2
BRANCH   1  29
ATOM     29  C   UNL A   1      37.309  20.905  24.612  1.00  0.00     0.023 C 
BRANCH  29  30
ATOM     30  C   UNL A   1      38.127  19.671  25.001  1.00  0.00     0.023 C 
BRANCH  30  31
ATOM     31  C   UNL A   1      39.145  19.906  26.110  1.00  0.00     0.116 C 
BRANCH  31  32
ATOM     32  N   UNL A   1      40.259  18.973  26.049  1.00  0.00    -0.352 N 
ATOM     33  C   UNL A   1      41.608  19.203  26.126  1.00  0.00     0.251 C 
ATOM     34  H   UNL A   1      40.004  18.028  25.936  1.00  0.00     0.163 HD
ATOM     35  O   UNL A   1      42.402  18.298  25.921  1.00  0.00    -0.269 OA
BRANCH  33  36
ATOM     36  C   UNL A   1      42.085  20.560  26.431  1.00  0.00     0.039 A 
ATOM     37  C   UNL A   1      42.276  21.451  25.374  1.00  0.00     0.014 A 
ATOM     38  C   UNL A   1      42.324  20.949  27.751  1.00  0.00     0.014 A 
ATOM     39  C   UNL A   1      42.659  22.763  25.648  1.00  0.00     0.010 A 
ATOM     40  C   UNL A   1      42.631  22.275  28.027  1.00  0.00     0.010 A 
ATOM     41  C   UNL A   1      42.807  23.189  26.978  1.00  0.00    -0.014 A 
BRANCH  41  42
ATOM     42  C   UNL A   1      43.163  24.590  27.297  1.00  0.00     0.031 A 
ATOM     43  C   UNL A   1      44.601  25.017  27.258  1.00  0.00     0.074 A 
ATOM     44  C   UNL A   1      42.200  25.445  27.689  1.00  0.00     0.049 A 
ATOM     45  N   UNL A   1      45.132  26.161  27.603  1.00  0.00    -0.248 NA
ATOM     46  C   UNL A   1      45.576  24.013  26.802  1.00  0.00     0.031 C 
ATOM     47  C   UNL A   1      40.775  25.127  27.797  1.00  0.00     0.029 A 
ATOM     48  N   UNL A   1      42.279  26.756  28.083  1.00  0.00    -0.354 N 
ATOM     49  C   UNL A   1      46.500  26.010  27.420  1.00  0.00     0.074 A 
ATOM     50  C   UNL A   1      46.724  24.648  26.989  1.00  0.00     0.031 C 
ATOM     51  C   UNL A   1      40.112  26.219  28.212  1.00  0.00     0.029 A 
ATOM     52  C   UNL A   1      41.069  27.297  28.440  1.00  0.00     0.049 A 
ATOM     53  H   UNL A   1      43.124  27.263  28.107  1.00  0.00     0.167 HD
ATOM     54  C   UNL A   1      47.478  26.932  27.577  1.00  0.00     0.037 A 
ATOM     55  C   UNL A   1      40.769  28.520  28.913  1.00  0.00     0.037 A 
ATOM     56  C   UNL A   1      47.241  28.291  27.985  1.00  0.00     0.049 A 
ATOM     57  C   UNL A   1      41.877  29.522  29.095  1.00  0.00     0.074 A 
ATOM     58  C   UNL A   1      48.153  29.321  28.127  1.00  0.00     0.029 A 
ATOM     59  N   UNL A   1      45.997  28.809  28.320  1.00  0.00    -0.354 N 
ATOM     60  N   UNL A   1      43.160  29.385  28.866  1.00  0.00    -0.248 NA
ATOM     61  C   UNL A   1      41.493  30.848  29.595  1.00  0.00     0.031 C 
ATOM     62  C   UNL A   1      47.470  30.448  28.593  1.00  0.00     0.029 A 
ATOM     63  C   UNL A   1      46.122  30.137  28.687  1.00  0.00     0.049 A 
ATOM     64  H   UNL A   1      45.151  28.305  28.299  1.00  0.00     0.167 HD
ATOM     65  C   UNL A   1      43.732  30.616  29.158  1.00  0.00     0.074 A 
ATOM     66  C   UNL A   1      42.653  31.488  29.574  1.00  0.00     0.031 C 
ATOM     67  C   UNL A   1      45.033  30.993  29.084  1.00  0.00     0.037 A 
BRANCH  54  68
ATOM     68  C   UNL A   1      48.889  26.499  27.308  1.00  0.00     0.057 A 
ATOM     69  C   UNL A   1      49.468  26.606  26.036  1.00  0.00     0.134 A 
ATOM     70  C   UNL A   1      49.690  25.992  28.340  1.00  0.00     0.134 A 
ATOM     71  F   UNL A   1      48.752  27.068  25.000  1.00  0.00    -0.206 F 
ATOM     72  C   UNL A   1      50.782  26.199  25.794  1.00  0.00     0.040 A 
ATOM     73  C   UNL A   1      51.016  25.613  28.117  1.00  0.00     0.040 A 
ATOM     74  F   UNL A   1      49.202  25.867  29.583  1.00  0.00    -0.206 F 
ATOM     75  C   UNL A   1      51.562  25.709  26.839  1.00  0.00     0.006 A 
ENDBRANCH  54  68
BRANCH  55  76
ATOM     76  C   UNL A   1      39.363  28.872  29.231  1.00  0.00     0.057 A 
ATOM     77  C   UNL A   1      38.841  28.675  30.515  1.00  0.00     0.134 A 
ATOM     78  C   UNL A   1      38.505  29.409  28.263  1.00  0.00     0.134 A 
ATOM     79  F   UNL A   1      39.609  28.150  31.481  1.00  0.00    -0.206 F 
ATOM     80  C   UNL A   1      37.513  28.976  30.821  1.00  0.00     0.040 A 
ATOM     81  C   UNL A   1      37.182  29.740  28.561  1.00  0.00     0.040 A 
ATOM     82  F   UNL A   1      38.945  29.633  27.017  1.00  0.00    -0.206 F 
ATOM     83  C   UNL A   1      36.680  29.515  29.841  1.00  0.00     0.006 A 
ENDBRANCH  55  76
BRANCH  67  84
ATOM     84  C   UNL A   1      45.355  32.421  29.410  1.00  0.00     0.057 A 
ATOM     85  C   UNL A   1      45.740  32.823  30.695  1.00  0.00     0.134 A 
ATOM     86  C   UNL A   1      45.331  33.399  28.406  1.00  0.00     0.134 A 
ATOM     87  F   UNL A   1      45.773  31.938  31.702  1.00  0.00    -0.206 F 
ATOM     88  C   UNL A   1      46.069  34.151  30.974  1.00  0.00     0.040 A 
ATOM     89  C   UNL A   1      45.685  34.722  28.666  1.00  0.00     0.040 A 
ATOM     90  F   UNL A   1      44.980  33.077  27.151  1.00  0.00    -0.206 F 
ATOM     91  C   UNL A   1      46.050  35.102  29.956  1.00  0.00     0.006 A 
ENDBRANCH  67  84
ENDBRANCH  41  42
ENDBRANCH  33  36
ENDBRANCH  31  32
ENDBRANCH  30  31
ENDBRANCH  29  30
ENDBRANCH   1  29
TORSDOF 15
ENDMDL
