MODEL 1
REMARK VINA RESULT:     -13.0      0.000      0.000
REMARK SMILES O=C(Nc1cccc(C(=O)NCCCCNC(=O)c2ccc(-c3c4nc(c(-c5c(F)cccc5F)c5ccc([nH]5)c(-c5c(F)cccc5F)c5nc(c(-c6c(F)cccc6F)c6ccc3[nH]6)C=C5)C=C4)cc2)c1)Nc1cc(Cl)c(Cl)cc1Cl
REMARK SMILES IDX 13 1 12 2 11 3 9 4 10 5 8 7 4 8 5 9 73 10 6 11 7 12 3 13
REMARK SMILES IDX 1 14 2 15 74 16 75 19 76 20 82 21 77 22 81 23 83 24 78 25
REMARK SMILES IDX 79 26 80 27 14 28 15 29 16 30 17 31 18 33 19 34 20 35 72 36
REMARK SMILES IDX 21 37 71 38 22 39 23 40 24 41 65 42 25 43 70 44 64 45 66 46
REMARK SMILES IDX 26 47 69 48 63 49 62 50 27 52 53 53 36 54 52 55 37 56 40 57
REMARK SMILES IDX 51 58 67 59 38 60 39 61 50 63 68 64 41 65 28 66 29 67 34 68
REMARK SMILES IDX 30 69 31 70 33 71 35 72 32 73 54 74 55 75 60 76 56 77 57 78
REMARK SMILES IDX 59 79 61 80 58 81 42 82 43 83 48 84 44 85 45 86 47 87 49 88
REMARK SMILES IDX 46 89
REMARK H PARENT 11 6 3 17 74 18 16 32 66 51 40 62
REMARK Flexibility Score: inf
ROOT
ATOM      1  C   UNL A   1      31.779  30.170  26.862  1.00  0.00     0.023 C 
ENDROOT
BRANCH   1   2
ATOM      2  C   UNL A   1      33.206  29.908  26.377  1.00  0.00     0.116 C 
BRANCH   2   3
ATOM      3  N   UNL A   1      33.239  29.711  24.942  1.00  0.00    -0.352 N 
ATOM      4  C   UNL A   1      32.649  28.803  24.101  1.00  0.00     0.251 C 
ATOM      5  O   UNL A   1      32.895  28.930  22.900  1.00  0.00    -0.269 OA
ATOM      6  H   UNL A   1      33.805  30.366  24.472  1.00  0.00     0.163 HD
BRANCH   4   7
ATOM      7  C   UNL A   1      31.717  27.712  24.530  1.00  0.00     0.041 A 
ATOM      8  C   UNL A   1      31.050  25.765  25.844  1.00  0.00     0.043 A 
ATOM      9  C   UNL A   1      29.823  25.724  25.186  1.00  0.00     0.026 A 
ATOM     10  C   UNL A   1      32.008  26.717  25.465  1.00  0.00     0.040 A 
ATOM     11  C   UNL A   1      29.521  26.690  24.228  1.00  0.00     0.003 A 
ATOM     12  C   UNL A   1      30.453  27.684  23.918  1.00  0.00     0.014 A 
BRANCH   8  13
ATOM     13  N   UNL A   1      31.296  24.824  26.860  1.00  0.00    -0.308 N 
ATOM     14  O   UNL A   1      32.082  22.917  27.760  1.00  0.00    -0.248 OA
ATOM     15  C   UNL A   1      32.173  23.763  26.876  1.00  0.00     0.323 C 
ATOM     16  N   UNL A   1      33.209  23.852  25.976  1.00  0.00    -0.306 N 
ATOM     17  H   UNL A   1      30.764  24.943  27.679  1.00  0.00     0.171 HD
ATOM     18  H   UNL A   1      33.281  24.692  25.468  1.00  0.00     0.171 HD
BRANCH  16  19
ATOM     19  C   UNL A   1      34.179  22.862  25.707  1.00  0.00     0.063 A 
ATOM     20  C   UNL A   1      35.510  23.242  25.939  1.00  0.00     0.049 A 
ATOM     21  C   UNL A   1      33.923  21.580  25.189  1.00  0.00     0.066 A 
ATOM     22  C   UNL A   1      36.561  22.340  25.737  1.00  0.00     0.061 A 
ATOM     23  C   UNL A   1      34.979  20.681  24.982  1.00  0.00     0.044 A 
ATOM     24  Cl  UNL A   1      32.376  21.094  24.589  1.00  0.00    -0.082 Cl
ATOM     25  Cl  UNL A   1      38.163  22.891  26.082  1.00  0.00    -0.083 Cl
ATOM     26  C   UNL A   1      36.293  21.052  25.270  1.00  0.00     0.061 A 
ATOM     27  Cl  UNL A   1      37.542  19.891  25.001  1.00  0.00    -0.083 Cl
ENDBRANCH  16  19
ENDBRANCH   8  13
ENDBRANCH   4   7
ENDBRANCH   2   3
ENDBRANCH   1   2
BRANCH   1  28
ATOM     28  C   UNL A   1      31.294  31.607  26.648  1.00  0.00     0.023 C 
BRANCH  28  29
ATOM     29  C   UNL A   1      32.402  32.647  26.501  1.00  0.00     0.116 C 
BRANCH  29  30
ATOM     30  N   UNL A   1      32.197  33.841  27.308  1.00  0.00    -0.352 N 
ATOM     31  C   UNL A   1      32.983  34.320  28.334  1.00  0.00     0.251 C 
ATOM     32  H   UNL A   1      31.398  34.373  27.093  1.00  0.00     0.163 HD
ATOM     33  O   UNL A   1      32.656  35.314  28.957  1.00  0.00    -0.269 OA
BRANCH  31  34
ATOM     34  C   UNL A   1      34.200  33.564  28.701  1.00  0.00     0.039 A 
ATOM     35  C   UNL A   1      35.439  34.204  28.602  1.00  0.00     0.014 A 
ATOM     36  C   UNL A   1      34.107  32.270  29.216  1.00  0.00     0.014 A 
ATOM     37  C   UNL A   1      36.579  33.574  29.105  1.00  0.00     0.010 A 
ATOM     38  C   UNL A   1      35.236  31.666  29.765  1.00  0.00     0.010 A 
ATOM     39  C   UNL A   1      36.476  32.323  29.735  1.00  0.00    -0.014 A 
BRANCH  39  40
ATOM     40  C   UNL A   1      37.641  31.708  30.421  1.00  0.00     0.031 A 
ATOM     41  C   UNL A   1      38.473  30.672  29.725  1.00  0.00     0.074 A 
ATOM     42  C   UNL A   1      37.888  32.020  31.707  1.00  0.00     0.049 A 
ATOM     43  N   UNL A   1      39.462  29.956  30.197  1.00  0.00    -0.248 NA
ATOM     44  C   UNL A   1      38.133  30.384  28.324  1.00  0.00     0.031 C 
ATOM     45  C   UNL A   1      37.116  32.972  32.510  1.00  0.00     0.029 A 
ATOM     46  N   UNL A   1      38.844  31.552  32.573  1.00  0.00    -0.354 N 
ATOM     47  C   UNL A   1      39.857  29.127  29.156  1.00  0.00     0.074 A 
ATOM     48  C   UNL A   1      38.971  29.397  28.042  1.00  0.00     0.031 C 
ATOM     49  C   UNL A   1      37.633  33.021  33.748  1.00  0.00     0.029 A 
ATOM     50  C   UNL A   1      38.748  32.083  33.836  1.00  0.00     0.049 A 
ATOM     51  H   UNL A   1      39.532  30.899  32.314  1.00  0.00     0.167 HD
ATOM     52  C   UNL A   1      40.878  28.238  29.124  1.00  0.00     0.037 A 
ATOM     53  C   UNL A   1      39.467  31.832  34.946  1.00  0.00     0.037 A 
ATOM     54  C   UNL A   1      41.767  27.982  30.225  1.00  0.00     0.049 A 
ATOM     55  C   UNL A   1      40.586  30.832  34.891  1.00  0.00     0.074 A 
ATOM     56  C   UNL A   1      42.875  27.153  30.265  1.00  0.00     0.029 A 
ATOM     57  N   UNL A   1      41.647  28.548  31.485  1.00  0.00    -0.354 N 
ATOM     58  N   UNL A   1      40.993  30.106  33.879  1.00  0.00    -0.248 NA
ATOM     59  C   UNL A   1      41.343  30.614  36.132  1.00  0.00     0.031 C 
ATOM     60  C   UNL A   1      43.403  27.188  31.561  1.00  0.00     0.029 A 
ATOM     61  C   UNL A   1      42.644  28.066  32.319  1.00  0.00     0.049 A 
ATOM     62  H   UNL A   1      40.955  29.197  31.749  1.00  0.00     0.167 HD
ATOM     63  C   UNL A   1      42.056  29.352  34.355  1.00  0.00     0.074 A 
ATOM     64  C   UNL A   1      42.245  29.724  35.743  1.00  0.00     0.031 C 
ATOM     65  C   UNL A   1      42.808  28.434  33.702  1.00  0.00     0.037 A 
BRANCH  52  66
ATOM     66  C   UNL A   1      41.086  27.480  27.846  1.00  0.00     0.057 A 
ATOM     67  C   UNL A   1      40.492  26.231  27.630  1.00  0.00     0.134 A 
ATOM     68  C   UNL A   1      41.872  28.013  26.817  1.00  0.00     0.134 A 
ATOM     69  F   UNL A   1      39.739  25.661  28.582  1.00  0.00    -0.206 F 
ATOM     70  C   UNL A   1      40.694  25.524  26.443  1.00  0.00     0.040 A 
ATOM     71  C   UNL A   1      42.062  27.325  25.617  1.00  0.00     0.040 A 
ATOM     72  F   UNL A   1      42.464  29.207  26.959  1.00  0.00    -0.206 F 
ATOM     73  C   UNL A   1      41.476  26.073  25.431  1.00  0.00     0.006 A 
ENDBRANCH  52  66
BRANCH  53  74
ATOM     74  C   UNL A   1      39.149  32.547  36.206  1.00  0.00     0.057 A 
ATOM     75  C   UNL A   1      39.693  33.808  36.476  1.00  0.00     0.134 A 
ATOM     76  C   UNL A   1      38.286  31.996  37.160  1.00  0.00     0.134 A 
ATOM     77  F   UNL A   1      40.541  34.376  35.607  1.00  0.00    -0.206 F 
ATOM     78  C   UNL A   1      39.397  34.493  37.654  1.00  0.00     0.040 A 
ATOM     79  C   UNL A   1      37.966  32.678  38.334  1.00  0.00     0.040 A 
ATOM     80  F   UNL A   1      37.729  30.795  36.955  1.00  0.00    -0.206 F 
ATOM     81  C   UNL A   1      38.526  33.930  38.586  1.00  0.00     0.006 A 
ENDBRANCH  53  74
BRANCH  65  82
ATOM     82  C   UNL A   1      43.899  27.765  34.483  1.00  0.00     0.057 A 
ATOM     83  C   UNL A   1      43.691  26.538  35.124  1.00  0.00     0.134 A 
ATOM     84  C   UNL A   1      45.176  28.333  34.563  1.00  0.00     0.134 A 
ATOM     85  F   UNL A   1      42.486  25.952  35.097  1.00  0.00    -0.206 F 
ATOM     86  C   UNL A   1      44.715  25.905  35.832  1.00  0.00     0.040 A 
ATOM     87  C   UNL A   1      46.212  27.700  35.250  1.00  0.00     0.040 A 
ATOM     88  F   UNL A   1      45.439  29.504  33.965  1.00  0.00    -0.206 F 
ATOM     89  C   UNL A   1      45.982  26.483  35.890  1.00  0.00     0.006 A 
ENDBRANCH  65  82
ENDBRANCH  39  40
ENDBRANCH  31  34
ENDBRANCH  29  30
ENDBRANCH  28  29
ENDBRANCH   1  28
TORSDOF 13
ENDMDL
MODEL 2
REMARK VINA RESULT:     -13.0      1.432      6.422
REMARK SMILES O=C(Nc1cccc(C(=O)NCCCCNC(=O)c2ccc(-c3c4nc(c(-c5c(F)cccc5F)c5ccc([nH]5)c(-c5c(F)cccc5F)c5nc(c(-c6c(F)cccc6F)c6ccc3[nH]6)C=C5)C=C4)cc2)c1)Nc1cc(Cl)c(Cl)cc1Cl
REMARK SMILES IDX 13 1 12 2 11 3 9 4 10 5 8 7 4 8 5 9 73 10 6 11 7 12 3 13
REMARK SMILES IDX 1 14 2 15 74 16 75 19 76 20 82 21 77 22 81 23 83 24 78 25
REMARK SMILES IDX 79 26 80 27 14 28 15 29 16 30 17 31 18 33 19 34 20 35 72 36
REMARK SMILES IDX 21 37 71 38 22 39 23 40 24 41 65 42 25 43 70 44 64 45 66 46
REMARK SMILES IDX 26 47 69 48 63 49 62 50 27 52 53 53 36 54 52 55 37 56 40 57
REMARK SMILES IDX 51 58 67 59 38 60 39 61 50 63 68 64 41 65 28 66 29 67 34 68
REMARK SMILES IDX 30 69 31 70 33 71 35 72 32 73 54 74 55 75 60 76 56 77 57 78
REMARK SMILES IDX 59 79 61 80 58 81 42 82 43 83 48 84 44 85 45 86 47 87 49 88
REMARK SMILES IDX 46 89
REMARK H PARENT 11 6 3 17 74 18 16 32 66 51 40 62
REMARK Flexibility Score: inf
ROOT
ATOM      1  C   UNL A   1      31.788  30.466  26.887  1.00  0.00     0.023 C 
ENDROOT
BRANCH   1   2
ATOM      2  C   UNL A   1      33.156  29.833  26.620  1.00  0.00     0.116 C 
BRANCH   2   3
ATOM      3  N   UNL A   1      33.413  29.732  25.199  1.00  0.00    -0.352 N 
ATOM      4  C   UNL A   1      32.847  29.000  24.187  1.00  0.00     0.251 C 
ATOM      5  O   UNL A   1      33.320  29.165  23.061  1.00  0.00    -0.269 OA
ATOM      6  H   UNL A   1      34.151  30.310  24.894  1.00  0.00     0.163 HD
BRANCH   4   7
ATOM      7  C   UNL A   1      31.692  28.060  24.348  1.00  0.00     0.041 A 
ATOM      8  C   UNL A   1      30.456  26.239  25.405  1.00  0.00     0.043 A 
ATOM      9  C   UNL A   1      29.430  26.375  24.473  1.00  0.00     0.026 A 
ATOM     10  C   UNL A   1      31.604  27.037  25.294  1.00  0.00     0.040 A 
ATOM     11  C   UNL A   1      29.509  27.370  23.501  1.00  0.00     0.003 A 
ATOM     12  C   UNL A   1      30.621  28.215  23.452  1.00  0.00     0.014 A 
BRANCH   8  13
ATOM     13  N   UNL A   1      30.314  25.276  26.421  1.00  0.00    -0.308 N 
ATOM     14  O   UNL A   1      30.381  23.225  27.345  1.00  0.00    -0.248 OA
ATOM     15  C   UNL A   1      30.801  23.990  26.483  1.00  0.00     0.323 C 
ATOM     16  N   UNL A   1      31.875  23.736  25.662  1.00  0.00    -0.306 N 
ATOM     17  H   UNL A   1      29.789  25.565  27.202  1.00  0.00     0.171 HD
ATOM     18  H   UNL A   1      32.248  24.505  25.173  1.00  0.00     0.171 HD
BRANCH  16  19
ATOM     19  C   UNL A   1      32.495  22.486  25.447  1.00  0.00     0.063 A 
ATOM     20  C   UNL A   1      32.084  21.797  24.295  1.00  0.00     0.049 A 
ATOM     21  C   UNL A   1      33.428  21.875  26.303  1.00  0.00     0.066 A 
ATOM     22  C   UNL A   1      32.646  20.561  23.957  1.00  0.00     0.061 A 
ATOM     23  C   UNL A   1      33.985  20.633  25.965  1.00  0.00     0.044 A 
ATOM     24  Cl  UNL A   1      33.797  22.472  27.883  1.00  0.00    -0.082 Cl
ATOM     25  Cl  UNL A   1      32.098  19.806  22.502  1.00  0.00    -0.083 Cl
ATOM     26  C   UNL A   1      33.609  19.984  24.787  1.00  0.00     0.061 A 
ATOM     27  Cl  UNL A   1      34.343  18.463  24.429  1.00  0.00    -0.083 Cl
ENDBRANCH  16  19
ENDBRANCH   8  13
ENDBRANCH   4   7
ENDBRANCH   2   3
ENDBRANCH   1   2
BRANCH   1  28
ATOM     28  C   UNL A   1      31.730  31.973  26.630  1.00  0.00     0.023 C 
BRANCH  28  29
ATOM     29  C   UNL A   1      32.802  32.793  27.346  1.00  0.00     0.116 C 
BRANCH  29  30
ATOM     30  N   UNL A   1      32.390  34.154  27.654  1.00  0.00    -0.352 N 
ATOM     31  C   UNL A   1      32.961  35.033  28.549  1.00  0.00     0.251 C 
ATOM     32  H   UNL A   1      31.607  34.489  27.162  1.00  0.00     0.163 HD
ATOM     33  O   UNL A   1      32.473  36.133  28.740  1.00  0.00    -0.269 OA
BRANCH  31  34
ATOM     34  C   UNL A   1      34.143  34.588  29.319  1.00  0.00     0.039 A 
ATOM     35  C   UNL A   1      33.946  34.042  30.590  1.00  0.00     0.014 A 
ATOM     36  C   UNL A   1      35.420  34.635  28.755  1.00  0.00     0.014 A 
ATOM     37  C   UNL A   1      35.023  33.458  31.261  1.00  0.00     0.010 A 
ATOM     38  C   UNL A   1      36.480  34.006  29.402  1.00  0.00     0.010 A 
ATOM     39  C   UNL A   1      36.286  33.392  30.649  1.00  0.00    -0.014 A 
BRANCH  39  40
ATOM     40  C   UNL A   1      37.402  32.636  31.269  1.00  0.00     0.031 A 
ATOM     41  C   UNL A   1      38.009  33.097  32.562  1.00  0.00     0.074 A 
ATOM     42  C   UNL A   1      37.930  31.585  30.613  1.00  0.00     0.049 A 
ATOM     43  N   UNL A   1      39.050  32.625  33.199  1.00  0.00    -0.248 NA
ATOM     44  C   UNL A   1      37.378  34.256  33.209  1.00  0.00     0.031 C 
ATOM     45  C   UNL A   1      37.465  31.072  29.322  1.00  0.00     0.029 A 
ATOM     46  N   UNL A   1      38.989  30.772  30.932  1.00  0.00    -0.354 N 
ATOM     47  C   UNL A   1      39.205  33.433  34.316  1.00  0.00     0.074 A 
ATOM     48  C   UNL A   1      38.180  34.453  34.246  1.00  0.00     0.031 C 
ATOM     49  C   UNL A   1      38.231  30.030  28.962  1.00  0.00     0.029 A 
ATOM     50  C   UNL A   1      39.258  29.821  29.978  1.00  0.00     0.049 A 
ATOM     51  H   UNL A   1      39.506  30.862  31.764  1.00  0.00     0.167 HD
ATOM     52  C   UNL A   1      40.107  33.322  35.321  1.00  0.00     0.037 A 
ATOM     53  C   UNL A   1      40.233  28.895  29.918  1.00  0.00     0.037 A 
ATOM     54  C   UNL A   1      41.115  32.299  35.398  1.00  0.00     0.049 A 
ATOM     55  C   UNL A   1      41.230  28.799  31.037  1.00  0.00     0.074 A 
ATOM     56  C   UNL A   1      42.028  32.061  36.412  1.00  0.00     0.029 A 
ATOM     57  N   UNL A   1      41.350  31.346  34.419  1.00  0.00    -0.354 N 
ATOM     58  N   UNL A   1      41.322  29.526  32.123  1.00  0.00    -0.248 NA
ATOM     59  C   UNL A   1      42.260  27.756  30.921  1.00  0.00     0.031 C 
ATOM     60  C   UNL A   1      42.839  30.987  36.029  1.00  0.00     0.029 A 
ATOM     61  C   UNL A   1      42.410  30.535  34.792  1.00  0.00     0.049 A 
ATOM     62  H   UNL A   1      40.839  31.258  33.582  1.00  0.00     0.167 HD
ATOM     63  C   UNL A   1      42.411  29.027  32.823  1.00  0.00     0.074 A 
ATOM     64  C   UNL A   1      42.937  27.921  32.049  1.00  0.00     0.031 C 
ATOM     65  C   UNL A   1      42.931  29.448  34.002  1.00  0.00     0.037 A 
BRANCH  52  66
ATOM     66  C   UNL A   1      40.034  34.338  36.422  1.00  0.00     0.057 A 
ATOM     67  C   UNL A   1      40.732  35.550  36.348  1.00  0.00     0.134 A 
ATOM     68  C   UNL A   1      39.245  34.111  37.555  1.00  0.00     0.134 A 
ATOM     69  F   UNL A   1      41.515  35.822  35.294  1.00  0.00    -0.206 F 
ATOM     70  C   UNL A   1      40.669  36.491  37.378  1.00  0.00     0.040 A 
ATOM     71  C   UNL A   1      39.156  35.055  38.581  1.00  0.00     0.040 A 
ATOM     72  F   UNL A   1      38.548  32.973  37.685  1.00  0.00    -0.206 F 
ATOM     73  C   UNL A   1      39.875  36.246  38.496  1.00  0.00     0.006 A 
ENDBRANCH  52  66
BRANCH  53  74
ATOM     74  C   UNL A   1      40.307  27.979  28.754  1.00  0.00     0.057 A 
ATOM     75  C   UNL A   1      39.642  26.748  28.761  1.00  0.00     0.134 A 
ATOM     76  C   UNL A   1      41.031  28.317  27.605  1.00  0.00     0.134 A 
ATOM     77  F   UNL A   1      38.948  26.363  29.842  1.00  0.00    -0.206 F 
ATOM     78  C   UNL A   1      39.699  25.881  27.670  1.00  0.00     0.040 A 
ATOM     79  C   UNL A   1      41.082  27.469  26.499  1.00  0.00     0.040 A 
ATOM     80  F   UNL A   1      41.685  29.486  27.536  1.00  0.00    -0.206 F 
ATOM     81  C   UNL A   1      40.418  26.244  26.531  1.00  0.00     0.006 A 
ENDBRANCH  53  74
BRANCH  65  82
ATOM     82  C   UNL A   1      44.130  28.713  34.520  1.00  0.00     0.057 A 
ATOM     83  C   UNL A   1      45.431  29.147  34.240  1.00  0.00     0.134 A 
ATOM     84  C   UNL A   1      43.981  27.584  35.336  1.00  0.00     0.134 A 
ATOM     85  F   UNL A   1      45.637  30.212  33.452  1.00  0.00    -0.206 F 
ATOM     86  C   UNL A   1      46.546  28.475  34.743  1.00  0.00     0.040 A 
ATOM     87  C   UNL A   1      45.088  26.916  35.861  1.00  0.00     0.040 A 
ATOM     88  F   UNL A   1      42.761  27.122  35.645  1.00  0.00    -0.206 F 
ATOM     89  C   UNL A   1      46.376  27.360  35.562  1.00  0.00     0.006 A 
ENDBRANCH  65  82
ENDBRANCH  39  40
ENDBRANCH  31  34
ENDBRANCH  29  30
ENDBRANCH  28  29
ENDBRANCH   1  28
TORSDOF 13
ENDMDL
MODEL 3
REMARK VINA RESULT:     -12.9      1.456      2.294
REMARK SMILES O=C(Nc1cccc(C(=O)NCCCCNC(=O)c2ccc(-c3c4nc(c(-c5c(F)cccc5F)c5ccc([nH]5)c(-c5c(F)cccc5F)c5nc(c(-c6c(F)cccc6F)c6ccc3[nH]6)C=C5)C=C4)cc2)c1)Nc1cc(Cl)c(Cl)cc1Cl
REMARK SMILES IDX 13 1 12 2 11 3 9 4 10 5 8 7 4 8 5 9 73 10 6 11 7 12 3 13
REMARK SMILES IDX 1 14 2 15 74 16 75 19 76 20 82 21 77 22 81 23 83 24 78 25
REMARK SMILES IDX 79 26 80 27 14 28 15 29 16 30 17 31 18 33 19 34 20 35 72 36
REMARK SMILES IDX 21 37 71 38 22 39 23 40 24 41 65 42 25 43 70 44 64 45 66 46
REMARK SMILES IDX 26 47 69 48 63 49 62 50 27 52 53 53 36 54 52 55 37 56 40 57
REMARK SMILES IDX 51 58 67 59 38 60 39 61 50 63 68 64 41 65 28 66 29 67 34 68
REMARK SMILES IDX 30 69 31 70 33 71 35 72 32 73 54 74 55 75 60 76 56 77 57 78
REMARK SMILES IDX 59 79 61 80 58 81 42 82 43 83 48 84 44 85 45 86 47 87 49 88
REMARK SMILES IDX 46 89
REMARK H PARENT 11 6 3 17 74 18 16 32 66 51 40 62
REMARK Flexibility Score: inf
ROOT
ATOM      1  C   UNL A   1      32.126  30.076  27.173  1.00  0.00     0.023 C 
ENDROOT
BRANCH   1   2
ATOM      2  C   UNL A   1      33.457  29.485  26.704  1.00  0.00     0.116 C 
BRANCH   2   3
ATOM      3  N   UNL A   1      33.582  29.562  25.264  1.00  0.00    -0.352 N 
ATOM      4  C   UNL A   1      32.900  28.981  24.225  1.00  0.00     0.251 C 
ATOM      5  O   UNL A   1      33.276  29.279  23.090  1.00  0.00    -0.269 OA
ATOM      6  H   UNL A   1      34.309  30.156  24.967  1.00  0.00     0.163 HD
BRANCH   4   7
ATOM      7  C   UNL A   1      31.731  28.058  24.374  1.00  0.00     0.041 A 
ATOM      8  C   UNL A   1      30.463  26.247  25.411  1.00  0.00     0.043 A 
ATOM      9  C   UNL A   1      29.444  26.405  24.474  1.00  0.00     0.026 A 
ATOM     10  C   UNL A   1      31.623  27.029  25.312  1.00  0.00     0.040 A 
ATOM     11  C   UNL A   1      29.542  27.405  23.510  1.00  0.00     0.003 A 
ATOM     12  C   UNL A   1      30.667  28.234  23.473  1.00  0.00     0.014 A 
BRANCH   8  13
ATOM     13  N   UNL A   1      30.301  25.280  26.420  1.00  0.00    -0.308 N 
ATOM     14  O   UNL A   1      30.342  23.223  27.332  1.00  0.00    -0.248 OA
ATOM     15  C   UNL A   1      30.779  23.990  26.480  1.00  0.00     0.323 C 
ATOM     16  N   UNL A   1      31.860  23.733  25.671  1.00  0.00    -0.306 N 
ATOM     17  H   UNL A   1      29.768  25.568  27.195  1.00  0.00     0.171 HD
ATOM     18  H   UNL A   1      32.246  24.502  25.192  1.00  0.00     0.171 HD
BRANCH  16  19
ATOM     19  C   UNL A   1      32.475  22.480  25.457  1.00  0.00     0.063 A 
ATOM     20  C   UNL A   1      32.068  21.797  24.300  1.00  0.00     0.049 A 
ATOM     21  C   UNL A   1      33.397  21.860  26.318  1.00  0.00     0.066 A 
ATOM     22  C   UNL A   1      32.625  20.559  23.962  1.00  0.00     0.061 A 
ATOM     23  C   UNL A   1      33.950  20.616  25.980  1.00  0.00     0.044 A 
ATOM     24  Cl  UNL A   1      33.758  22.450  27.902  1.00  0.00    -0.082 Cl
ATOM     25  Cl  UNL A   1      32.083  19.812  22.501  1.00  0.00    -0.083 Cl
ATOM     26  C   UNL A   1      33.578  19.973  24.797  1.00  0.00     0.061 A 
ATOM     27  Cl  UNL A   1      34.306  18.449  24.440  1.00  0.00    -0.083 Cl
ENDBRANCH  16  19
ENDBRANCH   8  13
ENDBRANCH   4   7
ENDBRANCH   2   3
ENDBRANCH   1   2
BRANCH   1  28
ATOM     28  C   UNL A   1      31.935  31.554  26.821  1.00  0.00     0.023 C 
BRANCH  28  29
ATOM     29  C   UNL A   1      32.982  32.499  27.405  1.00  0.00     0.116 C 
BRANCH  29  30
ATOM     30  N   UNL A   1      32.488  33.846  27.646  1.00  0.00    -0.352 N 
ATOM     31  C   UNL A   1      32.997  34.800  28.500  1.00  0.00     0.251 C 
ATOM     32  H   UNL A   1      31.690  34.109  27.133  1.00  0.00     0.163 HD
ATOM     33  O   UNL A   1      32.443  35.876  28.634  1.00  0.00    -0.269 OA
BRANCH  31  34
ATOM     34  C   UNL A   1      34.198  34.464  29.296  1.00  0.00     0.039 A 
ATOM     35  C   UNL A   1      34.023  33.911  30.568  1.00  0.00     0.014 A 
ATOM     36  C   UNL A   1      35.477  34.617  28.757  1.00  0.00     0.014 A 
ATOM     37  C   UNL A   1      35.132  33.428  31.264  1.00  0.00     0.010 A 
ATOM     38  C   UNL A   1      36.574  34.087  29.430  1.00  0.00     0.010 A 
ATOM     39  C   UNL A   1      36.408  33.468  30.678  1.00  0.00    -0.014 A 
BRANCH  39  40
ATOM     40  C   UNL A   1      37.573  32.815  31.326  1.00  0.00     0.031 A 
ATOM     41  C   UNL A   1      38.225  31.620  30.694  1.00  0.00     0.074 A 
ATOM     42  C   UNL A   1      37.982  33.245  32.535  1.00  0.00     0.049 A 
ATOM     43  N   UNL A   1      39.184  30.861  31.160  1.00  0.00    -0.248 NA
ATOM     44  C   UNL A   1      37.714  31.210  29.378  1.00  0.00     0.031 C 
ATOM     45  C   UNL A   1      37.395  34.362  33.278  1.00  0.00     0.029 A 
ATOM     46  N   UNL A   1      38.974  32.780  33.362  1.00  0.00    -0.354 N 
ATOM     47  C   UNL A   1      39.386  29.879  30.200  1.00  0.00     0.074 A 
ATOM     48  C   UNL A   1      38.419  30.111  29.148  1.00  0.00     0.031 C 
ATOM     49  C   UNL A   1      38.041  34.499  34.448  1.00  0.00     0.029 A 
ATOM     50  C   UNL A   1      39.063  33.462  34.551  1.00  0.00     0.049 A 
ATOM     51  H   UNL A   1      39.565  32.031  33.125  1.00  0.00     0.167 HD
ATOM     52  C   UNL A   1      40.308  28.887  30.187  1.00  0.00     0.037 A 
ATOM     53  C   UNL A   1      39.866  33.265  35.613  1.00  0.00     0.037 A 
ATOM     54  C   UNL A   1      41.279  28.666  31.226  1.00  0.00     0.049 A 
ATOM     55  C   UNL A   1      40.872  32.151  35.582  1.00  0.00     0.074 A 
ATOM     56  C   UNL A   1      42.300  27.731  31.268  1.00  0.00     0.029 A 
ATOM     57  N   UNL A   1      41.346  29.384  32.409  1.00  0.00    -0.354 N 
ATOM     58  N   UNL A   1      41.099  31.272  34.636  1.00  0.00    -0.248 NA
ATOM     59  C   UNL A   1      41.730  31.998  36.765  1.00  0.00     0.031 C 
ATOM     60  C   UNL A   1      42.961  27.860  32.495  1.00  0.00     0.029 A 
ATOM     61  C   UNL A   1      42.373  28.897  33.202  1.00  0.00     0.049 A 
ATOM     62  H   UNL A   1      40.751  30.130  32.652  1.00  0.00     0.167 HD
ATOM     63  C   UNL A   1      42.129  30.468  35.105  1.00  0.00     0.074 A 
ATOM     64  C   UNL A   1      42.496  30.976  36.411  1.00  0.00     0.031 C 
ATOM     65  C   UNL A   1      42.716  29.403  34.507  1.00  0.00     0.037 A 
BRANCH  52  66
ATOM     66  C   UNL A   1      40.307  27.967  29.002  1.00  0.00     0.057 A 
ATOM     67  C   UNL A   1      41.041  28.261  27.845  1.00  0.00     0.134 A 
ATOM     68  C   UNL A   1      39.584  26.769  29.025  1.00  0.00     0.134 A 
ATOM     69  F   UNL A   1      41.745  29.400  27.757  1.00  0.00    -0.206 F 
ATOM     70  C   UNL A   1      41.033  27.408  26.741  1.00  0.00     0.040 A 
ATOM     71  C   UNL A   1      39.587  25.897  27.934  1.00  0.00     0.040 A 
ATOM     72  F   UNL A   1      38.865  26.426  30.103  1.00  0.00    -0.206 F 
ATOM     73  C   UNL A   1      40.309  26.219  26.786  1.00  0.00     0.006 A 
ENDBRANCH  52  66
BRANCH  53  74
ATOM     74  C   UNL A   1      39.752  34.153  36.796  1.00  0.00     0.057 A 
ATOM     75  C   UNL A   1      40.436  35.372  36.850  1.00  0.00     0.134 A 
ATOM     76  C   UNL A   1      38.949  33.811  37.889  1.00  0.00     0.134 A 
ATOM     77  F   UNL A   1      41.235  35.743  35.839  1.00  0.00    -0.206 F 
ATOM     78  C   UNL A   1      40.332  36.218  37.955  1.00  0.00     0.040 A 
ATOM     79  C   UNL A   1      38.820  34.656  38.992  1.00  0.00     0.040 A 
ATOM     80  F   UNL A   1      38.265  32.659  37.892  1.00  0.00    -0.206 F 
ATOM     81  C   UNL A   1      39.517  35.862  39.029  1.00  0.00     0.006 A 
ENDBRANCH  53  74
BRANCH  65  82
ATOM     82  C   UNL A   1      43.812  28.716  35.262  1.00  0.00     0.057 A 
ATOM     83  C   UNL A   1      45.155  29.069  35.085  1.00  0.00     0.134 A 
ATOM     84  C   UNL A   1      43.521  27.718  36.200  1.00  0.00     0.134 A 
ATOM     85  F   UNL A   1      45.499  30.006  34.189  1.00  0.00    -0.206 F 
ATOM     86  C   UNL A   1      46.174  28.444  35.806  1.00  0.00     0.040 A 
ATOM     87  C   UNL A   1      44.528  27.100  36.942  1.00  0.00     0.040 A 
ATOM     88  F   UNL A   1      42.254  27.339  36.420  1.00  0.00    -0.206 F 
ATOM     89  C   UNL A   1      45.860  27.460  36.743  1.00  0.00     0.006 A 
ENDBRANCH  65  82
ENDBRANCH  39  40
ENDBRANCH  31  34
ENDBRANCH  29  30
ENDBRANCH  28  29
ENDBRANCH   1  28
TORSDOF 13
ENDMDL
