MODEL 1
REMARK VINA RESULT:     -12.6      0.000      0.000
REMARK SMILES CCc1cc(S(F)(F)(F)(F)F)cc2c1O[C@@H](C(F)(F)F)C(C(=O)NCCCCNC(=O)c1ccc(-c3c4nc(c(-c5c(F)cccc5F)c5ccc([nH]5)c(-c5c(F)cccc5F)c5nc(c(-c6c(F)cccc6F)c6ccc3[nH]6)C=C5)C=C4)cc1)=C2
REMARK SMILES IDX 27 1 26 2 25 3 24 4 22 5 23 6 21 8 3 9 4 10 14 11 5 12 13 13
REMARK SMILES IDX 15 14 12 15 86 16 16 17 2 18 1 19 6 20 7 21 8 22 9 23 10 24
REMARK SMILES IDX 11 25 17 26 18 27 19 28 20 29 28 30 29 31 30 32 31 34 32 35
REMARK SMILES IDX 33 36 85 37 34 38 84 39 35 40 36 41 37 42 78 43 38 44 83 45
REMARK SMILES IDX 77 46 79 47 39 48 82 49 76 50 75 51 40 53 66 54 49 55 65 56
REMARK SMILES IDX 50 57 53 58 64 59 80 60 51 61 52 62 63 64 81 65 54 66 41 67
REMARK SMILES IDX 42 68 47 69 43 70 44 71 46 72 48 73 45 74 67 75 68 76 73 77
REMARK SMILES IDX 69 78 70 79 72 80 74 81 71 82 55 83 56 84 61 85 57 86 58 87
REMARK SMILES IDX 60 88 62 89 59 90
REMARK H PARENT 24 7 29 33 79 52 53 63
REMARK Flexibility Score: inf
ROOT
ATOM      1  C   UNL A   1      37.584  20.057  24.880  1.00  0.00     0.023 C 
ENDROOT
BRANCH   1   2
ATOM      2  C   UNL A   1      37.073  21.364  24.299  1.00  0.00     0.023 C 
BRANCH   2   3
ATOM      3  C   UNL A   1      36.297  22.123  25.362  1.00  0.00     0.116 C 
BRANCH   3   4
ATOM      4  N   UNL A   1      35.476  21.179  26.134  1.00  0.00    -0.352 N 
ATOM      5  C   UNL A   1      34.047  21.451  26.347  1.00  0.00     0.251 C 
ATOM      6  O   UNL A   1      33.337  20.634  27.015  1.00  0.00    -0.270 OA
ATOM      7  H   UNL A   1      35.883  20.364  26.509  1.00  0.00     0.163 HD
BRANCH   5   8
ATOM      8  C   UNL A   1      33.418  22.708  25.769  1.00  0.00     0.067 C 
ATOM      9  C   UNL A   1      32.019  26.111  23.793  1.00  0.00    -0.004 A 
ATOM     10  C   UNL A   1      32.218  27.363  24.349  1.00  0.00     0.032 A 
ATOM     11  C   UNL A   1      32.536  25.015  24.437  1.00  0.00     0.131 A 
ATOM     12  C   UNL A   1      32.918  27.512  25.517  1.00  0.00     0.108 A 
ATOM     13  C   UNL A   1      33.233  25.124  25.627  1.00  0.00     0.019 A 
ATOM     14  O   UNL A   1      32.430  23.793  23.817  1.00  0.00    -0.475 OA
ATOM     15  C   UNL A   1      33.418  26.396  26.156  1.00  0.00     0.036 A 
ATOM     16  C   UNL A   1      33.774  23.909  26.210  1.00  0.00     0.025 C 
ATOM     17  C   UNL A   1      32.366  22.618  24.671  1.00  0.00     0.314 C 
BRANCH   9  18
ATOM     18  C   UNL A   1      31.424  25.888  22.412  1.00  0.00     0.036 C 
ATOM     19  C   UNL A   1      32.524  25.976  21.366  1.00  0.00     0.009 C 
ENDBRANCH   9  18
BRANCH  12  20
ATOM     20  S   UNL A   1      33.186  29.160  26.214  1.00  0.00     0.310 S 
ATOM     21  F   UNL A   1      33.540  28.471  27.598  1.00  0.00    -0.094 F 
ATOM     22  F   UNL A   1      31.687  29.202  26.697  1.00  0.00    -0.094 F 
ATOM     23  F   UNL A   1      33.472  30.529  26.894  1.00  0.00    -0.094 F 
ATOM     24  F   UNL A   1      34.716  29.034  25.843  1.00  0.00    -0.094 F 
ATOM     25  F   UNL A   1      32.937  27.717  25.618  1.00  0.00    -0.094 F 
ENDBRANCH  12  20
BRANCH  17  26
ATOM     26  C   UNL A   1      32.630  21.379  23.832  1.00  0.00     0.429 C 
ATOM     27  F   UNL A   1      33.936  21.271  23.600  1.00  0.00    -0.167 F 
ATOM     28  F   UNL A   1      32.207  20.302  24.488  1.00  0.00    -0.167 F 
ATOM     29  F   UNL A   1      31.981  21.479  22.677  1.00  0.00    -0.167 F 
ENDBRANCH  17  26
ENDBRANCH   5   8
ENDBRANCH   3   4
ENDBRANCH   2   3
ENDBRANCH   1   2
BRANCH   1  30
ATOM     30  C   UNL A   1      38.769  20.336  25.792  1.00  0.00     0.116 C 
BRANCH  30  31
ATOM     31  N   UNL A   1      39.774  19.277  25.629  1.00  0.00    -0.352 N 
ATOM     32  C   UNL A   1      41.172  19.525  26.010  1.00  0.00     0.251 C 
ATOM     33  H   UNL A   1      39.511  18.401  25.264  1.00  0.00     0.163 HD
ATOM     34  O   UNL A   1      42.041  18.608  25.868  1.00  0.00    -0.269 OA
BRANCH  32  35
ATOM     35  C   UNL A   1      41.579  20.878  26.572  1.00  0.00     0.039 A 
ATOM     36  C   UNL A   1      41.519  21.088  27.939  1.00  0.00     0.014 A 
ATOM     37  C   UNL A   1      41.983  21.834  25.744  1.00  0.00     0.014 A 
ATOM     38  C   UNL A   1      41.634  22.447  28.316  1.00  0.00     0.010 A 
ATOM     39  C   UNL A   1      42.209  23.108  26.205  1.00  0.00     0.010 A 
ATOM     40  C   UNL A   1      42.111  23.402  27.537  1.00  0.00    -0.014 A 
BRANCH  40  41
ATOM     41  C   UNL A   1      42.526  24.755  28.092  1.00  0.00     0.031 A 
ATOM     42  C   UNL A   1      43.868  24.973  28.409  1.00  0.00     0.074 A 
ATOM     43  C   UNL A   1      41.528  25.698  28.259  1.00  0.00     0.049 A 
ATOM     44  N   UNL A   1      44.420  26.093  28.878  1.00  0.00    -0.248 NA
ATOM     45  C   UNL A   1      44.924  23.961  28.264  1.00  0.00     0.031 C 
ATOM     46  C   UNL A   1      40.172  25.489  27.934  1.00  0.00     0.029 A 
ATOM     47  N   UNL A   1      41.648  26.977  28.757  1.00  0.00    -0.354 N 
ATOM     48  C   UNL A   1      45.735  25.925  29.042  1.00  0.00     0.074 A 
ATOM     49  C   UNL A   1      46.077  24.549  28.655  1.00  0.00     0.031 C 
ATOM     50  C   UNL A   1      39.485  26.619  28.241  1.00  0.00     0.029 A 
ATOM     51  C   UNL A   1      40.398  27.556  28.764  1.00  0.00     0.049 A 
ATOM     52  H   UNL A   1      42.483  27.404  29.056  1.00  0.00     0.167 HD
ATOM     53  C   UNL A   1      46.661  26.865  29.496  1.00  0.00     0.037 A 
ATOM     54  C   UNL A   1      40.052  28.826  29.197  1.00  0.00     0.037 A 
ATOM     55  C   UNL A   1      46.322  28.150  29.889  1.00  0.00     0.049 A 
ATOM     56  C   UNL A   1      40.971  29.748  29.707  1.00  0.00     0.074 A 
ATOM     57  C   UNL A   1      47.245  29.113  30.342  1.00  0.00     0.029 A 
ATOM     58  N   UNL A   1      45.069  28.720  29.919  1.00  0.00    -0.354 N 
ATOM     59  N   UNL A   1      42.290  29.592  29.832  1.00  0.00    -0.248 NA
ATOM     60  C   UNL A   1      40.612  31.083  30.200  1.00  0.00     0.031 C 
ATOM     61  C   UNL A   1      46.556  30.244  30.649  1.00  0.00     0.029 A 
ATOM     62  C   UNL A   1      45.192  30.006  30.394  1.00  0.00     0.049 A 
ATOM     63  H   UNL A   1      44.229  28.283  29.647  1.00  0.00     0.167 HD
ATOM     64  C   UNL A   1      42.836  30.698  30.341  1.00  0.00     0.074 A 
ATOM     65  C   UNL A   1      41.763  31.671  30.592  1.00  0.00     0.031 C 
ATOM     66  C   UNL A   1      44.186  30.937  30.604  1.00  0.00     0.037 A 
BRANCH  53  67
ATOM     67  C   UNL A   1      48.123  26.457  29.562  1.00  0.00     0.057 A 
ATOM     68  C   UNL A   1      48.947  26.679  28.472  1.00  0.00     0.134 A 
ATOM     69  C   UNL A   1      48.584  25.880  30.666  1.00  0.00     0.134 A 
ATOM     70  F   UNL A   1      48.608  27.468  27.455  1.00  0.00    -0.206 F 
ATOM     71  C   UNL A   1      50.182  25.991  28.535  1.00  0.00     0.040 A 
ATOM     72  C   UNL A   1      49.851  25.348  30.702  1.00  0.00     0.040 A 
ATOM     73  F   UNL A   1      47.812  25.816  31.748  1.00  0.00    -0.206 F 
ATOM     74  C   UNL A   1      50.698  25.481  29.638  1.00  0.00     0.006 A 
ENDBRANCH  53  67
BRANCH  54  75
ATOM     75  C   UNL A   1      38.592  29.240  29.115  1.00  0.00     0.057 A 
ATOM     76  C   UNL A   1      38.097  29.771  27.936  1.00  0.00     0.134 A 
ATOM     77  C   UNL A   1      37.812  29.073  30.177  1.00  0.00     0.134 A 
ATOM     78  F   UNL A   1      38.760  29.724  26.783  1.00  0.00    -0.206 F 
ATOM     79  C   UNL A   1      36.821  30.369  28.068  1.00  0.00     0.040 A 
ATOM     80  C   UNL A   1      36.530  29.563  30.186  1.00  0.00     0.040 A 
ATOM     81  F   UNL A   1      38.278  28.423  31.240  1.00  0.00    -0.206 F 
ATOM     82  C   UNL A   1      35.993  30.154  29.075  1.00  0.00     0.006 A 
ENDBRANCH  54  75
BRANCH  66  83
ATOM     83  C   UNL A   1      44.577  32.300  31.151  1.00  0.00     0.057 A 
ATOM     84  C   UNL A   1      44.638  32.482  32.523  1.00  0.00     0.134 A 
ATOM     85  C   UNL A   1      44.854  33.291  30.312  1.00  0.00     0.134 A 
ATOM     86  F   UNL A   1      44.618  31.474  33.390  1.00  0.00    -0.206 F 
ATOM     87  C   UNL A   1      44.720  33.838  32.917  1.00  0.00     0.040 A 
ATOM     88  C   UNL A   1      45.059  34.566  30.780  1.00  0.00     0.040 A 
ATOM     89  F   UNL A   1      44.935  33.047  29.007  1.00  0.00    -0.206 F 
ATOM     90  C   UNL A   1      45.073  34.830  32.121  1.00  0.00     0.006 A 
ENDBRANCH  66  83
ENDBRANCH  40  41
ENDBRANCH  32  35
ENDBRANCH  30  31
ENDBRANCH   1  30
TORSDOF 14
ENDMDL
MODEL 2
REMARK VINA RESULT:     -12.5      1.630      6.242
REMARK SMILES CCc1cc(S(F)(F)(F)(F)F)cc2c1O[C@@H](C(F)(F)F)C(C(=O)NCCCCNC(=O)c1ccc(-c3c4nc(c(-c5c(F)cccc5F)c5ccc([nH]5)c(-c5c(F)cccc5F)c5nc(c(-c6c(F)cccc6F)c6ccc3[nH]6)C=C5)C=C4)cc1)=C2
REMARK SMILES IDX 27 1 26 2 25 3 24 4 22 5 23 6 21 8 3 9 4 10 14 11 5 12 13 13
REMARK SMILES IDX 15 14 12 15 86 16 16 17 2 18 1 19 6 20 7 21 8 22 9 23 10 24
REMARK SMILES IDX 11 25 17 26 18 27 19 28 20 29 28 30 29 31 30 32 31 34 32 35
REMARK SMILES IDX 33 36 85 37 34 38 84 39 35 40 36 41 37 42 78 43 38 44 83 45
REMARK SMILES IDX 77 46 79 47 39 48 82 49 76 50 75 51 40 53 66 54 49 55 65 56
REMARK SMILES IDX 50 57 53 58 64 59 80 60 51 61 52 62 63 64 81 65 54 66 41 67
REMARK SMILES IDX 42 68 47 69 43 70 44 71 46 72 48 73 45 74 67 75 68 76 73 77
REMARK SMILES IDX 69 78 70 79 72 80 74 81 71 82 55 83 56 84 61 85 57 86 58 87
REMARK SMILES IDX 60 88 62 89 59 90
REMARK H PARENT 24 7 29 33 79 52 53 63
REMARK Flexibility Score: inf
ROOT
ATOM      1  C   UNL A   1      39.556  20.818  25.832  1.00  0.00     0.023 C 
ENDROOT
BRANCH   1   2
ATOM      2  C   UNL A   1      39.276  22.161  26.485  1.00  0.00     0.023 C 
BRANCH   2   3
ATOM      3  C   UNL A   1      37.916  22.669  26.038  1.00  0.00     0.116 C 
BRANCH   3   4
ATOM      4  N   UNL A   1      37.808  22.556  24.576  1.00  0.00    -0.352 N 
ATOM      5  C   UNL A   1      36.551  22.912  23.903  1.00  0.00     0.251 C 
ATOM      6  O   UNL A   1      36.457  22.815  22.638  1.00  0.00    -0.270 OA
ATOM      7  H   UNL A   1      38.577  22.242  24.048  1.00  0.00     0.163 HD
BRANCH   5   8
ATOM      8  C   UNL A   1      35.363  23.397  24.717  1.00  0.00     0.067 C 
ATOM      9  C   UNL A   1      31.808  24.597  26.554  1.00  0.00    -0.004 A 
ATOM     10  C   UNL A   1      31.578  25.939  26.803  1.00  0.00     0.032 A 
ATOM     11  C   UNL A   1      32.961  24.236  25.901  1.00  0.00     0.131 A 
ATOM     12  C   UNL A   1      32.477  26.893  26.406  1.00  0.00     0.108 A 
ATOM     13  C   UNL A   1      33.899  25.169  25.500  1.00  0.00     0.019 A 
ATOM     14  O   UNL A   1      33.122  22.915  25.560  1.00  0.00    -0.475 OA
ATOM     15  C   UNL A   1      33.635  26.509  25.762  1.00  0.00     0.036 A 
ATOM     16  C   UNL A   1      35.068  24.690  24.781  1.00  0.00     0.025 C 
ATOM     17  C   UNL A   1      34.484  22.412  25.476  1.00  0.00     0.314 C 
BRANCH   9  18
ATOM     18  C   UNL A   1      30.775  23.508  26.792  1.00  0.00     0.036 C 
ATOM     19  C   UNL A   1      29.391  24.131  26.876  1.00  0.00     0.009 C 
ENDBRANCH   9  18
BRANCH  12  20
ATOM     20  S   UNL A   1      32.146  28.644  26.720  1.00  0.00     0.310 S 
ATOM     21  F   UNL A   1      31.028  28.203  27.754  1.00  0.00    -0.094 F 
ATOM     22  F   UNL A   1      31.027  28.634  25.611  1.00  0.00    -0.094 F 
ATOM     23  F   UNL A   1      31.812  30.119  27.082  1.00  0.00    -0.094 F 
ATOM     24  F   UNL A   1      33.173  28.591  27.919  1.00  0.00    -0.094 F 
ATOM     25  F   UNL A   1      32.417  27.112  26.439  1.00  0.00    -0.094 F 
ENDBRANCH  12  20
BRANCH  17  26
ATOM     26  C   UNL A   1      34.478  21.083  24.738  1.00  0.00     0.429 C 
ATOM     27  F   UNL A   1      35.711  20.584  24.713  1.00  0.00    -0.167 F 
ATOM     28  F   UNL A   1      33.669  20.233  25.364  1.00  0.00    -0.167 F 
ATOM     29  F   UNL A   1      34.049  21.269  23.493  1.00  0.00    -0.167 F 
ENDBRANCH  17  26
ENDBRANCH   5   8
ENDBRANCH   3   4
ENDBRANCH   2   3
ENDBRANCH   1   2
BRANCH   1  30
ATOM     30  C   UNL A   1      40.407  19.969  26.763  1.00  0.00     0.116 C 
BRANCH  30  31
ATOM     31  N   UNL A   1      41.503  19.356  26.001  1.00  0.00    -0.352 N 
ATOM     32  C   UNL A   1      42.731  20.120  25.734  1.00  0.00     0.251 C 
ATOM     33  H   UNL A   1      41.416  18.432  25.669  1.00  0.00     0.163 HD
ATOM     34  O   UNL A   1      43.679  19.588  25.074  1.00  0.00    -0.269 OA
BRANCH  32  35
ATOM     35  C   UNL A   1      42.866  21.544  26.245  1.00  0.00     0.039 A 
ATOM     36  C   UNL A   1      42.996  21.767  27.606  1.00  0.00     0.014 A 
ATOM     37  C   UNL A   1      42.857  22.552  25.380  1.00  0.00     0.014 A 
ATOM     38  C   UNL A   1      42.820  23.118  27.986  1.00  0.00     0.010 A 
ATOM     39  C   UNL A   1      42.823  23.852  25.822  1.00  0.00     0.010 A 
ATOM     40  C   UNL A   1      42.888  24.144  27.156  1.00  0.00    -0.014 A 
BRANCH  40  41
ATOM     41  C   UNL A   1      43.031  25.571  27.658  1.00  0.00     0.031 A 
ATOM     42  C   UNL A   1      41.879  26.303  27.952  1.00  0.00     0.074 A 
ATOM     43  C   UNL A   1      44.317  26.067  27.787  1.00  0.00     0.049 A 
ATOM     44  N   UNL A   1      41.806  27.549  28.422  1.00  0.00    -0.248 NA
ATOM     45  C   UNL A   1      40.512  25.791  27.783  1.00  0.00     0.031 C 
ATOM     46  C   UNL A   1      45.485  25.331  27.501  1.00  0.00     0.029 A 
ATOM     47  N   UNL A   1      44.702  27.323  28.200  1.00  0.00    -0.354 N 
ATOM     48  C   UNL A   1      40.530  27.902  28.595  1.00  0.00     0.074 A 
ATOM     49  C   UNL A   1      39.679  26.779  28.181  1.00  0.00     0.031 C 
ATOM     50  C   UNL A   1      46.556  26.135  27.729  1.00  0.00     0.029 A 
ATOM     51  C   UNL A   1      46.077  27.387  28.160  1.00  0.00     0.049 A 
ATOM     52  H   UNL A   1      44.098  28.050  28.477  1.00  0.00     0.167 HD
ATOM     53  C   UNL A   1      40.044  29.116  29.084  1.00  0.00     0.037 A 
ATOM     54  C   UNL A   1      46.886  28.466  28.476  1.00  0.00     0.037 A 
ATOM     55  C   UNL A   1      40.855  30.181  29.443  1.00  0.00     0.049 A 
ATOM     56  C   UNL A   1      46.397  29.702  28.911  1.00  0.00     0.074 A 
ATOM     57  C   UNL A   1      40.381  31.409  29.944  1.00  0.00     0.029 A 
ATOM     58  N   UNL A   1      42.229  30.254  29.378  1.00  0.00    -0.354 N 
ATOM     59  N   UNL A   1      45.123  30.039  29.121  1.00  0.00    -0.248 NA
ATOM     60  C   UNL A   1      47.242  30.862  29.217  1.00  0.00     0.031 C 
ATOM     61  C   UNL A   1      41.454  32.213  30.171  1.00  0.00     0.029 A 
ATOM     62  C   UNL A   1      42.615  31.502  29.814  1.00  0.00     0.049 A 
ATOM     63  H   UNL A   1      42.832  29.537  29.073  1.00  0.00     0.167 HD
ATOM     64  C   UNL A   1      45.049  31.300  29.552  1.00  0.00     0.074 A 
ATOM     65  C   UNL A   1      46.410  31.851  29.613  1.00  0.00     0.031 C 
ATOM     66  C   UNL A   1      43.900  32.014  29.901  1.00  0.00     0.037 A 
BRANCH  53  67
ATOM     67  C   UNL A   1      38.540  29.278  29.234  1.00  0.00     0.057 A 
ATOM     68  C   UNL A   1      37.784  29.690  28.149  1.00  0.00     0.134 A 
ATOM     69  C   UNL A   1      37.978  29.034  30.412  1.00  0.00     0.134 A 
ATOM     70  F   UNL A   1      38.251  29.703  26.903  1.00  0.00    -0.206 F 
ATOM     71  C   UNL A   1      36.471  30.096  28.486  1.00  0.00     0.040 A 
ATOM     72  C   UNL A   1      36.653  29.329  30.630  1.00  0.00     0.040 A 
ATOM     73  F   UNL A   1      38.703  28.497  31.390  1.00  0.00    -0.206 F 
ATOM     74  C   UNL A   1      35.861  29.794  29.617  1.00  0.00     0.006 A 
ENDBRANCH  53  67
BRANCH  54  75
ATOM     75  C   UNL A   1      48.391  28.299  28.343  1.00  0.00     0.057 A 
ATOM     76  C   UNL A   1      49.126  27.836  29.421  1.00  0.00     0.134 A 
ATOM     77  C   UNL A   1      48.973  28.590  27.186  1.00  0.00     0.134 A 
ATOM     78  F   UNL A   1      48.569  27.298  30.503  1.00  0.00    -0.206 F 
ATOM     79  C   UNL A   1      50.525  27.988  29.269  1.00  0.00     0.040 A 
ATOM     80  C   UNL A   1      50.342  28.586  27.071  1.00  0.00     0.040 A 
ATOM     81  F   UNL A   1      48.224  28.886  26.127  1.00  0.00    -0.206 F 
ATOM     82  C   UNL A   1      51.135  28.197  28.116  1.00  0.00     0.006 A 
ENDBRANCH  54  75
BRANCH  66  83
ATOM     83  C   UNL A   1      44.070  33.436  30.408  1.00  0.00     0.057 A 
ATOM     84  C   UNL A   1      43.993  34.485  29.505  1.00  0.00     0.134 A 
ATOM     85  C   UNL A   1      44.286  33.653  31.700  1.00  0.00     0.134 A 
ATOM     86  F   UNL A   1      43.533  34.344  28.266  1.00  0.00    -0.206 F 
ATOM     87  C   UNL A   1      44.450  35.720  30.024  1.00  0.00     0.040 A 
ATOM     88  C   UNL A   1      44.594  34.912  32.155  1.00  0.00     0.040 A 
ATOM     89  F   UNL A   1      44.204  32.643  32.560  1.00  0.00    -0.206 F 
ATOM     90  C   UNL A   1      44.596  35.986  31.309  1.00  0.00     0.006 A 
ENDBRANCH  66  83
ENDBRANCH  40  41
ENDBRANCH  32  35
ENDBRANCH  30  31
ENDBRANCH   1  30
TORSDOF 14
ENDMDL
MODEL 3
REMARK VINA RESULT:     -12.4      1.612      2.307
REMARK SMILES CCc1cc(S(F)(F)(F)(F)F)cc2c1O[C@@H](C(F)(F)F)C(C(=O)NCCCCNC(=O)c1ccc(-c3c4nc(c(-c5c(F)cccc5F)c5ccc([nH]5)c(-c5c(F)cccc5F)c5nc(c(-c6c(F)cccc6F)c6ccc3[nH]6)C=C5)C=C4)cc1)=C2
REMARK SMILES IDX 27 1 26 2 25 3 24 4 22 5 23 6 21 8 3 9 4 10 14 11 5 12 13 13
REMARK SMILES IDX 15 14 12 15 86 16 16 17 2 18 1 19 6 20 7 21 8 22 9 23 10 24
REMARK SMILES IDX 11 25 17 26 18 27 19 28 20 29 28 30 29 31 30 32 31 34 32 35
REMARK SMILES IDX 33 36 85 37 34 38 84 39 35 40 36 41 37 42 78 43 38 44 83 45
REMARK SMILES IDX 77 46 79 47 39 48 82 49 76 50 75 51 40 53 66 54 49 55 65 56
REMARK SMILES IDX 50 57 53 58 64 59 80 60 51 61 52 62 63 64 81 65 54 66 41 67
REMARK SMILES IDX 42 68 47 69 43 70 44 71 46 72 48 73 45 74 67 75 68 76 73 77
REMARK SMILES IDX 69 78 70 79 72 80 74 81 71 82 55 83 56 84 61 85 57 86 58 87
REMARK SMILES IDX 60 88 62 89 59 90
REMARK H PARENT 24 7 29 33 79 52 53 63
REMARK Flexibility Score: inf
ROOT
ATOM      1  C   UNL A   1      39.513  21.099  25.907  1.00  0.00     0.023 C 
ENDROOT
BRANCH   1   2
ATOM      2  C   UNL A   1      39.280  22.407  26.645  1.00  0.00     0.023 C 
BRANCH   2   3
ATOM      3  C   UNL A   1      38.044  23.091  26.086  1.00  0.00     0.116 C 
BRANCH   3   4
ATOM      4  N   UNL A   1      37.931  22.801  24.649  1.00  0.00    -0.352 N 
ATOM      5  C   UNL A   1      36.638  22.954  23.968  1.00  0.00     0.251 C 
ATOM      6  O   UNL A   1      36.540  22.704  22.725  1.00  0.00    -0.270 OA
ATOM      7  H   UNL A   1      38.722  22.504  24.143  1.00  0.00     0.163 HD
BRANCH   5   8
ATOM      8  C   UNL A   1      35.417  23.412  24.749  1.00  0.00     0.067 C 
ATOM      9  C   UNL A   1      31.783  24.477  26.511  1.00  0.00    -0.004 A 
ATOM     10  C   UNL A   1      31.441  25.812  26.637  1.00  0.00     0.032 A 
ATOM     11  C   UNL A   1      32.958  24.154  25.880  1.00  0.00     0.131 A 
ATOM     12  C   UNL A   1      32.254  26.797  26.141  1.00  0.00     0.108 A 
ATOM     13  C   UNL A   1      33.813  25.121  25.382  1.00  0.00     0.019 A 
ATOM     14  O   UNL A   1      33.229  22.825  25.662  1.00  0.00    -0.475 OA
ATOM     15  C   UNL A   1      33.437  26.452  25.521  1.00  0.00     0.036 A 
ATOM     16  C   UNL A   1      35.014  24.676  24.696  1.00  0.00     0.025 C 
ATOM     17  C   UNL A   1      34.629  22.432  25.608  1.00  0.00     0.314 C 
BRANCH   9  18
ATOM     18  C   UNL A   1      30.847  23.332  26.863  1.00  0.00     0.036 C 
ATOM     19  C   UNL A   1      29.413  23.836  26.876  1.00  0.00     0.009 C 
ENDBRANCH   9  18
BRANCH  12  20
ATOM     20  S   UNL A   1      31.777  28.535  26.295  1.00  0.00     0.310 S 
ATOM     21  F   UNL A   1      33.100  28.924  25.510  1.00  0.00    -0.094 F 
ATOM     22  F   UNL A   1      32.615  28.649  27.625  1.00  0.00    -0.094 F 
ATOM     23  F   UNL A   1      31.437  30.052  26.347  1.00  0.00    -0.094 F 
ATOM     24  F   UNL A   1      31.062  28.431  24.890  1.00  0.00    -0.094 F 
ATOM     25  F   UNL A   1      32.210  27.020  26.170  1.00  0.00    -0.094 F 
ENDBRANCH  12  20
BRANCH  17  26
ATOM     26  C   UNL A   1      34.732  21.044  24.997  1.00  0.00     0.429 C 
ATOM     27  F   UNL A   1      34.310  21.082  23.736  1.00  0.00    -0.167 F 
ATOM     28  F   UNL A   1      35.999  20.640  25.028  1.00  0.00    -0.167 F 
ATOM     29  F   UNL A   1      33.979  20.197  25.692  1.00  0.00    -0.167 F 
ENDBRANCH  17  26
ENDBRANCH   5   8
ENDBRANCH   3   4
ENDBRANCH   2   3
ENDBRANCH   1   2
BRANCH   1  30
ATOM     30  C   UNL A   1      40.278  20.140  26.805  1.00  0.00     0.116 C 
BRANCH  30  31
ATOM     31  N   UNL A   1      41.335  19.478  26.029  1.00  0.00    -0.352 N 
ATOM     32  C   UNL A   1      42.594  20.185  25.750  1.00  0.00     0.251 C 
ATOM     33  H   UNL A   1      41.200  18.562  25.694  1.00  0.00     0.163 HD
ATOM     34  O   UNL A   1      43.509  19.611  25.078  1.00  0.00    -0.269 OA
BRANCH  32  35
ATOM     35  C   UNL A   1      42.803  21.599  26.266  1.00  0.00     0.039 A 
ATOM     36  C   UNL A   1      42.900  21.815  27.630  1.00  0.00     0.014 A 
ATOM     37  C   UNL A   1      42.888  22.603  25.401  1.00  0.00     0.014 A 
ATOM     38  C   UNL A   1      42.798  23.176  28.004  1.00  0.00     0.010 A 
ATOM     39  C   UNL A   1      42.923  23.903  25.841  1.00  0.00     0.010 A 
ATOM     40  C   UNL A   1      42.960  24.193  27.177  1.00  0.00    -0.014 A 
BRANCH  40  41
ATOM     41  C   UNL A   1      43.176  25.610  27.684  1.00  0.00     0.031 A 
ATOM     42  C   UNL A   1      44.481  26.075  27.856  1.00  0.00     0.074 A 
ATOM     43  C   UNL A   1      42.045  26.359  27.956  1.00  0.00     0.049 A 
ATOM     44  N   UNL A   1      44.865  27.286  28.264  1.00  0.00    -0.248 NA
ATOM     45  C   UNL A   1      45.684  25.271  27.600  1.00  0.00     0.031 C 
ATOM     46  C   UNL A   1      40.724  25.900  27.777  1.00  0.00     0.029 A 
ATOM     47  N   UNL A   1      41.979  27.648  28.438  1.00  0.00    -0.354 N 
ATOM     48  C   UNL A   1      46.198  27.364  28.287  1.00  0.00     0.074 A 
ATOM     49  C   UNL A   1      46.743  26.066  27.866  1.00  0.00     0.031 C 
ATOM     50  C   UNL A   1      39.877  26.892  28.154  1.00  0.00     0.029 A 
ATOM     51  C   UNL A   1      40.652  27.989  28.577  1.00  0.00     0.049 A 
ATOM     52  H   UNL A   1      42.749  28.226  28.646  1.00  0.00     0.167 HD
ATOM     53  C   UNL A   1      46.978  28.466  28.639  1.00  0.00     0.037 A 
ATOM     54  C   UNL A   1      40.127  29.183  29.043  1.00  0.00     0.037 A 
ATOM     55  C   UNL A   1      46.452  29.675  29.065  1.00  0.00     0.049 A 
ATOM     56  C   UNL A   1      40.909  30.267  29.453  1.00  0.00     0.074 A 
ATOM     57  C   UNL A   1      47.225  30.799  29.418  1.00  0.00     0.029 A 
ATOM     58  N   UNL A   1      45.126  30.008  29.229  1.00  0.00    -0.354 N 
ATOM     59  N   UNL A   1      42.241  30.357  29.437  1.00  0.00    -0.248 NA
ATOM     60  C   UNL A   1      40.365  31.524  29.980  1.00  0.00     0.031 C 
ATOM     61  C   UNL A   1      46.376  31.791  29.796  1.00  0.00     0.029 A 
ATOM     62  C   UNL A   1      45.060  31.305  29.687  1.00  0.00     0.049 A 
ATOM     63  H   UNL A   1      44.357  29.420  29.048  1.00  0.00     0.167 HD
ATOM     64  C   UNL A   1      42.624  31.554  29.885  1.00  0.00     0.074 A 
ATOM     65  C   UNL A   1      41.424  32.320  30.248  1.00  0.00     0.031 C 
ATOM     66  C   UNL A   1      43.928  32.040  30.002  1.00  0.00     0.037 A 
BRANCH  53  67
ATOM     67  C   UNL A   1      48.489  28.332  28.550  1.00  0.00     0.057 A 
ATOM     68  C   UNL A   1      49.205  27.899  29.654  1.00  0.00     0.134 A 
ATOM     69  C   UNL A   1      49.100  28.649  27.415  1.00  0.00     0.134 A 
ATOM     70  F   UNL A   1      48.632  27.337  30.715  1.00  0.00    -0.206 F 
ATOM     71  C   UNL A   1      50.601  28.108  29.551  1.00  0.00     0.040 A 
ATOM     72  C   UNL A   1      50.472  28.701  27.349  1.00  0.00     0.040 A 
ATOM     73  F   UNL A   1      48.377  28.916  26.330  1.00  0.00    -0.206 F 
ATOM     74  C   UNL A   1      51.241  28.342  28.420  1.00  0.00     0.006 A 
ENDBRANCH  53  67
BRANCH  54  75
ATOM     75  C   UNL A   1      38.616  29.323  29.117  1.00  0.00     0.057 A 
ATOM     76  C   UNL A   1      37.907  29.695  27.987  1.00  0.00     0.134 A 
ATOM     77  C   UNL A   1      37.998  29.072  30.266  1.00  0.00     0.134 A 
ATOM     78  F   UNL A   1      38.440  29.711  26.768  1.00  0.00    -0.206 F 
ATOM     79  C   UNL A   1      36.564  30.060  28.246  1.00  0.00     0.040 A 
ATOM     80  C   UNL A   1      36.656  29.323  30.407  1.00  0.00     0.040 A 
ATOM     81  F   UNL A   1      38.687  28.572  31.288  1.00  0.00    -0.206 F 
ATOM     82  C   UNL A   1      35.903  29.751  29.347  1.00  0.00     0.006 A 
ENDBRANCH  54  75
BRANCH  66  83
ATOM     83  C   UNL A   1      44.117  33.462  30.504  1.00  0.00     0.057 A 
ATOM     84  C   UNL A   1      44.298  33.678  31.861  1.00  0.00     0.134 A 
ATOM     85  C   UNL A   1      44.108  34.472  29.641  1.00  0.00     0.134 A 
ATOM     86  F   UNL A   1      44.566  32.701  32.721  1.00  0.00    -0.206 F 
ATOM     87  C   UNL A   1      44.171  35.034  32.246  1.00  0.00     0.040 A 
ATOM     88  C   UNL A   1      44.123  35.771  30.085  1.00  0.00     0.040 A 
ATOM     89  F   UNL A   1      44.084  34.221  28.335  1.00  0.00    -0.206 F 
ATOM     90  C   UNL A   1      44.239  36.059  31.417  1.00  0.00     0.006 A 
ENDBRANCH  66  83
ENDBRANCH  40  41
ENDBRANCH  32  35
ENDBRANCH  30  31
ENDBRANCH   1  30
TORSDOF 14
ENDMDL
