MODEL 1
REMARK VINA RESULT:     -10.5      0.000      0.000
REMARK SMILES O=C(CCCNC(=O)N1CSC[C@@H]1C(=O)NCCCCNC(=O)c1ccc(-c2c3nc(c(-c4c(F)cccc4F)c4ccc([nH]4)c(-c4c(F)cccc4F)c4nc(c(-c5c(F)cccc5F)c5ccc2[nH]5)C=C4)C=C3)cc1)NC1CC1
REMARK SMILES IDX 14 1 15 2 16 3 13 5 9 6 10 7 11 8 12 9 7 10 6 11 8 13 5 14
REMARK SMILES IDX 4 15 3 16 2 17 1 18 78 19 79 21 80 22 81 23 17 24 18 25
REMARK SMILES IDX 19 26 20 27 21 28 22 29 23 31 24 32 25 33 77 34 26 35 76 36
REMARK SMILES IDX 27 37 28 38 29 39 70 40 30 41 75 42 69 43 71 44 31 45 74 46
REMARK SMILES IDX 68 47 67 48 32 50 58 51 41 52 57 53 42 54 45 55 56 56 72 57
REMARK SMILES IDX 43 58 44 59 55 61 73 62 46 63 33 64 34 65 39 66 35 67 36 68
REMARK SMILES IDX 38 69 40 70 37 71 59 72 60 73 65 74 61 75 62 76 64 77 66 78
REMARK SMILES IDX 63 79 47 80 48 81 53 82 49 83 50 84 52 85 54 86 51 87
REMARK H PARENT 16 4 6 12 78 20 21 30 71 49 45 60
REMARK Flexibility Score: inf
ROOT
ATOM      1  C   UNL A   1      32.328  24.565  26.152  1.00  0.00     0.243 C 
ATOM      2  O   UNL A   1      31.219  24.335  26.648  1.00  0.00    -0.273 OA
ATOM      3  N   UNL A   1      32.759  25.864  26.184  1.00  0.00    -0.354 N 
ATOM      4  H   UNL A   1      32.146  26.507  26.609  1.00  0.00     0.163 HD
ENDROOT
BRANCH   1   5
ATOM      5  C   UNL A   1      33.045  23.484  25.312  1.00  0.00     0.187 C 
ATOM      6  N   UNL A   1      32.507  23.222  23.968  1.00  0.00    -0.303 N 
ATOM      7  C   UNL A   1      32.735  21.863  23.535  1.00  0.00     0.192 C 
ATOM      8  S   UNL A   1      32.652  20.828  25.000  1.00  0.00    -0.138 SA
ATOM      9  C   UNL A   1      33.008  22.191  26.138  1.00  0.00     0.106 C 
BRANCH   6  10
ATOM     10  C   UNL A   1      32.506  24.245  23.064  1.00  0.00     0.318 C 
ATOM     11  N   UNL A   1      31.330  24.826  22.717  1.00  0.00    -0.338 N 
ATOM     12  H   UNL A   1      31.355  25.330  21.873  1.00  0.00     0.165 HD
ATOM     13  O   UNL A   1      33.536  24.714  22.588  1.00  0.00    -0.249 OA
BRANCH  11  14
ATOM     14  C   UNL A   1      30.037  24.826  23.389  1.00  0.00     0.118 C 
BRANCH  14  15
ATOM     15  C   UNL A   1      29.639  26.212  23.914  1.00  0.00     0.031 C 
BRANCH  15  16
ATOM     16  C   UNL A   1      30.662  27.324  23.705  1.00  0.00     0.102 C 
BRANCH  16  17
ATOM     17  C   UNL A   1      30.083  28.448  22.879  1.00  0.00     0.220 C 
ATOM     18  O   UNL A   1      30.199  28.487  21.660  1.00  0.00    -0.275 OA
ATOM     19  N   UNL A   1      29.482  29.433  23.634  1.00  0.00    -0.353 N 
ATOM     20  H   UNL A   1      29.380  29.292  24.603  1.00  0.00     0.163 HD
BRANCH  19  21
ATOM     21  C   UNL A   1      29.005  30.648  23.062  1.00  0.00     0.082 C 
ATOM     22  C   UNL A   1      27.669  31.207  23.464  1.00  0.00     0.027 C 
ATOM     23  C   UNL A   1      28.931  31.895  23.898  1.00  0.00     0.027 C 
ENDBRANCH  19  21
ENDBRANCH  16  17
ENDBRANCH  15  16
ENDBRANCH  14  15
ENDBRANCH  11  14
ENDBRANCH   6  10
ENDBRANCH   1   5
BRANCH   3  24
ATOM     24  C   UNL A   1      33.993  26.416  25.679  1.00  0.00     0.116 C 
BRANCH  24  25
ATOM     25  C   UNL A   1      33.841  27.770  25.001  1.00  0.00     0.023 C 
BRANCH  25  26
ATOM     26  C   UNL A   1      33.267  28.882  25.870  1.00  0.00     0.023 C 
BRANCH  26  27
ATOM     27  C   UNL A   1      33.732  28.898  27.323  1.00  0.00     0.116 C 
BRANCH  27  28
ATOM     28  N   UNL A   1      33.817  30.233  27.900  1.00  0.00    -0.352 N 
ATOM     29  C   UNL A   1      34.887  30.855  28.500  1.00  0.00     0.251 C 
ATOM     30  H   UNL A   1      32.990  30.766  27.855  1.00  0.00     0.163 HD
ATOM     31  O   UNL A   1      34.755  31.969  28.998  1.00  0.00    -0.269 OA
BRANCH  29  32
ATOM     32  C   UNL A   1      36.184  30.153  28.592  1.00  0.00     0.039 A 
ATOM     33  C   UNL A   1      37.060  30.216  27.505  1.00  0.00     0.014 A 
ATOM     34  C   UNL A   1      36.561  29.496  29.765  1.00  0.00     0.014 A 
ATOM     35  C   UNL A   1      38.355  29.708  27.632  1.00  0.00     0.010 A 
ATOM     36  C   UNL A   1      37.873  29.058  29.916  1.00  0.00     0.010 A 
ATOM     37  C   UNL A   1      38.787  29.173  28.856  1.00  0.00    -0.014 A 
BRANCH  37  38
ATOM     38  C   UNL A   1      40.194  28.747  29.062  1.00  0.00     0.031 A 
ATOM     39  C   UNL A   1      41.192  29.705  29.645  1.00  0.00     0.074 A 
ATOM     40  C   UNL A   1      40.593  27.530  28.642  1.00  0.00     0.049 A 
ATOM     41  N   UNL A   1      42.485  29.566  29.794  1.00  0.00    -0.248 NA
ATOM     42  C   UNL A   1      40.672  31.007  30.092  1.00  0.00     0.031 C 
ATOM     43  C   UNL A   1      39.733  26.523  28.016  1.00  0.00     0.029 A 
ATOM     44  N   UNL A   1      41.831  26.939  28.663  1.00  0.00    -0.354 N 
ATOM     45  C   UNL A   1      42.934  30.766  30.328  1.00  0.00     0.074 A 
ATOM     46  C   UNL A   1      41.784  31.638  30.436  1.00  0.00     0.031 C 
ATOM     47  C   UNL A   1      40.465  25.434  27.732  1.00  0.00     0.029 A 
ATOM     48  C   UNL A   1      41.850  25.677  28.120  1.00  0.00     0.049 A 
ATOM     49  H   UNL A   1      42.631  27.378  29.034  1.00  0.00     0.167 HD
ATOM     50  C   UNL A   1      44.187  31.103  30.714  1.00  0.00     0.037 A 
ATOM     51  C   UNL A   1      42.871  24.817  27.945  1.00  0.00     0.037 A 
ATOM     52  C   UNL A   1      45.323  30.223  30.639  1.00  0.00     0.049 A 
ATOM     53  C   UNL A   1      44.251  25.212  28.391  1.00  0.00     0.074 A 
ATOM     54  C   UNL A   1      46.621  30.454  31.060  1.00  0.00     0.029 A 
ATOM     55  N   UNL A   1      45.293  28.942  30.114  1.00  0.00    -0.354 N 
ATOM     56  N   UNL A   1      44.651  26.331  28.944  1.00  0.00    -0.248 NA
ATOM     57  C   UNL A   1      45.322  24.223  28.190  1.00  0.00     0.031 C 
ATOM     58  C   UNL A   1      47.385  29.320  30.761  1.00  0.00     0.029 A 
ATOM     59  C   UNL A   1      46.553  28.372  30.189  1.00  0.00     0.049 A 
ATOM     60  H   UNL A   1      44.495  28.501  29.743  1.00  0.00     0.167 HD
ATOM     61  C   UNL A   1      46.010  26.171  29.185  1.00  0.00     0.074 A 
ATOM     62  C   UNL A   1      46.364  24.844  28.725  1.00  0.00     0.031 C 
ATOM     63  C   UNL A   1      46.884  27.044  29.740  1.00  0.00     0.037 A 
BRANCH  50  64
ATOM     64  C   UNL A   1      44.389  32.486  31.259  1.00  0.00     0.057 A 
ATOM     65  C   UNL A   1      44.715  33.565  30.426  1.00  0.00     0.134 A 
ATOM     66  C   UNL A   1      44.237  32.746  32.626  1.00  0.00     0.134 A 
ATOM     67  F   UNL A   1      44.888  33.378  29.110  1.00  0.00    -0.206 F 
ATOM     68  C   UNL A   1      44.909  34.848  30.939  1.00  0.00     0.040 A 
ATOM     69  C   UNL A   1      44.404  34.031  33.146  1.00  0.00     0.040 A 
ATOM     70  F   UNL A   1      43.922  31.758  33.477  1.00  0.00    -0.206 F 
ATOM     71  C   UNL A   1      44.748  35.085  32.302  1.00  0.00     0.006 A 
ENDBRANCH  50  64
BRANCH  51  72
ATOM     72  C   UNL A   1      42.626  23.483  27.343  1.00  0.00     0.057 A 
ATOM     73  C   UNL A   1      42.260  22.392  28.139  1.00  0.00     0.134 A 
ATOM     74  C   UNL A   1      42.758  23.263  25.967  1.00  0.00     0.134 A 
ATOM     75  F   UNL A   1      42.138  22.539  29.467  1.00  0.00    -0.206 F 
ATOM     76  C   UNL A   1      42.051  21.126  27.593  1.00  0.00     0.040 A 
ATOM     77  C   UNL A   1      42.531  22.006  25.404  1.00  0.00     0.040 A 
ATOM     78  F   UNL A   1      43.099  24.269  25.150  1.00  0.00    -0.206 F 
ATOM     79  C   UNL A   1      42.182  20.931  26.220  1.00  0.00     0.006 A 
ENDBRANCH  51  72
BRANCH  63  80
ATOM     80  C   UNL A   1      48.298  26.580  29.919  1.00  0.00     0.057 A 
ATOM     81  C   UNL A   1      49.296  26.875  28.982  1.00  0.00     0.134 A 
ATOM     82  C   UNL A   1      48.672  25.869  31.066  1.00  0.00     0.134 A 
ATOM     83  F   UNL A   1      48.997  27.540  27.856  1.00  0.00    -0.206 F 
ATOM     84  C   UNL A   1      50.616  26.466  29.173  1.00  0.00     0.040 A 
ATOM     85  C   UNL A   1      49.993  25.473  31.278  1.00  0.00     0.040 A 
ATOM     86  F   UNL A   1      47.764  25.561  32.003  1.00  0.00    -0.206 F 
ATOM     87  C   UNL A   1      50.969  25.768  30.329  1.00  0.00     0.006 A 
ENDBRANCH  63  80
ENDBRANCH  37  38
ENDBRANCH  29  32
ENDBRANCH  27  28
ENDBRANCH  26  27
ENDBRANCH  25  26
ENDBRANCH  24  25
ENDBRANCH   3  24
TORSDOF 17
ENDMDL
MODEL 2
REMARK VINA RESULT:     -10.4      2.479      7.464
REMARK SMILES O=C(CCCNC(=O)N1CSC[C@@H]1C(=O)NCCCCNC(=O)c1ccc(-c2c3nc(c(-c4c(F)cccc4F)c4ccc([nH]4)c(-c4c(F)cccc4F)c4nc(c(-c5c(F)cccc5F)c5ccc2[nH]5)C=C4)C=C3)cc1)NC1CC1
REMARK SMILES IDX 14 1 15 2 16 3 13 5 9 6 10 7 11 8 12 9 7 10 6 11 8 13 5 14
REMARK SMILES IDX 4 15 3 16 2 17 1 18 78 19 79 21 80 22 81 23 17 24 18 25
REMARK SMILES IDX 19 26 20 27 21 28 22 29 23 31 24 32 25 33 77 34 26 35 76 36
REMARK SMILES IDX 27 37 28 38 29 39 70 40 30 41 75 42 69 43 71 44 31 45 74 46
REMARK SMILES IDX 68 47 67 48 32 50 58 51 41 52 57 53 42 54 45 55 56 56 72 57
REMARK SMILES IDX 43 58 44 59 55 61 73 62 46 63 33 64 34 65 39 66 35 67 36 68
REMARK SMILES IDX 38 69 40 70 37 71 59 72 60 73 65 74 61 75 62 76 64 77 66 78
REMARK SMILES IDX 63 79 47 80 48 81 53 82 49 83 50 84 52 85 54 86 51 87
REMARK H PARENT 16 4 6 12 78 20 21 30 71 49 45 60
REMARK Flexibility Score: inf
ROOT
ATOM      1  C   UNL A   1      33.490  23.318  22.994  1.00  0.00     0.243 C 
ATOM      2  O   UNL A   1      32.405  22.733  23.094  1.00  0.00    -0.273 OA
ATOM      3  N   UNL A   1      34.611  22.592  23.294  1.00  0.00    -0.354 N 
ATOM      4  H   UNL A   1      34.456  21.657  23.560  1.00  0.00     0.163 HD
ENDROOT
BRANCH   1   5
ATOM      5  C   UNL A   1      33.532  24.851  22.803  1.00  0.00     0.187 C 
ATOM      6  N   UNL A   1      32.932  25.669  23.867  1.00  0.00    -0.303 N 
ATOM      7  C   UNL A   1      32.414  26.925  23.375  1.00  0.00     0.192 C 
ATOM      8  S   UNL A   1      31.807  26.623  21.711  1.00  0.00    -0.138 SA
ATOM      9  C   UNL A   1      32.828  25.146  21.471  1.00  0.00     0.106 C 
BRANCH   6  10
ATOM     10  C   UNL A   1      33.462  25.585  25.122  1.00  0.00     0.318 C 
ATOM     11  N   UNL A   1      32.632  25.534  26.193  1.00  0.00    -0.338 N 
ATOM     12  H   UNL A   1      33.053  25.770  27.050  1.00  0.00     0.165 HD
ATOM     13  O   UNL A   1      34.669  25.490  25.329  1.00  0.00    -0.249 OA
BRANCH  11  14
ATOM     14  C   UNL A   1      31.220  25.187  26.284  1.00  0.00     0.118 C 
BRANCH  14  15
ATOM     15  C   UNL A   1      30.969  23.678  26.161  1.00  0.00     0.031 C 
BRANCH  15  16
ATOM     16  C   UNL A   1      31.705  22.794  27.165  1.00  0.00     0.102 C 
BRANCH  16  17
ATOM     17  C   UNL A   1      32.772  21.971  26.484  1.00  0.00     0.220 C 
ATOM     18  O   UNL A   1      33.908  22.394  26.306  1.00  0.00    -0.275 OA
ATOM     19  N   UNL A   1      32.320  20.747  26.036  1.00  0.00    -0.353 N 
ATOM     20  H   UNL A   1      31.408  20.462  26.274  1.00  0.00     0.163 HD
BRANCH  19  21
ATOM     21  C   UNL A   1      33.126  19.882  25.240  1.00  0.00     0.082 C 
ATOM     22  C   UNL A   1      32.746  18.440  25.059  1.00  0.00     0.027 C 
ATOM     23  C   UNL A   1      32.621  19.397  23.909  1.00  0.00     0.027 C 
ENDBRANCH  19  21
ENDBRANCH  16  17
ENDBRANCH  15  16
ENDBRANCH  14  15
ENDBRANCH  11  14
ENDBRANCH   6  10
ENDBRANCH   1   5
BRANCH   3  24
ATOM     24  C   UNL A   1      35.991  23.016  23.273  1.00  0.00     0.116 C 
BRANCH  24  25
ATOM     25  C   UNL A   1      36.762  22.700  24.546  1.00  0.00     0.023 C 
BRANCH  25  26
ATOM     26  C   UNL A   1      37.557  21.400  24.530  1.00  0.00     0.023 C 
BRANCH  26  27
ATOM     27  C   UNL A   1      38.389  21.114  25.777  1.00  0.00     0.116 C 
BRANCH  27  28
ATOM     28  N   UNL A   1      39.306  19.992  25.629  1.00  0.00    -0.352 N 
ATOM     29  C   UNL A   1      40.640  19.909  25.955  1.00  0.00     0.251 C 
ATOM     30  H   UNL A   1      38.916  19.176  25.239  1.00  0.00     0.163 HD
ATOM     31  O   UNL A   1      41.280  18.895  25.691  1.00  0.00    -0.269 OA
BRANCH  29  32
ATOM     32  C   UNL A   1      41.316  21.069  26.573  1.00  0.00     0.039 A 
ATOM     33  C   UNL A   1      41.907  22.023  25.741  1.00  0.00     0.014 A 
ATOM     34  C   UNL A   1      41.308  21.247  27.958  1.00  0.00     0.014 A 
ATOM     35  C   UNL A   1      42.400  23.209  26.292  1.00  0.00     0.010 A 
ATOM     36  C   UNL A   1      41.730  22.459  28.496  1.00  0.00     0.010 A 
ATOM     37  C   UNL A   1      42.266  23.457  27.667  1.00  0.00    -0.014 A 
BRANCH  37  38
ATOM     38  C   UNL A   1      42.659  24.759  28.261  1.00  0.00     0.031 A 
ATOM     39  C   UNL A   1      41.629  25.832  28.469  1.00  0.00     0.074 A 
ATOM     40  C   UNL A   1      43.956  25.009  28.528  1.00  0.00     0.049 A 
ATOM     41  N   UNL A   1      41.791  27.070  28.861  1.00  0.00    -0.248 NA
ATOM     42  C   UNL A   1      40.235  25.473  28.167  1.00  0.00     0.031 C 
ATOM     43  C   UNL A   1      45.061  24.069  28.326  1.00  0.00     0.029 A 
ATOM     44  N   UNL A   1      44.568  26.138  29.013  1.00  0.00    -0.354 N 
ATOM     45  C   UNL A   1      40.526  27.642  28.830  1.00  0.00     0.074 A 
ATOM     46  C   UNL A   1      39.615  26.631  28.339  1.00  0.00     0.031 C 
ATOM     47  C   UNL A   1      46.210  24.653  28.702  1.00  0.00     0.029 A 
ATOM     48  C   UNL A   1      45.931  26.018  29.136  1.00  0.00     0.049 A 
ATOM     49  H   UNL A   1      44.075  26.957  29.251  1.00  0.00     0.167 HD
ATOM     50  C   UNL A   1      40.154  28.892  29.198  1.00  0.00     0.037 A 
ATOM     51  C   UNL A   1      46.853  26.911  29.543  1.00  0.00     0.037 A 
ATOM     52  C   UNL A   1      41.054  29.885  29.720  1.00  0.00     0.049 A 
ATOM     53  C   UNL A   1      46.413  28.288  29.956  1.00  0.00     0.074 A 
ATOM     54  C   UNL A   1      40.762  31.159  30.174  1.00  0.00     0.029 A 
ATOM     55  N   UNL A   1      42.422  29.713  29.860  1.00  0.00    -0.354 N 
ATOM     56  N   UNL A   1      45.205  28.798  29.972  1.00  0.00    -0.248 NA
ATOM     57  C   UNL A   1      47.463  29.212  30.409  1.00  0.00     0.031 C 
ATOM     58  C   UNL A   1      41.960  31.769  30.564  1.00  0.00     0.029 A 
ATOM     59  C   UNL A   1      42.990  30.861  30.385  1.00  0.00     0.049 A 
ATOM     60  H   UNL A   1      42.916  28.895  29.623  1.00  0.00     0.167 HD
ATOM     61  C   UNL A   1      45.345  30.089  30.463  1.00  0.00     0.074 A 
ATOM     62  C   UNL A   1      46.754  30.282  30.741  1.00  0.00     0.031 C 
ATOM     63  C   UNL A   1      44.393  31.030  30.669  1.00  0.00     0.037 A 
BRANCH  50  64
ATOM     64  C   UNL A   1      38.704  29.247  29.053  1.00  0.00     0.057 A 
ATOM     65  C   UNL A   1      38.157  29.616  27.817  1.00  0.00     0.134 A 
ATOM     66  C   UNL A   1      37.841  29.201  30.155  1.00  0.00     0.134 A 
ATOM     67  F   UNL A   1      38.934  29.693  26.726  1.00  0.00    -0.206 F 
ATOM     68  C   UNL A   1      36.809  29.953  27.688  1.00  0.00     0.040 A 
ATOM     69  C   UNL A   1      36.486  29.511  30.033  1.00  0.00     0.040 A 
ATOM     70  F   UNL A   1      38.301  28.852  31.366  1.00  0.00    -0.206 F 
ATOM     71  C   UNL A   1      35.968  29.895  28.797  1.00  0.00     0.006 A 
ENDBRANCH  50  64
BRANCH  51  72
ATOM     72  C   UNL A   1      48.284  26.525  29.609  1.00  0.00     0.057 A 
ATOM     73  C   UNL A   1      48.802  25.877  30.736  1.00  0.00     0.134 A 
ATOM     74  C   UNL A   1      49.168  26.801  28.559  1.00  0.00     0.134 A 
ATOM     75  F   UNL A   1      48.007  25.605  31.782  1.00  0.00    -0.206 F 
ATOM     76  C   UNL A   1      50.150  25.530  30.825  1.00  0.00     0.040 A 
ATOM     77  C   UNL A   1      50.515  26.440  28.626  1.00  0.00     0.040 A 
ATOM     78  F   UNL A   1      48.732  27.414  27.450  1.00  0.00    -0.206 F 
ATOM     79  C   UNL A   1      51.010  25.809  29.765  1.00  0.00     0.006 A 
ENDBRANCH  51  72
BRANCH  63  80
ATOM     80  C   UNL A   1      44.832  32.336  31.258  1.00  0.00     0.057 A 
ATOM     81  C   UNL A   1      44.822  32.564  32.639  1.00  0.00     0.134 A 
ATOM     82  C   UNL A   1      45.315  33.361  30.433  1.00  0.00     0.134 A 
ATOM     83  F   UNL A   1      44.358  31.626  33.479  1.00  0.00    -0.206 F 
ATOM     84  C   UNL A   1      45.262  33.772  33.180  1.00  0.00     0.040 A 
ATOM     85  C   UNL A   1      45.778  34.564  30.964  1.00  0.00     0.040 A 
ATOM     86  F   UNL A   1      45.356  33.202  29.103  1.00  0.00    -0.206 F 
ATOM     87  C   UNL A   1      45.750  34.774  32.342  1.00  0.00     0.006 A 
ENDBRANCH  63  80
ENDBRANCH  37  38
ENDBRANCH  29  32
ENDBRANCH  27  28
ENDBRANCH  26  27
ENDBRANCH  25  26
ENDBRANCH  24  25
ENDBRANCH   3  24
TORSDOF 17
ENDMDL
MODEL 3
REMARK VINA RESULT:     -10.1      2.350      7.246
REMARK SMILES O=C(CCCNC(=O)N1CSC[C@@H]1C(=O)NCCCCNC(=O)c1ccc(-c2c3nc(c(-c4c(F)cccc4F)c4ccc([nH]4)c(-c4c(F)cccc4F)c4nc(c(-c5c(F)cccc5F)c5ccc2[nH]5)C=C4)C=C3)cc1)NC1CC1
REMARK SMILES IDX 14 1 15 2 16 3 13 5 9 6 10 7 11 8 12 9 7 10 6 11 8 13 5 14
REMARK SMILES IDX 4 15 3 16 2 17 1 18 78 19 79 21 80 22 81 23 17 24 18 25
REMARK SMILES IDX 19 26 20 27 21 28 22 29 23 31 24 32 25 33 77 34 26 35 76 36
REMARK SMILES IDX 27 37 28 38 29 39 70 40 30 41 75 42 69 43 71 44 31 45 74 46
REMARK SMILES IDX 68 47 67 48 32 50 58 51 41 52 57 53 42 54 45 55 56 56 72 57
REMARK SMILES IDX 43 58 44 59 55 61 73 62 46 63 33 64 34 65 39 66 35 67 36 68
REMARK SMILES IDX 38 69 40 70 37 71 59 72 60 73 65 74 61 75 62 76 64 77 66 78
REMARK SMILES IDX 63 79 47 80 48 81 53 82 49 83 50 84 52 85 54 86 51 87
REMARK H PARENT 16 4 6 12 78 20 21 30 71 49 45 60
REMARK Flexibility Score: inf
ROOT
ATOM      1  C   UNL A   1      34.460  21.160  25.792  1.00  0.00     0.243 C 
ATOM      2  O   UNL A   1      33.849  20.939  26.843  1.00  0.00    -0.273 OA
ATOM      3  N   UNL A   1      35.343  22.206  25.802  1.00  0.00    -0.354 N 
ATOM      4  H   UNL A   1      35.421  22.692  26.655  1.00  0.00     0.163 HD
ENDROOT
BRANCH   1   5
ATOM      5  C   UNL A   1      34.036  20.457  24.482  1.00  0.00     0.187 C 
ATOM      6  N   UNL A   1      32.689  20.757  23.974  1.00  0.00    -0.303 N 
ATOM      7  C   UNL A   1      32.126  19.661  23.219  1.00  0.00     0.192 C 
ATOM      8  S   UNL A   1      32.734  18.145  23.967  1.00  0.00    -0.138 SA
ATOM      9  C   UNL A   1      34.164  18.948  24.734  1.00  0.00     0.106 C 
BRANCH   6  10
ATOM     10  C   UNL A   1      32.399  22.048  23.639  1.00  0.00     0.318 C 
ATOM     11  N   UNL A   1      31.481  22.733  24.365  1.00  0.00    -0.338 N 
ATOM     12  H   UNL A   1      31.107  23.523  23.912  1.00  0.00     0.165 HD
ATOM     13  O   UNL A   1      32.980  22.649  22.739  1.00  0.00    -0.249 OA
BRANCH  11  14
ATOM     14  C   UNL A   1      30.959  22.494  25.703  1.00  0.00     0.118 C 
BRANCH  14  15
ATOM     15  C   UNL A   1      30.904  23.768  26.557  1.00  0.00     0.031 C 
BRANCH  15  16
ATOM     16  C   UNL A   1      30.887  25.087  25.789  1.00  0.00     0.102 C 
BRANCH  16  17
ATOM     17  C   UNL A   1      32.062  25.954  26.173  1.00  0.00     0.220 C 
ATOM     18  O   UNL A   1      33.217  25.546  26.123  1.00  0.00    -0.275 OA
ATOM     19  N   UNL A   1      31.698  27.200  26.638  1.00  0.00    -0.353 N 
ATOM     20  H   UNL A   1      30.752  27.467  26.589  1.00  0.00     0.163 HD
BRANCH  19  21
ATOM     21  C   UNL A   1      32.644  28.114  27.189  1.00  0.00     0.082 C 
ATOM     22  C   UNL A   1      33.428  29.030  26.293  1.00  0.00     0.027 C 
ATOM     23  C   UNL A   1      32.355  29.590  27.180  1.00  0.00     0.027 C 
ENDBRANCH  19  21
ENDBRANCH  16  17
ENDBRANCH  15  16
ENDBRANCH  14  15
ENDBRANCH  11  14
ENDBRANCH   6  10
ENDBRANCH   1   5
BRANCH   3  24
ATOM     24  C   UNL A   1      36.176  22.692  24.727  1.00  0.00     0.116 C 
BRANCH  24  25
ATOM     25  C   UNL A   1      37.660  22.415  24.912  1.00  0.00     0.023 C 
BRANCH  25  26
ATOM     26  C   UNL A   1      38.056  20.943  24.958  1.00  0.00     0.023 C 
BRANCH  26  27
ATOM     27  C   UNL A   1      38.859  20.508  26.180  1.00  0.00     0.116 C 
BRANCH  27  28
ATOM     28  N   UNL A   1      39.912  19.547  25.881  1.00  0.00    -0.352 N 
ATOM     29  C   UNL A   1      41.275  19.682  26.009  1.00  0.00     0.251 C 
ATOM     30  H   UNL A   1      39.604  18.677  25.539  1.00  0.00     0.163 HD
ATOM     31  O   UNL A   1      42.023  18.781  25.639  1.00  0.00    -0.269 OA
BRANCH  29  32
ATOM     32  C   UNL A   1      41.840  20.938  26.543  1.00  0.00     0.039 A 
ATOM     33  C   UNL A   1      42.258  21.922  25.643  1.00  0.00     0.014 A 
ATOM     34  C   UNL A   1      41.894  21.171  27.919  1.00  0.00     0.014 A 
ATOM     35  C   UNL A   1      42.634  23.180  26.120  1.00  0.00     0.010 A 
ATOM     36  C   UNL A   1      42.197  22.446  28.388  1.00  0.00     0.010 A 
ATOM     37  C   UNL A   1      42.554  23.467  27.493  1.00  0.00    -0.014 A 
BRANCH  37  38
ATOM     38  C   UNL A   1      42.820  24.830  28.016  1.00  0.00     0.031 A 
ATOM     39  C   UNL A   1      44.206  25.209  28.453  1.00  0.00     0.074 A 
ATOM     40  C   UNL A   1      41.800  25.695  28.181  1.00  0.00     0.049 A 
ATOM     41  N   UNL A   1      44.617  26.303  29.043  1.00  0.00    -0.248 NA
ATOM     42  C   UNL A   1      45.265  24.215  28.224  1.00  0.00     0.031 C 
ATOM     43  C   UNL A   1      40.400  25.432  27.840  1.00  0.00     0.029 A 
ATOM     44  N   UNL A   1      41.781  26.967  28.694  1.00  0.00    -0.354 N 
ATOM     45  C   UNL A   1      45.973  26.118  29.276  1.00  0.00     0.074 A 
ATOM     46  C   UNL A   1      46.306  24.791  28.805  1.00  0.00     0.031 C 
ATOM     47  C   UNL A   1      39.664  26.515  28.135  1.00  0.00     0.029 A 
ATOM     48  C   UNL A   1      40.530  27.534  28.719  1.00  0.00     0.049 A 
ATOM     49  H   UNL A   1      42.589  27.431  29.014  1.00  0.00     0.167 HD
ATOM     50  C   UNL A   1      46.865  26.983  29.815  1.00  0.00     0.037 A 
ATOM     51  C   UNL A   1      40.125  28.736  29.171  1.00  0.00     0.037 A 
ATOM     52  C   UNL A   1      46.540  28.315  30.250  1.00  0.00     0.049 A 
ATOM     53  C   UNL A   1      41.136  29.683  29.755  1.00  0.00     0.074 A 
ATOM     54  C   UNL A   1      47.386  29.287  30.755  1.00  0.00     0.029 A 
ATOM     55  N   UNL A   1      45.268  28.863  30.228  1.00  0.00    -0.354 N 
ATOM     56  N   UNL A   1      42.426  29.514  29.919  1.00  0.00    -0.248 NA
ATOM     57  C   UNL A   1      40.637  30.988  30.213  1.00  0.00     0.031 C 
ATOM     58  C   UNL A   1      46.619  30.415  31.065  1.00  0.00     0.029 A 
ATOM     59  C   UNL A   1      45.303  30.157  30.719  1.00  0.00     0.049 A 
ATOM     60  H   UNL A   1      44.459  28.402  29.908  1.00  0.00     0.167 HD
ATOM     61  C   UNL A   1      42.896  30.698  30.472  1.00  0.00     0.074 A 
ATOM     62  C   UNL A   1      41.755  31.581  30.607  1.00  0.00     0.031 C 
ATOM     63  C   UNL A   1      44.160  31.026  30.832  1.00  0.00     0.037 A 
BRANCH  50  64
ATOM     64  C   UNL A   1      48.281  26.510  29.954  1.00  0.00     0.057 A 
ATOM     65  C   UNL A   1      48.719  25.821  31.093  1.00  0.00     0.134 A 
ATOM     66  C   UNL A   1      49.214  26.730  28.932  1.00  0.00     0.134 A 
ATOM     67  F   UNL A   1      47.878  25.592  32.112  1.00  0.00    -0.206 F 
ATOM     68  C   UNL A   1      50.040  25.390  31.222  1.00  0.00     0.040 A 
ATOM     69  C   UNL A   1      50.531  26.281  29.040  1.00  0.00     0.040 A 
ATOM     70  F   UNL A   1      48.859  27.381  27.815  1.00  0.00    -0.206 F 
ATOM     71  C   UNL A   1      50.948  25.615  30.190  1.00  0.00     0.006 A 
ENDBRANCH  50  64
BRANCH  51  72
ATOM     72  C   UNL A   1      38.698  29.129  29.064  1.00  0.00     0.057 A 
ATOM     73  C   UNL A   1      37.850  29.060  30.175  1.00  0.00     0.134 A 
ATOM     74  C   UNL A   1      38.146  29.570  27.856  1.00  0.00     0.134 A 
ATOM     75  F   UNL A   1      38.318  28.625  31.355  1.00  0.00    -0.206 F 
ATOM     76  C   UNL A   1      36.500  29.401  30.087  1.00  0.00     0.040 A 
ATOM     77  C   UNL A   1      36.802  29.935  27.758  1.00  0.00     0.040 A 
ATOM     78  F   UNL A   1      38.908  29.664  26.758  1.00  0.00    -0.206 F 
ATOM     79  C   UNL A   1      35.973  29.843  28.875  1.00  0.00     0.006 A 
ENDBRANCH  51  72
BRANCH  63  80
ATOM     80  C   UNL A   1      44.385  32.408  31.368  1.00  0.00     0.057 A 
ATOM     81  C   UNL A   1      44.339  32.684  32.739  1.00  0.00     0.134 A 
ATOM     82  C   UNL A   1      44.697  33.463  30.501  1.00  0.00     0.134 A 
ATOM     83  F   UNL A   1      44.030  31.719  33.618  1.00  0.00    -0.206 F 
ATOM     84  C   UNL A   1      44.581  33.967  33.231  1.00  0.00     0.040 A 
ATOM     85  C   UNL A   1      44.963  34.745  30.983  1.00  0.00     0.040 A 
ATOM     86  F   UNL A   1      44.763  33.261  29.178  1.00  0.00    -0.206 F 
ATOM     87  C   UNL A   1      44.902  35.002  32.351  1.00  0.00     0.006 A 
ENDBRANCH  63  80
ENDBRANCH  37  38
ENDBRANCH  29  32
ENDBRANCH  27  28
ENDBRANCH  26  27
ENDBRANCH  25  26
ENDBRANCH  24  25
ENDBRANCH   3  24
TORSDOF 17
ENDMDL
