MODEL 1
REMARK VINA RESULT:     -11.3      0.000      0.000
REMARK SMILES Cc1csc(C[NH2+]C[C@H]2CCC[C@H]2C(=O)NCCCCNC(=O)c2ccc(-c3c4nc(c(-c5c(F)cccc5F)c5ccc([nH]5)c(-c5c(F)cccc5F)c5nc(c(-c6c(F)cccc6F)c6ccc3[nH]6)C=C5)C=C4)cc2)n1
REMARK SMILES IDX 17 1 16 2 14 3 15 4 13 6 9 7 10 8 11 9 12 10 8 11 7 12 6 15
REMARK SMILES IDX 5 16 1 17 2 18 3 19 78 20 4 21 18 22 19 23 20 24 21 25 22 26
REMARK SMILES IDX 23 28 24 29 25 30 77 31 26 32 76 33 27 34 28 35 29 36 70 37
REMARK SMILES IDX 30 38 75 39 69 40 71 41 31 42 74 43 68 44 67 45 32 47 58 48
REMARK SMILES IDX 41 49 57 50 42 51 45 52 56 53 72 54 43 55 44 56 55 58 73 59
REMARK SMILES IDX 46 60 33 61 34 62 39 63 35 64 36 65 38 66 40 67 37 68 59 69
REMARK SMILES IDX 60 70 65 71 61 72 62 73 64 74 66 75 63 76 47 77 48 78 53 79
REMARK SMILES IDX 49 80 50 81 52 82 54 83 51 84
REMARK H PARENT 16 5 7 13 7 14 21 27 71 46 45 57
REMARK Flexibility Score: inf
ROOT
ATOM      1  C   UNL A   1      37.465  21.912  25.396  1.00  0.00     0.116 C 
ENDROOT
BRANCH   1   2
ATOM      2  N   UNL A   1      36.325  22.229  26.237  1.00  0.00    -0.356 N 
ATOM      3  C   UNL A   1      35.264  23.062  26.099  1.00  0.00     0.223 C 
ATOM      4  O   UNL A   1      34.539  23.175  27.096  1.00  0.00    -0.275 OA
ATOM      5  H   UNL A   1      36.322  21.736  27.089  1.00  0.00     0.163 HD
BRANCH   3   6
ATOM      6  C   UNL A   1      34.907  23.848  24.835  1.00  0.00     0.087 C 
ATOM      7  C   UNL A   1      34.224  23.124  23.644  1.00  0.00     0.057 C 
ATOM      8  C   UNL A   1      33.710  24.311  22.822  1.00  0.00     0.010 C 
ATOM      9  C   UNL A   1      33.183  25.285  23.867  1.00  0.00     0.001 C 
ATOM     10  C   UNL A   1      34.172  25.183  25.026  1.00  0.00     0.014 C 
BRANCH   7  11
ATOM     11  C   UNL A   1      33.125  22.152  24.070  1.00  0.00     0.265 C 
BRANCH  11  12
ATOM     12  N   UNL A   1      33.447  20.754  24.253  1.00  0.00    -0.340 N 
ATOM     13  H   UNL A   1      33.833  20.404  23.377  1.00  0.00     0.346 HD
ATOM     14  H   UNL A   1      34.100  20.720  25.037  1.00  0.00     0.346 HD
BRANCH  12  15
ATOM     15  C   UNL A   1      32.332  19.893  24.628  1.00  0.00     0.329 C 
BRANCH  15  16
ATOM     16  C   UNL A   1      32.851  18.493  24.842  1.00  0.00     0.147 A 
ATOM     17  C   UNL A   1      32.176  15.078  25.752  1.00  0.00     0.067 C 
ATOM     18  C   UNL A   1      32.840  16.317  25.276  1.00  0.00     0.049 A 
ATOM     19  C   UNL A   1      34.091  16.422  24.700  1.00  0.00     0.090 A 
ATOM     20  N   UNL A   1      32.153  17.513  25.381  1.00  0.00    -0.241 NA
ATOM     21  S   UNL A   1      34.407  18.046  24.258  1.00  0.00    -0.121 S 
ENDBRANCH  15  16
ENDBRANCH  12  15
ENDBRANCH  11  12
ENDBRANCH   7  11
ENDBRANCH   3   6
ENDBRANCH   1   2
BRANCH   1  22
ATOM     22  C   UNL A   1      37.234  20.609  24.623  1.00  0.00     0.023 C 
BRANCH  22  23
ATOM     23  C   UNL A   1      38.142  19.451  25.002  1.00  0.00     0.023 C 
BRANCH  23  24
ATOM     24  C   UNL A   1      39.364  19.851  25.805  1.00  0.00     0.116 C 
BRANCH  24  25
ATOM     25  N   UNL A   1      40.442  18.875  25.754  1.00  0.00    -0.352 N 
ATOM     26  C   UNL A   1      41.789  19.074  25.950  1.00  0.00     0.251 C 
ATOM     27  H   UNL A   1      40.172  17.951  25.551  1.00  0.00     0.163 HD
ATOM     28  O   UNL A   1      42.587  18.167  25.779  1.00  0.00    -0.269 OA
BRANCH  26  29
ATOM     29  C   UNL A   1      42.258  20.421  26.335  1.00  0.00     0.039 A 
ATOM     30  C   UNL A   1      42.624  21.318  25.331  1.00  0.00     0.014 A 
ATOM     31  C   UNL A   1      42.279  20.807  27.678  1.00  0.00     0.014 A 
ATOM     32  C   UNL A   1      42.964  22.626  25.676  1.00  0.00     0.010 A 
ATOM     33  C   UNL A   1      42.508  22.134  28.007  1.00  0.00     0.010 A 
ATOM     34  C   UNL A   1      42.879  23.050  27.013  1.00  0.00    -0.014 A 
BRANCH  34  35
ATOM     35  C   UNL A   1      43.230  24.435  27.400  1.00  0.00     0.031 A 
ATOM     36  C   UNL A   1      44.666  24.880  27.348  1.00  0.00     0.074 A 
ATOM     37  C   UNL A   1      42.270  25.273  27.839  1.00  0.00     0.049 A 
ATOM     38  N   UNL A   1      45.188  26.034  27.672  1.00  0.00    -0.248 NA
ATOM     39  C   UNL A   1      45.656  23.880  26.908  1.00  0.00     0.031 C 
ATOM     40  C   UNL A   1      40.854  24.934  27.996  1.00  0.00     0.029 A 
ATOM     41  N   UNL A   1      42.344  26.583  28.232  1.00  0.00    -0.354 N 
ATOM     42  C   UNL A   1      46.557  25.892  27.489  1.00  0.00     0.074 A 
ATOM     43  C   UNL A   1      46.796  24.522  27.101  1.00  0.00     0.031 C 
ATOM     44  C   UNL A   1      40.186  26.022  28.413  1.00  0.00     0.029 A 
ATOM     45  C   UNL A   1      41.129  27.123  28.581  1.00  0.00     0.049 A 
ATOM     46  H   UNL A   1      43.187  27.092  28.262  1.00  0.00     0.167 HD
ATOM     47  C   UNL A   1      47.527  26.830  27.597  1.00  0.00     0.037 A 
ATOM     48  C   UNL A   1      40.816  28.369  28.982  1.00  0.00     0.037 A 
ATOM     49  C   UNL A   1      47.278  28.202  27.943  1.00  0.00     0.049 A 
ATOM     50  C   UNL A   1      41.909  29.398  29.076  1.00  0.00     0.074 A 
ATOM     51  C   UNL A   1      48.177  29.251  28.017  1.00  0.00     0.029 A 
ATOM     52  N   UNL A   1      46.030  28.716  28.267  1.00  0.00    -0.354 N 
ATOM     53  N   UNL A   1      43.189  29.271  28.825  1.00  0.00    -0.248 NA
ATOM     54  C   UNL A   1      41.510  30.747  29.500  1.00  0.00     0.031 C 
ATOM     55  C   UNL A   1      47.478  30.393  28.423  1.00  0.00     0.029 A 
ATOM     56  C   UNL A   1      46.138  30.064  28.560  1.00  0.00     0.049 A 
ATOM     57  H   UNL A   1      45.194  28.198  28.287  1.00  0.00     0.167 HD
ATOM     58  C   UNL A   1      43.746  30.526  29.036  1.00  0.00     0.074 A 
ATOM     59  C   UNL A   1      42.658  31.404  29.416  1.00  0.00     0.031 C 
ATOM     60  C   UNL A   1      45.039  30.917  28.930  1.00  0.00     0.037 A 
BRANCH  47  61
ATOM     61  C   UNL A   1      48.937  26.399  27.318  1.00  0.00     0.057 A 
ATOM     62  C   UNL A   1      49.474  26.422  26.023  1.00  0.00     0.134 A 
ATOM     63  C   UNL A   1      49.774  25.968  28.354  1.00  0.00     0.134 A 
ATOM     64  F   UNL A   1      48.719  26.808  24.982  1.00  0.00    -0.206 F 
ATOM     65  C   UNL A   1      50.780  26.006  25.764  1.00  0.00     0.040 A 
ATOM     66  C   UNL A   1      51.092  25.577  28.112  1.00  0.00     0.040 A 
ATOM     67  F   UNL A   1      49.326  25.921  29.618  1.00  0.00    -0.206 F 
ATOM     68  C   UNL A   1      51.596  25.588  26.812  1.00  0.00     0.006 A 
ENDBRANCH  47  61
BRANCH  48  69
ATOM     69  C   UNL A   1      39.407  28.726  29.283  1.00  0.00     0.057 A 
ATOM     70  C   UNL A   1      38.567  29.245  28.290  1.00  0.00     0.134 A 
ATOM     71  C   UNL A   1      38.869  28.571  30.565  1.00  0.00     0.134 A 
ATOM     72  F   UNL A   1      39.030  29.433  27.046  1.00  0.00    -0.206 F 
ATOM     73  C   UNL A   1      37.251  29.620  28.566  1.00  0.00     0.040 A 
ATOM     74  C   UNL A   1      37.546  28.918  30.850  1.00  0.00     0.040 A 
ATOM     75  F   UNL A   1      39.617  28.071  31.559  1.00  0.00    -0.206 F 
ATOM     76  C   UNL A   1      36.736  29.453  29.850  1.00  0.00     0.006 A 
ENDBRANCH  48  69
BRANCH  60  77
ATOM     77  C   UNL A   1      45.338  32.362  29.203  1.00  0.00     0.057 A 
ATOM     78  C   UNL A   1      45.717  32.807  30.475  1.00  0.00     0.134 A 
ATOM     79  C   UNL A   1      45.281  33.308  28.173  1.00  0.00     0.134 A 
ATOM     80  F   UNL A   1      45.779  31.950  31.506  1.00  0.00    -0.206 F 
ATOM     81  C   UNL A   1      46.005  34.150  30.719  1.00  0.00     0.040 A 
ATOM     82  C   UNL A   1      45.593  34.649  28.398  1.00  0.00     0.040 A 
ATOM     83  F   UNL A   1      44.934  32.943  26.930  1.00  0.00    -0.206 F 
ATOM     84  C   UNL A   1      45.950  35.075  29.676  1.00  0.00     0.006 A 
ENDBRANCH  60  77
ENDBRANCH  34  35
ENDBRANCH  26  29
ENDBRANCH  24  25
ENDBRANCH  23  24
ENDBRANCH  22  23
ENDBRANCH   1  22
TORSDOF 15
ENDMDL
MODEL 2
REMARK VINA RESULT:     -11.2      5.885     10.833
REMARK SMILES Cc1csc(C[NH2+]C[C@H]2CCC[C@H]2C(=O)NCCCCNC(=O)c2ccc(-c3c4nc(c(-c5c(F)cccc5F)c5ccc([nH]5)c(-c5c(F)cccc5F)c5nc(c(-c6c(F)cccc6F)c6ccc3[nH]6)C=C5)C=C4)cc2)n1
REMARK SMILES IDX 17 1 16 2 14 3 15 4 13 6 9 7 10 8 11 9 12 10 8 11 7 12 6 15
REMARK SMILES IDX 5 16 1 17 2 18 3 19 78 20 4 21 18 22 19 23 20 24 21 25 22 26
REMARK SMILES IDX 23 28 24 29 25 30 77 31 26 32 76 33 27 34 28 35 29 36 70 37
REMARK SMILES IDX 30 38 75 39 69 40 71 41 31 42 74 43 68 44 67 45 32 47 58 48
REMARK SMILES IDX 41 49 57 50 42 51 45 52 56 53 72 54 43 55 44 56 55 58 73 59
REMARK SMILES IDX 46 60 33 61 34 62 39 63 35 64 36 65 38 66 40 67 37 68 59 69
REMARK SMILES IDX 60 70 65 71 61 72 62 73 64 74 66 75 63 76 47 77 48 78 53 79
REMARK SMILES IDX 49 80 50 81 52 82 54 83 51 84
REMARK H PARENT 16 5 7 13 7 14 21 27 71 46 45 57
REMARK Flexibility Score: inf
ROOT
ATOM      1  C   UNL A   1      33.282  30.208  26.735  1.00  0.00     0.116 C 
ENDROOT
BRANCH   1   2
ATOM      2  N   UNL A   1      33.608  29.627  25.445  1.00  0.00    -0.356 N 
ATOM      3  C   UNL A   1      33.645  28.355  24.974  1.00  0.00     0.223 C 
ATOM      4  O   UNL A   1      34.101  28.221  23.832  1.00  0.00    -0.275 OA
ATOM      5  H   UNL A   1      33.855  30.298  24.768  1.00  0.00     0.163 HD
BRANCH   3   6
ATOM      6  C   UNL A   1      33.174  27.111  25.733  1.00  0.00     0.087 C 
ATOM      7  C   UNL A   1      31.659  26.788  25.817  1.00  0.00     0.057 C 
ATOM      8  C   UNL A   1      31.686  25.327  26.281  1.00  0.00     0.010 C 
ATOM      9  C   UNL A   1      32.823  24.706  25.482  1.00  0.00     0.001 C 
ATOM     10  C   UNL A   1      33.895  25.791  25.424  1.00  0.00     0.014 C 
BRANCH   7  11
ATOM     11  C   UNL A   1      30.915  26.999  24.499  1.00  0.00     0.265 C 
BRANCH  11  12
ATOM     12  N   UNL A   1      30.771  28.337  23.973  1.00  0.00    -0.340 N 
ATOM     13  H   UNL A   1      30.094  28.832  24.552  1.00  0.00     0.346 HD
ATOM     14  H   UNL A   1      31.707  28.744  23.990  1.00  0.00     0.346 HD
BRANCH  12  15
ATOM     15  C   UNL A   1      30.326  28.427  22.587  1.00  0.00     0.329 C 
BRANCH  15  16
ATOM     16  C   UNL A   1      29.652  29.760  22.380  1.00  0.00     0.147 A 
ATOM     17  C   UNL A   1      27.855  31.979  20.190  1.00  0.00     0.067 C 
ATOM     18  C   UNL A   1      28.496  31.370  21.382  1.00  0.00     0.049 A 
ATOM     19  C   UNL A   1      28.435  31.827  22.684  1.00  0.00     0.090 A 
ATOM     20  N   UNL A   1      29.222  30.205  21.215  1.00  0.00    -0.241 NA
ATOM     21  S   UNL A   1      29.282  30.764  23.727  1.00  0.00    -0.121 S 
ENDBRANCH  15  16
ENDBRANCH  12  15
ENDBRANCH  11  12
ENDBRANCH   7  11
ENDBRANCH   3   6
ENDBRANCH   1   2
BRANCH   1  22
ATOM     22  C   UNL A   1      31.798  30.580  26.813  1.00  0.00     0.023 C 
BRANCH  22  23
ATOM     23  C   UNL A   1      31.495  32.070  26.844  1.00  0.00     0.023 C 
BRANCH  23  24
ATOM     24  C   UNL A   1      32.706  32.949  27.094  1.00  0.00     0.116 C 
BRANCH  24  25
ATOM     25  N   UNL A   1      32.374  34.257  27.637  1.00  0.00    -0.352 N 
ATOM     26  C   UNL A   1      33.007  34.953  28.641  1.00  0.00     0.251 C 
ATOM     27  H   UNL A   1      31.595  34.702  27.234  1.00  0.00     0.163 HD
ATOM     28  O   UNL A   1      32.551  36.007  29.055  1.00  0.00    -0.269 OA
BRANCH  26  29
ATOM     29  C   UNL A   1      34.230  34.381  29.238  1.00  0.00     0.039 A 
ATOM     30  C   UNL A   1      34.110  33.552  30.354  1.00  0.00     0.014 A 
ATOM     31  C   UNL A   1      35.480  34.622  28.661  1.00  0.00     0.014 A 
ATOM     32  C   UNL A   1      35.246  32.920  30.859  1.00  0.00     0.010 A 
ATOM     33  C   UNL A   1      36.585  33.907  29.095  1.00  0.00     0.010 A 
ATOM     34  C   UNL A   1      36.486  33.070  30.215  1.00  0.00    -0.014 A 
BRANCH  34  35
ATOM     35  C   UNL A   1      37.703  32.404  30.732  1.00  0.00     0.031 A 
ATOM     36  C   UNL A   1      38.369  32.934  31.972  1.00  0.00     0.074 A 
ATOM     37  C   UNL A   1      38.229  31.359  30.065  1.00  0.00     0.049 A 
ATOM     38  N   UNL A   1      39.455  32.518  32.570  1.00  0.00    -0.248 NA
ATOM     39  C   UNL A   1      37.754  34.114  32.605  1.00  0.00     0.031 C 
ATOM     40  C   UNL A   1      37.710  30.799  28.815  1.00  0.00     0.029 A 
ATOM     41  N   UNL A   1      39.322  30.581  30.348  1.00  0.00    -0.354 N 
ATOM     42  C   UNL A   1      39.656  33.390  33.632  1.00  0.00     0.074 A 
ATOM     43  C   UNL A   1      38.629  34.402  33.554  1.00  0.00     0.031 C 
ATOM     44  C   UNL A   1      38.459  29.741  28.463  1.00  0.00     0.029 A 
ATOM     45  C   UNL A   1      39.527  29.568  29.442  1.00  0.00     0.049 A 
ATOM     46  H   UNL A   1      39.904  30.732  31.127  1.00  0.00     0.167 HD
ATOM     47  C   UNL A   1      40.590  33.332  34.609  1.00  0.00     0.037 A 
ATOM     48  C   UNL A   1      40.467  28.606  29.415  1.00  0.00     0.037 A 
ATOM     49  C   UNL A   1      41.584  32.298  34.705  1.00  0.00     0.049 A 
ATOM     50  C   UNL A   1      41.483  28.551  30.523  1.00  0.00     0.074 A 
ATOM     51  C   UNL A   1      42.538  32.105  35.688  1.00  0.00     0.029 A 
ATOM     52  N   UNL A   1      41.746  31.276  33.780  1.00  0.00    -0.354 N 
ATOM     53  N   UNL A   1      41.615  29.337  31.564  1.00  0.00    -0.248 NA
ATOM     54  C   UNL A   1      42.475  27.470  30.455  1.00  0.00     0.031 C 
ATOM     55  C   UNL A   1      43.301  30.986  35.338  1.00  0.00     0.029 A 
ATOM     56  C   UNL A   1      42.796  30.459  34.161  1.00  0.00     0.049 A 
ATOM     57  H   UNL A   1      41.196  31.152  32.973  1.00  0.00     0.167 HD
ATOM     58  C   UNL A   1      42.687  28.832  32.289  1.00  0.00     0.074 A 
ATOM     59  C   UNL A   1      43.155  27.660  31.576  1.00  0.00     0.031 C 
ATOM     60  C   UNL A   1      43.238  29.296  33.437  1.00  0.00     0.037 A 
BRANCH  47  61
ATOM     61  C   UNL A   1      40.562  34.406  35.656  1.00  0.00     0.057 A 
ATOM     62  C   UNL A   1      39.802  34.277  36.826  1.00  0.00     0.134 A 
ATOM     63  C   UNL A   1      41.311  35.579  35.501  1.00  0.00     0.134 A 
ATOM     64  F   UNL A   1      39.046  33.185  37.029  1.00  0.00    -0.206 F 
ATOM     65  C   UNL A   1      39.764  35.285  37.790  1.00  0.00     0.040 A 
ATOM     66  C   UNL A   1      41.305  36.582  36.472  1.00  0.00     0.040 A 
ATOM     67  F   UNL A   1      42.062  35.769  34.406  1.00  0.00    -0.206 F 
ATOM     68  C   UNL A   1      40.523  36.439  37.618  1.00  0.00     0.006 A 
ENDBRANCH  47  61
BRANCH  48  69
ATOM     69  C   UNL A   1      40.469  27.592  28.331  1.00  0.00     0.057 A 
ATOM     70  C   UNL A   1      41.162  27.816  27.136  1.00  0.00     0.134 A 
ATOM     71  C   UNL A   1      39.772  26.384  28.455  1.00  0.00     0.134 A 
ATOM     72  F   UNL A   1      41.834  28.961  26.950  1.00  0.00    -0.206 F 
ATOM     73  C   UNL A   1      41.143  26.888  26.092  1.00  0.00     0.040 A 
ATOM     74  C   UNL A   1      39.765  25.436  27.429  1.00  0.00     0.040 A 
ATOM     75  F   UNL A   1      39.096  26.104  29.578  1.00  0.00    -0.206 F 
ATOM     76  C   UNL A   1      40.445  25.692  26.240  1.00  0.00     0.006 A 
ENDBRANCH  48  69
BRANCH  60  77
ATOM     77  C   UNL A   1      44.390  28.518  34.003  1.00  0.00     0.057 A 
ATOM     78  C   UNL A   1      45.717  28.839  33.694  1.00  0.00     0.134 A 
ATOM     79  C   UNL A   1      44.166  27.461  34.894  1.00  0.00     0.134 A 
ATOM     80  F   UNL A   1      45.996  29.833  32.838  1.00  0.00    -0.206 F 
ATOM     81  C   UNL A   1      46.783  28.118  34.233  1.00  0.00     0.040 A 
ATOM     82  C   UNL A   1      45.224  26.751  35.460  1.00  0.00     0.040 A 
ATOM     83  F   UNL A   1      42.917  27.111  35.237  1.00  0.00    -0.206 F 
ATOM     84  C   UNL A   1      46.538  27.074  35.126  1.00  0.00     0.006 A 
ENDBRANCH  60  77
ENDBRANCH  34  35
ENDBRANCH  26  29
ENDBRANCH  24  25
ENDBRANCH  23  24
ENDBRANCH  22  23
ENDBRANCH   1  22
TORSDOF 15
ENDMDL
MODEL 3
REMARK VINA RESULT:     -10.9      0.569      6.316
REMARK SMILES Cc1csc(C[NH2+]C[C@H]2CCC[C@H]2C(=O)NCCCCNC(=O)c2ccc(-c3c4nc(c(-c5c(F)cccc5F)c5ccc([nH]5)c(-c5c(F)cccc5F)c5nc(c(-c6c(F)cccc6F)c6ccc3[nH]6)C=C5)C=C4)cc2)n1
REMARK SMILES IDX 17 1 16 2 14 3 15 4 13 6 9 7 10 8 11 9 12 10 8 11 7 12 6 15
REMARK SMILES IDX 5 16 1 17 2 18 3 19 78 20 4 21 18 22 19 23 20 24 21 25 22 26
REMARK SMILES IDX 23 28 24 29 25 30 77 31 26 32 76 33 27 34 28 35 29 36 70 37
REMARK SMILES IDX 30 38 75 39 69 40 71 41 31 42 74 43 68 44 67 45 32 47 58 48
REMARK SMILES IDX 41 49 57 50 42 51 45 52 56 53 72 54 43 55 44 56 55 58 73 59
REMARK SMILES IDX 46 60 33 61 34 62 39 63 35 64 36 65 38 66 40 67 37 68 59 69
REMARK SMILES IDX 60 70 65 71 61 72 62 73 64 74 66 75 63 76 47 77 48 78 53 79
REMARK SMILES IDX 49 80 50 81 52 82 54 83 51 84
REMARK H PARENT 16 5 7 13 7 14 21 27 71 46 45 57
REMARK Flexibility Score: inf
ROOT
ATOM      1  C   UNL A   1      37.255  22.284  25.626  1.00  0.00     0.116 C 
ENDROOT
BRANCH   1   2
ATOM      2  N   UNL A   1      36.064  22.430  26.442  1.00  0.00    -0.356 N 
ATOM      3  C   UNL A   1      34.885  23.078  26.270  1.00  0.00     0.223 C 
ATOM      4  O   UNL A   1      34.134  23.093  27.254  1.00  0.00    -0.275 OA
ATOM      5  H   UNL A   1      36.125  21.960  27.305  1.00  0.00     0.163 HD
BRANCH   3   6
ATOM      6  C   UNL A   1      34.430  23.770  24.983  1.00  0.00     0.087 C 
ATOM      7  C   UNL A   1      33.703  22.951  23.883  1.00  0.00     0.057 C 
ATOM      8  C   UNL A   1      33.103  24.067  23.021  1.00  0.00     0.010 C 
ATOM      9  C   UNL A   1      32.605  25.089  24.033  1.00  0.00     0.001 C 
ATOM     10  C   UNL A   1      33.662  25.092  25.135  1.00  0.00     0.014 C 
BRANCH   7  11
ATOM     11  C   UNL A   1      32.664  21.975  24.434  1.00  0.00     0.265 C 
BRANCH  11  12
ATOM     12  N   UNL A   1      33.068  20.632  24.781  1.00  0.00    -0.340 N 
ATOM     13  H   UNL A   1      34.086  20.598  24.774  1.00  0.00     0.346 HD
ATOM     14  H   UNL A   1      32.654  20.444  25.695  1.00  0.00     0.346 HD
BRANCH  12  15
ATOM     15  C   UNL A   1      32.579  19.577  23.900  1.00  0.00     0.329 C 
BRANCH  15  16
ATOM     16  C   UNL A   1      33.031  18.244  24.442  1.00  0.00     0.147 A 
ATOM     17  C   UNL A   1      32.153  15.016  25.767  1.00  0.00     0.067 C 
ATOM     18  C   UNL A   1      32.910  16.172  25.225  1.00  0.00     0.049 A 
ATOM     19  C   UNL A   1      34.250  16.205  24.891  1.00  0.00     0.090 A 
ATOM     20  N   UNL A   1      32.230  17.354  24.995  1.00  0.00    -0.241 NA
ATOM     21  S   UNL A   1      34.664  17.739  24.250  1.00  0.00    -0.121 S 
ENDBRANCH  15  16
ENDBRANCH  12  15
ENDBRANCH  11  12
ENDBRANCH   7  11
ENDBRANCH   3   6
ENDBRANCH   1   2
BRANCH   1  22
ATOM     22  C   UNL A   1      37.119  21.102  24.660  1.00  0.00     0.023 C 
BRANCH  22  23
ATOM     23  C   UNL A   1      37.956  19.878  24.997  1.00  0.00     0.023 C 
BRANCH  23  24
ATOM     24  C   UNL A   1      39.139  20.161  25.903  1.00  0.00     0.116 C 
BRANCH  24  25
ATOM     25  N   UNL A   1      40.117  19.084  25.937  1.00  0.00    -0.352 N 
ATOM     26  C   UNL A   1      41.478  19.168  26.124  1.00  0.00     0.251 C 
ATOM     27  H   UNL A   1      39.758  18.176  25.809  1.00  0.00     0.163 HD
ATOM     28  O   UNL A   1      42.183  18.176  26.032  1.00  0.00    -0.269 OA
BRANCH  26  29
ATOM     29  C   UNL A   1      42.075  20.490  26.400  1.00  0.00     0.039 A 
ATOM     30  C   UNL A   1      42.390  21.323  25.326  1.00  0.00     0.014 A 
ATOM     31  C   UNL A   1      42.269  20.919  27.715  1.00  0.00     0.014 A 
ATOM     32  C   UNL A   1      42.852  22.614  25.578  1.00  0.00     0.010 A 
ATOM     33  C   UNL A   1      42.621  22.237  27.963  1.00  0.00     0.010 A 
ATOM     34  C   UNL A   1      42.943  23.090  26.898  1.00  0.00    -0.014 A 
BRANCH  34  35
ATOM     35  C   UNL A   1      43.426  24.458  27.187  1.00  0.00     0.031 A 
ATOM     36  C   UNL A   1      42.456  25.503  27.666  1.00  0.00     0.074 A 
ATOM     37  C   UNL A   1      44.720  24.770  26.978  1.00  0.00     0.049 A 
ATOM     38  N   UNL A   1      42.667  26.763  27.946  1.00  0.00    -0.248 NA
ATOM     39  C   UNL A   1      41.050  25.086  27.815  1.00  0.00     0.031 C 
ATOM     40  C   UNL A   1      45.739  23.860  26.453  1.00  0.00     0.029 A 
ATOM     41  N   UNL A   1      45.397  25.944  27.184  1.00  0.00    -0.354 N 
ATOM     42  C   UNL A   1      41.426  27.285  28.286  1.00  0.00     0.074 A 
ATOM     43  C   UNL A   1      40.455  26.232  28.105  1.00  0.00     0.031 C 
ATOM     44  C   UNL A   1      46.921  24.497  26.417  1.00  0.00     0.029 A 
ATOM     45  C   UNL A   1      46.737  25.866  26.886  1.00  0.00     0.049 A 
ATOM     46  H   UNL A   1      44.966  26.766  27.513  1.00  0.00     0.167 HD
ATOM     47  C   UNL A   1      41.126  28.522  28.746  1.00  0.00     0.037 A 
ATOM     48  C   UNL A   1      47.704  26.796  26.992  1.00  0.00     0.037 A 
ATOM     49  C   UNL A   1      42.103  29.553  28.964  1.00  0.00     0.049 A 
ATOM     50  C   UNL A   1      47.348  28.158  27.524  1.00  0.00     0.074 A 
ATOM     51  C   UNL A   1      41.919  30.820  29.488  1.00  0.00     0.029 A 
ATOM     52  N   UNL A   1      43.454  29.429  28.673  1.00  0.00    -0.354 N 
ATOM     53  N   UNL A   1      46.184  28.615  27.916  1.00  0.00    -0.248 NA
ATOM     54  C   UNL A   1      48.445  29.129  27.636  1.00  0.00     0.031 C 
ATOM     55  C   UNL A   1      43.155  31.476  29.479  1.00  0.00     0.029 A 
ATOM     56  C   UNL A   1      44.113  30.603  28.990  1.00  0.00     0.049 A 
ATOM     57  H   UNL A   1      43.879  28.625  28.296  1.00  0.00     0.167 HD
ATOM     58  C   UNL A   1      46.410  29.916  28.344  1.00  0.00     0.074 A 
ATOM     59  C   UNL A   1      47.828  30.167  28.182  1.00  0.00     0.031 C 
ATOM     60  C   UNL A   1      45.526  30.825  28.825  1.00  0.00     0.037 A 
BRANCH  47  61
ATOM     61  C   UNL A   1      39.687  28.811  29.059  1.00  0.00     0.057 A 
ATOM     62  C   UNL A   1      38.802  29.293  28.085  1.00  0.00     0.134 A 
ATOM     63  C   UNL A   1      39.174  28.595  30.344  1.00  0.00     0.134 A 
ATOM     64  F   UNL A   1      39.233  29.540  26.837  1.00  0.00    -0.206 F 
ATOM     65  C   UNL A   1      37.469  29.577  28.383  1.00  0.00     0.040 A 
ATOM     66  C   UNL A   1      37.836  28.847  30.647  1.00  0.00     0.040 A 
ATOM     67  F   UNL A   1      39.966  28.133  31.325  1.00  0.00    -0.206 F 
ATOM     68  C   UNL A   1      36.980  29.347  29.667  1.00  0.00     0.006 A 
ENDBRANCH  47  61
BRANCH  48  69
ATOM     69  C   UNL A   1      49.105  26.463  26.629  1.00  0.00     0.057 A 
ATOM     70  C   UNL A   1      49.968  25.870  27.558  1.00  0.00     0.134 A 
ATOM     71  C   UNL A   1      49.617  26.738  25.356  1.00  0.00     0.134 A 
ATOM     72  F   UNL A   1      49.540  25.598  28.799  1.00  0.00    -0.206 F 
ATOM     73  C   UNL A   1      51.298  25.585  27.243  1.00  0.00     0.040 A 
ATOM     74  C   UNL A   1      50.939  26.435  25.020  1.00  0.00     0.040 A 
ATOM     75  F   UNL A   1      48.840  27.298  24.418  1.00  0.00    -0.206 F 
ATOM     76  C   UNL A   1      51.785  25.865  25.968  1.00  0.00     0.006 A 
ENDBRANCH  48  69
BRANCH  60  77
ATOM     77  C   UNL A   1      46.075  32.160  29.232  1.00  0.00     0.057 A 
ATOM     78  C   UNL A   1      46.561  32.393  30.525  1.00  0.00     0.134 A 
ATOM     79  C   UNL A   1      46.151  33.211  28.309  1.00  0.00     0.134 A 
ATOM     80  F   UNL A   1      46.504  31.430  31.457  1.00  0.00    -0.206 F 
ATOM     81  C   UNL A   1      47.081  33.634  30.893  1.00  0.00     0.040 A 
ATOM     82  C   UNL A   1      46.694  34.447  28.658  1.00  0.00     0.040 A 
ATOM     83  F   UNL A   1      45.712  33.047  27.052  1.00  0.00    -0.206 F 
ATOM     84  C   UNL A   1      47.155  34.665  29.955  1.00  0.00     0.006 A 
ENDBRANCH  60  77
ENDBRANCH  34  35
ENDBRANCH  26  29
ENDBRANCH  24  25
ENDBRANCH  23  24
ENDBRANCH  22  23
ENDBRANCH   1  22
TORSDOF 15
ENDMDL
