MODEL 1
REMARK VINA RESULT:     -11.6      0.000      0.000
REMARK SMILES COc1cccc(C(=O)NCc2ccc(OC)c(C(=O)NCCCCNC(=O)c3ccc(-c4c5nc(c(-c6c(F)cccc6F)c6ccc([nH]6)c(-c6c(F)cccc6F)c6nc(c(-c7c(F)cccc7F)c7ccc4[nH]7)C=C6)C=C5)cc3)c2)c1
REMARK SMILES IDX 22 1 21 2 19 3 20 4 18 6 12 7 13 8 83 9 14 10 15 11 11 12
REMARK SMILES IDX 10 13 8 14 9 15 7 17 3 18 4 19 84 20 5 21 6 22 2 23 1 24
REMARK SMILES IDX 16 25 17 26 23 27 24 28 25 29 26 30 27 31 28 33 29 34 30 35
REMARK SMILES IDX 82 36 31 37 81 38 32 39 33 40 34 41 75 42 35 43 80 44 74 45
REMARK SMILES IDX 76 46 36 47 79 48 73 49 72 50 37 52 63 53 46 54 62 55 47 56
REMARK SMILES IDX 50 57 61 58 77 59 48 60 49 61 60 63 78 64 51 65 38 66 39 67
REMARK SMILES IDX 44 68 40 69 41 70 43 71 45 72 42 73 64 74 65 75 70 76 66 77
REMARK SMILES IDX 67 78 69 79 71 80 68 81 52 82 53 83 58 84 54 85 55 86 57 87
REMARK SMILES IDX 59 88 56 89
REMARK H PARENT 21 5 10 16 26 32 76 51 50 62
REMARK Flexibility Score: inf
ROOT
ATOM      1  C   UNL A   1      36.744  22.479  25.538  1.00  0.00     0.116 C 
ENDROOT
BRANCH   1   2
ATOM      2  N   UNL A   1      35.713  23.080  26.370  1.00  0.00    -0.352 N 
ATOM      3  C   UNL A   1      34.435  23.507  26.063  1.00  0.00     0.255 C 
ATOM      4  O   UNL A   1      33.692  23.791  26.998  1.00  0.00    -0.269 OA
ATOM      5  H   UNL A   1      35.970  23.204  27.312  1.00  0.00     0.163 HD
BRANCH   3   6
ATOM      6  C   UNL A   1      33.971  23.612  24.651  1.00  0.00     0.082 A 
ATOM      7  C   UNL A   1      33.659  25.118  22.762  1.00  0.00    -0.028 A 
ATOM      8  C   UNL A   1      32.789  24.191  22.179  1.00  0.00     0.009 A 
ATOM      9  C   UNL A   1      34.361  24.739  23.909  1.00  0.00     0.023 A 
ATOM     10  C   UNL A   1      32.519  22.982  22.818  1.00  0.00     0.047 A 
ATOM     11  C   UNL A   1      33.064  22.705  24.078  1.00  0.00     0.131 A 
BRANCH   7  12
ATOM     12  C   UNL A   1      33.691  26.522  22.210  1.00  0.00     0.152 C 
BRANCH  12  13
ATOM     13  N   UNL A   1      32.388  27.109  21.940  1.00  0.00    -0.348 N 
ATOM     14  C   UNL A   1      31.323  27.505  22.703  1.00  0.00     0.251 C 
ATOM     15  O   UNL A   1      30.302  27.833  22.098  1.00  0.00    -0.269 OA
ATOM     16  H   UNL A   1      32.235  27.254  20.978  1.00  0.00     0.164 HD
BRANCH  14  17
ATOM     17  C   UNL A   1      31.315  27.505  24.191  1.00  0.00     0.043 A 
ATOM     18  C   UNL A   1      31.663  28.547  26.356  1.00  0.00     0.119 A 
ATOM     19  C   UNL A   1      31.345  27.349  26.991  1.00  0.00     0.046 A 
ATOM     20  C   UNL A   1      31.563  28.636  24.968  1.00  0.00     0.060 A 
ATOM     21  C   UNL A   1      30.980  26.234  26.238  1.00  0.00     0.005 A 
ATOM     22  C   UNL A   1      30.987  26.306  24.843  1.00  0.00     0.014 A 
BRANCH  18  23
ATOM     23  O   UNL A   1      32.032  29.582  27.173  1.00  0.00    -0.497 OA
ATOM     24  C   UNL A   1      32.997  30.479  26.625  1.00  0.00     0.278 C 
ENDBRANCH  18  23
ENDBRANCH  14  17
ENDBRANCH  12  13
ENDBRANCH   7  12
BRANCH  11  25
ATOM     25  O   UNL A   1      32.475  21.642  24.708  1.00  0.00    -0.496 OA
ATOM     26  C   UNL A   1      32.856  20.358  24.225  1.00  0.00     0.278 C 
ENDBRANCH  11  25
ENDBRANCH   3   6
ENDBRANCH   1   2
BRANCH   1  27
ATOM     27  C   UNL A   1      36.469  21.053  25.085  1.00  0.00     0.023 C 
BRANCH  27  28
ATOM     28  C   UNL A   1      37.681  20.157  24.890  1.00  0.00     0.023 C 
BRANCH  28  29
ATOM     29  C   UNL A   1      38.902  20.490  25.736  1.00  0.00     0.116 C 
BRANCH  29  30
ATOM     30  N   UNL A   1      39.923  19.453  25.737  1.00  0.00    -0.352 N 
ATOM     31  C   UNL A   1      41.251  19.537  26.097  1.00  0.00     0.251 C 
ATOM     32  H   UNL A   1      39.621  18.564  25.440  1.00  0.00     0.163 HD
ATOM     33  O   UNL A   1      41.998  18.581  25.966  1.00  0.00    -0.269 OA
BRANCH  31  34
ATOM     34  C   UNL A   1      41.783  20.820  26.604  1.00  0.00     0.039 A 
ATOM     35  C   UNL A   1      42.318  21.735  25.692  1.00  0.00     0.014 A 
ATOM     36  C   UNL A   1      41.706  21.140  27.962  1.00  0.00     0.014 A 
ATOM     37  C   UNL A   1      42.682  23.010  26.128  1.00  0.00     0.010 A 
ATOM     38  C   UNL A   1      41.992  22.436  28.378  1.00  0.00     0.010 A 
ATOM     39  C   UNL A   1      42.472  23.386  27.464  1.00  0.00    -0.014 A 
BRANCH  39  40
ATOM     40  C   UNL A   1      42.744  24.767  27.938  1.00  0.00     0.031 A 
ATOM     41  C   UNL A   1      44.139  25.155  28.340  1.00  0.00     0.074 A 
ATOM     42  C   UNL A   1      41.727  25.638  28.096  1.00  0.00     0.049 A 
ATOM     43  N   UNL A   1      44.559  26.251  28.918  1.00  0.00    -0.248 NA
ATOM     44  C   UNL A   1      45.196  24.164  28.085  1.00  0.00     0.031 C 
ATOM     45  C   UNL A   1      40.323  25.371  27.779  1.00  0.00     0.029 A 
ATOM     46  N   UNL A   1      41.718  26.921  28.583  1.00  0.00    -0.354 N 
ATOM     47  C   UNL A   1      45.921  26.069  29.121  1.00  0.00     0.074 A 
ATOM     48  C   UNL A   1      46.249  24.743  28.643  1.00  0.00     0.031 C 
ATOM     49  C   UNL A   1      39.592  26.462  28.062  1.00  0.00     0.029 A 
ATOM     50  C   UNL A   1      40.466  27.488  28.621  1.00  0.00     0.049 A 
ATOM     51  H   UNL A   1      42.531  27.390  28.878  1.00  0.00     0.167 HD
ATOM     52  C   UNL A   1      46.821  26.937  29.639  1.00  0.00     0.037 A 
ATOM     53  C   UNL A   1      40.070  28.695  29.068  1.00  0.00     0.037 A 
ATOM     54  C   UNL A   1      46.502  28.269  30.077  1.00  0.00     0.049 A 
ATOM     55  C   UNL A   1      41.091  29.642  29.636  1.00  0.00     0.074 A 
ATOM     56  C   UNL A   1      47.353  29.241  30.572  1.00  0.00     0.029 A 
ATOM     57  N   UNL A   1      45.229  28.818  30.064  1.00  0.00    -0.354 N 
ATOM     58  N   UNL A   1      42.382  29.472  29.783  1.00  0.00    -0.248 NA
ATOM     59  C   UNL A   1      40.600  30.947  30.098  1.00  0.00     0.031 C 
ATOM     60  C   UNL A   1      46.590  30.372  30.882  1.00  0.00     0.029 A 
ATOM     61  C   UNL A   1      45.271  30.114  30.548  1.00  0.00     0.049 A 
ATOM     62  H   UNL A   1      44.416  28.355  29.756  1.00  0.00     0.167 HD
ATOM     63  C   UNL A   1      42.862  30.658  30.324  1.00  0.00     0.074 A 
ATOM     64  C   UNL A   1      41.724  31.541  30.474  1.00  0.00     0.031 C 
ATOM     65  C   UNL A   1      44.131  30.986  30.665  1.00  0.00     0.037 A 
BRANCH  52  66
ATOM     66  C   UNL A   1      48.243  26.471  29.747  1.00  0.00     0.057 A 
ATOM     67  C   UNL A   1      49.171  26.699  28.723  1.00  0.00     0.134 A 
ATOM     68  C   UNL A   1      48.695  25.811  30.896  1.00  0.00     0.134 A 
ATOM     69  F   UNL A   1      48.796  27.314  27.591  1.00  0.00    -0.206 F 
ATOM     70  C   UNL A   1      50.492  26.265  28.827  1.00  0.00     0.040 A 
ATOM     71  C   UNL A   1      50.021  25.394  31.021  1.00  0.00     0.040 A 
ATOM     72  F   UNL A   1      47.858  25.566  31.915  1.00  0.00    -0.206 F 
ATOM     73  C   UNL A   1      50.923  25.616  29.982  1.00  0.00     0.006 A 
ENDBRANCH  52  66
BRANCH  53  74
ATOM     74  C   UNL A   1      38.642  29.091  28.981  1.00  0.00     0.057 A 
ATOM     75  C   UNL A   1      38.102  29.566  27.781  1.00  0.00     0.134 A 
ATOM     76  C   UNL A   1      37.791  29.022  30.090  1.00  0.00     0.134 A 
ATOM     77  F   UNL A   1      38.875  29.674  26.689  1.00  0.00    -0.206 F 
ATOM     78  C   UNL A   1      36.772  29.980  27.689  1.00  0.00     0.040 A 
ATOM     79  C   UNL A   1      36.452  29.411  30.007  1.00  0.00     0.040 A 
ATOM     80  F   UNL A   1      38.246  28.570  31.266  1.00  0.00    -0.206 F 
ATOM     81  C   UNL A   1      35.942  29.899  28.806  1.00  0.00     0.006 A 
ENDBRANCH  53  74
BRANCH  65  82
ATOM     82  C   UNL A   1      44.368  32.372  31.184  1.00  0.00     0.057 A 
ATOM     83  C   UNL A   1      44.370  32.657  32.554  1.00  0.00     0.134 A 
ATOM     84  C   UNL A   1      44.654  33.420  30.300  1.00  0.00     0.134 A 
ATOM     85  F   UNL A   1      44.090  31.698  33.448  1.00  0.00    -0.206 F 
ATOM     86  C   UNL A   1      44.636  33.942  33.027  1.00  0.00     0.040 A 
ATOM     87  C   UNL A   1      44.943  34.703  30.763  1.00  0.00     0.040 A 
ATOM     88  F   UNL A   1      44.674  33.208  28.975  1.00  0.00    -0.206 F 
ATOM     89  C   UNL A   1      44.932  34.968  32.130  1.00  0.00     0.006 A 
ENDBRANCH  65  82
ENDBRANCH  39  40
ENDBRANCH  31  34
ENDBRANCH  29  30
ENDBRANCH  28  29
ENDBRANCH  27  28
ENDBRANCH   1  27
TORSDOF 16
ENDMDL
MODEL 2
REMARK VINA RESULT:     -11.5      2.980      8.302
REMARK SMILES COc1cccc(C(=O)NCc2ccc(OC)c(C(=O)NCCCCNC(=O)c3ccc(-c4c5nc(c(-c6c(F)cccc6F)c6ccc([nH]6)c(-c6c(F)cccc6F)c6nc(c(-c7c(F)cccc7F)c7ccc4[nH]7)C=C6)C=C5)cc3)c2)c1
REMARK SMILES IDX 22 1 21 2 19 3 20 4 18 6 12 7 13 8 83 9 14 10 15 11 11 12
REMARK SMILES IDX 10 13 8 14 9 15 7 17 3 18 4 19 84 20 5 21 6 22 2 23 1 24
REMARK SMILES IDX 16 25 17 26 23 27 24 28 25 29 26 30 27 31 28 33 29 34 30 35
REMARK SMILES IDX 82 36 31 37 81 38 32 39 33 40 34 41 75 42 35 43 80 44 74 45
REMARK SMILES IDX 76 46 36 47 79 48 73 49 72 50 37 52 63 53 46 54 62 55 47 56
REMARK SMILES IDX 50 57 61 58 77 59 48 60 49 61 60 63 78 64 51 65 38 66 39 67
REMARK SMILES IDX 44 68 40 69 41 70 43 71 45 72 42 73 64 74 65 75 70 76 66 77
REMARK SMILES IDX 67 78 69 79 71 80 68 81 52 82 53 83 58 84 54 85 55 86 57 87
REMARK SMILES IDX 59 88 56 89
REMARK H PARENT 21 5 10 16 26 32 76 51 50 62
REMARK Flexibility Score: inf
ROOT
ATOM      1  C   UNL A   1      32.997  28.071  26.989  1.00  0.00     0.116 C 
ENDROOT
BRANCH   1   2
ATOM      2  N   UNL A   1      33.779  27.477  25.915  1.00  0.00    -0.352 N 
ATOM      3  C   UNL A   1      33.685  26.243  25.301  1.00  0.00     0.255 C 
ATOM      4  O   UNL A   1      34.339  26.068  24.277  1.00  0.00    -0.269 OA
ATOM      5  H   UNL A   1      34.498  28.052  25.568  1.00  0.00     0.163 HD
BRANCH   3   6
ATOM      6  C   UNL A   1      32.816  25.166  25.854  1.00  0.00     0.082 A 
ATOM      7  C   UNL A   1      32.789  23.047  27.055  1.00  0.00    -0.028 A 
ATOM      8  C   UNL A   1      31.483  22.821  26.607  1.00  0.00     0.009 A 
ATOM      9  C   UNL A   1      33.369  24.292  26.804  1.00  0.00     0.023 A 
ATOM     10  C   UNL A   1      30.844  23.761  25.799  1.00  0.00     0.047 A 
ATOM     11  C   UNL A   1      31.520  24.911  25.374  1.00  0.00     0.131 A 
BRANCH   7  12
ATOM     12  C   UNL A   1      33.552  21.895  27.660  1.00  0.00     0.152 C 
BRANCH  12  13
ATOM     13  N   UNL A   1      34.792  21.552  26.981  1.00  0.00    -0.348 N 
ATOM     14  C   UNL A   1      35.175  21.401  25.675  1.00  0.00     0.251 C 
ATOM     15  O   UNL A   1      36.304  20.950  25.480  1.00  0.00    -0.269 OA
ATOM     16  H   UNL A   1      35.530  21.388  27.610  1.00  0.00     0.164 HD
BRANCH  14  17
ATOM     17  C   UNL A   1      34.300  21.693  24.508  1.00  0.00     0.043 A 
ATOM     18  C   UNL A   1      33.621  23.018  22.590  1.00  0.00     0.119 A 
ATOM     19  C   UNL A   1      32.525  22.183  22.393  1.00  0.00     0.046 A 
ATOM     20  C   UNL A   1      34.543  22.716  23.592  1.00  0.00     0.060 A 
ATOM     21  C   UNL A   1      32.324  21.084  23.226  1.00  0.00     0.005 A 
ATOM     22  C   UNL A   1      33.196  20.853  24.293  1.00  0.00     0.014 A 
BRANCH  18  23
ATOM     23  O   UNL A   1      33.726  24.086  21.741  1.00  0.00    -0.497 OA
ATOM     24  C   UNL A   1      32.541  24.868  21.590  1.00  0.00     0.278 C 
ENDBRANCH  18  23
ENDBRANCH  14  17
ENDBRANCH  12  13
ENDBRANCH   7  12
BRANCH  11  25
ATOM     25  O   UNL A   1      30.891  25.571  24.353  1.00  0.00    -0.496 OA
ATOM     26  C   UNL A   1      29.688  26.244  24.712  1.00  0.00     0.278 C 
ENDBRANCH  11  25
ENDBRANCH   3   6
ENDBRANCH   1   2
BRANCH   1  27
ATOM     27  C   UNL A   1      31.732  28.793  26.552  1.00  0.00     0.023 C 
BRANCH  27  28
ATOM     28  C   UNL A   1      31.877  30.266  26.205  1.00  0.00     0.023 C 
BRANCH  28  29
ATOM     29  C   UNL A   1      32.797  31.078  27.106  1.00  0.00     0.116 C 
BRANCH  29  30
ATOM     30  N   UNL A   1      32.340  32.438  27.347  1.00  0.00    -0.352 N 
ATOM     31  C   UNL A   1      32.968  33.463  28.025  1.00  0.00     0.251 C 
ATOM     32  H   UNL A   1      31.457  32.659  26.972  1.00  0.00     0.163 HD
ATOM     33  O   UNL A   1      32.408  34.531  28.204  1.00  0.00    -0.269 OA
BRANCH  31  34
ATOM     34  C   UNL A   1      34.320  33.239  28.580  1.00  0.00     0.039 A 
ATOM     35  C   UNL A   1      34.442  32.605  29.820  1.00  0.00     0.014 A 
ATOM     36  C   UNL A   1      35.459  33.605  27.859  1.00  0.00     0.014 A 
ATOM     37  C   UNL A   1      35.707  32.247  30.290  1.00  0.00     0.010 A 
ATOM     38  C   UNL A   1      36.709  33.174  28.288  1.00  0.00     0.010 A 
ATOM     39  C   UNL A   1      36.845  32.483  29.502  1.00  0.00    -0.014 A 
BRANCH  39  40
ATOM     40  C   UNL A   1      38.192  32.017  29.917  1.00  0.00     0.031 A 
ATOM     41  C   UNL A   1      38.715  30.703  29.410  1.00  0.00     0.074 A 
ATOM     42  C   UNL A   1      38.903  32.726  30.817  1.00  0.00     0.049 A 
ATOM     43  N   UNL A   1      39.790  30.047  29.764  1.00  0.00    -0.248 NA
ATOM     44  C   UNL A   1      37.901  30.021  28.391  1.00  0.00     0.031 C 
ATOM     45  C   UNL A   1      38.492  33.998  31.413  1.00  0.00     0.029 A 
ATOM     46  N   UNL A   1      40.117  32.465  31.401  1.00  0.00    -0.354 N 
ATOM     47  C   UNL A   1      39.766  28.866  29.034  1.00  0.00     0.074 A 
ATOM     48  C   UNL A   1      38.551  28.875  28.249  1.00  0.00     0.031 C 
ATOM     49  C   UNL A   1      39.443  34.414  32.265  1.00  0.00     0.029 A 
ATOM     50  C   UNL A   1      40.511  33.420  32.308  1.00  0.00     0.049 A 
ATOM     51  H   UNL A   1      40.655  31.667  31.191  1.00  0.00     0.167 HD
ATOM     52  C   UNL A   1      40.685  27.872  29.004  1.00  0.00     0.037 A 
ATOM     53  C   UNL A   1      41.603  33.478  33.094  1.00  0.00     0.037 A 
ATOM     54  C   UNL A   1      41.912  27.882  29.754  1.00  0.00     0.049 A 
ATOM     55  C   UNL A   1      42.610  32.363  33.039  1.00  0.00     0.074 A 
ATOM     56  C   UNL A   1      42.930  26.944  29.755  1.00  0.00     0.029 A 
ATOM     57  N   UNL A   1      42.290  28.886  30.633  1.00  0.00    -0.354 N 
ATOM     58  N   UNL A   1      42.595  31.272  32.312  1.00  0.00    -0.248 NA
ATOM     59  C   UNL A   1      43.787  32.488  33.911  1.00  0.00     0.031 C 
ATOM     60  C   UNL A   1      43.914  27.370  30.653  1.00  0.00     0.029 A 
ATOM     61  C   UNL A   1      43.523  28.587  31.185  1.00  0.00     0.049 A 
ATOM     62  H   UNL A   1      41.759  29.690  30.833  1.00  0.00     0.167 HD
ATOM     63  C   UNL A   1      43.771  30.598  32.615  1.00  0.00     0.074 A 
ATOM     64  C   UNL A   1      44.479  31.404  33.587  1.00  0.00     0.031 C 
ATOM     65  C   UNL A   1      44.224  29.417  32.131  1.00  0.00     0.037 A 
BRANCH  52  66
ATOM     66  C   UNL A   1      40.399  26.696  28.118  1.00  0.00     0.057 A 
ATOM     67  C   UNL A   1      41.013  26.551  26.868  1.00  0.00     0.134 A 
ATOM     68  C   UNL A   1      39.519  25.687  28.529  1.00  0.00     0.134 A 
ATOM     69  F   UNL A   1      41.855  27.491  26.411  1.00  0.00    -0.206 F 
ATOM     70  C   UNL A   1      40.745  25.456  26.047  1.00  0.00     0.040 A 
ATOM     71  C   UNL A   1      39.262  24.575  27.727  1.00  0.00     0.040 A 
ATOM     72  F   UNL A   1      38.901  25.763  29.717  1.00  0.00    -0.206 F 
ATOM     73  C   UNL A   1      39.871  24.459  26.479  1.00  0.00     0.006 A 
ENDBRANCH  52  66
BRANCH  53  74
ATOM     74  C   UNL A   1      41.818  34.643  33.988  1.00  0.00     0.057 A 
ATOM     75  C   UNL A   1      42.458  35.797  33.521  1.00  0.00     0.134 A 
ATOM     76  C   UNL A   1      41.409  34.628  35.326  1.00  0.00     0.134 A 
ATOM     77  F   UNL A   1      42.892  35.862  32.253  1.00  0.00    -0.206 F 
ATOM     78  C   UNL A   1      42.704  36.887  34.357  1.00  0.00     0.040 A 
ATOM     79  C   UNL A   1      41.627  35.721  36.168  1.00  0.00     0.040 A 
ATOM     80  F   UNL A   1      40.785  33.555  35.832  1.00  0.00    -0.206 F 
ATOM     81  C   UNL A   1      42.283  36.851  35.686  1.00  0.00     0.006 A 
ENDBRANCH  53  74
BRANCH  65  82
ATOM     82  C   UNL A   1      45.567  28.949  32.603  1.00  0.00     0.057 A 
ATOM     83  C   UNL A   1      45.710  28.113  33.716  1.00  0.00     0.134 A 
ATOM     84  C   UNL A   1      46.725  29.296  31.896  1.00  0.00     0.134 A 
ATOM     85  F   UNL A   1      44.639  27.758  34.441  1.00  0.00    -0.206 F 
ATOM     86  C   UNL A   1      46.961  27.648  34.119  1.00  0.00     0.040 A 
ATOM     87  C   UNL A   1      47.980  28.819  32.276  1.00  0.00     0.040 A 
ATOM     88  F   UNL A   1      46.653  30.088  30.815  1.00  0.00    -0.206 F 
ATOM     89  C   UNL A   1      48.100  27.994  33.392  1.00  0.00     0.006 A 
ENDBRANCH  65  82
ENDBRANCH  39  40
ENDBRANCH  31  34
ENDBRANCH  29  30
ENDBRANCH  28  29
ENDBRANCH  27  28
ENDBRANCH   1  27
TORSDOF 16
ENDMDL
MODEL 3
REMARK VINA RESULT:     -11.4      3.955      9.256
REMARK SMILES COc1cccc(C(=O)NCc2ccc(OC)c(C(=O)NCCCCNC(=O)c3ccc(-c4c5nc(c(-c6c(F)cccc6F)c6ccc([nH]6)c(-c6c(F)cccc6F)c6nc(c(-c7c(F)cccc7F)c7ccc4[nH]7)C=C6)C=C5)cc3)c2)c1
REMARK SMILES IDX 22 1 21 2 19 3 20 4 18 6 12 7 13 8 83 9 14 10 15 11 11 12
REMARK SMILES IDX 10 13 8 14 9 15 7 17 3 18 4 19 84 20 5 21 6 22 2 23 1 24
REMARK SMILES IDX 16 25 17 26 23 27 24 28 25 29 26 30 27 31 28 33 29 34 30 35
REMARK SMILES IDX 82 36 31 37 81 38 32 39 33 40 34 41 75 42 35 43 80 44 74 45
REMARK SMILES IDX 76 46 36 47 79 48 73 49 72 50 37 52 63 53 46 54 62 55 47 56
REMARK SMILES IDX 50 57 61 58 77 59 48 60 49 61 60 63 78 64 51 65 38 66 39 67
REMARK SMILES IDX 44 68 40 69 41 70 43 71 45 72 42 73 64 74 65 75 70 76 66 77
REMARK SMILES IDX 67 78 69 79 71 80 68 81 52 82 53 83 58 84 54 85 55 86 57 87
REMARK SMILES IDX 59 88 56 89
REMARK H PARENT 21 5 10 16 26 32 76 51 50 62
REMARK Flexibility Score: inf
ROOT
ATOM      1  C   UNL A   1      32.618  29.935  26.911  1.00  0.00     0.116 C 
ENDROOT
BRANCH   1   2
ATOM      2  N   UNL A   1      33.477  29.105  26.081  1.00  0.00    -0.352 N 
ATOM      3  C   UNL A   1      33.172  28.116  25.166  1.00  0.00     0.255 C 
ATOM      4  O   UNL A   1      34.080  27.709  24.446  1.00  0.00    -0.269 OA
ATOM      5  H   UNL A   1      34.440  29.276  26.191  1.00  0.00     0.163 HD
BRANCH   3   6
ATOM      6  C   UNL A   1      31.791  27.567  25.048  1.00  0.00     0.082 A 
ATOM      7  C   UNL A   1      30.286  25.789  25.759  1.00  0.00    -0.028 A 
ATOM      8  C   UNL A   1      29.438  26.092  24.689  1.00  0.00     0.009 A 
ATOM      9  C   UNL A   1      31.364  26.641  26.013  1.00  0.00     0.023 A 
ATOM     10  C   UNL A   1      29.756  27.129  23.812  1.00  0.00     0.047 A 
ATOM     11  C   UNL A   1      30.955  27.838  23.952  1.00  0.00     0.131 A 
BRANCH   7  12
ATOM     12  C   UNL A   1      30.080  24.489  26.496  1.00  0.00     0.152 C 
BRANCH  12  13
ATOM     13  N   UNL A   1      31.293  23.869  27.006  1.00  0.00    -0.348 N 
ATOM     14  C   UNL A   1      32.391  23.276  26.444  1.00  0.00     0.251 C 
ATOM     15  O   UNL A   1      33.174  22.720  27.216  1.00  0.00    -0.269 OA
ATOM     16  H   UNL A   1      31.333  23.878  27.989  1.00  0.00     0.164 HD
BRANCH  14  17
ATOM     17  C   UNL A   1      32.654  23.218  24.980  1.00  0.00     0.043 A 
ATOM     18  C   UNL A   1      33.400  24.173  22.877  1.00  0.00     0.119 A 
ATOM     19  C   UNL A   1      33.016  23.014  22.207  1.00  0.00     0.046 A 
ATOM     20  C   UNL A   1      33.293  24.231  24.266  1.00  0.00     0.060 A 
ATOM     21  C   UNL A   1      32.481  21.941  22.917  1.00  0.00     0.005 A 
ATOM     22  C   UNL A   1      32.279  22.052  24.294  1.00  0.00     0.014 A 
BRANCH  18  23
ATOM     23  O   UNL A   1      33.894  25.185  22.097  1.00  0.00    -0.497 OA
ATOM     24  C   UNL A   1      32.923  25.900  21.334  1.00  0.00     0.278 C 
ENDBRANCH  18  23
ENDBRANCH  14  17
ENDBRANCH  12  13
ENDBRANCH   7  12
BRANCH  11  25
ATOM     25  O   UNL A   1      31.274  28.597  22.859  1.00  0.00    -0.496 OA
ATOM     26  C   UNL A   1      30.202  29.357  22.310  1.00  0.00     0.278 C 
ENDBRANCH  11  25
ENDBRANCH   3   6
ENDBRANCH   1   2
BRANCH   1  27
ATOM     27  C   UNL A   1      31.631  30.812  26.156  1.00  0.00     0.023 C 
BRANCH  27  28
ATOM     28  C   UNL A   1      31.358  32.188  26.742  1.00  0.00     0.023 C 
BRANCH  28  29
ATOM     29  C   UNL A   1      32.563  32.918  27.320  1.00  0.00     0.116 C 
BRANCH  29  30
ATOM     30  N   UNL A   1      32.299  34.305  27.676  1.00  0.00    -0.352 N 
ATOM     31  C   UNL A   1      32.959  35.115  28.576  1.00  0.00     0.251 C 
ATOM     32  H   UNL A   1      31.543  34.725  27.206  1.00  0.00     0.163 HD
ATOM     33  O   UNL A   1      32.559  36.242  28.816  1.00  0.00    -0.269 OA
BRANCH  31  34
ATOM     34  C   UNL A   1      34.139  34.586  29.294  1.00  0.00     0.039 A 
ATOM     35  C   UNL A   1      33.953  33.973  30.536  1.00  0.00     0.014 A 
ATOM     36  C   UNL A   1      35.412  34.649  28.721  1.00  0.00     0.014 A 
ATOM     37  C   UNL A   1      35.027  33.332  31.157  1.00  0.00     0.010 A 
ATOM     38  C   UNL A   1      36.459  33.941  29.300  1.00  0.00     0.010 A 
ATOM     39  C   UNL A   1      36.275  33.267  30.518  1.00  0.00    -0.014 A 
BRANCH  39  40
ATOM     40  C   UNL A   1      37.409  32.502  31.094  1.00  0.00     0.031 A 
ATOM     41  C   UNL A   1      38.044  32.963  32.375  1.00  0.00     0.074 A 
ATOM     42  C   UNL A   1      37.924  31.452  30.423  1.00  0.00     0.049 A 
ATOM     43  N   UNL A   1      39.130  32.532  32.964  1.00  0.00    -0.248 NA
ATOM     44  C   UNL A   1      37.386  34.082  33.069  1.00  0.00     0.031 C 
ATOM     45  C   UNL A   1      37.423  30.927  29.152  1.00  0.00     0.029 A 
ATOM     46  N   UNL A   1      39.000  30.650  30.711  1.00  0.00    -0.354 N 
ATOM     47  C   UNL A   1      39.300  33.342  34.079  1.00  0.00     0.074 A 
ATOM     48  C   UNL A   1      38.231  34.318  34.062  1.00  0.00     0.031 C 
ATOM     49  C   UNL A   1      38.179  29.881  28.778  1.00  0.00     0.029 A 
ATOM     50  C   UNL A   1      39.242  29.688  29.759  1.00  0.00     0.049 A 
ATOM     51  H   UNL A   1      39.548  30.754  31.523  1.00  0.00     0.167 HD
ATOM     52  C   UNL A   1      40.249  33.267  35.041  1.00  0.00     0.037 A 
ATOM     53  C   UNL A   1      40.219  28.764  29.682  1.00  0.00     0.037 A 
ATOM     54  C   UNL A   1      41.287  32.274  35.078  1.00  0.00     0.049 A 
ATOM     55  C   UNL A   1      41.259  28.700  30.766  1.00  0.00     0.074 A 
ATOM     56  C   UNL A   1      42.267  32.085  36.036  1.00  0.00     0.029 A 
ATOM     57  N   UNL A   1      41.474  31.294  34.114  1.00  0.00    -0.354 N 
ATOM     58  N   UNL A   1      41.383  29.447  31.836  1.00  0.00    -0.248 NA
ATOM     59  C   UNL A   1      42.294  27.665  30.632  1.00  0.00     0.031 C 
ATOM     60  C   UNL A   1      43.063  31.005  35.640  1.00  0.00     0.029 A 
ATOM     61  C   UNL A   1      42.558  30.502  34.453  1.00  0.00     0.049 A 
ATOM     62  H   UNL A   1      40.920  31.180  33.309  1.00  0.00     0.167 HD
ATOM     63  C   UNL A   1      42.487  28.953  32.519  1.00  0.00     0.074 A 
ATOM     64  C   UNL A   1      42.995  27.839  31.744  1.00  0.00     0.031 C 
ATOM     65  C   UNL A   1      43.031  29.382  33.682  1.00  0.00     0.037 A 
BRANCH  52  66
ATOM     66  C   UNL A   1      40.195  34.285  36.141  1.00  0.00     0.057 A 
ATOM     67  C   UNL A   1      40.831  35.528  36.024  1.00  0.00     0.134 A 
ATOM     68  C   UNL A   1      39.481  34.031  37.318  1.00  0.00     0.134 A 
ATOM     69  F   UNL A   1      41.544  35.826  34.927  1.00  0.00    -0.206 F 
ATOM     70  C   UNL A   1      40.779  36.473  37.049  1.00  0.00     0.040 A 
ATOM     71  C   UNL A   1      39.401  34.979  38.340  1.00  0.00     0.040 A 
ATOM     72  F   UNL A   1      38.845  32.863  37.491  1.00  0.00    -0.206 F 
ATOM     73  C   UNL A   1      40.056  36.202  38.209  1.00  0.00     0.006 A 
ENDBRANCH  52  66
BRANCH  53  74
ATOM     74  C   UNL A   1      40.254  27.809  28.548  1.00  0.00     0.057 A 
ATOM     75  C   UNL A   1      39.618  26.565  28.639  1.00  0.00     0.134 A 
ATOM     76  C   UNL A   1      40.933  28.101  27.359  1.00  0.00     0.134 A 
ATOM     77  F   UNL A   1      38.969  26.219  29.761  1.00  0.00    -0.206 F 
ATOM     78  C   UNL A   1      39.672  25.636  27.598  1.00  0.00     0.040 A 
ATOM     79  C   UNL A   1      40.976  27.191  26.301  1.00  0.00     0.040 A 
ATOM     80  F   UNL A   1      41.557  29.277  27.208  1.00  0.00    -0.206 F 
ATOM     81  C   UNL A   1      40.352  25.952  26.422  1.00  0.00     0.006 A 
ENDBRANCH  53  74
BRANCH  65  82
ATOM     82  C   UNL A   1      44.204  28.617  34.217  1.00  0.00     0.057 A 
ATOM     83  C   UNL A   1      44.042  27.494  35.035  1.00  0.00     0.134 A 
ATOM     84  C   UNL A   1      45.508  28.981  33.860  1.00  0.00     0.134 A 
ATOM     85  F   UNL A   1      42.818  27.104  35.421  1.00  0.00    -0.206 F 
ATOM     86  C   UNL A   1      45.140  26.763  35.490  1.00  0.00     0.040 A 
ATOM     87  C   UNL A   1      46.612  28.246  34.291  1.00  0.00     0.040 A 
ATOM     88  F   UNL A   1      45.728  30.045  33.072  1.00  0.00    -0.206 F 
ATOM     89  C   UNL A   1      46.430  27.134  35.112  1.00  0.00     0.006 A 
ENDBRANCH  65  82
ENDBRANCH  39  40
ENDBRANCH  31  34
ENDBRANCH  29  30
ENDBRANCH  28  29
ENDBRANCH  27  28
ENDBRANCH   1  27
TORSDOF 16
ENDMDL
