MODEL 1
REMARK VINA RESULT:     -13.3      0.000      0.000
REMARK SMILES COc1cc(OC)cc(-c2cc3nc(C)c(CCC(=O)NCCCCNC(=O)c4ccc(-c5c6nc(c(-c7c(F)cccc7F)c7ccc([nH]7)c(-c7c(F)cccc7F)c7nc(c(-c8c(F)cccc8F)c8ccc5[nH]8)C=C7)C=C6)cc4)c(C)n3n2)c1
REMARK SMILES IDX 22 1 21 2 19 3 20 4 18 6 17 7 16 8 10 9 11 10 86 11 12 12
REMARK SMILES IDX 85 13 13 14 83 15 14 16 84 17 15 18 9 19 3 20 4 21 87 22
REMARK SMILES IDX 5 23 8 24 2 25 1 26 6 27 7 28 23 29 24 30 25 31 26 32 27 33
REMARK SMILES IDX 28 35 29 36 30 37 82 38 31 39 81 40 32 41 33 42 34 43 75 44
REMARK SMILES IDX 35 45 80 46 74 47 76 48 36 49 79 50 73 51 72 52 37 54 63 55
REMARK SMILES IDX 46 56 62 57 47 58 50 59 61 60 77 61 48 62 49 63 60 65 78 66
REMARK SMILES IDX 51 67 38 68 39 69 44 70 40 71 41 72 43 73 45 74 42 75 64 76
REMARK SMILES IDX 65 77 70 78 66 79 67 80 69 81 71 82 68 83 52 84 53 85 58 86
REMARK SMILES IDX 54 87 55 88 57 89 59 90 56 91
REMARK H PARENT 21 5 26 34 76 53 50 64
REMARK Flexibility Score: inf
ROOT
ATOM      1  C   UNL A   1      32.518  29.452  26.118  1.00  0.00     0.116 C 
ENDROOT
BRANCH   1   2
ATOM      2  N   UNL A   1      33.288  29.551  24.896  1.00  0.00    -0.356 N 
ATOM      3  C   UNL A   1      32.861  29.120  23.663  1.00  0.00     0.220 C 
ATOM      4  O   UNL A   1      33.696  28.897  22.787  1.00  0.00    -0.275 OA
ATOM      5  H   UNL A   1      34.184  29.957  24.952  1.00  0.00     0.163 HD
BRANCH   3   6
ATOM      6  C   UNL A   1      31.356  28.959  23.411  1.00  0.00     0.105 C 
BRANCH   6   7
ATOM      7  C   UNL A   1      30.938  27.993  22.267  1.00  0.00     0.049 C 
BRANCH   7   8
ATOM      8  C   UNL A   1      30.942  26.483  22.545  1.00  0.00    -0.005 A 
ATOM      9  C   UNL A   1      32.993  22.689  23.699  1.00  0.00     0.095 A 
ATOM     10  C   UNL A   1      31.628  22.720  24.130  1.00  0.00     0.080 A 
ATOM     11  N   UNL A   1      33.142  23.516  22.649  1.00  0.00    -0.166 NA
ATOM     12  C   UNL A   1      31.101  23.885  23.611  1.00  0.00     0.156 A 
ATOM     13  N   UNL A   1      32.024  24.329  22.673  1.00  0.00    -0.219 N 
ATOM     14  N   UNL A   1      30.016  24.632  23.975  1.00  0.00    -0.234 NA
ATOM     15  C   UNL A   1      31.878  25.609  22.073  1.00  0.00     0.046 A 
ATOM     16  C   UNL A   1      29.944  25.855  23.518  1.00  0.00     0.045 A 
ATOM     17  C   UNL A   1      32.964  25.975  21.104  1.00  0.00     0.067 C 
ATOM     18  C   UNL A   1      28.759  26.668  24.020  1.00  0.00     0.067 C 
BRANCH   9  19
ATOM     19  C   UNL A   1      34.098  21.938  24.377  1.00  0.00     0.009 A 
ATOM     20  C   UNL A   1      34.976  19.671  24.972  1.00  0.00     0.123 A 
ATOM     21  C   UNL A   1      36.267  20.272  24.993  1.00  0.00     0.092 A 
ATOM     22  C   UNL A   1      33.935  20.633  24.961  1.00  0.00     0.057 A 
ATOM     23  C   UNL A   1      36.465  21.629  24.602  1.00  0.00     0.123 A 
ATOM     24  C   UNL A   1      35.387  22.390  24.159  1.00  0.00     0.057 A 
BRANCH  20  25
ATOM     25  O   UNL A   1      34.565  18.135  24.488  1.00  0.00    -0.497 OA
ATOM     26  C   UNL A   1      34.043  16.948  22.913  1.00  0.00     0.278 C 
ENDBRANCH  20  25
BRANCH  23  27
ATOM     27  O   UNL A   1      37.756  22.109  24.599  1.00  0.00    -0.497 OA
ATOM     28  C   UNL A   1      38.307  22.409  25.889  1.00  0.00     0.278 C 
ENDBRANCH  23  27
ENDBRANCH   9  19
ENDBRANCH   7   8
ENDBRANCH   6   7
ENDBRANCH   3   6
ENDBRANCH   1   2
BRANCH   1  29
ATOM     29  C   UNL A   1      33.024  30.527  27.053  1.00  0.00     0.023 C 
BRANCH  29  30
ATOM     30  C   UNL A   1      32.169  31.741  27.113  1.00  0.00     0.023 C 
BRANCH  30  31
ATOM     31  C   UNL A   1      33.035  32.892  27.550  1.00  0.00     0.116 C 
BRANCH  31  32
ATOM     32  N   UNL A   1      32.564  34.329  27.708  1.00  0.00    -0.352 N 
ATOM     33  C   UNL A   1      32.813  35.341  28.734  1.00  0.00     0.251 C 
ATOM     34  H   UNL A   1      31.977  34.638  26.980  1.00  0.00     0.163 HD
ATOM     35  O   UNL A   1      32.209  36.408  28.724  1.00  0.00    -0.269 OA
BRANCH  33  36
ATOM     36  C   UNL A   1      33.939  35.136  29.747  1.00  0.00     0.039 A 
ATOM     37  C   UNL A   1      33.951  34.125  31.286  1.00  0.00     0.014 A 
ATOM     38  C   UNL A   1      35.226  34.936  28.609  1.00  0.00     0.014 A 
ATOM     39  C   UNL A   1      35.166  32.724  31.404  1.00  0.00     0.010 A 
ATOM     40  C   UNL A   1      36.240  33.563  28.634  1.00  0.00     0.010 A 
ATOM     41  C   UNL A   1      36.356  32.534  30.027  1.00  0.00    -0.014 A 
BRANCH  41  42
ATOM     42  C   UNL A   1      37.774  32.015  30.014  1.00  0.00     0.031 A 
ATOM     43  C   UNL A   1      37.840  30.647  29.505  1.00  0.00     0.074 A 
ATOM     44  C   UNL A   1      38.927  32.725  30.337  1.00  0.00     0.049 A 
ATOM     45  N   UNL A   1      38.068  29.596  30.216  1.00  0.00    -0.248 NA
ATOM     46  C   UNL A   1      37.455  30.375  28.117  1.00  0.00     0.031 C 
ATOM     47  C   UNL A   1      39.077  34.129  30.811  1.00  0.00     0.029 A 
ATOM     48  N   UNL A   1      40.275  32.401  30.216  1.00  0.00    -0.354 N 
ATOM     49  C   UNL A   1      38.183  28.573  29.291  1.00  0.00     0.074 A 
ATOM     50  C   UNL A   1      37.546  29.043  28.089  1.00  0.00     0.031 C 
ATOM     51  C   UNL A   1      40.303  34.628  30.565  1.00  0.00     0.029 A 
ATOM     52  C   UNL A   1      41.154  33.519  30.225  1.00  0.00     0.049 A 
ATOM     53  H   UNL A   1      40.595  31.474  30.130  1.00  0.00     0.167 HD
ATOM     54  C   UNL A   1      39.140  27.626  29.478  1.00  0.00     0.037 A 
ATOM     55  C   UNL A   1      42.513  33.584  30.144  1.00  0.00     0.037 A 
ATOM     56  C   UNL A   1      39.624  27.643  30.844  1.00  0.00     0.049 A 
ATOM     57  C   UNL A   1      43.009  32.272  30.571  1.00  0.00     0.074 A 
ATOM     58  C   UNL A   1      39.068  27.477  32.096  1.00  0.00     0.029 A 
ATOM     59  N   UNL A   1      40.823  28.283  31.023  1.00  0.00    -0.354 N 
ATOM     60  N   UNL A   1      42.962  31.852  31.800  1.00  0.00    -0.248 NA
ATOM     61  C   UNL A   1      43.224  31.259  29.555  1.00  0.00     0.031 C 
ATOM     62  C   UNL A   1      39.849  28.275  32.984  1.00  0.00     0.029 A 
ATOM     63  C   UNL A   1      40.900  28.843  32.268  1.00  0.00     0.049 A 
ATOM     64  H   UNL A   1      41.535  28.331  30.345  1.00  0.00     0.167 HD
ATOM     65  C   UNL A   1      42.640  30.516  31.670  1.00  0.00     0.074 A 
ATOM     66  C   UNL A   1      42.990  30.174  30.295  1.00  0.00     0.031 C 
ATOM     67  C   UNL A   1      41.805  29.930  32.577  1.00  0.00     0.037 A 
BRANCH  54  68
ATOM     68  C   UNL A   1      39.990  27.071  28.354  1.00  0.00     0.057 A 
ATOM     69  C   UNL A   1      40.736  27.968  27.570  1.00  0.00     0.134 A 
ATOM     70  C   UNL A   1      39.868  25.770  27.817  1.00  0.00     0.134 A 
ATOM     71  F   UNL A   1      40.894  29.243  27.951  1.00  0.00    -0.206 F 
ATOM     72  C   UNL A   1      41.266  27.613  26.322  1.00  0.00     0.040 A 
ATOM     73  C   UNL A   1      40.438  25.392  26.599  1.00  0.00     0.040 A 
ATOM     74  F   UNL A   1      39.107  24.822  28.374  1.00  0.00    -0.206 F 
ATOM     75  C   UNL A   1      41.116  26.323  25.831  1.00  0.00     0.006 A 
ENDBRANCH  54  68
BRANCH  55  76
ATOM     76  C   UNL A   1      43.449  34.627  29.631  1.00  0.00     0.057 A 
ATOM     77  C   UNL A   1      43.778  34.711  28.263  1.00  0.00     0.134 A 
ATOM     78  C   UNL A   1      43.769  35.758  30.399  1.00  0.00     0.134 A 
ATOM     79  F   UNL A   1      43.519  33.691  27.434  1.00  0.00    -0.206 F 
ATOM     80  C   UNL A   1      44.310  35.874  27.683  1.00  0.00     0.040 A 
ATOM     81  C   UNL A   1      44.303  36.926  29.832  1.00  0.00     0.040 A 
ATOM     82  F   UNL A   1      43.486  35.800  31.710  1.00  0.00    -0.206 F 
ATOM     83  C   UNL A   1      44.549  36.997  28.464  1.00  0.00     0.006 A 
ENDBRANCH  55  76
BRANCH  67  84
ATOM     84  C   UNL A   1      41.697  30.571  33.935  1.00  0.00     0.057 A 
ATOM     85  C   UNL A   1      42.624  30.428  34.979  1.00  0.00     0.134 A 
ATOM     86  C   UNL A   1      40.629  31.450  34.157  1.00  0.00     0.134 A 
ATOM     87  F   UNL A   1      43.719  29.668  34.840  1.00  0.00    -0.206 F 
ATOM     88  C   UNL A   1      42.471  31.102  36.196  1.00  0.00     0.040 A 
ATOM     89  C   UNL A   1      40.486  32.156  35.352  1.00  0.00     0.040 A 
ATOM     90  F   UNL A   1      39.721  31.664  33.192  1.00  0.00    -0.206 F 
ATOM     91  C   UNL A   1      41.404  31.977  36.382  1.00  0.00     0.006 A 
ENDBRANCH  67  84
ENDBRANCH  41  42
ENDBRANCH  33  36
ENDBRANCH  31  32
ENDBRANCH  30  31
ENDBRANCH  29  30
ENDBRANCH   1  29
TORSDOF 16
ENDMDL
MODEL 2
REMARK VINA RESULT:     -13.2      0.432      1.581
REMARK SMILES COc1cc(OC)cc(-c2cc3nc(C)c(CCC(=O)NCCCCNC(=O)c4ccc(-c5c6nc(c(-c7c(F)cccc7F)c7ccc([nH]7)c(-c7c(F)cccc7F)c7nc(c(-c8c(F)cccc8F)c8ccc5[nH]8)C=C7)C=C6)cc4)c(C)n3n2)c1
REMARK SMILES IDX 22 1 21 2 19 3 20 4 18 6 17 7 16 8 10 9 11 10 86 11 12 12
REMARK SMILES IDX 85 13 13 14 83 15 14 16 84 17 15 18 9 19 3 20 4 21 87 22
REMARK SMILES IDX 5 23 8 24 2 25 1 26 6 27 7 28 23 29 24 30 25 31 26 32 27 33
REMARK SMILES IDX 28 35 29 36 30 37 82 38 31 39 81 40 32 41 33 42 34 43 75 44
REMARK SMILES IDX 35 45 80 46 74 47 76 48 36 49 79 50 73 51 72 52 37 54 63 55
REMARK SMILES IDX 46 56 62 57 47 58 50 59 61 60 77 61 48 62 49 63 60 65 78 66
REMARK SMILES IDX 51 67 38 68 39 69 44 70 40 71 41 72 43 73 45 74 42 75 64 76
REMARK SMILES IDX 65 77 70 78 66 79 67 80 69 81 71 82 68 83 52 84 53 85 58 86
REMARK SMILES IDX 54 87 55 88 57 89 59 90 56 91
REMARK H PARENT 21 5 26 34 76 53 50 64
REMARK Flexibility Score: inf
ROOT
ATOM      1  C   UNL A   1      32.752  29.444  26.117  1.00  0.00     0.116 C 
ENDROOT
BRANCH   1   2
ATOM      2  N   UNL A   1      33.483  29.466  24.868  1.00  0.00    -0.356 N 
ATOM      3  C   UNL A   1      33.005  28.988  23.671  1.00  0.00     0.220 C 
ATOM      4  O   UNL A   1      33.804  28.703  22.781  1.00  0.00    -0.275 OA
ATOM      5  H   UNL A   1      34.389  29.850  24.876  1.00  0.00     0.163 HD
BRANCH   3   6
ATOM      6  C   UNL A   1      31.489  28.854  23.475  1.00  0.00     0.105 C 
BRANCH   6   7
ATOM      7  C   UNL A   1      31.011  27.887  22.356  1.00  0.00     0.049 C 
BRANCH   7   8
ATOM      8  C   UNL A   1      31.026  26.378  22.636  1.00  0.00    -0.005 A 
ATOM      9  C   UNL A   1      33.110  22.593  23.759  1.00  0.00     0.095 A 
ATOM     10  C   UNL A   1      31.752  22.619  24.214  1.00  0.00     0.080 A 
ATOM     11  N   UNL A   1      33.237  23.418  22.706  1.00  0.00    -0.166 NA
ATOM     12  C   UNL A   1      31.212  23.782  23.703  1.00  0.00     0.156 A 
ATOM     13  N   UNL A   1      32.117  24.228  22.748  1.00  0.00    -0.219 N 
ATOM     14  N   UNL A   1      30.131  24.526  24.084  1.00  0.00    -0.234 NA
ATOM     15  C   UNL A   1      31.957  25.507  22.149  1.00  0.00     0.046 A 
ATOM     16  C   UNL A   1      30.046  25.748  23.627  1.00  0.00     0.045 A 
ATOM     17  C   UNL A   1      33.024  25.875  21.160  1.00  0.00     0.067 C 
ATOM     18  C   UNL A   1      28.868  26.557  24.148  1.00  0.00     0.067 C 
BRANCH   9  19
ATOM     19  C   UNL A   1      34.229  21.847  24.419  1.00  0.00     0.009 A 
ATOM     20  C   UNL A   1      35.170  19.583  24.926  1.00  0.00     0.123 A 
ATOM     21  C   UNL A   1      36.441  20.222  24.992  1.00  0.00     0.092 A 
ATOM     22  C   UNL A   1      34.099  20.512  24.943  1.00  0.00     0.057 A 
ATOM     23  C   UNL A   1      36.601  21.601  24.663  1.00  0.00     0.123 A 
ATOM     24  C   UNL A   1      35.506  22.347  24.238  1.00  0.00     0.057 A 
BRANCH  20  25
ATOM     25  O   UNL A   1      34.813  18.058  24.370  1.00  0.00    -0.497 OA
ATOM     26  C   UNL A   1      33.869  16.970  22.926  1.00  0.00     0.278 C 
ENDBRANCH  20  25
BRANCH  23  27
ATOM     27  O   UNL A   1      37.877  22.119  24.698  1.00  0.00    -0.497 OA
ATOM     28  C   UNL A   1      38.323  22.575  25.984  1.00  0.00     0.278 C 
ENDBRANCH  23  27
ENDBRANCH   9  19
ENDBRANCH   7   8
ENDBRANCH   6   7
ENDBRANCH   3   6
ENDBRANCH   1   2
BRANCH   1  29
ATOM     29  C   UNL A   1      33.220  30.629  26.930  1.00  0.00     0.023 C 
BRANCH  29  30
ATOM     30  C   UNL A   1      32.284  31.783  26.929  1.00  0.00     0.023 C 
BRANCH  30  31
ATOM     31  C   UNL A   1      32.823  32.814  27.884  1.00  0.00     0.116 C 
BRANCH  31  32
ATOM     32  N   UNL A   1      32.422  34.280  27.906  1.00  0.00    -0.352 N 
ATOM     33  C   UNL A   1      32.800  35.393  28.777  1.00  0.00     0.251 C 
ATOM     34  H   UNL A   1      31.784  34.529  27.198  1.00  0.00     0.163 HD
ATOM     35  O   UNL A   1      32.237  36.479  28.688  1.00  0.00    -0.269 OA
BRANCH  33  36
ATOM     36  C   UNL A   1      34.003  35.256  29.707  1.00  0.00     0.039 A 
ATOM     37  C   UNL A   1      34.124  34.407  31.337  1.00  0.00     0.014 A 
ATOM     38  C   UNL A   1      35.182  34.899  28.494  1.00  0.00     0.014 A 
ATOM     39  C   UNL A   1      35.311  32.986  31.499  1.00  0.00     0.010 A 
ATOM     40  C   UNL A   1      36.162  33.503  28.577  1.00  0.00     0.010 A 
ATOM     41  C   UNL A   1      36.372  32.619  30.055  1.00  0.00    -0.014 A 
BRANCH  41  42
ATOM     42  C   UNL A   1      37.771  32.055  29.978  1.00  0.00     0.031 A 
ATOM     43  C   UNL A   1      37.778  30.711  29.404  1.00  0.00     0.074 A 
ATOM     44  C   UNL A   1      38.956  32.711  30.300  1.00  0.00     0.049 A 
ATOM     45  N   UNL A   1      37.989  29.620  30.059  1.00  0.00    -0.248 NA
ATOM     46  C   UNL A   1      37.347  30.518  28.017  1.00  0.00     0.031 C 
ATOM     47  C   UNL A   1      39.166  34.085  30.835  1.00  0.00     0.029 A 
ATOM     48  N   UNL A   1      40.289  32.349  30.127  1.00  0.00    -0.354 N 
ATOM     49  C   UNL A   1      38.044  28.639  29.085  1.00  0.00     0.074 A 
ATOM     50  C   UNL A   1      37.392  29.186  27.925  1.00  0.00     0.031 C 
ATOM     51  C   UNL A   1      40.402  34.555  30.577  1.00  0.00     0.029 A 
ATOM     52  C   UNL A   1      41.205  33.436  30.163  1.00  0.00     0.049 A 
ATOM     53  H   UNL A   1      40.574  31.417  29.989  1.00  0.00     0.167 HD
ATOM     54  C   UNL A   1      38.973  27.653  29.201  1.00  0.00     0.037 A 
ATOM     55  C   UNL A   1      42.562  33.461  30.047  1.00  0.00     0.037 A 
ATOM     56  C   UNL A   1      39.494  27.590  30.552  1.00  0.00     0.049 A 
ATOM     57  C   UNL A   1      43.026  32.114  30.398  1.00  0.00     0.074 A 
ATOM     58  C   UNL A   1      38.967  27.383  31.810  1.00  0.00     0.029 A 
ATOM     59  N   UNL A   1      40.718  28.182  30.727  1.00  0.00    -0.354 N 
ATOM     60  N   UNL A   1      42.997  31.639  31.608  1.00  0.00    -0.248 NA
ATOM     61  C   UNL A   1      43.179  31.144  29.331  1.00  0.00     0.031 C 
ATOM     62  C   UNL A   1      39.797  28.113  32.712  1.00  0.00     0.029 A 
ATOM     63  C   UNL A   1      40.848  28.680  31.994  1.00  0.00     0.049 A 
ATOM     64  H   UNL A   1      41.413  28.239  30.031  1.00  0.00     0.167 HD
ATOM     65  C   UNL A   1      42.627  30.321  31.425  1.00  0.00     0.074 A 
ATOM     66  C   UNL A   1      42.928  30.034  30.026  1.00  0.00     0.031 C 
ATOM     67  C   UNL A   1      41.796  29.721  32.327  1.00  0.00     0.037 A 
BRANCH  54  68
ATOM     68  C   UNL A   1      39.773  27.125  28.029  1.00  0.00     0.057 A 
ATOM     69  C   UNL A   1      39.883  25.733  27.862  1.00  0.00     0.134 A 
ATOM     70  C   UNL A   1      40.680  27.889  27.261  1.00  0.00     0.134 A 
ATOM     71  F   UNL A   1      39.104  24.896  28.563  1.00  0.00    -0.206 F 
ATOM     72  C   UNL A   1      40.858  25.149  27.043  1.00  0.00     0.040 A 
ATOM     73  C   UNL A   1      41.619  27.317  26.400  1.00  0.00     0.040 A 
ATOM     74  F   UNL A   1      40.788  29.217  27.373  1.00  0.00    -0.206 F 
ATOM     75  C   UNL A   1      41.732  25.940  26.309  1.00  0.00     0.006 A 
ENDBRANCH  54  68
BRANCH  55  76
ATOM     76  C   UNL A   1      43.519  34.495  29.557  1.00  0.00     0.057 A 
ATOM     77  C   UNL A   1      44.204  35.345  30.448  1.00  0.00     0.134 A 
ATOM     78  C   UNL A   1      44.036  34.448  28.252  1.00  0.00     0.134 A 
ATOM     79  F   UNL A   1      43.799  35.470  31.720  1.00  0.00    -0.206 F 
ATOM     80  C   UNL A   1      45.375  36.034  30.090  1.00  0.00     0.040 A 
ATOM     81  C   UNL A   1      45.204  35.133  27.880  1.00  0.00     0.040 A 
ATOM     82  F   UNL A   1      43.478  33.661  27.321  1.00  0.00    -0.206 F 
ATOM     83  C   UNL A   1      45.893  35.908  28.808  1.00  0.00     0.006 A 
ENDBRANCH  55  76
BRANCH  67  84
ATOM     84  C   UNL A   1      41.746  30.300  33.715  1.00  0.00     0.057 A 
ATOM     85  C   UNL A   1      40.866  31.304  34.148  1.00  0.00     0.134 A 
ATOM     86  C   UNL A   1      42.586  29.738  34.685  1.00  0.00     0.134 A 
ATOM     87  F   UNL A   1      39.971  31.853  33.316  1.00  0.00    -0.206 F 
ATOM     88  C   UNL A   1      40.852  31.748  35.476  1.00  0.00     0.040 A 
ATOM     89  C   UNL A   1      42.556  30.147  36.019  1.00  0.00     0.040 A 
ATOM     90  F   UNL A   1      43.431  28.749  34.354  1.00  0.00    -0.206 F 
ATOM     91  C   UNL A   1      41.694  31.163  36.418  1.00  0.00     0.006 A 
ENDBRANCH  67  84
ENDBRANCH  41  42
ENDBRANCH  33  36
ENDBRANCH  31  32
ENDBRANCH  30  31
ENDBRANCH  29  30
ENDBRANCH   1  29
TORSDOF 16
ENDMDL
MODEL 3
REMARK VINA RESULT:     -12.8      3.313      6.885
REMARK SMILES COc1cc(OC)cc(-c2cc3nc(C)c(CCC(=O)NCCCCNC(=O)c4ccc(-c5c6nc(c(-c7c(F)cccc7F)c7ccc([nH]7)c(-c7c(F)cccc7F)c7nc(c(-c8c(F)cccc8F)c8ccc5[nH]8)C=C7)C=C6)cc4)c(C)n3n2)c1
REMARK SMILES IDX 22 1 21 2 19 3 20 4 18 6 17 7 16 8 10 9 11 10 86 11 12 12
REMARK SMILES IDX 85 13 13 14 83 15 14 16 84 17 15 18 9 19 3 20 4 21 87 22
REMARK SMILES IDX 5 23 8 24 2 25 1 26 6 27 7 28 23 29 24 30 25 31 26 32 27 33
REMARK SMILES IDX 28 35 29 36 30 37 82 38 31 39 81 40 32 41 33 42 34 43 75 44
REMARK SMILES IDX 35 45 80 46 74 47 76 48 36 49 79 50 73 51 72 52 37 54 63 55
REMARK SMILES IDX 46 56 62 57 47 58 50 59 61 60 77 61 48 62 49 63 60 65 78 66
REMARK SMILES IDX 51 67 38 68 39 69 44 70 40 71 41 72 43 73 45 74 42 75 64 76
REMARK SMILES IDX 65 77 70 78 66 79 67 80 69 81 71 82 68 83 52 84 53 85 58 86
REMARK SMILES IDX 54 87 55 88 57 89 59 90 56 91
REMARK H PARENT 21 5 26 34 76 53 50 64
REMARK Flexibility Score: inf
ROOT
ATOM      1  C   UNL A   1      32.307  29.874  25.950  1.00  0.00     0.116 C 
ENDROOT
BRANCH   1   2
ATOM      2  N   UNL A   1      33.214  29.637  24.848  1.00  0.00    -0.356 N 
ATOM      3  C   UNL A   1      32.882  28.988  23.683  1.00  0.00     0.220 C 
ATOM      4  O   UNL A   1      33.778  28.507  22.992  1.00  0.00    -0.275 OA
ATOM      5  H   UNL A   1      34.139  29.964  24.940  1.00  0.00     0.163 HD
BRANCH   3   6
ATOM      6  C   UNL A   1      31.406  28.910  23.270  1.00  0.00     0.105 C 
BRANCH   6   7
ATOM      7  C   UNL A   1      31.044  27.883  22.162  1.00  0.00     0.049 C 
BRANCH   7   8
ATOM      8  C   UNL A   1      31.054  26.389  22.516  1.00  0.00    -0.005 A 
ATOM      9  C   UNL A   1      33.135  22.646  23.779  1.00  0.00     0.095 A 
ATOM     10  C   UNL A   1      31.787  22.707  24.261  1.00  0.00     0.080 A 
ATOM     11  N   UNL A   1      33.245  23.418  22.684  1.00  0.00    -0.166 NA
ATOM     12  C   UNL A   1      31.245  23.847  23.705  1.00  0.00     0.156 A 
ATOM     13  N   UNL A   1      32.131  24.238  22.710  1.00  0.00    -0.219 N 
ATOM     14  N   UNL A   1      30.177  24.618  24.073  1.00  0.00    -0.234 NA
ATOM     15  C   UNL A   1      31.967  25.487  22.052  1.00  0.00     0.046 A 
ATOM     16  C   UNL A   1      30.092  25.817  23.558  1.00  0.00     0.045 A 
ATOM     17  C   UNL A   1      33.016  25.797  21.024  1.00  0.00     0.067 C 
ATOM     18  C   UNL A   1      28.931  26.660  24.063  1.00  0.00     0.067 C 
BRANCH   9  19
ATOM     19  C   UNL A   1      34.262  21.925  24.451  1.00  0.00     0.009 A 
ATOM     20  C   UNL A   1      35.263  19.683  24.942  1.00  0.00     0.123 A 
ATOM     21  C   UNL A   1      36.512  20.360  25.045  1.00  0.00     0.092 A 
ATOM     22  C   UNL A   1      34.164  20.578  24.951  1.00  0.00     0.057 A 
ATOM     23  C   UNL A   1      36.636  21.748  24.742  1.00  0.00     0.123 A 
ATOM     24  C   UNL A   1      35.527  22.467  24.306  1.00  0.00     0.057 A 
BRANCH  20  25
ATOM     25  O   UNL A   1      34.966  18.158  24.354  1.00  0.00    -0.497 OA
ATOM     26  C   UNL A   1      33.773  17.017  23.156  1.00  0.00     0.278 C 
ENDBRANCH  20  25
BRANCH  23  27
ATOM     27  O   UNL A   1      37.894  22.306  24.813  1.00  0.00    -0.497 OA
ATOM     28  C   UNL A   1      38.762  21.747  25.809  1.00  0.00     0.278 C 
ENDBRANCH  23  27
ENDBRANCH   9  19
ENDBRANCH   7   8
ENDBRANCH   6   7
ENDBRANCH   3   6
ENDBRANCH   1   2
BRANCH   1  29
ATOM     29  C   UNL A   1      33.060  29.567  27.224  1.00  0.00     0.023 C 
BRANCH  29  30
ATOM     30  C   UNL A   1      34.453  30.082  27.253  1.00  0.00     0.023 C 
BRANCH  30  31
ATOM     31  C   UNL A   1      34.438  31.411  27.960  1.00  0.00     0.116 C 
BRANCH  31  32
ATOM     32  N   UNL A   1      34.640  31.610  29.453  1.00  0.00    -0.352 N 
ATOM     33  C   UNL A   1      35.807  31.447  30.321  1.00  0.00     0.251 C 
ATOM     34  H   UNL A   1      33.829  31.903  29.929  1.00  0.00     0.163 HD
ATOM     35  O   UNL A   1      35.700  31.535  31.539  1.00  0.00    -0.269 OA
BRANCH  33  36
ATOM     36  C   UNL A   1      37.199  31.311  29.706  1.00  0.00     0.039 A 
ATOM     37  C   UNL A   1      38.676  32.388  29.922  1.00  0.00     0.014 A 
ATOM     38  C   UNL A   1      37.372  29.605  29.926  1.00  0.00     0.014 A 
ATOM     39  C   UNL A   1      40.206  31.638  30.664  1.00  0.00     0.010 A 
ATOM     40  C   UNL A   1      38.711  28.938  30.749  1.00  0.00     0.010 A 
ATOM     41  C   UNL A   1      40.170  29.840  31.006  1.00  0.00    -0.014 A 
BRANCH  41  42
ATOM     42  C   UNL A   1      41.275  28.811  30.988  1.00  0.00     0.031 A 
ATOM     43  C   UNL A   1      41.824  28.588  32.324  1.00  0.00     0.074 A 
ATOM     44  C   UNL A   1      41.701  28.061  29.895  1.00  0.00     0.049 A 
ATOM     45  N   UNL A   1      42.980  28.987  32.733  1.00  0.00    -0.248 NA
ATOM     46  C   UNL A   1      40.966  28.024  33.370  1.00  0.00     0.031 C 
ATOM     47  C   UNL A   1      41.236  28.094  28.481  1.00  0.00     0.029 A 
ATOM     48  N   UNL A   1      42.591  26.995  29.797  1.00  0.00    -0.354 N 
ATOM     49  C   UNL A   1      43.115  28.423  33.989  1.00  0.00     0.074 A 
ATOM     50  C   UNL A   1      41.784  28.086  34.424  1.00  0.00     0.031 C 
ATOM     51  C   UNL A   1      41.499  26.947  27.825  1.00  0.00     0.029 A 
ATOM     52  C   UNL A   1      42.441  26.207  28.622  1.00  0.00     0.049 A 
ATOM     53  H   UNL A   1      43.267  26.800  30.484  1.00  0.00     0.167 HD
ATOM     54  C   UNL A   1      44.323  27.920  34.355  1.00  0.00     0.037 A 
ATOM     55  C   UNL A   1      43.129  25.115  28.189  1.00  0.00     0.037 A 
ATOM     56  C   UNL A   1      45.374  28.423  33.494  1.00  0.00     0.049 A 
ATOM     57  C   UNL A   1      44.428  25.156  28.868  1.00  0.00     0.074 A 
ATOM     58  C   UNL A   1      45.875  29.665  33.162  1.00  0.00     0.029 A 
ATOM     59  N   UNL A   1      45.785  27.554  32.516  1.00  0.00    -0.354 N 
ATOM     60  N   UNL A   1      45.355  26.026  28.592  1.00  0.00    -0.248 NA
ATOM     61  C   UNL A   1      44.561  24.457  30.132  1.00  0.00     0.031 C 
ATOM     62  C   UNL A   1      46.362  29.550  31.826  1.00  0.00     0.029 A 
ATOM     63  C   UNL A   1      46.216  28.229  31.407  1.00  0.00     0.049 A 
ATOM     64  H   UNL A   1      45.772  26.574  32.602  1.00  0.00     0.167 HD
ATOM     65  C   UNL A   1      45.881  26.337  29.830  1.00  0.00     0.074 A 
ATOM     66  C   UNL A   1      45.490  25.229  30.697  1.00  0.00     0.031 C 
ATOM     67  C   UNL A   1      46.270  27.617  30.097  1.00  0.00     0.037 A 
BRANCH  54  68
ATOM     68  C   UNL A   1      44.487  26.617  35.109  1.00  0.00     0.057 A 
ATOM     69  C   UNL A   1      45.343  26.587  36.224  1.00  0.00     0.134 A 
ATOM     70  C   UNL A   1      44.103  25.348  34.620  1.00  0.00     0.134 A 
ATOM     71  F   UNL A   1      45.808  27.725  36.760  1.00  0.00    -0.206 F 
ATOM     72  C   UNL A   1      45.827  25.390  36.769  1.00  0.00     0.040 A 
ATOM     73  C   UNL A   1      44.537  24.149  35.190  1.00  0.00     0.040 A 
ATOM     74  F   UNL A   1      43.381  25.186  33.507  1.00  0.00    -0.206 F 
ATOM     75  C   UNL A   1      45.426  24.166  36.251  1.00  0.00     0.006 A 
ENDBRANCH  54  68
BRANCH  55  76
ATOM     76  C   UNL A   1      42.756  23.959  27.323  1.00  0.00     0.057 A 
ATOM     77  C   UNL A   1      43.255  23.830  26.011  1.00  0.00     0.134 A 
ATOM     78  C   UNL A   1      42.186  22.796  27.868  1.00  0.00     0.134 A 
ATOM     79  F   UNL A   1      43.819  24.875  25.390  1.00  0.00    -0.206 F 
ATOM     80  C   UNL A   1      43.265  22.607  25.321  1.00  0.00     0.040 A 
ATOM     81  C   UNL A   1      42.189  21.567  27.188  1.00  0.00     0.040 A 
ATOM     82  F   UNL A   1      41.695  22.792  29.115  1.00  0.00    -0.206 F 
ATOM     83  C   UNL A   1      42.754  21.464  25.920  1.00  0.00     0.006 A 
ENDBRANCH  55  76
BRANCH  67  84
ATOM     84  C   UNL A   1      46.614  28.496  28.925  1.00  0.00     0.057 A 
ATOM     85  C   UNL A   1      45.713  29.323  28.235  1.00  0.00     0.134 A 
ATOM     86  C   UNL A   1      47.957  28.567  28.535  1.00  0.00     0.134 A 
ATOM     87  F   UNL A   1      44.419  29.385  28.579  1.00  0.00    -0.206 F 
ATOM     88  C   UNL A   1      46.129  30.150  27.185  1.00  0.00     0.040 A 
ATOM     89  C   UNL A   1      48.390  29.414  27.515  1.00  0.00     0.040 A 
ATOM     90  F   UNL A   1      48.882  27.831  29.172  1.00  0.00    -0.206 F 
ATOM     91  C   UNL A   1      47.474  30.204  26.828  1.00  0.00     0.006 A 
ENDBRANCH  67  84
ENDBRANCH  41  42
ENDBRANCH  33  36
ENDBRANCH  31  32
ENDBRANCH  30  31
ENDBRANCH  29  30
ENDBRANCH   1  29
TORSDOF 16
ENDMDL
