MODEL 1
REMARK VINA RESULT:     -11.4      0.000      0.000
REMARK SMILES CC1(C)CCSC[C@H]1[NH+]1CCC(OCCC(=O)NCCCCNC(=O)c2ccc(-c3c4nc(c(-c5c(F)cccc5F)c5ccc([nH]5)c(-c5c(F)cccc5F)c5nc(c(-c6c(F)cccc6F)c6ccc3[nH]6)C=C5)C=C4)cc2)CC1
REMARK SMILES IDX 19 1 18 2 16 3 17 4 15 6 14 7 13 8 12 9 9 10 10 11 81 12
REMARK SMILES IDX 11 14 80 15 8 16 1 17 2 18 3 19 4 20 5 21 7 22 6 23 20 24
REMARK SMILES IDX 21 25 22 26 23 27 24 28 25 30 26 31 27 32 79 33 28 34 78 35
REMARK SMILES IDX 29 36 30 37 31 38 72 39 32 40 77 41 71 42 73 43 33 44 76 45
REMARK SMILES IDX 70 46 69 47 34 49 60 50 43 51 59 52 44 53 47 54 58 55 74 56
REMARK SMILES IDX 45 57 46 58 57 60 75 61 48 62 35 63 36 64 41 65 37 66 38 67
REMARK SMILES IDX 40 68 42 69 39 70 61 71 62 72 67 73 63 74 64 75 66 76 68 77
REMARK SMILES IDX 65 78 49 79 50 80 55 81 51 82 52 83 54 84 56 85 53 86
REMARK H PARENT 18 5 9 13 23 29 73 48 47 59
REMARK Flexibility Score: inf
ROOT
ATOM      1  C   UNL A   1      35.303  20.711  25.298  1.00  0.00     0.116 C 
ENDROOT
BRANCH   1   2
ATOM      2  N   UNL A   1      33.974  20.370  25.769  1.00  0.00    -0.356 N 
ATOM      3  C   UNL A   1      33.082  19.565  25.121  1.00  0.00     0.222 C 
ATOM      4  O   UNL A   1      32.501  18.719  25.809  1.00  0.00    -0.275 OA
ATOM      5  H   UNL A   1      33.692  20.751  26.631  1.00  0.00     0.163 HD
BRANCH   3   6
ATOM      6  C   UNL A   1      32.846  19.666  23.619  1.00  0.00     0.128 C 
BRANCH   6   7
ATOM      7  C   UNL A   1      32.195  20.943  23.014  1.00  0.00     0.170 C 
BRANCH   7   8
ATOM      8  O   UNL A   1      32.326  22.150  23.766  1.00  0.00    -0.377 OA
BRANCH   8   9
ATOM      9  C   UNL A   1      31.215  22.829  24.410  1.00  0.00     0.129 C 
ATOM     10  N   UNL A   1      30.890  25.358  25.837  1.00  0.00    -0.331 N 
ATOM     11  C   UNL A   1      30.338  25.314  24.509  1.00  0.00     0.265 C 
ATOM     12  C   UNL A   1      30.593  24.153  26.587  1.00  0.00     0.265 C 
ATOM     13  H   UNL A   1      30.587  26.219  26.293  1.00  0.00     0.348 HD
ATOM     14  C   UNL A   1      30.830  24.121  23.707  1.00  0.00     0.093 C 
ATOM     15  C   UNL A   1      31.081  22.828  25.941  1.00  0.00     0.093 C 
BRANCH  10  16
ATOM     16  C   UNL A   1      31.851  26.387  26.306  1.00  0.00     0.199 C 
ATOM     17  C   UNL A   1      32.903  26.805  24.065  1.00  0.00     0.017 C 
ATOM     18  C   UNL A   1      33.203  26.441  25.508  1.00  0.00     0.018 C 
ATOM     19  C   UNL A   1      33.966  25.104  25.564  1.00  0.00     0.017 C 
ATOM     20  C   UNL A   1      34.204  27.495  26.031  1.00  0.00     0.023 C 
ATOM     21  C   UNL A   1      33.717  28.930  25.964  1.00  0.00     0.070 C 
ATOM     22  C   UNL A   1      31.210  27.811  26.409  1.00  0.00     0.135 C 
ATOM     23  S   UNL A   1      32.294  29.132  27.063  1.00  0.00    -0.156 SA
ENDBRANCH  10  16
ENDBRANCH   8   9
ENDBRANCH   7   8
ENDBRANCH   6   7
ENDBRANCH   3   6
ENDBRANCH   1   2
BRANCH   1  24
ATOM     24  C   UNL A   1      36.201  19.533  24.940  1.00  0.00     0.023 C 
BRANCH  24  25
ATOM     25  C   UNL A   1      37.630  19.923  24.584  1.00  0.00     0.023 C 
BRANCH  25  26
ATOM     26  C   UNL A   1      38.598  20.227  25.706  1.00  0.00     0.116 C 
BRANCH  26  27
ATOM     27  N   UNL A   1      39.733  19.332  25.740  1.00  0.00    -0.352 N 
ATOM     28  C   UNL A   1      41.035  19.602  26.051  1.00  0.00     0.251 C 
ATOM     29  H   UNL A   1      39.540  18.395  25.506  1.00  0.00     0.163 HD
ATOM     30  O   UNL A   1      41.892  18.714  25.866  1.00  0.00    -0.269 OA
BRANCH  28  31
ATOM     31  C   UNL A   1      41.467  20.918  26.578  1.00  0.00     0.039 A 
ATOM     32  C   UNL A   1      41.423  21.138  27.959  1.00  0.00     0.014 A 
ATOM     33  C   UNL A   1      41.873  21.957  25.735  1.00  0.00     0.014 A 
ATOM     34  C   UNL A   1      41.812  22.371  28.491  1.00  0.00     0.010 A 
ATOM     35  C   UNL A   1      42.350  23.153  26.270  1.00  0.00     0.010 A 
ATOM     36  C   UNL A   1      42.299  23.384  27.651  1.00  0.00    -0.014 A 
BRANCH  36  37
ATOM     37  C   UNL A   1      42.711  24.707  28.188  1.00  0.00     0.031 A 
ATOM     38  C   UNL A   1      41.677  25.781  28.409  1.00  0.00     0.074 A 
ATOM     39  C   UNL A   1      44.012  24.967  28.419  1.00  0.00     0.049 A 
ATOM     40  N   UNL A   1      41.840  27.025  28.782  1.00  0.00    -0.248 NA
ATOM     41  C   UNL A   1      40.276  25.414  28.145  1.00  0.00     0.031 C 
ATOM     42  C   UNL A   1      45.114  24.027  28.206  1.00  0.00     0.029 A 
ATOM     43  N   UNL A   1      44.632  26.106  28.872  1.00  0.00    -0.354 N 
ATOM     44  C   UNL A   1      40.570  27.591  28.775  1.00  0.00     0.074 A 
ATOM     45  C   UNL A   1      39.655  26.572  28.311  1.00  0.00     0.031 C 
ATOM     46  C   UNL A   1      46.270  24.620  28.544  1.00  0.00     0.029 A 
ATOM     47  C   UNL A   1      45.998  25.992  28.961  1.00  0.00     0.049 A 
ATOM     48  H   UNL A   1      44.142  26.927  29.110  1.00  0.00     0.167 HD
ATOM     49  C   UNL A   1      40.196  28.839  29.145  1.00  0.00     0.037 A 
ATOM     50  C   UNL A   1      46.927  26.897  29.325  1.00  0.00     0.037 A 
ATOM     51  C   UNL A   1      41.104  29.837  29.644  1.00  0.00     0.049 A 
ATOM     52  C   UNL A   1      46.489  28.279  29.723  1.00  0.00     0.074 A 
ATOM     53  C   UNL A   1      40.816  31.102  30.126  1.00  0.00     0.029 A 
ATOM     54  N   UNL A   1      42.480  29.680  29.724  1.00  0.00    -0.354 N 
ATOM     55  N   UNL A   1      45.277  28.776  29.782  1.00  0.00    -0.248 NA
ATOM     56  C   UNL A   1      47.547  29.227  30.102  1.00  0.00     0.031 C 
ATOM     57  C   UNL A   1      42.023  31.727  30.455  1.00  0.00     0.029 A 
ATOM     58  C   UNL A   1      43.058  30.838  30.216  1.00  0.00     0.049 A 
ATOM     59  H   UNL A   1      42.971  28.867  29.468  1.00  0.00     0.167 HD
ATOM     60  C   UNL A   1      45.423  30.088  30.214  1.00  0.00     0.074 A 
ATOM     61  C   UNL A   1      46.841  30.302  30.425  1.00  0.00     0.031 C 
ATOM     62  C   UNL A   1      44.472  31.032  30.412  1.00  0.00     0.037 A 
BRANCH  49  63
ATOM     63  C   UNL A   1      38.740  29.192  29.031  1.00  0.00     0.057 A 
ATOM     64  C   UNL A   1      38.165  29.575  27.813  1.00  0.00     0.134 A 
ATOM     65  C   UNL A   1      37.896  29.118  30.147  1.00  0.00     0.134 A 
ATOM     66  F   UNL A   1      38.919  29.677  26.707  1.00  0.00    -0.206 F 
ATOM     67  C   UNL A   1      36.811  29.902  27.713  1.00  0.00     0.040 A 
ATOM     68  C   UNL A   1      36.534  29.415  30.055  1.00  0.00     0.040 A 
ATOM     69  F   UNL A   1      38.378  28.750  31.344  1.00  0.00    -0.206 F 
ATOM     70  C   UNL A   1      35.990  29.816  28.836  1.00  0.00     0.006 A 
ENDBRANCH  49  63
BRANCH  50  71
ATOM     71  C   UNL A   1      48.364  26.521  29.339  1.00  0.00     0.057 A 
ATOM     72  C   UNL A   1      48.951  25.957  30.479  1.00  0.00     0.134 A 
ATOM     73  C   UNL A   1      49.183  26.711  28.219  1.00  0.00     0.134 A 
ATOM     74  F   UNL A   1      48.223  25.769  31.589  1.00  0.00    -0.206 F 
ATOM     75  C   UNL A   1      50.302  25.608  30.509  1.00  0.00     0.040 A 
ATOM     76  C   UNL A   1      50.530  26.345  28.228  1.00  0.00     0.040 A 
ATOM     77  F   UNL A   1      48.680  27.242  27.095  1.00  0.00    -0.206 F 
ATOM     78  C   UNL A   1      51.094  25.796  29.378  1.00  0.00     0.006 A 
ENDBRANCH  50  71
BRANCH  62  79
ATOM     79  C   UNL A   1      44.932  32.380  30.880  1.00  0.00     0.057 A 
ATOM     80  C   UNL A   1      45.221  33.409  29.976  1.00  0.00     0.134 A 
ATOM     81  C   UNL A   1      45.036  32.669  32.247  1.00  0.00     0.134 A 
ATOM     82  F   UNL A   1      45.153  33.191  28.654  1.00  0.00    -0.206 F 
ATOM     83  C   UNL A   1      45.610  34.676  30.414  1.00  0.00     0.040 A 
ATOM     84  C   UNL A   1      45.400  33.938  32.698  1.00  0.00     0.040 A 
ATOM     85  F   UNL A   1      44.764  31.728  33.165  1.00  0.00    -0.206 F 
ATOM     86  C   UNL A   1      45.692  34.944  31.780  1.00  0.00     0.006 A 
ENDBRANCH  62  79
ENDBRANCH  36  37
ENDBRANCH  28  31
ENDBRANCH  26  27
ENDBRANCH  25  26
ENDBRANCH  24  25
ENDBRANCH   1  24
TORSDOF 15
ENDMDL
MODEL 2
REMARK VINA RESULT:     -11.3      4.710      9.418
REMARK SMILES CC1(C)CCSC[C@H]1[NH+]1CCC(OCCC(=O)NCCCCNC(=O)c2ccc(-c3c4nc(c(-c5c(F)cccc5F)c5ccc([nH]5)c(-c5c(F)cccc5F)c5nc(c(-c6c(F)cccc6F)c6ccc3[nH]6)C=C5)C=C4)cc2)CC1
REMARK SMILES IDX 19 1 18 2 16 3 17 4 15 6 14 7 13 8 12 9 9 10 10 11 81 12
REMARK SMILES IDX 11 14 80 15 8 16 1 17 2 18 3 19 4 20 5 21 7 22 6 23 20 24
REMARK SMILES IDX 21 25 22 26 23 27 24 28 25 30 26 31 27 32 79 33 28 34 78 35
REMARK SMILES IDX 29 36 30 37 31 38 72 39 32 40 77 41 71 42 73 43 33 44 76 45
REMARK SMILES IDX 70 46 69 47 34 49 60 50 43 51 59 52 44 53 47 54 58 55 74 56
REMARK SMILES IDX 45 57 46 58 57 60 75 61 48 62 35 63 36 64 41 65 37 66 38 67
REMARK SMILES IDX 40 68 42 69 39 70 61 71 62 72 67 73 63 74 64 75 66 76 68 77
REMARK SMILES IDX 65 78 49 79 50 80 55 81 51 82 52 83 54 84 56 85 53 86
REMARK H PARENT 18 5 9 13 23 29 73 48 47 59
REMARK Flexibility Score: inf
ROOT
ATOM      1  C   UNL A   1      33.069  30.005  26.865  1.00  0.00     0.116 C 
ENDROOT
BRANCH   1   2
ATOM      2  N   UNL A   1      33.797  29.435  25.747  1.00  0.00    -0.356 N 
ATOM      3  C   UNL A   1      33.574  28.208  25.193  1.00  0.00     0.222 C 
ATOM      4  O   UNL A   1      33.541  28.156  23.959  1.00  0.00    -0.275 OA
ATOM      5  H   UNL A   1      34.514  29.982  25.353  1.00  0.00     0.163 HD
BRANCH   3   6
ATOM      6  C   UNL A   1      33.328  26.969  26.047  1.00  0.00     0.128 C 
BRANCH   6   7
ATOM      7  C   UNL A   1      31.886  26.411  26.218  1.00  0.00     0.170 C 
BRANCH   7   8
ATOM      8  O   UNL A   1      31.321  25.734  25.094  1.00  0.00    -0.377 OA
BRANCH   8   9
ATOM      9  C   UNL A   1      31.171  24.293  25.006  1.00  0.00     0.129 C 
ATOM     10  N   UNL A   1      33.008  22.043  24.689  1.00  0.00    -0.331 N 
ATOM     11  C   UNL A   1      32.444  22.210  26.002  1.00  0.00     0.265 C 
ATOM     12  C   UNL A   1      32.013  22.213  23.647  1.00  0.00     0.265 C 
ATOM     13  H   UNL A   1      33.502  21.151  24.651  1.00  0.00     0.348 HD
ATOM     14  C   UNL A   1      31.785  23.565  26.191  1.00  0.00     0.093 C 
ATOM     15  C   UNL A   1      31.273  23.578  23.649  1.00  0.00     0.093 C 
BRANCH  10  16
ATOM     16  C   UNL A   1      34.463  21.955  24.411  1.00  0.00     0.199 C 
ATOM     17  C   UNL A   1      35.147  23.756  26.021  1.00  0.00     0.017 C 
ATOM     18  C   UNL A   1      35.249  23.305  24.575  1.00  0.00     0.018 C 
ATOM     19  C   UNL A   1      34.715  24.407  23.642  1.00  0.00     0.017 C 
ATOM     20  C   UNL A   1      36.756  23.202  24.250  1.00  0.00     0.023 C 
ATOM     21  C   UNL A   1      37.538  22.248  25.132  1.00  0.00     0.070 C 
ATOM     22  C   UNL A   1      35.162  20.803  25.208  1.00  0.00     0.135 C 
ATOM     23  S   UNL A   1      36.943  20.559  24.866  1.00  0.00    -0.156 SA
ENDBRANCH  10  16
ENDBRANCH   8   9
ENDBRANCH   7   8
ENDBRANCH   6   7
ENDBRANCH   3   6
ENDBRANCH   1   2
BRANCH   1  24
ATOM     24  C   UNL A   1      31.690  30.563  26.540  1.00  0.00     0.023 C 
BRANCH  24  25
ATOM     25  C   UNL A   1      31.529  32.047  26.845  1.00  0.00     0.023 C 
BRANCH  25  26
ATOM     26  C   UNL A   1      32.772  32.897  26.980  1.00  0.00     0.116 C 
BRANCH  26  27
ATOM     27  N   UNL A   1      32.532  34.162  27.639  1.00  0.00    -0.352 N 
ATOM     28  C   UNL A   1      33.134  34.684  28.748  1.00  0.00     0.251 C 
ATOM     29  H   UNL A   1      31.836  34.726  27.232  1.00  0.00     0.163 HD
ATOM     30  O   UNL A   1      32.668  35.728  29.249  1.00  0.00    -0.269 OA
BRANCH  28  31
ATOM     31  C   UNL A   1      34.307  34.043  29.389  1.00  0.00     0.039 A 
ATOM     32  C   UNL A   1      35.590  34.442  28.998  1.00  0.00     0.014 A 
ATOM     33  C   UNL A   1      34.168  33.024  30.336  1.00  0.00     0.014 A 
ATOM     34  C   UNL A   1      36.719  33.851  29.573  1.00  0.00     0.010 A 
ATOM     35  C   UNL A   1      35.291  32.500  30.977  1.00  0.00     0.010 A 
ATOM     36  C   UNL A   1      36.579  32.888  30.584  1.00  0.00    -0.014 A 
BRANCH  36  37
ATOM     37  C   UNL A   1      37.761  32.237  31.206  1.00  0.00     0.031 A 
ATOM     38  C   UNL A   1      38.487  31.139  30.470  1.00  0.00     0.074 A 
ATOM     39  C   UNL A   1      38.147  32.583  32.449  1.00  0.00     0.049 A 
ATOM     40  N   UNL A   1      39.478  30.386  30.872  1.00  0.00    -0.248 NA
ATOM     41  C   UNL A   1      38.011  30.829  29.111  1.00  0.00     0.031 C 
ATOM     42  C   UNL A   1      37.504  33.600  33.283  1.00  0.00     0.029 A 
ATOM     43  N   UNL A   1      39.168  32.107  33.236  1.00  0.00    -0.354 N 
ATOM     44  C   UNL A   1      39.728  29.502  29.828  1.00  0.00     0.074 A 
ATOM     45  C   UNL A   1      38.752  29.776  28.798  1.00  0.00     0.031 C 
ATOM     46  C   UNL A   1      38.153  33.684  34.454  1.00  0.00     0.029 A 
ATOM     47  C   UNL A   1      39.234  32.704  34.472  1.00  0.00     0.049 A 
ATOM     48  H   UNL A   1      39.792  31.405  32.941  1.00  0.00     0.167 HD
ATOM     49  C   UNL A   1      40.699  28.563  29.726  1.00  0.00     0.037 A 
ATOM     50  C   UNL A   1      40.066  32.476  35.507  1.00  0.00     0.037 A 
ATOM     51  C   UNL A   1      41.694  28.320  30.738  1.00  0.00     0.049 A 
ATOM     52  C   UNL A   1      41.130  31.421  35.375  1.00  0.00     0.074 A 
ATOM     53  C   UNL A   1      42.770  27.452  30.698  1.00  0.00     0.029 A 
ATOM     54  N   UNL A   1      41.730  28.949  31.973  1.00  0.00    -0.354 N 
ATOM     55  N   UNL A   1      41.400  30.644  34.354  1.00  0.00    -0.248 NA
ATOM     56  C   UNL A   1      42.002  31.209  36.539  1.00  0.00     0.031 C 
ATOM     57  C   UNL A   1      43.432  27.523  31.928  1.00  0.00     0.029 A 
ATOM     58  C   UNL A   1      42.792  28.464  32.717  1.00  0.00     0.049 A 
ATOM     59  H   UNL A   1      41.094  29.638  32.276  1.00  0.00     0.167 HD
ATOM     60  C   UNL A   1      42.478  29.860  34.745  1.00  0.00     0.074 A 
ATOM     61  C   UNL A   1      42.827  30.272  36.089  1.00  0.00     0.031 C 
ATOM     62  C   UNL A   1      43.116  28.884  34.057  1.00  0.00     0.037 A 
BRANCH  49  63
ATOM     63  C   UNL A   1      40.736  27.733  28.475  1.00  0.00     0.057 A 
ATOM     64  C   UNL A   1      40.031  26.528  28.365  1.00  0.00     0.134 A 
ATOM     65  C   UNL A   1      41.462  28.160  27.355  1.00  0.00     0.134 A 
ATOM     66  F   UNL A   1      39.326  26.056  29.404  1.00  0.00    -0.206 F 
ATOM     67  C   UNL A   1      40.070  25.761  27.199  1.00  0.00     0.040 A 
ATOM     68  C   UNL A   1      41.486  27.415  26.173  1.00  0.00     0.040 A 
ATOM     69  F   UNL A   1      42.154  29.308  27.387  1.00  0.00    -0.206 F 
ATOM     70  C   UNL A   1      40.795  26.208  26.096  1.00  0.00     0.006 A 
ENDBRANCH  49  63
BRANCH  50  71
ATOM     71  C   UNL A   1      39.931  33.268  36.756  1.00  0.00     0.057 A 
ATOM     72  C   UNL A   1      39.024  32.891  37.754  1.00  0.00     0.134 A 
ATOM     73  C   UNL A   1      40.702  34.414  36.985  1.00  0.00     0.134 A 
ATOM     74  F   UNL A   1      38.243  31.814  37.584  1.00  0.00    -0.206 F 
ATOM     75  C   UNL A   1      38.880  33.631  38.928  1.00  0.00     0.040 A 
ATOM     76  C   UNL A   1      40.584  35.150  38.165  1.00  0.00     0.040 A 
ATOM     77  F   UNL A   1      41.592  34.826  36.070  1.00  0.00    -0.206 F 
ATOM     78  C   UNL A   1      39.667  34.761  39.139  1.00  0.00     0.006 A 
ENDBRANCH  50  71
BRANCH  62  79
ATOM     79  C   UNL A   1      44.257  28.194  34.745  1.00  0.00     0.057 A 
ATOM     80  C   UNL A   1      45.560  28.704  34.692  1.00  0.00     0.134 A 
ATOM     81  C   UNL A   1      44.042  27.041  35.510  1.00  0.00     0.134 A 
ATOM     82  F   UNL A   1      45.832  29.799  33.965  1.00  0.00    -0.206 F 
ATOM     83  C   UNL A   1      46.613  28.084  35.366  1.00  0.00     0.040 A 
ATOM     84  C   UNL A   1      45.081  26.425  36.208  1.00  0.00     0.040 A 
ATOM     85  F   UNL A   1      42.815  26.507  35.608  1.00  0.00    -0.206 F 
ATOM     86  C   UNL A   1      46.372  26.946  36.134  1.00  0.00     0.006 A 
ENDBRANCH  62  79
ENDBRANCH  36  37
ENDBRANCH  28  31
ENDBRANCH  26  27
ENDBRANCH  25  26
ENDBRANCH  24  25
ENDBRANCH   1  24
TORSDOF 15
ENDMDL
MODEL 3
REMARK VINA RESULT:     -11.3      4.068      9.006
REMARK SMILES CC1(C)CCSC[C@H]1[NH+]1CCC(OCCC(=O)NCCCCNC(=O)c2ccc(-c3c4nc(c(-c5c(F)cccc5F)c5ccc([nH]5)c(-c5c(F)cccc5F)c5nc(c(-c6c(F)cccc6F)c6ccc3[nH]6)C=C5)C=C4)cc2)CC1
REMARK SMILES IDX 19 1 18 2 16 3 17 4 15 6 14 7 13 8 12 9 9 10 10 11 81 12
REMARK SMILES IDX 11 14 80 15 8 16 1 17 2 18 3 19 4 20 5 21 7 22 6 23 20 24
REMARK SMILES IDX 21 25 22 26 23 27 24 28 25 30 26 31 27 32 79 33 28 34 78 35
REMARK SMILES IDX 29 36 30 37 31 38 72 39 32 40 77 41 71 42 73 43 33 44 76 45
REMARK SMILES IDX 70 46 69 47 34 49 60 50 43 51 59 52 44 53 47 54 58 55 74 56
REMARK SMILES IDX 45 57 46 58 57 60 75 61 48 62 35 63 36 64 41 65 37 66 38 67
REMARK SMILES IDX 40 68 42 69 39 70 61 71 62 72 67 73 63 74 64 75 66 76 68 77
REMARK SMILES IDX 65 78 49 79 50 80 55 81 51 82 52 83 54 84 56 85 53 86
REMARK H PARENT 18 5 9 13 23 29 73 48 47 59
REMARK Flexibility Score: inf
ROOT
ATOM      1  C   UNL A   1      33.100  29.924  27.022  1.00  0.00     0.116 C 
ENDROOT
BRANCH   1   2
ATOM      2  N   UNL A   1      33.882  29.376  25.929  1.00  0.00    -0.356 N 
ATOM      3  C   UNL A   1      33.647  28.187  25.300  1.00  0.00     0.222 C 
ATOM      4  O   UNL A   1      33.700  28.196  24.066  1.00  0.00    -0.275 OA
ATOM      5  H   UNL A   1      34.647  29.908  25.614  1.00  0.00     0.163 HD
BRANCH   3   6
ATOM      6  C   UNL A   1      33.290  26.922  26.071  1.00  0.00     0.128 C 
BRANCH   6   7
ATOM      7  C   UNL A   1      31.818  26.421  26.115  1.00  0.00     0.170 C 
BRANCH   7   8
ATOM      8  O   UNL A   1      31.339  25.730  24.961  1.00  0.00    -0.377 OA
BRANCH   8   9
ATOM      9  C   UNL A   1      31.206  24.286  24.878  1.00  0.00     0.129 C 
ATOM     10  N   UNL A   1      33.074  22.052  24.629  1.00  0.00    -0.331 N 
ATOM     11  C   UNL A   1      32.470  22.222  25.924  1.00  0.00     0.265 C 
ATOM     12  C   UNL A   1      32.108  22.207  23.557  1.00  0.00     0.265 C 
ATOM     13  H   UNL A   1      33.578  21.166  24.612  1.00  0.00     0.348 HD
ATOM     14  C   UNL A   1      31.793  23.572  26.085  1.00  0.00     0.093 C 
ATOM     15  C   UNL A   1      31.356  23.564  23.529  1.00  0.00     0.093 C 
BRANCH  10  16
ATOM     16  C   UNL A   1      34.537  21.978  24.395  1.00  0.00     0.199 C 
ATOM     17  C   UNL A   1      35.162  23.735  26.075  1.00  0.00     0.017 C 
ATOM     18  C   UNL A   1      35.312  23.325  24.621  1.00  0.00     0.018 C 
ATOM     19  C   UNL A   1      34.803  24.451  23.703  1.00  0.00     0.017 C 
ATOM     20  C   UNL A   1      36.829  23.236  24.341  1.00  0.00     0.023 C 
ATOM     21  C   UNL A   1      37.587  22.261  25.221  1.00  0.00     0.070 C 
ATOM     22  C   UNL A   1      35.216  20.807  25.182  1.00  0.00     0.135 C 
ATOM     23  S   UNL A   1      37.008  20.579  24.889  1.00  0.00    -0.156 SA
ENDBRANCH  10  16
ENDBRANCH   8   9
ENDBRANCH   7   8
ENDBRANCH   6   7
ENDBRANCH   3   6
ENDBRANCH   1   2
BRANCH   1  24
ATOM     24  C   UNL A   1      31.705  30.414  26.657  1.00  0.00     0.023 C 
BRANCH  24  25
ATOM     25  C   UNL A   1      31.505  31.915  26.828  1.00  0.00     0.023 C 
BRANCH  25  26
ATOM     26  C   UNL A   1      32.727  32.799  26.934  1.00  0.00     0.116 C 
BRANCH  26  27
ATOM     27  N   UNL A   1      32.475  34.041  27.633  1.00  0.00    -0.352 N 
ATOM     28  C   UNL A   1      33.148  34.588  28.687  1.00  0.00     0.251 C 
ATOM     29  H   UNL A   1      31.710  34.565  27.302  1.00  0.00     0.163 HD
ATOM     30  O   UNL A   1      32.669  35.597  29.246  1.00  0.00    -0.269 OA
BRANCH  28  31
ATOM     31  C   UNL A   1      34.413  34.015  29.204  1.00  0.00     0.039 A 
ATOM     32  C   UNL A   1      35.617  34.372  28.586  1.00  0.00     0.014 A 
ATOM     33  C   UNL A   1      34.433  33.096  30.259  1.00  0.00     0.014 A 
ATOM     34  C   UNL A   1      36.828  33.841  29.040  1.00  0.00     0.010 A 
ATOM     35  C   UNL A   1      35.647  32.639  30.771  1.00  0.00     0.010 A 
ATOM     36  C   UNL A   1      36.856  32.985  30.152  1.00  0.00    -0.014 A 
BRANCH  36  37
ATOM     37  C   UNL A   1      38.128  32.399  30.649  1.00  0.00     0.031 A 
ATOM     38  C   UNL A   1      38.659  31.129  30.036  1.00  0.00     0.074 A 
ATOM     39  C   UNL A   1      38.773  32.967  31.686  1.00  0.00     0.049 A 
ATOM     40  N   UNL A   1      39.696  30.411  30.383  1.00  0.00    -0.248 NA
ATOM     41  C   UNL A   1      37.903  30.578  28.899  1.00  0.00     0.031 C 
ATOM     42  C   UNL A   1      38.340  34.174  32.394  1.00  0.00     0.029 A 
ATOM     43  N   UNL A   1      39.925  32.598  32.336  1.00  0.00    -0.354 N 
ATOM     44  C   UNL A   1      39.702  29.317  29.525  1.00  0.00     0.074 A 
ATOM     45  C   UNL A   1      38.538  29.437  28.677  1.00  0.00     0.031 C 
ATOM     46  C   UNL A   1      39.222  34.455  33.366  1.00  0.00     0.029 A 
ATOM     47  C   UNL A   1      40.261  33.430  33.376  1.00  0.00     0.049 A 
ATOM     48  H   UNL A   1      40.458  31.810  32.081  1.00  0.00     0.167 HD
ATOM     49  C   UNL A   1      40.610  28.316  29.435  1.00  0.00     0.037 A 
ATOM     50  C   UNL A   1      41.287  33.365  34.248  1.00  0.00     0.037 A 
ATOM     51  C   UNL A   1      41.789  28.221  30.255  1.00  0.00     0.049 A 
ATOM     52  C   UNL A   1      42.276  32.238  34.136  1.00  0.00     0.074 A 
ATOM     53  C   UNL A   1      42.814  27.294  30.188  1.00  0.00     0.029 A 
ATOM     54  N   UNL A   1      42.097  29.086  31.294  1.00  0.00    -0.354 N 
ATOM     55  N   UNL A   1      42.309  31.252  33.272  1.00  0.00    -0.248 NA
ATOM     56  C   UNL A   1      43.368  32.213  35.119  1.00  0.00     0.031 C 
ATOM     57  C   UNL A   1      43.721  27.573  31.217  1.00  0.00     0.029 A 
ATOM     58  C   UNL A   1      43.280  28.696  31.897  1.00  0.00     0.049 A 
ATOM     59  H   UNL A   1      41.554  29.863  31.563  1.00  0.00     0.167 HD
ATOM     60  C   UNL A   1      43.428  30.496  33.598  1.00  0.00     0.074 A 
ATOM     61  C   UNL A   1      44.060  31.152  34.726  1.00  0.00     0.031 C 
ATOM     62  C   UNL A   1      43.887  29.360  33.023  1.00  0.00     0.037 A 
BRANCH  49  63
ATOM     63  C   UNL A   1      40.366  27.245  28.409  1.00  0.00     0.057 A 
ATOM     64  C   UNL A   1      40.960  27.287  27.142  1.00  0.00     0.134 A 
ATOM     65  C   UNL A   1      39.551  26.145  28.704  1.00  0.00     0.134 A 
ATOM     66  F   UNL A   1      41.743  28.318  26.791  1.00  0.00    -0.206 F 
ATOM     67  C   UNL A   1      40.730  26.289  26.193  1.00  0.00     0.040 A 
ATOM     68  C   UNL A   1      39.334  25.126  27.773  1.00  0.00     0.040 A 
ATOM     69  F   UNL A   1      38.956  26.037  29.901  1.00  0.00    -0.206 F 
ATOM     70  C   UNL A   1      39.918  25.200  26.510  1.00  0.00     0.006 A 
ENDBRANCH  49  63
BRANCH  50  71
ATOM     71  C   UNL A   1      41.433  34.404  35.299  1.00  0.00     0.057 A 
ATOM     72  C   UNL A   1      40.815  34.259  36.547  1.00  0.00     0.134 A 
ATOM     73  C   UNL A   1      42.193  35.561  35.087  1.00  0.00     0.134 A 
ATOM     74  F   UNL A   1      40.058  33.182  36.804  1.00  0.00    -0.206 F 
ATOM     75  C   UNL A   1      40.937  35.232  37.541  1.00  0.00     0.040 A 
ATOM     76  C   UNL A   1      42.341  36.531  36.080  1.00  0.00     0.040 A 
ATOM     77  F   UNL A   1      42.814  35.757  33.915  1.00  0.00    -0.206 F 
ATOM     78  C   UNL A   1      41.708  36.369  37.311  1.00  0.00     0.006 A 
ENDBRANCH  50  71
BRANCH  62  79
ATOM     79  C   UNL A   1      45.131  28.753  33.601  1.00  0.00     0.057 A 
ATOM     80  C   UNL A   1      45.072  27.763  34.589  1.00  0.00     0.134 A 
ATOM     81  C   UNL A   1      46.397  29.124  33.129  1.00  0.00     0.134 A 
ATOM     82  F   UNL A   1      43.889  27.374  35.091  1.00  0.00    -0.206 F 
ATOM     83  C   UNL A   1      46.228  27.170  35.097  1.00  0.00     0.040 A 
ATOM     84  C   UNL A   1      47.559  28.522  33.612  1.00  0.00     0.040 A 
ATOM     85  F   UNL A   1      46.522  30.061  32.177  1.00  0.00    -0.206 F 
ATOM     86  C   UNL A   1      47.476  27.545  34.601  1.00  0.00     0.006 A 
ENDBRANCH  62  79
ENDBRANCH  36  37
ENDBRANCH  28  31
ENDBRANCH  26  27
ENDBRANCH  25  26
ENDBRANCH  24  25
ENDBRANCH   1  24
TORSDOF 15
ENDMDL
