MODEL 1
REMARK VINA RESULT:     -11.9      0.000      0.000
REMARK SMILES COc1cc2cc(C(=O)NCCCCNC(=O)c3ccc(-c4c5nc(c(-c6c(F)cccc6F)c6ccc([nH]6)c(-c6c(F)cccc6F)c6nc(c(-c7c(F)cccc7F)c7ccc4[nH]7)C=C6)C=C5)cc3)n(Cc3ccccc3)c2c(OC)c1OC
REMARK SMILES IDX 12 1 11 2 10 3 8 4 9 5 7 7 3 8 4 9 84 10 5 11 81 12 6 13
REMARK SMILES IDX 80 14 72 15 2 16 1 17 85 18 86 19 82 20 83 21 73 22 74 23
REMARK SMILES IDX 75 24 79 25 76 26 78 27 77 28 13 29 14 30 15 31 16 32 17 34
REMARK SMILES IDX 18 35 19 36 71 37 20 38 70 39 21 40 22 41 23 42 64 43 24 44
REMARK SMILES IDX 69 45 63 46 65 47 25 48 68 49 62 50 61 51 26 53 52 54 35 55
REMARK SMILES IDX 51 56 36 57 39 58 50 59 66 60 37 61 38 62 49 64 67 65 40 66
REMARK SMILES IDX 27 67 28 68 33 69 29 70 30 71 32 72 34 73 31 74 53 75 54 76
REMARK SMILES IDX 59 77 55 78 56 79 58 80 60 81 57 82 41 83 42 84 47 85 43 86
REMARK SMILES IDX 44 87 46 88 48 89 45 90
REMARK H PARENT 10 6 15 33 65 52 39 63
REMARK Flexibility Score: inf
ROOT
ATOM      1  C   UNL A   1      39.722  23.058  27.115  1.00  0.00     0.023 C 
ENDROOT
BRANCH   1   2
ATOM      2  C   UNL A   1      38.510  23.104  26.181  1.00  0.00     0.116 C 
BRANCH   2   3
ATOM      3  N   UNL A   1      38.199  21.791  25.658  1.00  0.00    -0.351 N 
ATOM      4  C   UNL A   1      37.161  21.249  24.954  1.00  0.00     0.267 C 
ATOM      5  O   UNL A   1      37.390  20.094  24.569  1.00  0.00    -0.268 OA
ATOM      6  H   UNL A   1      38.903  21.132  25.857  1.00  0.00     0.163 HD
BRANCH   4   7
ATOM      7  C   UNL A   1      35.895  21.895  24.614  1.00  0.00     0.108 A 
ATOM      8  C   UNL A   1      32.551  24.693  22.972  1.00  0.00     0.165 A 
ATOM      9  C   UNL A   1      33.886  24.354  22.720  1.00  0.00     0.061 A 
ATOM     10  C   UNL A   1      31.815  24.077  23.999  1.00  0.00     0.205 A 
ATOM     11  C   UNL A   1      34.504  23.379  23.517  1.00  0.00     0.008 A 
ATOM     12  C   UNL A   1      32.432  23.099  24.817  1.00  0.00     0.189 A 
ATOM     13  C   UNL A   1      35.825  22.887  23.629  1.00  0.00     0.042 A 
ATOM     14  C   UNL A   1      33.762  22.720  24.487  1.00  0.00     0.096 A 
ATOM     15  N   UNL A   1      34.559  21.640  24.911  1.00  0.00    -0.329 N 
BRANCH   8  16
ATOM     16  O   UNL A   1      32.002  25.650  22.151  1.00  0.00    -0.493 OA
ATOM     17  C   UNL A   1      32.602  25.606  20.856  1.00  0.00     0.278 C 
ENDBRANCH   8  16
BRANCH  10  18
ATOM     18  O   UNL A   1      30.532  24.466  24.306  1.00  0.00    -0.490 OA
ATOM     19  C   UNL A   1      30.409  25.589  25.177  1.00  0.00     0.278 C 
ENDBRANCH  10  18
BRANCH  12  20
ATOM     20  O   UNL A   1      31.908  22.514  25.937  1.00  0.00    -0.491 OA
ATOM     21  C   UNL A   1      32.166  23.081  27.210  1.00  0.00     0.278 C 
ENDBRANCH  12  20
BRANCH  15  22
ATOM     22  C   UNL A   1      33.930  20.435  25.454  1.00  0.00     0.158 C 
BRANCH  22  23
ATOM     23  C   UNL A   1      33.546  19.300  24.530  1.00  0.00    -0.028 A 
ATOM     24  C   UNL A   1      32.470  19.285  23.637  1.00  0.00     0.005 A 
ATOM     25  C   UNL A   1      34.433  18.202  24.512  1.00  0.00     0.005 A 
ATOM     26  C   UNL A   1      32.352  18.268  22.684  1.00  0.00     0.000 A 
ATOM     27  C   UNL A   1      34.296  17.171  23.584  1.00  0.00     0.000 A 
ATOM     28  C   UNL A   1      33.268  17.221  22.650  1.00  0.00     0.000 A 
ENDBRANCH  22  23
ENDBRANCH  15  22
ENDBRANCH   4   7
ENDBRANCH   2   3
ENDBRANCH   1   2
BRANCH   1  29
ATOM     29  C   UNL A   1      40.441  21.714  27.253  1.00  0.00     0.023 C 
BRANCH  29  30
ATOM     30  C   UNL A   1      41.967  21.791  27.240  1.00  0.00     0.116 C 
BRANCH  30  31
ATOM     31  N   UNL A   1      42.508  22.263  25.981  1.00  0.00    -0.352 N 
ATOM     32  C   UNL A   1      42.949  23.465  25.507  1.00  0.00     0.251 C 
ATOM     33  H   UNL A   1      42.572  21.549  25.307  1.00  0.00     0.163 HD
ATOM     34  O   UNL A   1      43.474  23.441  24.386  1.00  0.00    -0.269 OA
BRANCH  32  35
ATOM     35  C   UNL A   1      42.807  24.778  26.187  1.00  0.00     0.039 A 
ATOM     36  C   UNL A   1      43.478  25.160  27.347  1.00  0.00     0.014 A 
ATOM     37  C   UNL A   1      41.830  25.649  25.659  1.00  0.00     0.014 A 
ATOM     38  C   UNL A   1      43.109  26.323  28.015  1.00  0.00     0.010 A 
ATOM     39  C   UNL A   1      41.473  26.824  26.313  1.00  0.00     0.010 A 
ATOM     40  C   UNL A   1      42.078  27.134  27.522  1.00  0.00    -0.014 A 
BRANCH  40  41
ATOM     41  C   UNL A   1      41.762  28.348  28.273  1.00  0.00     0.031 A 
ATOM     42  C   UNL A   1      42.797  29.413  28.157  1.00  0.00     0.074 A 
ATOM     43  C   UNL A   1      40.634  28.551  28.983  1.00  0.00     0.049 A 
ATOM     44  N   UNL A   1      43.593  29.842  29.081  1.00  0.00    -0.248 NA
ATOM     45  C   UNL A   1      43.081  29.957  26.821  1.00  0.00     0.031 C 
ATOM     46  C   UNL A   1      39.409  27.751  29.007  1.00  0.00     0.029 A 
ATOM     47  N   UNL A   1      40.330  29.593  29.810  1.00  0.00    -0.354 N 
ATOM     48  C   UNL A   1      44.366  30.841  28.493  1.00  0.00     0.074 A 
ATOM     49  C   UNL A   1      44.110  30.767  27.078  1.00  0.00     0.031 C 
ATOM     50  C   UNL A   1      38.429  28.448  29.629  1.00  0.00     0.029 A 
ATOM     51  C   UNL A   1      38.991  29.674  30.172  1.00  0.00     0.049 A 
ATOM     52  H   UNL A   1      41.006  30.237  30.125  1.00  0.00     0.167 HD
ATOM     53  C   UNL A   1      44.990  31.785  29.249  1.00  0.00     0.037 A 
ATOM     54  C   UNL A   1      38.388  30.696  30.831  1.00  0.00     0.037 A 
ATOM     55  C   UNL A   1      45.121  31.351  30.618  1.00  0.00     0.049 A 
ATOM     56  C   UNL A   1      39.440  31.477  31.524  1.00  0.00     0.074 A 
ATOM     57  C   UNL A   1      45.749  30.298  31.257  1.00  0.00     0.029 A 
ATOM     58  N   UNL A   1      44.250  31.872  31.541  1.00  0.00    -0.354 N 
ATOM     59  N   UNL A   1      40.100  31.045  32.561  1.00  0.00    -0.248 NA
ATOM     60  C   UNL A   1      40.071  32.564  30.793  1.00  0.00     0.031 C 
ATOM     61  C   UNL A   1      44.873  29.940  32.325  1.00  0.00     0.029 A 
ATOM     62  C   UNL A   1      43.799  30.830  32.308  1.00  0.00     0.049 A 
ATOM     63  H   UNL A   1      43.996  32.818  31.636  1.00  0.00     0.167 HD
ATOM     64  C   UNL A   1      41.403  31.467  32.345  1.00  0.00     0.074 A 
ATOM     65  C   UNL A   1      41.307  32.475  31.291  1.00  0.00     0.031 C 
ATOM     66  C   UNL A   1      42.461  30.759  32.838  1.00  0.00     0.037 A 
BRANCH  53  67
ATOM     67  C   UNL A   1      45.097  33.244  28.862  1.00  0.00     0.057 A 
ATOM     68  C   UNL A   1      44.002  34.128  28.784  1.00  0.00     0.134 A 
ATOM     69  C   UNL A   1      46.360  33.866  28.909  1.00  0.00     0.134 A 
ATOM     70  F   UNL A   1      42.733  33.708  28.752  1.00  0.00    -0.206 F 
ATOM     71  C   UNL A   1      44.145  35.517  28.838  1.00  0.00     0.040 A 
ATOM     72  C   UNL A   1      46.511  35.255  29.009  1.00  0.00     0.040 A 
ATOM     73  F   UNL A   1      47.486  33.139  28.961  1.00  0.00    -0.206 F 
ATOM     74  C   UNL A   1      45.398  36.085  28.997  1.00  0.00     0.006 A 
ENDBRANCH  53  67
BRANCH  54  75
ATOM     75  C   UNL A   1      37.009  31.216  30.686  1.00  0.00     0.057 A 
ATOM     76  C   UNL A   1      36.566  31.764  29.471  1.00  0.00     0.134 A 
ATOM     77  C   UNL A   1      36.194  31.457  31.803  1.00  0.00     0.134 A 
ATOM     78  F   UNL A   1      37.304  31.662  28.358  1.00  0.00    -0.206 F 
ATOM     79  C   UNL A   1      35.395  32.524  29.373  1.00  0.00     0.040 A 
ATOM     80  C   UNL A   1      35.020  32.221  31.720  1.00  0.00     0.040 A 
ATOM     81  F   UNL A   1      36.551  31.015  33.017  1.00  0.00    -0.206 F 
ATOM     82  C   UNL A   1      34.623  32.767  30.503  1.00  0.00     0.006 A 
ENDBRANCH  54  75
BRANCH  66  83
ATOM     83  C   UNL A   1      42.168  29.676  33.837  1.00  0.00     0.057 A 
ATOM     84  C   UNL A   1      42.334  29.954  35.198  1.00  0.00     0.134 A 
ATOM     85  C   UNL A   1      41.829  28.357  33.497  1.00  0.00     0.134 A 
ATOM     86  F   UNL A   1      42.718  31.178  35.596  1.00  0.00    -0.206 F 
ATOM     87  C   UNL A   1      42.143  28.981  36.179  1.00  0.00     0.040 A 
ATOM     88  C   UNL A   1      41.597  27.381  34.472  1.00  0.00     0.040 A 
ATOM     89  F   UNL A   1      41.755  27.965  32.218  1.00  0.00    -0.206 F 
ATOM     90  C   UNL A   1      41.756  27.693  35.820  1.00  0.00     0.006 A 
ENDBRANCH  66  83
ENDBRANCH  40  41
ENDBRANCH  32  35
ENDBRANCH  30  31
ENDBRANCH  29  30
ENDBRANCH   1  29
TORSDOF 16
ENDMDL
MODEL 2
REMARK VINA RESULT:     -11.8      2.491      4.366
REMARK SMILES COc1cc2cc(C(=O)NCCCCNC(=O)c3ccc(-c4c5nc(c(-c6c(F)cccc6F)c6ccc([nH]6)c(-c6c(F)cccc6F)c6nc(c(-c7c(F)cccc7F)c7ccc4[nH]7)C=C6)C=C5)cc3)n(Cc3ccccc3)c2c(OC)c1OC
REMARK SMILES IDX 12 1 11 2 10 3 8 4 9 5 7 7 3 8 4 9 84 10 5 11 81 12 6 13
REMARK SMILES IDX 80 14 72 15 2 16 1 17 85 18 86 19 82 20 83 21 73 22 74 23
REMARK SMILES IDX 75 24 79 25 76 26 78 27 77 28 13 29 14 30 15 31 16 32 17 34
REMARK SMILES IDX 18 35 19 36 71 37 20 38 70 39 21 40 22 41 23 42 64 43 24 44
REMARK SMILES IDX 69 45 63 46 65 47 25 48 68 49 62 50 61 51 26 53 52 54 35 55
REMARK SMILES IDX 51 56 36 57 39 58 50 59 66 60 37 61 38 62 49 64 67 65 40 66
REMARK SMILES IDX 27 67 28 68 33 69 29 70 30 71 32 72 34 73 31 74 53 75 54 76
REMARK SMILES IDX 59 77 55 78 56 79 58 80 60 81 57 82 41 83 42 84 47 85 43 86
REMARK SMILES IDX 44 87 46 88 48 89 45 90
REMARK H PARENT 10 6 15 33 65 52 39 63
REMARK Flexibility Score: inf
ROOT
ATOM      1  C   UNL A   1      40.941  21.145  26.026  1.00  0.00     0.023 C 
ENDROOT
BRANCH   1   2
ATOM      2  C   UNL A   1      39.856  21.718  26.939  1.00  0.00     0.116 C 
BRANCH   2   3
ATOM      3  N   UNL A   1      39.148  22.806  26.299  1.00  0.00    -0.351 N 
ATOM      4  C   UNL A   1      37.915  22.960  25.732  1.00  0.00     0.267 C 
ATOM      5  O   UNL A   1      37.660  24.137  25.442  1.00  0.00    -0.268 OA
ATOM      6  H   UNL A   1      39.683  23.631  26.264  1.00  0.00     0.163 HD
BRANCH   4   7
ATOM      7  C   UNL A   1      36.923  21.915  25.485  1.00  0.00     0.108 A 
ATOM      8  C   UNL A   1      34.688  17.990  24.342  1.00  0.00     0.165 A 
ATOM      9  C   UNL A   1      35.976  18.438  24.658  1.00  0.00     0.061 A 
ATOM     10  C   UNL A   1      33.585  18.860  24.341  1.00  0.00     0.205 A 
ATOM     11  C   UNL A   1      36.170  19.792  24.974  1.00  0.00     0.008 A 
ATOM     12  C   UNL A   1      33.769  20.230  24.649  1.00  0.00     0.189 A 
ATOM     13  C   UNL A   1      37.307  20.597  25.215  1.00  0.00     0.042 A 
ATOM     14  C   UNL A   1      35.074  20.639  25.041  1.00  0.00     0.096 A 
ATOM     15  N   UNL A   1      35.542  21.825  25.637  1.00  0.00    -0.329 N 
BRANCH   8  16
ATOM     16  O   UNL A   1      34.566  16.652  24.049  1.00  0.00    -0.493 OA
ATOM     17  C   UNL A   1      34.260  15.904  25.225  1.00  0.00     0.278 C 
ENDBRANCH   8  16
BRANCH  10  18
ATOM     18  O   UNL A   1      32.333  18.445  23.950  1.00  0.00    -0.490 OA
ATOM     19  C   UNL A   1      32.165  18.187  22.557  1.00  0.00     0.278 C 
ENDBRANCH  10  18
BRANCH  12  20
ATOM     20  O   UNL A   1      32.837  21.228  24.553  1.00  0.00    -0.491 OA
ATOM     21  C   UNL A   1      32.549  21.800  23.289  1.00  0.00     0.278 C 
ENDBRANCH  12  20
BRANCH  15  22
ATOM     22  C   UNL A   1      34.620  22.682  26.383  1.00  0.00     0.158 C 
BRANCH  22  23
ATOM     23  C   UNL A   1      34.133  23.980  25.777  1.00  0.00    -0.028 A 
ATOM     24  C   UNL A   1      34.616  24.584  24.611  1.00  0.00     0.005 A 
ATOM     25  C   UNL A   1      33.015  24.566  26.408  1.00  0.00     0.005 A 
ATOM     26  C   UNL A   1      33.936  25.662  24.036  1.00  0.00     0.000 A 
ATOM     27  C   UNL A   1      32.358  25.663  25.852  1.00  0.00     0.000 A 
ATOM     28  C   UNL A   1      32.804  26.193  24.648  1.00  0.00     0.000 A 
ENDBRANCH  22  23
ENDBRANCH  15  22
ENDBRANCH   4   7
ENDBRANCH   2   3
ENDBRANCH   1   2
BRANCH   1  29
ATOM     29  C   UNL A   1      41.197  19.638  26.113  1.00  0.00     0.023 C 
BRANCH  29  30
ATOM     30  C   UNL A   1      42.659  19.240  26.306  1.00  0.00     0.116 C 
BRANCH  30  31
ATOM     31  N   UNL A   1      43.488  19.516  25.150  1.00  0.00    -0.352 N 
ATOM     32  C   UNL A   1      44.218  20.585  24.715  1.00  0.00     0.251 C 
ATOM     33  H   UNL A   1      43.537  18.753  24.531  1.00  0.00     0.163 HD
ATOM     34  O   UNL A   1      44.917  20.387  23.712  1.00  0.00    -0.269 OA
BRANCH  32  35
ATOM     35  C   UNL A   1      44.202  21.950  25.301  1.00  0.00     0.039 A 
ATOM     36  C   UNL A   1      44.764  22.306  26.525  1.00  0.00     0.014 A 
ATOM     37  C   UNL A   1      43.462  22.922  24.594  1.00  0.00     0.014 A 
ATOM     38  C   UNL A   1      44.504  23.558  27.074  1.00  0.00     0.010 A 
ATOM     39  C   UNL A   1      43.217  24.183  25.130  1.00  0.00     0.010 A 
ATOM     40  C   UNL A   1      43.697  24.481  26.396  1.00  0.00    -0.014 A 
BRANCH  40  41
ATOM     41  C   UNL A   1      43.485  25.781  27.032  1.00  0.00     0.031 A 
ATOM     42  C   UNL A   1      44.557  26.774  26.740  1.00  0.00     0.074 A 
ATOM     43  C   UNL A   1      42.417  26.114  27.784  1.00  0.00     0.049 A 
ATOM     44  N   UNL A   1      45.431  27.255  27.562  1.00  0.00    -0.248 NA
ATOM     45  C   UNL A   1      44.775  27.161  25.338  1.00  0.00     0.031 C 
ATOM     46  C   UNL A   1      41.162  25.384  27.969  1.00  0.00     0.029 A 
ATOM     47  N   UNL A   1      42.215  27.250  28.513  1.00  0.00    -0.354 N 
ATOM     48  C   UNL A   1      46.206  28.146  26.825  1.00  0.00     0.074 A 
ATOM     49  C   UNL A   1      45.854  27.939  25.444  1.00  0.00     0.031 C 
ATOM     50  C   UNL A   1      40.257  26.191  28.572  1.00  0.00     0.029 A 
ATOM     51  C   UNL A   1      40.908  27.437  28.945  1.00  0.00     0.049 A 
ATOM     52  H   UNL A   1      42.938  27.887  28.716  1.00  0.00     0.167 HD
ATOM     53  C   UNL A   1      46.920  29.130  27.437  1.00  0.00     0.037 A 
ATOM     54  C   UNL A   1      40.396  28.551  29.528  1.00  0.00     0.037 A 
ATOM     55  C   UNL A   1      47.123  28.834  28.833  1.00  0.00     0.049 A 
ATOM     56  C   UNL A   1      41.525  29.344  30.068  1.00  0.00     0.074 A 
ATOM     57  C   UNL A   1      47.744  27.822  29.541  1.00  0.00     0.029 A 
ATOM     58  N   UNL A   1      46.339  29.491  29.748  1.00  0.00    -0.354 N 
ATOM     59  N   UNL A   1      42.234  28.988  31.102  1.00  0.00    -0.248 NA
ATOM     60  C   UNL A   1      42.154  30.316  29.187  1.00  0.00     0.031 C 
ATOM     61  C   UNL A   1      46.926  27.622  30.693  1.00  0.00     0.029 A 
ATOM     62  C   UNL A   1      45.894  28.559  30.647  1.00  0.00     0.049 A 
ATOM     63  H   UNL A   1      46.134  30.454  29.757  1.00  0.00     0.167 HD
ATOM     64  C   UNL A   1      43.536  29.318  30.763  1.00  0.00     0.074 A 
ATOM     65  C   UNL A   1      43.415  30.216  29.616  1.00  0.00     0.031 C 
ATOM     66  C   UNL A   1      44.593  28.612  31.263  1.00  0.00     0.037 A 
BRANCH  53  67
ATOM     67  C   UNL A   1      47.067  30.535  26.891  1.00  0.00     0.057 A 
ATOM     68  C   UNL A   1      45.987  31.404  26.636  1.00  0.00     0.134 A 
ATOM     69  C   UNL A   1      48.329  31.156  26.950  1.00  0.00     0.134 A 
ATOM     70  F   UNL A   1      44.720  30.985  26.568  1.00  0.00    -0.206 F 
ATOM     71  C   UNL A   1      46.138  32.790  26.537  1.00  0.00     0.040 A 
ATOM     72  C   UNL A   1      48.486  32.547  26.898  1.00  0.00     0.040 A 
ATOM     73  F   UNL A   1      49.443  30.439  27.163  1.00  0.00    -0.206 F 
ATOM     74  C   UNL A   1      47.384  33.371  26.714  1.00  0.00     0.006 A 
ENDBRANCH  53  67
BRANCH  54  75
ATOM     75  C   UNL A   1      39.035  29.123  29.413  1.00  0.00     0.057 A 
ATOM     76  C   UNL A   1      38.131  29.061  30.487  1.00  0.00     0.134 A 
ATOM     77  C   UNL A   1      38.490  29.479  28.170  1.00  0.00     0.134 A 
ATOM     78  F   UNL A   1      38.528  28.658  31.702  1.00  0.00    -0.206 F 
ATOM     79  C   UNL A   1      36.764  29.316  30.332  1.00  0.00     0.040 A 
ATOM     80  C   UNL A   1      37.121  29.732  28.000  1.00  0.00     0.040 A 
ATOM     81  F   UNL A   1      39.261  29.522  27.075  1.00  0.00    -0.206 F 
ATOM     82  C   UNL A   1      36.251  29.639  29.082  1.00  0.00     0.006 A 
ENDBRANCH  54  75
BRANCH  66  83
ATOM     83  C   UNL A   1      44.319  27.654  32.387  1.00  0.00     0.057 A 
ATOM     84  C   UNL A   1      44.431  28.114  33.704  1.00  0.00     0.134 A 
ATOM     85  C   UNL A   1      44.049  26.288  32.215  1.00  0.00     0.134 A 
ATOM     86  F   UNL A   1      44.748  29.396  33.947  1.00  0.00    -0.206 F 
ATOM     87  C   UNL A   1      44.255  27.267  34.799  1.00  0.00     0.040 A 
ATOM     88  C   UNL A   1      43.832  25.436  33.303  1.00  0.00     0.040 A 
ATOM     89  F   UNL A   1      44.031  25.730  30.997  1.00  0.00    -0.206 F 
ATOM     90  C   UNL A   1      43.937  25.927  34.602  1.00  0.00     0.006 A 
ENDBRANCH  66  83
ENDBRANCH  40  41
ENDBRANCH  32  35
ENDBRANCH  30  31
ENDBRANCH  29  30
ENDBRANCH   1  29
TORSDOF 16
ENDMDL
MODEL 3
REMARK VINA RESULT:     -11.3      3.080      8.251
REMARK SMILES COc1cc2cc(C(=O)NCCCCNC(=O)c3ccc(-c4c5nc(c(-c6c(F)cccc6F)c6ccc([nH]6)c(-c6c(F)cccc6F)c6nc(c(-c7c(F)cccc7F)c7ccc4[nH]7)C=C6)C=C5)cc3)n(Cc3ccccc3)c2c(OC)c1OC
REMARK SMILES IDX 12 1 11 2 10 3 8 4 9 5 7 7 3 8 4 9 84 10 5 11 81 12 6 13
REMARK SMILES IDX 80 14 72 15 2 16 1 17 85 18 86 19 82 20 83 21 73 22 74 23
REMARK SMILES IDX 75 24 79 25 76 26 78 27 77 28 13 29 14 30 15 31 16 32 17 34
REMARK SMILES IDX 18 35 19 36 71 37 20 38 70 39 21 40 22 41 23 42 64 43 24 44
REMARK SMILES IDX 69 45 63 46 65 47 25 48 68 49 62 50 61 51 26 53 52 54 35 55
REMARK SMILES IDX 51 56 36 57 39 58 50 59 66 60 37 61 38 62 49 64 67 65 40 66
REMARK SMILES IDX 27 67 28 68 33 69 29 70 30 71 32 72 34 73 31 74 53 75 54 76
REMARK SMILES IDX 59 77 55 78 56 79 58 80 60 81 57 82 41 83 42 84 47 85 43 86
REMARK SMILES IDX 44 87 46 88 48 89 45 90
REMARK H PARENT 10 6 15 33 65 52 39 63
REMARK Flexibility Score: inf
ROOT
ATOM      1  C   UNL A   1      32.285  29.497  26.908  1.00  0.00     0.023 C 
ENDROOT
BRANCH   1   2
ATOM      2  C   UNL A   1      31.944  29.952  25.488  1.00  0.00     0.116 C 
BRANCH   2   3
ATOM      3  N   UNL A   1      33.041  29.706  24.578  1.00  0.00    -0.351 N 
ATOM      4  C   UNL A   1      33.588  28.597  23.995  1.00  0.00     0.267 C 
ATOM      5  O   UNL A   1      34.439  28.872  23.137  1.00  0.00    -0.268 OA
ATOM      6  H   UNL A   1      33.505  30.534  24.317  1.00  0.00     0.163 HD
BRANCH   4   7
ATOM      7  C   UNL A   1      33.248  27.202  24.266  1.00  0.00     0.108 A 
ATOM      8  C   UNL A   1      32.879  22.903  26.024  1.00  0.00     0.165 A 
ATOM      9  C   UNL A   1      33.263  24.192  26.413  1.00  0.00     0.061 A 
ATOM     10  C   UNL A   1      32.405  22.634  24.729  1.00  0.00     0.205 A 
ATOM     11  C   UNL A   1      33.177  25.239  25.483  1.00  0.00     0.008 A 
ATOM     12  C   UNL A   1      32.323  23.681  23.778  1.00  0.00     0.189 A 
ATOM     13  C   UNL A   1      33.577  26.596  25.484  1.00  0.00     0.042 A 
ATOM     14  C   UNL A   1      32.645  24.993  24.226  1.00  0.00     0.096 A 
ATOM     15  N   UNL A   1      32.438  26.257  23.643  1.00  0.00    -0.329 N 
BRANCH   8  16
ATOM     16  O   UNL A   1      32.982  21.923  26.983  1.00  0.00    -0.493 OA
ATOM     17  C   UNL A   1      33.295  22.494  28.254  1.00  0.00     0.278 C 
ENDBRANCH   8  16
BRANCH  10  18
ATOM     18  O   UNL A   1      32.108  21.357  24.315  1.00  0.00    -0.490 OA
ATOM     19  C   UNL A   1      33.223  20.499  24.079  1.00  0.00     0.278 C 
ENDBRANCH  10  18
BRANCH  12  20
ATOM     20  O   UNL A   1      32.024  23.565  22.448  1.00  0.00    -0.491 OA
ATOM     21  C   UNL A   1      33.065  23.345  21.512  1.00  0.00     0.278 C 
ENDBRANCH  12  20
BRANCH  15  22
ATOM     22  C   UNL A   1      31.400  26.432  22.626  1.00  0.00     0.158 C 
BRANCH  22  23
ATOM     23  C   UNL A   1      30.356  27.515  22.789  1.00  0.00    -0.028 A 
ATOM     24  C   UNL A   1      30.435  28.824  22.300  1.00  0.00     0.005 A 
ATOM     25  C   UNL A   1      29.152  27.114  23.407  1.00  0.00     0.005 A 
ATOM     26  C   UNL A   1      29.315  29.660  22.325  1.00  0.00     0.000 A 
ATOM     27  C   UNL A   1      28.045  27.961  23.462  1.00  0.00     0.000 A 
ATOM     28  C   UNL A   1      28.120  29.226  22.893  1.00  0.00     0.000 A 
ENDBRANCH  22  23
ENDBRANCH  15  22
ENDBRANCH   4   7
ENDBRANCH   2   3
ENDBRANCH   1   2
BRANCH   1  29
ATOM     29  C   UNL A   1      33.609  29.993  27.497  1.00  0.00     0.023 C 
BRANCH  29  30
ATOM     30  C   UNL A   1      33.759  31.511  27.564  1.00  0.00     0.116 C 
BRANCH  30  31
ATOM     31  N   UNL A   1      34.025  32.005  28.901  1.00  0.00    -0.352 N 
ATOM     32  C   UNL A   1      35.083  31.948  29.760  1.00  0.00     0.251 C 
ATOM     33  H   UNL A   1      33.261  32.496  29.279  1.00  0.00     0.163 HD
ATOM     34  O   UNL A   1      34.974  32.622  30.794  1.00  0.00    -0.269 OA
BRANCH  32  35
ATOM     35  C   UNL A   1      36.307  31.123  29.588  1.00  0.00     0.039 A 
ATOM     36  C   UNL A   1      36.349  29.731  29.625  1.00  0.00     0.014 A 
ATOM     37  C   UNL A   1      37.524  31.829  29.487  1.00  0.00     0.014 A 
ATOM     38  C   UNL A   1      37.573  29.072  29.668  1.00  0.00     0.010 A 
ATOM     39  C   UNL A   1      38.751  31.173  29.509  1.00  0.00     0.010 A 
ATOM     40  C   UNL A   1      38.774  29.793  29.653  1.00  0.00    -0.014 A 
BRANCH  40  41
ATOM     41  C   UNL A   1      40.019  29.026  29.683  1.00  0.00     0.031 A 
ATOM     42  C   UNL A   1      40.585  28.852  31.050  1.00  0.00     0.074 A 
ATOM     43  C   UNL A   1      40.616  28.471  28.609  1.00  0.00     0.049 A 
ATOM     44  N   UNL A   1      41.667  29.372  31.527  1.00  0.00    -0.248 NA
ATOM     45  C   UNL A   1      39.772  28.138  32.047  1.00  0.00     0.031 C 
ATOM     46  C   UNL A   1      40.095  28.310  27.251  1.00  0.00     0.029 A 
ATOM     47  N   UNL A   1      41.835  27.861  28.539  1.00  0.00    -0.354 N 
ATOM     48  C   UNL A   1      41.774  28.910  32.837  1.00  0.00     0.074 A 
ATOM     49  C   UNL A   1      40.516  28.280  33.145  1.00  0.00     0.031 C 
ATOM     50  C   UNL A   1      40.893  27.461  26.561  1.00  0.00     0.029 A 
ATOM     51  C   UNL A   1      42.053  27.135  27.375  1.00  0.00     0.049 A 
ATOM     52  H   UNL A   1      42.506  27.930  29.256  1.00  0.00     0.167 HD
ATOM     53  C   UNL A   1      42.971  28.901  33.484  1.00  0.00     0.037 A 
ATOM     54  C   UNL A   1      43.091  26.297  27.122  1.00  0.00     0.037 A 
ATOM     55  C   UNL A   1      43.909  29.798  32.857  1.00  0.00     0.049 A 
ATOM     56  C   UNL A   1      44.190  26.636  28.057  1.00  0.00     0.074 A 
ATOM     57  C   UNL A   1      43.952  31.158  32.613  1.00  0.00     0.029 A 
ATOM     58  N   UNL A   1      44.878  29.252  32.054  1.00  0.00    -0.354 N 
ATOM     59  N   UNL A   1      44.900  27.726  27.978  1.00  0.00    -0.248 NA
ATOM     60  C   UNL A   1      44.209  25.973  29.351  1.00  0.00     0.031 C 
ATOM     61  C   UNL A   1      44.578  31.285  31.337  1.00  0.00     0.029 A 
ATOM     62  C   UNL A   1      44.931  30.005  30.910  1.00  0.00     0.049 A 
ATOM     63  H   UNL A   1      45.434  28.466  32.260  1.00  0.00     0.167 HD
ATOM     64  C   UNL A   1      45.067  28.129  29.293  1.00  0.00     0.074 A 
ATOM     65  C   UNL A   1      44.702  26.965  30.098  1.00  0.00     0.031 C 
ATOM     66  C   UNL A   1      45.211  29.449  29.611  1.00  0.00     0.037 A 
BRANCH  53  67
ATOM     67  C   UNL A   1      43.427  27.789  34.405  1.00  0.00     0.057 A 
ATOM     68  C   UNL A   1      43.814  26.506  33.970  1.00  0.00     0.134 A 
ATOM     69  C   UNL A   1      43.821  28.115  35.718  1.00  0.00     0.134 A 
ATOM     70  F   UNL A   1      43.540  26.043  32.746  1.00  0.00    -0.206 F 
ATOM     71  C   UNL A   1      44.604  25.651  34.743  1.00  0.00     0.040 A 
ATOM     72  C   UNL A   1      44.650  27.285  36.482  1.00  0.00     0.040 A 
ATOM     73  F   UNL A   1      43.496  29.298  36.262  1.00  0.00    -0.206 F 
ATOM     74  C   UNL A   1      45.064  26.057  35.985  1.00  0.00     0.006 A 
ENDBRANCH  53  67
BRANCH  54  75
ATOM     75  C   UNL A   1      43.110  25.047  26.328  1.00  0.00     0.057 A 
ATOM     76  C   UNL A   1      42.493  23.878  26.803  1.00  0.00     0.134 A 
ATOM     77  C   UNL A   1      43.975  24.885  25.234  1.00  0.00     0.134 A 
ATOM     78  F   UNL A   1      41.709  23.904  27.890  1.00  0.00    -0.206 F 
ATOM     79  C   UNL A   1      42.734  22.620  26.240  1.00  0.00     0.040 A 
ATOM     80  C   UNL A   1      44.229  23.630  24.663  1.00  0.00     0.040 A 
ATOM     81  F   UNL A   1      44.647  25.932  24.735  1.00  0.00    -0.206 F 
ATOM     82  C   UNL A   1      43.616  22.490  25.174  1.00  0.00     0.006 A 
ENDBRANCH  54  75
BRANCH  66  83
ATOM     83  C   UNL A   1      45.452  30.413  28.483  1.00  0.00     0.057 A 
ATOM     84  C   UNL A   1      46.759  30.851  28.242  1.00  0.00     0.134 A 
ATOM     85  C   UNL A   1      44.438  30.989  27.704  1.00  0.00     0.134 A 
ATOM     86  F   UNL A   1      47.775  30.389  28.989  1.00  0.00    -0.206 F 
ATOM     87  C   UNL A   1      47.051  31.793  27.255  1.00  0.00     0.040 A 
ATOM     88  C   UNL A   1      44.720  31.906  26.686  1.00  0.00     0.040 A 
ATOM     89  F   UNL A   1      43.146  30.718  27.932  1.00  0.00    -0.206 F 
ATOM     90  C   UNL A   1      46.033  32.311  26.461  1.00  0.00     0.006 A 
ENDBRANCH  66  83
ENDBRANCH  40  41
ENDBRANCH  32  35
ENDBRANCH  30  31
ENDBRANCH  29  30
ENDBRANCH   1  29
TORSDOF 16
ENDMDL
