MODEL 1
REMARK VINA RESULT:     -13.9      0.000      0.000
REMARK SMILES CC1=C(C)C[C@@H](C(=O)NCCCCNC(=O)c2ccc(-c3c4nc(c(-c5c(F)cccc5F)c5ccc([nH]5)c(-c5c(F)cccc5F)c5nc(c(-c6c(F)cccc6F)c6ccc3[nH]6)C=C5)C=C4)cc2)[C@@H](C(=O)N2CCN(c3cccc(C(F)(F)F)c3)CC2)C1
REMARK SMILES IDX 11 1 10 2 9 3 7 4 8 5 6 7 1 8 2 9 3 10 90 11 4 12 5 13 71 14
REMARK SMILES IDX 72 15 73 16 74 17 75 18 89 19 76 20 88 21 77 22 78 23 79 24
REMARK SMILES IDX 87 25 80 26 82 27 81 28 83 29 84 30 85 31 86 32 12 33 13 34
REMARK SMILES IDX 14 35 15 36 16 38 17 39 18 40 70 41 19 42 69 43 20 44 21 45
REMARK SMILES IDX 22 46 63 47 23 48 68 49 62 50 64 51 24 52 67 53 61 54 60 55
REMARK SMILES IDX 25 57 51 58 34 59 50 60 35 61 38 62 49 63 65 64 36 65 37 66
REMARK SMILES IDX 48 68 66 69 39 70 26 71 27 72 32 73 28 74 29 75 31 76 33 77
REMARK SMILES IDX 30 78 52 79 53 80 58 81 54 82 55 83 57 84 59 85 56 86 40 87
REMARK SMILES IDX 41 88 46 89 42 90 43 91 45 92 47 93 44 94
REMARK H PARENT 9 6 14 37 64 56 38 67
REMARK Flexibility Score: inf
ROOT
ATOM      1  C   UNL A   1      37.250  20.656  24.764  1.00  0.00     0.023 C 
ENDROOT
BRANCH   1   2
ATOM      2  C   UNL A   1      35.787  20.309  25.027  1.00  0.00     0.116 C 
BRANCH   2   3
ATOM      3  N   UNL A   1      35.179  21.042  26.113  1.00  0.00    -0.356 N 
ATOM      4  C   UNL A   1      33.900  21.147  26.548  1.00  0.00     0.224 C 
ATOM      5  O   UNL A   1      33.721  21.797  27.587  1.00  0.00    -0.275 OA
ATOM      6  H   UNL A   1      35.821  21.569  26.642  1.00  0.00     0.163 HD
BRANCH   4   7
ATOM      7  C   UNL A   1      32.692  20.492  25.870  1.00  0.00     0.095 C 
ATOM      8  C   UNL A   1      33.643  17.523  22.742  1.00  0.00     0.039 C 
ATOM      9  C   UNL A   1      33.099  18.406  23.842  1.00  0.00    -0.074 C 
ATOM     10  C   UNL A   1      33.028  18.040  25.139  1.00  0.00    -0.074 C 
ATOM     11  C   UNL A   1      32.684  19.784  23.362  1.00  0.00     0.045 C 
ATOM     12  C   UNL A   1      33.435  16.697  25.696  1.00  0.00     0.039 C 
ATOM     13  C   UNL A   1      32.565  19.004  26.204  1.00  0.00     0.045 C 
ATOM     14  C   UNL A   1      32.351  20.863  24.418  1.00  0.00     0.095 C 
BRANCH  14  15
ATOM     15  C   UNL A   1      32.921  22.217  23.964  1.00  0.00     0.226 C 
ATOM     16  O   UNL A   1      34.036  22.383  23.479  1.00  0.00    -0.275 OA
ATOM     17  N   UNL A   1      32.023  23.275  24.008  1.00  0.00    -0.339 N 
ATOM     18  C   UNL A   1      32.057  24.182  22.853  1.00  0.00     0.141 C 
ATOM     19  C   UNL A   1      31.918  23.967  25.297  1.00  0.00     0.141 C 
ATOM     20  C   UNL A   1      30.873  25.157  22.844  1.00  0.00     0.138 C 
ATOM     21  C   UNL A   1      30.803  25.027  25.338  1.00  0.00     0.138 C 
ATOM     22  N   UNL A   1      30.823  25.857  24.129  1.00  0.00    -0.368 N 
BRANCH  22  23
ATOM     23  C   UNL A   1      30.759  27.228  24.174  1.00  0.00     0.037 A 
ATOM     24  C   UNL A   1      31.584  27.962  25.032  1.00  0.00     0.026 A 
ATOM     25  C   UNL A   1      29.829  27.929  23.398  1.00  0.00     0.039 A 
ATOM     26  C   UNL A   1      31.496  29.353  25.112  1.00  0.00     0.003 A 
ATOM     27  C   UNL A   1      29.699  29.326  23.488  1.00  0.00     0.058 A 
ATOM     28  C   UNL A   1      30.552  30.032  24.346  1.00  0.00     0.013 A 
BRANCH  27  29
ATOM     29  C   UNL A   1      28.645  30.060  22.700  1.00  0.00     0.416 C 
ATOM     30  F   UNL A   1      27.901  30.895  23.478  1.00  0.00    -0.166 F 
ATOM     31  F   UNL A   1      29.179  30.842  21.721  1.00  0.00    -0.166 F 
ATOM     32  F   UNL A   1      27.753  29.241  22.077  1.00  0.00    -0.166 F 
ENDBRANCH  27  29
ENDBRANCH  22  23
ENDBRANCH  14  15
ENDBRANCH   4   7
ENDBRANCH   2   3
ENDBRANCH   1   2
BRANCH   1  33
ATOM     33  C   UNL A   1      38.233  19.515  25.001  1.00  0.00     0.023 C 
BRANCH  33  34
ATOM     34  C   UNL A   1      39.485  19.934  25.750  1.00  0.00     0.116 C 
BRANCH  34  35
ATOM     35  N   UNL A   1      40.467  18.861  25.854  1.00  0.00    -0.352 N 
ATOM     36  C   UNL A   1      41.809  18.965  26.128  1.00  0.00     0.251 C 
ATOM     37  H   UNL A   1      40.127  17.950  25.710  1.00  0.00     0.163 HD
ATOM     38  O   UNL A   1      42.544  17.990  26.071  1.00  0.00    -0.269 OA
BRANCH  36  39
ATOM     39  C   UNL A   1      42.347  20.297  26.455  1.00  0.00     0.039 A 
ATOM     40  C   UNL A   1      42.831  21.100  25.423  1.00  0.00     0.014 A 
ATOM     41  C   UNL A   1      42.288  20.769  27.769  1.00  0.00     0.014 A 
ATOM     42  C   UNL A   1      43.203  22.413  25.703  1.00  0.00     0.010 A 
ATOM     43  C   UNL A   1      42.577  22.099  28.028  1.00  0.00     0.010 A 
ATOM     44  C   UNL A   1      43.045  22.930  27.000  1.00  0.00    -0.014 A 
BRANCH  44  45
ATOM     45  C   UNL A   1      43.385  24.335  27.313  1.00  0.00     0.031 A 
ATOM     46  C   UNL A   1      44.815  24.785  27.239  1.00  0.00     0.074 A 
ATOM     47  C   UNL A   1      42.420  25.178  27.729  1.00  0.00     0.049 A 
ATOM     48  N   UNL A   1      45.333  25.945  27.547  1.00  0.00    -0.248 NA
ATOM     49  C   UNL A   1      45.800  23.786  26.792  1.00  0.00     0.031 C 
ATOM     50  C   UNL A   1      41.005  24.834  27.892  1.00  0.00     0.029 A 
ATOM     51  N   UNL A   1      42.487  26.496  28.097  1.00  0.00    -0.354 N 
ATOM     52  C   UNL A   1      46.701  25.807  27.349  1.00  0.00     0.074 A 
ATOM     53  C   UNL A   1      46.941  24.438  26.954  1.00  0.00     0.031 C 
ATOM     54  C   UNL A   1      40.333  25.923  28.300  1.00  0.00     0.029 A 
ATOM     55  C   UNL A   1      41.274  27.027  28.460  1.00  0.00     0.049 A 
ATOM     56  H   UNL A   1      43.325  27.012  28.102  1.00  0.00     0.167 HD
ATOM     57  C   UNL A   1      47.667  26.748  27.458  1.00  0.00     0.037 A 
ATOM     58  C   UNL A   1      40.961  28.268  28.876  1.00  0.00     0.037 A 
ATOM     59  C   UNL A   1      47.416  28.117  27.820  1.00  0.00     0.049 A 
ATOM     60  C   UNL A   1      42.050  29.299  28.979  1.00  0.00     0.074 A 
ATOM     61  C   UNL A   1      48.315  29.165  27.905  1.00  0.00     0.029 A 
ATOM     62  N   UNL A   1      46.171  28.626  28.155  1.00  0.00    -0.354 N 
ATOM     63  N   UNL A   1      43.332  29.175  28.727  1.00  0.00    -0.248 NA
ATOM     64  C   UNL A   1      41.651  30.641  29.419  1.00  0.00     0.031 C 
ATOM     65  C   UNL A   1      47.616  30.303  28.323  1.00  0.00     0.029 A 
ATOM     66  C   UNL A   1      46.277  29.972  28.459  1.00  0.00     0.049 A 
ATOM     67  H   UNL A   1      45.334  28.107  28.173  1.00  0.00     0.167 HD
ATOM     68  C   UNL A   1      43.886  30.427  28.950  1.00  0.00     0.074 A 
ATOM     69  C   UNL A   1      42.799  31.300  29.346  1.00  0.00     0.031 C 
ATOM     70  C   UNL A   1      45.179  30.822  28.840  1.00  0.00     0.037 A 
BRANCH  57  71
ATOM     71  C   UNL A   1      49.076  26.324  27.169  1.00  0.00     0.057 A 
ATOM     72  C   UNL A   1      49.602  26.351  25.869  1.00  0.00     0.134 A 
ATOM     73  C   UNL A   1      49.923  25.899  28.199  1.00  0.00     0.134 A 
ATOM     74  F   UNL A   1      48.838  26.733  24.835  1.00  0.00    -0.206 F 
ATOM     75  C   UNL A   1      50.910  25.943  25.602  1.00  0.00     0.040 A 
ATOM     76  C   UNL A   1      51.242  25.514  27.948  1.00  0.00     0.040 A 
ATOM     77  F   UNL A   1      49.485  25.851  29.466  1.00  0.00    -0.206 F 
ATOM     78  C   UNL A   1      51.735  25.528  26.644  1.00  0.00     0.006 A 
ENDBRANCH  57  71
BRANCH  58  79
ATOM     79  C   UNL A   1      39.552  28.616  29.187  1.00  0.00     0.057 A 
ATOM     80  C   UNL A   1      38.711  29.153  28.206  1.00  0.00     0.134 A 
ATOM     81  C   UNL A   1      39.014  28.425  30.464  1.00  0.00     0.134 A 
ATOM     82  F   UNL A   1      39.176  29.375  26.966  1.00  0.00    -0.206 F 
ATOM     83  C   UNL A   1      37.391  29.506  28.487  1.00  0.00     0.040 A 
ATOM     84  C   UNL A   1      37.687  28.751  30.754  1.00  0.00     0.040 A 
ATOM     85  F   UNL A   1      39.766  27.905  31.446  1.00  0.00    -0.206 F 
ATOM     86  C   UNL A   1      36.874  29.300  29.765  1.00  0.00     0.006 A 
ENDBRANCH  58  79
BRANCH  70  87
ATOM     87  C   UNL A   1      45.478  32.265  29.114  1.00  0.00     0.057 A 
ATOM     88  C   UNL A   1      45.916  32.701  30.370  1.00  0.00     0.134 A 
ATOM     89  C   UNL A   1      45.366  33.220  28.096  1.00  0.00     0.134 A 
ATOM     90  F   UNL A   1      46.029  31.836  31.389  1.00  0.00    -0.206 F 
ATOM     91  C   UNL A   1      46.215  34.043  30.610  1.00  0.00     0.040 A 
ATOM     92  C   UNL A   1      45.686  34.560  28.317  1.00  0.00     0.040 A 
ATOM     93  F   UNL A   1      44.961  32.863  26.868  1.00  0.00    -0.206 F 
ATOM     94  C   UNL A   1      46.107  34.975  29.579  1.00  0.00     0.006 A 
ENDBRANCH  70  87
ENDBRANCH  44  45
ENDBRANCH  36  39
ENDBRANCH  34  35
ENDBRANCH  33  34
ENDBRANCH   1  33
TORSDOF 14
ENDMDL
MODEL 2
REMARK VINA RESULT:     -13.8      1.044      2.020
REMARK SMILES CC1=C(C)C[C@@H](C(=O)NCCCCNC(=O)c2ccc(-c3c4nc(c(-c5c(F)cccc5F)c5ccc([nH]5)c(-c5c(F)cccc5F)c5nc(c(-c6c(F)cccc6F)c6ccc3[nH]6)C=C5)C=C4)cc2)[C@@H](C(=O)N2CCN(c3cccc(C(F)(F)F)c3)CC2)C1
REMARK SMILES IDX 11 1 10 2 9 3 7 4 8 5 6 7 1 8 2 9 3 10 90 11 4 12 5 13 71 14
REMARK SMILES IDX 72 15 73 16 74 17 75 18 89 19 76 20 88 21 77 22 78 23 79 24
REMARK SMILES IDX 87 25 80 26 82 27 81 28 83 29 84 30 85 31 86 32 12 33 13 34
REMARK SMILES IDX 14 35 15 36 16 38 17 39 18 40 70 41 19 42 69 43 20 44 21 45
REMARK SMILES IDX 22 46 63 47 23 48 68 49 62 50 64 51 24 52 67 53 61 54 60 55
REMARK SMILES IDX 25 57 51 58 34 59 50 60 35 61 38 62 49 63 65 64 36 65 37 66
REMARK SMILES IDX 48 68 66 69 39 70 26 71 27 72 32 73 28 74 29 75 31 76 33 77
REMARK SMILES IDX 30 78 52 79 53 80 58 81 54 82 55 83 57 84 59 85 56 86 40 87
REMARK SMILES IDX 41 88 46 89 42 90 43 91 45 92 47 93 44 94
REMARK H PARENT 9 6 14 37 64 56 38 67
REMARK Flexibility Score: inf
ROOT
ATOM      1  C   UNL A   1      37.245  20.692  24.774  1.00  0.00     0.023 C 
ENDROOT
BRANCH   1   2
ATOM      2  C   UNL A   1      35.783  20.322  25.014  1.00  0.00     0.116 C 
BRANCH   2   3
ATOM      3  N   UNL A   1      35.153  21.033  26.102  1.00  0.00    -0.356 N 
ATOM      4  C   UNL A   1      33.869  21.103  26.531  1.00  0.00     0.224 C 
ATOM      5  O   UNL A   1      33.669  21.742  27.573  1.00  0.00    -0.275 OA
ATOM      6  H   UNL A   1      35.778  21.573  26.637  1.00  0.00     0.163 HD
BRANCH   4   7
ATOM      7  C   UNL A   1      32.681  20.421  25.843  1.00  0.00     0.095 C 
ATOM      8  C   UNL A   1      33.722  17.475  22.723  1.00  0.00     0.039 C 
ATOM      9  C   UNL A   1      33.150  18.345  23.819  1.00  0.00    -0.074 C 
ATOM     10  C   UNL A   1      33.076  17.978  25.115  1.00  0.00    -0.074 C 
ATOM     11  C   UNL A   1      32.709  19.714  23.336  1.00  0.00     0.045 C 
ATOM     12  C   UNL A   1      33.509  16.644  25.676  1.00  0.00     0.039 C 
ATOM     13  C   UNL A   1      32.584  18.931  26.177  1.00  0.00     0.045 C 
ATOM     14  C   UNL A   1      32.344  20.786  24.389  1.00  0.00     0.095 C 
BRANCH  14  15
ATOM     15  C   UNL A   1      32.887  22.151  23.939  1.00  0.00     0.226 C 
ATOM     16  O   UNL A   1      33.989  22.336  23.430  1.00  0.00    -0.275 OA
ATOM     17  N   UNL A   1      31.979  23.199  24.020  1.00  0.00    -0.339 N 
ATOM     18  C   UNL A   1      31.975  24.121  22.876  1.00  0.00     0.141 C 
ATOM     19  C   UNL A   1      31.898  23.873  25.319  1.00  0.00     0.141 C 
ATOM     20  C   UNL A   1      30.781  25.082  22.909  1.00  0.00     0.138 C 
ATOM     21  C   UNL A   1      30.773  24.919  25.402  1.00  0.00     0.138 C 
ATOM     22  N   UNL A   1      30.754  25.765  24.204  1.00  0.00    -0.368 N 
BRANCH  22  23
ATOM     23  C   UNL A   1      30.676  27.135  24.268  1.00  0.00     0.037 A 
ATOM     24  C   UNL A   1      29.964  27.863  23.310  1.00  0.00     0.026 A 
ATOM     25  C   UNL A   1      31.352  27.846  25.266  1.00  0.00     0.039 A 
ATOM     26  C   UNL A   1      29.914  29.257  23.346  1.00  0.00     0.003 A 
ATOM     27  C   UNL A   1      31.345  29.252  25.301  1.00  0.00     0.058 A 
ATOM     28  C   UNL A   1      30.607  29.950  24.336  1.00  0.00     0.013 A 
BRANCH  27  29
ATOM     29  C   UNL A   1      32.134  30.007  26.338  1.00  0.00     0.416 C 
ATOM     30  F   UNL A   1      32.118  29.391  27.553  1.00  0.00    -0.166 F 
ATOM     31  F   UNL A   1      33.448  30.133  26.003  1.00  0.00    -0.166 F 
ATOM     32  F   UNL A   1      31.683  31.273  26.559  1.00  0.00    -0.166 F 
ENDBRANCH  27  29
ENDBRANCH  22  23
ENDBRANCH  14  15
ENDBRANCH   4   7
ENDBRANCH   2   3
ENDBRANCH   1   2
BRANCH   1  33
ATOM     33  C   UNL A   1      38.238  19.555  24.986  1.00  0.00     0.023 C 
BRANCH  33  34
ATOM     34  C   UNL A   1      39.486  19.967  25.746  1.00  0.00     0.116 C 
BRANCH  34  35
ATOM     35  N   UNL A   1      40.464  18.891  25.853  1.00  0.00    -0.352 N 
ATOM     36  C   UNL A   1      41.805  18.991  26.127  1.00  0.00     0.251 C 
ATOM     37  H   UNL A   1      40.120  17.980  25.711  1.00  0.00     0.163 HD
ATOM     38  O   UNL A   1      42.537  18.013  26.073  1.00  0.00    -0.269 OA
BRANCH  36  39
ATOM     39  C   UNL A   1      42.348  20.322  26.450  1.00  0.00     0.039 A 
ATOM     40  C   UNL A   1      42.817  21.128  25.413  1.00  0.00     0.014 A 
ATOM     41  C   UNL A   1      42.309  20.789  27.766  1.00  0.00     0.014 A 
ATOM     42  C   UNL A   1      43.193  22.440  25.692  1.00  0.00     0.010 A 
ATOM     43  C   UNL A   1      42.602  22.119  28.025  1.00  0.00     0.010 A 
ATOM     44  C   UNL A   1      43.055  22.953  26.992  1.00  0.00    -0.014 A 
BRANCH  44  45
ATOM     45  C   UNL A   1      43.399  24.357  27.305  1.00  0.00     0.031 A 
ATOM     46  C   UNL A   1      44.829  24.807  27.213  1.00  0.00     0.074 A 
ATOM     47  C   UNL A   1      42.440  25.199  27.735  1.00  0.00     0.049 A 
ATOM     48  N   UNL A   1      45.351  25.966  27.518  1.00  0.00    -0.248 NA
ATOM     49  C   UNL A   1      45.807  23.808  26.751  1.00  0.00     0.031 C 
ATOM     50  C   UNL A   1      41.027  24.855  27.916  1.00  0.00     0.029 A 
ATOM     51  N   UNL A   1      42.512  26.516  28.106  1.00  0.00    -0.354 N 
ATOM     52  C   UNL A   1      46.716  25.828  27.301  1.00  0.00     0.074 A 
ATOM     53  C   UNL A   1      46.950  24.459  26.899  1.00  0.00     0.031 C 
ATOM     54  C   UNL A   1      40.362  25.943  28.336  1.00  0.00     0.029 A 
ATOM     55  C   UNL A   1      41.305  27.047  28.486  1.00  0.00     0.049 A 
ATOM     56  H   UNL A   1      43.351  27.032  28.101  1.00  0.00     0.167 HD
ATOM     57  C   UNL A   1      47.684  26.769  27.399  1.00  0.00     0.037 A 
ATOM     58  C   UNL A   1      40.998  28.287  28.910  1.00  0.00     0.037 A 
ATOM     59  C   UNL A   1      47.438  28.137  27.768  1.00  0.00     0.049 A 
ATOM     60  C   UNL A   1      42.089  29.317  29.001  1.00  0.00     0.074 A 
ATOM     61  C   UNL A   1      48.338  29.184  27.844  1.00  0.00     0.029 A 
ATOM     62  N   UNL A   1      46.197  28.645  28.121  1.00  0.00    -0.354 N 
ATOM     63  N   UNL A   1      43.366  29.193  28.732  1.00  0.00    -0.248 NA
ATOM     64  C   UNL A   1      41.695  30.659  29.450  1.00  0.00     0.031 C 
ATOM     65  C   UNL A   1      47.646  30.321  28.274  1.00  0.00     0.029 A 
ATOM     66  C   UNL A   1      46.309  29.990  28.427  1.00  0.00     0.049 A 
ATOM     67  H   UNL A   1      45.361  28.126  28.149  1.00  0.00     0.167 HD
ATOM     68  C   UNL A   1      43.925  30.445  28.951  1.00  0.00     0.074 A 
ATOM     69  C   UNL A   1      42.843  31.317  29.364  1.00  0.00     0.031 C 
ATOM     70  C   UNL A   1      45.215  30.839  28.825  1.00  0.00     0.037 A 
BRANCH  57  71
ATOM     71  C   UNL A   1      49.089  26.345  27.091  1.00  0.00     0.057 A 
ATOM     72  C   UNL A   1      49.945  25.851  28.085  1.00  0.00     0.134 A 
ATOM     73  C   UNL A   1      49.589  26.415  25.785  1.00  0.00     0.134 A 
ATOM     74  F   UNL A   1      49.532  25.774  29.359  1.00  0.00    -0.206 F 
ATOM     75  C   UNL A   1      51.256  25.469  27.797  1.00  0.00     0.040 A 
ATOM     76  C   UNL A   1      50.891  26.011  25.480  1.00  0.00     0.040 A 
ATOM     77  F   UNL A   1      48.824  26.876  24.785  1.00  0.00    -0.206 F 
ATOM     78  C   UNL A   1      51.730  25.544  26.490  1.00  0.00     0.006 A 
ENDBRANCH  57  71
BRANCH  58  79
ATOM     79  C   UNL A   1      39.593  28.635  29.241  1.00  0.00     0.057 A 
ATOM     80  C   UNL A   1      39.088  28.434  30.530  1.00  0.00     0.134 A 
ATOM     81  C   UNL A   1      38.725  29.171  28.283  1.00  0.00     0.134 A 
ATOM     82  F   UNL A   1      39.869  27.908  31.486  1.00  0.00    -0.206 F 
ATOM     83  C   UNL A   1      37.765  28.736  30.853  1.00  0.00     0.040 A 
ATOM     84  C   UNL A   1      37.405  29.500  28.597  1.00  0.00     0.040 A 
ATOM     85  F   UNL A   1      39.152  29.396  27.031  1.00  0.00    -0.206 F 
ATOM     86  C   UNL A   1      36.920  29.276  29.884  1.00  0.00     0.006 A 
ENDBRANCH  58  79
BRANCH  70  87
ATOM     87  C   UNL A   1      45.519  32.282  29.099  1.00  0.00     0.057 A 
ATOM     88  C   UNL A   1      45.425  33.258  28.101  1.00  0.00     0.134 A 
ATOM     89  C   UNL A   1      45.868  32.701  30.389  1.00  0.00     0.134 A 
ATOM     90  F   UNL A   1      45.110  32.917  26.843  1.00  0.00    -0.206 F 
ATOM     91  C   UNL A   1      45.688  34.601  28.372  1.00  0.00     0.040 A 
ATOM     92  C   UNL A   1      46.108  34.044  30.678  1.00  0.00     0.040 A 
ATOM     93  F   UNL A   1      45.965  31.814  31.391  1.00  0.00    -0.206 F 
ATOM     94  C   UNL A   1      46.022  34.998  29.666  1.00  0.00     0.006 A 
ENDBRANCH  70  87
ENDBRANCH  44  45
ENDBRANCH  36  39
ENDBRANCH  34  35
ENDBRANCH  33  34
ENDBRANCH   1  33
TORSDOF 14
ENDMDL
MODEL 3
REMARK VINA RESULT:     -13.8      5.394     10.919
REMARK SMILES CC1=C(C)C[C@@H](C(=O)NCCCCNC(=O)c2ccc(-c3c4nc(c(-c5c(F)cccc5F)c5ccc([nH]5)c(-c5c(F)cccc5F)c5nc(c(-c6c(F)cccc6F)c6ccc3[nH]6)C=C5)C=C4)cc2)[C@@H](C(=O)N2CCN(c3cccc(C(F)(F)F)c3)CC2)C1
REMARK SMILES IDX 11 1 10 2 9 3 7 4 8 5 6 7 1 8 2 9 3 10 90 11 4 12 5 13 71 14
REMARK SMILES IDX 72 15 73 16 74 17 75 18 89 19 76 20 88 21 77 22 78 23 79 24
REMARK SMILES IDX 87 25 80 26 82 27 81 28 83 29 84 30 85 31 86 32 12 33 13 34
REMARK SMILES IDX 14 35 15 36 16 38 17 39 18 40 70 41 19 42 69 43 20 44 21 45
REMARK SMILES IDX 22 46 63 47 23 48 68 49 62 50 64 51 24 52 67 53 61 54 60 55
REMARK SMILES IDX 25 57 51 58 34 59 50 60 35 61 38 62 49 63 65 64 36 65 37 66
REMARK SMILES IDX 48 68 66 69 39 70 26 71 27 72 32 73 28 74 29 75 31 76 33 77
REMARK SMILES IDX 30 78 52 79 53 80 58 81 54 82 55 83 57 84 59 85 56 86 40 87
REMARK SMILES IDX 41 88 46 89 42 90 43 91 45 92 47 93 44 94
REMARK H PARENT 9 6 14 37 64 56 38 67
REMARK Flexibility Score: inf
ROOT
ATOM      1  C   UNL A   1      31.512  30.715  26.530  1.00  0.00     0.023 C 
ENDROOT
BRANCH   1   2
ATOM      2  C   UNL A   1      31.220  30.168  25.135  1.00  0.00     0.116 C 
BRANCH   2   3
ATOM      3  N   UNL A   1      32.377  29.669  24.429  1.00  0.00    -0.356 N 
ATOM      4  C   UNL A   1      32.519  28.966  23.279  1.00  0.00     0.224 C 
ATOM      5  O   UNL A   1      33.679  28.772  22.889  1.00  0.00    -0.275 OA
ATOM      6  H   UNL A   1      33.232  29.881  24.870  1.00  0.00     0.163 HD
BRANCH   4   7
ATOM      7  C   UNL A   1      31.357  28.443  22.428  1.00  0.00     0.095 C 
ATOM      8  C   UNL A   1      27.337  29.802  23.652  1.00  0.00     0.039 C 
ATOM      9  C   UNL A   1      28.610  29.315  22.998  1.00  0.00    -0.074 C 
ATOM     10  C   UNL A   1      29.364  30.059  22.162  1.00  0.00    -0.074 C 
ATOM     11  C   UNL A   1      29.005  27.910  23.413  1.00  0.00     0.045 C 
ATOM     12  C   UNL A   1      29.049  31.467  21.714  1.00  0.00     0.039 C 
ATOM     13  C   UNL A   1      30.676  29.549  21.618  1.00  0.00     0.045 C 
ATOM     14  C   UNL A   1      30.407  27.390  23.019  1.00  0.00     0.095 C 
BRANCH  14  15
ATOM     15  C   UNL A   1      31.002  26.588  24.187  1.00  0.00     0.226 C 
ATOM     16  O   UNL A   1      30.961  26.928  25.366  1.00  0.00    -0.275 OA
ATOM     17  N   UNL A   1      31.500  25.337  23.846  1.00  0.00    -0.339 N 
ATOM     18  C   UNL A   1      31.177  24.252  24.782  1.00  0.00     0.141 C 
ATOM     19  C   UNL A   1      32.887  25.312  23.371  1.00  0.00     0.141 C 
ATOM     20  C   UNL A   1      31.524  22.871  24.213  1.00  0.00     0.138 C 
ATOM     21  C   UNL A   1      33.338  23.931  22.862  1.00  0.00     0.138 C 
ATOM     22  N   UNL A   1      32.925  22.871  23.785  1.00  0.00    -0.368 N 
BRANCH  22  23
ATOM     23  C   UNL A   1      33.783  21.888  24.213  1.00  0.00     0.037 A 
ATOM     24  C   UNL A   1      35.096  22.189  24.591  1.00  0.00     0.026 A 
ATOM     25  C   UNL A   1      33.386  20.546  24.233  1.00  0.00     0.039 A 
ATOM     26  C   UNL A   1      35.986  21.190  24.987  1.00  0.00     0.003 A 
ATOM     27  C   UNL A   1      34.276  19.520  24.595  1.00  0.00     0.058 A 
ATOM     28  C   UNL A   1      35.579  19.858  24.985  1.00  0.00     0.013 A 
BRANCH  27  29
ATOM     29  C   UNL A   1      33.856  18.074  24.545  1.00  0.00     0.416 C 
ATOM     30  F   UNL A   1      34.920  17.226  24.484  1.00  0.00    -0.166 F 
ATOM     31  F   UNL A   1      33.146  17.700  25.646  1.00  0.00    -0.166 F 
ATOM     32  F   UNL A   1      33.073  17.765  23.474  1.00  0.00    -0.166 F 
ENDBRANCH  27  29
ENDBRANCH  22  23
ENDBRANCH  14  15
ENDBRANCH   4   7
ENDBRANCH   2   3
ENDBRANCH   1   2
BRANCH   1  33
ATOM     33  C   UNL A   1      31.401  32.230  26.661  1.00  0.00     0.023 C 
BRANCH  33  34
ATOM     34  C   UNL A   1      32.603  32.875  27.326  1.00  0.00     0.116 C 
BRANCH  34  35
ATOM     35  N   UNL A   1      32.387  34.282  27.642  1.00  0.00    -0.352 N 
ATOM     36  C   UNL A   1      33.049  35.054  28.564  1.00  0.00     0.251 C 
ATOM     37  H   UNL A   1      31.679  34.735  27.131  1.00  0.00     0.163 HD
ATOM     38  O   UNL A   1      32.688  36.195  28.810  1.00  0.00    -0.269 OA
BRANCH  36  39
ATOM     39  C   UNL A   1      34.188  34.452  29.280  1.00  0.00     0.039 A 
ATOM     40  C   UNL A   1      33.935  33.639  30.384  1.00  0.00     0.014 A 
ATOM     41  C   UNL A   1      35.487  34.632  28.799  1.00  0.00     0.014 A 
ATOM     42  C   UNL A   1      34.991  32.949  30.975  1.00  0.00     0.010 A 
ATOM     43  C   UNL A   1      36.521  33.879  29.335  1.00  0.00     0.010 A 
ATOM     44  C   UNL A   1      36.283  33.039  30.431  1.00  0.00    -0.014 A 
BRANCH  44  45
ATOM     45  C   UNL A   1      37.413  32.277  31.008  1.00  0.00     0.031 A 
ATOM     46  C   UNL A   1      37.910  32.618  32.383  1.00  0.00     0.074 A 
ATOM     47  C   UNL A   1      38.030  31.336  30.268  1.00  0.00     0.049 A 
ATOM     48  N   UNL A   1      38.931  32.129  33.037  1.00  0.00    -0.248 NA
ATOM     49  C   UNL A   1      37.183  33.675  33.106  1.00  0.00     0.031 C 
ATOM     50  C   UNL A   1      37.668  30.961  28.899  1.00  0.00     0.029 A 
ATOM     51  N   UNL A   1      39.096  30.528  30.564  1.00  0.00    -0.354 N 
ATOM     52  C   UNL A   1      38.977  32.830  34.236  1.00  0.00     0.074 A 
ATOM     53  C   UNL A   1      37.922  33.818  34.194  1.00  0.00     0.031 C 
ATOM     54  C   UNL A   1      38.481  29.976  28.485  1.00  0.00     0.029 A 
ATOM     55  C   UNL A   1      39.440  29.676  29.544  1.00  0.00     0.049 A 
ATOM     56  H   UNL A   1      39.571  30.557  31.426  1.00  0.00     0.167 HD
ATOM     57  C   UNL A   1      39.806  32.646  35.289  1.00  0.00     0.037 A 
ATOM     58  C   UNL A   1      40.421  28.758  29.475  1.00  0.00     0.037 A 
ATOM     59  C   UNL A   1      40.832  31.639  35.335  1.00  0.00     0.049 A 
ATOM     60  C   UNL A   1      41.324  28.565  30.662  1.00  0.00     0.074 A 
ATOM     61  C   UNL A   1      41.690  31.329  36.374  1.00  0.00     0.029 A 
ATOM     62  N   UNL A   1      41.134  30.776  34.292  1.00  0.00    -0.354 N 
ATOM     63  N   UNL A   1      41.317  29.189  31.815  1.00  0.00    -0.248 NA
ATOM     64  C   UNL A   1      42.365  27.537  30.540  1.00  0.00     0.031 C 
ATOM     65  C   UNL A   1      42.534  30.298  35.948  1.00  0.00     0.029 A 
ATOM     66  C   UNL A   1      42.174  29.940  34.659  1.00  0.00     0.049 A 
ATOM     67  H   UNL A   1      40.675  30.760  33.421  1.00  0.00     0.167 HD
ATOM     68  C   UNL A   1      42.332  28.613  32.566  1.00  0.00     0.074 A 
ATOM     69  C   UNL A   1      42.925  27.579  31.741  1.00  0.00     0.031 C 
ATOM     70  C   UNL A   1      42.739  28.911  33.824  1.00  0.00     0.037 A 
BRANCH  57  71
ATOM     71  C   UNL A   1      39.623  33.546  36.474  1.00  0.00     0.057 A 
ATOM     72  C   UNL A   1      38.755  33.214  37.524  1.00  0.00     0.134 A 
ATOM     73  C   UNL A   1      40.332  34.749  36.578  1.00  0.00     0.134 A 
ATOM     74  F   UNL A   1      38.034  32.084  37.478  1.00  0.00    -0.206 F 
ATOM     75  C   UNL A   1      38.578  34.060  38.620  1.00  0.00     0.040 A 
ATOM     76  C   UNL A   1      40.182  35.591  37.682  1.00  0.00     0.040 A 
ATOM     77  F   UNL A   1      41.180  35.126  35.610  1.00  0.00    -0.206 F 
ATOM     78  C   UNL A   1      39.297  35.250  38.703  1.00  0.00     0.006 A 
ENDBRANCH  57  71
BRANCH  58  79
ATOM     79  C   UNL A   1      40.578  27.925  28.256  1.00  0.00     0.057 A 
ATOM     80  C   UNL A   1      39.973  26.667  28.164  1.00  0.00     0.134 A 
ATOM     81  C   UNL A   1      41.332  28.361  27.162  1.00  0.00     0.134 A 
ATOM     82  F   UNL A   1      39.250  26.188  29.188  1.00  0.00    -0.206 F 
ATOM     83  C   UNL A   1      40.127  25.862  27.035  1.00  0.00     0.040 A 
ATOM     84  C   UNL A   1      41.476  27.576  26.015  1.00  0.00     0.040 A 
ATOM     85  F   UNL A   1      41.930  29.562  27.185  1.00  0.00    -0.206 F 
ATOM     86  C   UNL A   1      40.878  26.320  25.953  1.00  0.00     0.006 A 
ENDBRANCH  58  79
BRANCH  70  87
ATOM     87  C   UNL A   1      43.852  28.085  34.395  1.00  0.00     0.057 A 
ATOM     88  C   UNL A   1      45.188  28.496  34.321  1.00  0.00     0.134 A 
ATOM     89  C   UNL A   1      43.576  26.886  35.064  1.00  0.00     0.134 A 
ATOM     90  F   UNL A   1      45.518  29.628  33.682  1.00  0.00    -0.206 F 
ATOM     91  C   UNL A   1      46.215  27.732  34.876  1.00  0.00     0.040 A 
ATOM     92  C   UNL A   1      44.591  26.126  35.644  1.00  0.00     0.040 A 
ATOM     93  F   UNL A   1      42.315  26.443  35.177  1.00  0.00    -0.206 F 
ATOM     94  C   UNL A   1      45.916  26.546  35.547  1.00  0.00     0.006 A 
ENDBRANCH  70  87
ENDBRANCH  44  45
ENDBRANCH  36  39
ENDBRANCH  34  35
ENDBRANCH  33  34
ENDBRANCH   1  33
TORSDOF 14
ENDMDL
