MODEL 1
REMARK VINA RESULT:     -12.7      0.000      0.000
REMARK SMILES CC(C)C[C@H](C(=O)NCCCCNC(=O)c1ccc(-c2c3nc(c(-c4c(F)cccc4F)c4ccc([nH]4)c(-c4c(F)cccc4F)c4nc(c(-c5c(F)cccc5F)c5ccc2[nH]5)C=C4)C=C3)cc1)N1C(=O)/C(=C2\C(=O)Nc3ccc(Br)cc32)SC1=S
REMARK SMILES IDX 10 1 9 2 8 3 6 4 7 5 5 7 4 8 2 9 1 10 3 11 70 12 71 13 86 14
REMARK SMILES IDX 72 15 73 16 85 17 87 18 74 19 75 20 84 21 76 22 77 23 78 24
REMARK SMILES IDX 83 25 79 27 81 28 80 29 82 30 11 31 12 32 13 33 14 34 15 36
REMARK SMILES IDX 16 37 17 38 69 39 18 40 68 41 19 42 20 43 21 44 62 45 22 46
REMARK SMILES IDX 67 47 61 48 63 49 23 50 66 51 60 52 59 53 24 55 50 56 33 57
REMARK SMILES IDX 49 58 34 59 37 60 48 61 64 62 35 63 36 64 47 66 65 67 38 68
REMARK SMILES IDX 25 69 26 70 31 71 27 72 28 73 30 74 32 75 29 76 51 77 52 78
REMARK SMILES IDX 57 79 53 80 54 81 56 82 58 83 55 84 39 85 40 86 45 87 41 88
REMARK SMILES IDX 42 89 44 90 46 91 43 92
REMARK H PARENT 8 6 77 26 13 35 63 54 37 65
REMARK Flexibility Score: inf
ROOT
ATOM      1  C   UNL A   1      38.815  22.683  26.239  1.00  0.00     0.023 C 
ENDROOT
BRANCH   1   2
ATOM      2  C   UNL A   1      37.575  23.480  25.837  1.00  0.00     0.116 C 
BRANCH   2   3
ATOM      3  N   UNL A   1      37.339  23.385  24.416  1.00  0.00    -0.354 N 
ATOM      4  C   UNL A   1      36.361  22.834  23.659  1.00  0.00     0.243 C 
ATOM      5  O   UNL A   1      36.611  22.836  22.443  1.00  0.00    -0.273 OA
ATOM      6  H   UNL A   1      38.044  23.816  23.880  1.00  0.00     0.163 HD
BRANCH   4   7
ATOM      7  C   UNL A   1      34.986  22.275  24.158  1.00  0.00     0.181 C 
BRANCH   7   8
ATOM      8  C   UNL A   1      35.250  20.966  24.933  1.00  0.00     0.038 C 
BRANCH   8   9
ATOM      9  C   UNL A   1      34.146  19.896  24.898  1.00  0.00    -0.015 C 
ATOM     10  C   UNL A   1      33.037  20.210  23.894  1.00  0.00     0.007 C 
ATOM     11  C   UNL A   1      34.781  18.549  24.532  1.00  0.00     0.007 C 
ENDBRANCH   8   9
ENDBRANCH   7   8
BRANCH   7  12
ATOM     12  N   UNL A   1      33.980  23.213  24.712  1.00  0.00    -0.280 N 
ATOM     13  C   UNL A   1      33.210  23.904  23.788  1.00  0.00     0.267 C 
ATOM     14  C   UNL A   1      33.602  23.444  26.010  1.00  0.00     0.149 C 
ATOM     15  O   UNL A   1      32.923  23.469  22.688  1.00  0.00    -0.268 OA
ATOM     16  C   UNL A   1      32.669  25.163  24.375  1.00  0.00     0.093 C 
ATOM     17  S   UNL A   1      32.743  24.998  26.094  1.00  0.00    -0.053 SA
ATOM     18  S   UNL A   1      33.843  22.521  27.377  1.00  0.00    -0.052 S 
ATOM     19  C   UNL A   1      32.191  26.212  23.685  1.00  0.00     0.069 C 
ATOM     20  C   UNL A   1      31.908  26.179  22.198  1.00  0.00     0.257 C 
ATOM     21  C   UNL A   1      31.687  27.522  24.146  1.00  0.00     0.013 A 
ATOM     22  O   UNL A   1      32.413  25.514  21.321  1.00  0.00    -0.269 OA
ATOM     23  N   UNL A   1      30.991  27.192  21.989  1.00  0.00    -0.321 N 
ATOM     24  C   UNL A   1      30.900  28.020  23.098  1.00  0.00     0.049 A 
ATOM     25  C   UNL A   1      31.990  28.353  25.213  1.00  0.00     0.026 A 
ATOM     26  H   UNL A   1      30.472  27.313  21.160  1.00  0.00     0.170 HD
ATOM     27  C   UNL A   1      30.284  29.254  23.120  1.00  0.00     0.028 A 
ATOM     28  C   UNL A   1      31.434  29.642  25.221  1.00  0.00     0.018 A 
ATOM     29  C   UNL A   1      30.562  30.079  24.206  1.00  0.00     0.018 A 
ATOM     30  Br  UNL A   1      31.940  30.868  26.572  1.00  0.00    -0.051 Br
ENDBRANCH   7  12
ENDBRANCH   4   7
ENDBRANCH   2   3
ENDBRANCH   1   2
BRANCH   1  31
ATOM     31  C   UNL A   1      38.994  21.334  25.554  1.00  0.00     0.023 C 
BRANCH  31  32
ATOM     32  C   UNL A   1      39.431  20.209  26.476  1.00  0.00     0.116 C 
BRANCH  32  33
ATOM     33  N   UNL A   1      40.505  19.375  25.950  1.00  0.00    -0.352 N 
ATOM     34  C   UNL A   1      41.850  19.664  25.922  1.00  0.00     0.251 C 
ATOM     35  H   UNL A   1      40.237  18.506  25.572  1.00  0.00     0.163 HD
ATOM     36  O   UNL A   1      42.649  18.895  25.402  1.00  0.00    -0.269 OA
BRANCH  34  37
ATOM     37  C   UNL A   1      42.298  20.954  26.481  1.00  0.00     0.039 A 
ATOM     38  C   UNL A   1      42.645  21.987  25.607  1.00  0.00     0.014 A 
ATOM     39  C   UNL A   1      42.265  21.169  27.861  1.00  0.00     0.014 A 
ATOM     40  C   UNL A   1      42.893  23.260  26.119  1.00  0.00     0.010 A 
ATOM     41  C   UNL A   1      42.412  22.457  28.355  1.00  0.00     0.010 A 
ATOM     42  C   UNL A   1      42.741  23.513  27.493  1.00  0.00    -0.014 A 
BRANCH  42  43
ATOM     43  C   UNL A   1      42.957  24.867  28.057  1.00  0.00     0.031 A 
ATOM     44  C   UNL A   1      44.342  25.290  28.464  1.00  0.00     0.074 A 
ATOM     45  C   UNL A   1      41.908  25.687  28.261  1.00  0.00     0.049 A 
ATOM     46  N   UNL A   1      44.737  26.406  29.020  1.00  0.00    -0.248 NA
ATOM     47  C   UNL A   1      45.421  24.309  28.256  1.00  0.00     0.031 C 
ATOM     48  C   UNL A   1      40.509  25.369  27.968  1.00  0.00     0.029 A 
ATOM     49  N   UNL A   1      41.859  26.962  28.767  1.00  0.00    -0.354 N 
ATOM     50  C   UNL A   1      46.099  26.250  29.247  1.00  0.00     0.074 A 
ATOM     51  C   UNL A   1      46.449  24.910  28.834  1.00  0.00     0.031 C 
ATOM     52  C   UNL A   1      39.745  26.435  28.262  1.00  0.00     0.029 A 
ATOM     53  C   UNL A   1      40.594  27.497  28.789  1.00  0.00     0.049 A 
ATOM     54  H   UNL A   1      42.654  27.446  29.085  1.00  0.00     0.167 HD
ATOM     55  C   UNL A   1      46.987  27.152  29.726  1.00  0.00     0.037 A 
ATOM     56  C   UNL A   1      40.173  28.715  29.182  1.00  0.00     0.037 A 
ATOM     57  C   UNL A   1      46.643  28.500  30.091  1.00  0.00     0.049 A 
ATOM     58  C   UNL A   1      41.182  29.710  29.685  1.00  0.00     0.074 A 
ATOM     59  C   UNL A   1      47.477  29.520  30.512  1.00  0.00     0.029 A 
ATOM     60  N   UNL A   1      45.356  29.015  30.072  1.00  0.00    -0.354 N 
ATOM     61  N   UNL A   1      42.480  29.578  29.818  1.00  0.00    -0.248 NA
ATOM     62  C   UNL A   1      40.667  31.028  30.082  1.00  0.00     0.031 C 
ATOM     63  C   UNL A   1      46.689  30.643  30.783  1.00  0.00     0.029 A 
ATOM     64  C   UNL A   1      45.369  30.335  30.490  1.00  0.00     0.049 A 
ATOM     65  H   UNL A   1      44.551  28.516  29.801  1.00  0.00     0.167 HD
ATOM     66  C   UNL A   1      42.941  30.804  30.281  1.00  0.00     0.074 A 
ATOM     67  C   UNL A   1      41.784  31.669  30.394  1.00  0.00     0.031 C 
ATOM     68  C   UNL A   1      44.207  31.181  30.583  1.00  0.00     0.037 A 
BRANCH  55  69
ATOM     69  C   UNL A   1      48.412  26.706  29.868  1.00  0.00     0.057 A 
ATOM     70  C   UNL A   1      49.359  26.917  28.855  1.00  0.00     0.134 A 
ATOM     71  C   UNL A   1      48.847  26.057  31.030  1.00  0.00     0.134 A 
ATOM     72  F   UNL A   1      49.004  27.517  27.708  1.00  0.00    -0.206 F 
ATOM     73  C   UNL A   1      50.674  26.468  28.978  1.00  0.00     0.040 A 
ATOM     74  C   UNL A   1      50.167  25.630  31.177  1.00  0.00     0.040 A 
ATOM     75  F   UNL A   1      47.994  25.825  32.039  1.00  0.00    -0.206 F 
ATOM     76  C   UNL A   1      51.083  25.828  30.145  1.00  0.00     0.006 A 
ENDBRANCH  55  69
BRANCH  56  77
ATOM     77  C   UNL A   1      38.739  29.083  29.065  1.00  0.00     0.057 A 
ATOM     78  C   UNL A   1      38.210  29.519  27.845  1.00  0.00     0.134 A 
ATOM     79  C   UNL A   1      37.870  29.019  30.159  1.00  0.00     0.134 A 
ATOM     80  F   UNL A   1      39.000  29.618  26.764  1.00  0.00    -0.206 F 
ATOM     81  C   UNL A   1      36.873  29.900  27.720  1.00  0.00     0.040 A 
ATOM     82  C   UNL A   1      36.525  29.374  30.043  1.00  0.00     0.040 A 
ATOM     83  F   UNL A   1      38.313  28.599  31.353  1.00  0.00    -0.206 F 
ATOM     84  C   UNL A   1      36.026  29.824  28.822  1.00  0.00     0.006 A 
ENDBRANCH  56  77
BRANCH  68  85
ATOM     85  C   UNL A   1      44.411  32.601  31.024  1.00  0.00     0.057 A 
ATOM     86  C   UNL A   1      44.644  33.634  30.109  1.00  0.00     0.134 A 
ATOM     87  C   UNL A   1      44.341  32.939  32.382  1.00  0.00     0.134 A 
ATOM     88  F   UNL A   1      44.734  33.373  28.796  1.00  0.00    -0.206 F 
ATOM     89  C   UNL A   1      44.822  34.952  30.531  1.00  0.00     0.040 A 
ATOM     90  C   UNL A   1      44.492  34.257  32.813  1.00  0.00     0.040 A 
ATOM     91  F   UNL A   1      44.113  31.996  33.308  1.00  0.00    -0.206 F 
ATOM     92  C   UNL A   1      44.741  35.267  31.886  1.00  0.00     0.006 A 
ENDBRANCH  68  85
ENDBRANCH  42  43
ENDBRANCH  34  37
ENDBRANCH  32  33
ENDBRANCH  31  32
ENDBRANCH   1  31
TORSDOF 14
ENDMDL
MODEL 2
REMARK VINA RESULT:     -12.5      3.665      8.987
REMARK SMILES CC(C)C[C@H](C(=O)NCCCCNC(=O)c1ccc(-c2c3nc(c(-c4c(F)cccc4F)c4ccc([nH]4)c(-c4c(F)cccc4F)c4nc(c(-c5c(F)cccc5F)c5ccc2[nH]5)C=C4)C=C3)cc1)N1C(=O)/C(=C2\C(=O)Nc3ccc(Br)cc32)SC1=S
REMARK SMILES IDX 10 1 9 2 8 3 6 4 7 5 5 7 4 8 2 9 1 10 3 11 70 12 71 13 86 14
REMARK SMILES IDX 72 15 73 16 85 17 87 18 74 19 75 20 84 21 76 22 77 23 78 24
REMARK SMILES IDX 83 25 79 27 81 28 80 29 82 30 11 31 12 32 13 33 14 34 15 36
REMARK SMILES IDX 16 37 17 38 69 39 18 40 68 41 19 42 20 43 21 44 62 45 22 46
REMARK SMILES IDX 67 47 61 48 63 49 23 50 66 51 60 52 59 53 24 55 50 56 33 57
REMARK SMILES IDX 49 58 34 59 37 60 48 61 64 62 35 63 36 64 47 66 65 67 38 68
REMARK SMILES IDX 25 69 26 70 31 71 27 72 28 73 30 74 32 75 29 76 51 77 52 78
REMARK SMILES IDX 57 79 53 80 54 81 56 82 58 83 55 84 39 85 40 86 45 87 41 88
REMARK SMILES IDX 42 89 44 90 46 91 43 92
REMARK H PARENT 8 6 77 26 13 35 63 54 37 65
REMARK Flexibility Score: inf
ROOT
ATOM      1  C   UNL A   1      34.326  30.737  27.617  1.00  0.00     0.023 C 
ENDROOT
BRANCH   1   2
ATOM      2  C   UNL A   1      34.100  29.364  26.985  1.00  0.00     0.116 C 
BRANCH   2   3
ATOM      3  N   UNL A   1      32.975  28.694  27.592  1.00  0.00    -0.354 N 
ATOM      4  C   UNL A   1      31.833  28.149  27.111  1.00  0.00     0.243 C 
ATOM      5  O   UNL A   1      31.037  27.798  27.997  1.00  0.00    -0.273 OA
ATOM      6  H   UNL A   1      33.057  28.617  28.570  1.00  0.00     0.163 HD
BRANCH   4   7
ATOM      7  C   UNL A   1      31.474  27.885  25.610  1.00  0.00     0.181 C 
BRANCH   7   8
ATOM      8  C   UNL A   1      31.287  29.250  24.911  1.00  0.00     0.038 C 
BRANCH   8   9
ATOM      9  C   UNL A   1      30.387  29.281  23.664  1.00  0.00    -0.015 C 
ATOM     10  C   UNL A   1      29.457  28.072  23.565  1.00  0.00     0.007 C 
ATOM     11  C   UNL A   1      29.539  30.558  23.705  1.00  0.00     0.007 C 
ENDBRANCH   8   9
ENDBRANCH   7   8
BRANCH   7  12
ATOM     12  N   UNL A   1      32.197  26.824  24.867  1.00  0.00    -0.280 N 
ATOM     13  C   UNL A   1      31.704  25.535  25.002  1.00  0.00     0.267 C 
ATOM     14  C   UNL A   1      33.231  26.916  23.971  1.00  0.00     0.149 C 
ATOM     15  O   UNL A   1      30.531  25.278  25.208  1.00  0.00    -0.268 OA
ATOM     16  C   UNL A   1      32.759  24.523  24.714  1.00  0.00     0.093 C 
ATOM     17  S   UNL A   1      33.997  25.320  23.807  1.00  0.00    -0.053 SA
ATOM     18  S   UNL A   1      33.793  28.230  23.112  1.00  0.00    -0.052 S 
ATOM     19  C   UNL A   1      32.730  23.229  25.076  1.00  0.00     0.069 C 
ATOM     20  C   UNL A   1      31.501  22.542  25.631  1.00  0.00     0.257 C 
ATOM     21  C   UNL A   1      33.731  22.156  24.902  1.00  0.00     0.013 A 
ATOM     22  O   UNL A   1      30.566  22.994  26.251  1.00  0.00    -0.269 OA
ATOM     23  N   UNL A   1      31.708  21.196  25.387  1.00  0.00    -0.321 N 
ATOM     24  C   UNL A   1      33.023  20.951  25.020  1.00  0.00     0.049 A 
ATOM     25  C   UNL A   1      35.116  22.121  24.864  1.00  0.00     0.026 A 
ATOM     26  H   UNL A   1      31.013  20.502  25.465  1.00  0.00     0.170 HD
ATOM     27  C   UNL A   1      33.613  19.705  24.965  1.00  0.00     0.028 A 
ATOM     28  C   UNL A   1      35.743  20.866  24.882  1.00  0.00     0.018 A 
ATOM     29  C   UNL A   1      35.003  19.668  24.895  1.00  0.00     0.018 A 
ATOM     30  Br  UNL A   1      37.630  20.766  24.988  1.00  0.00    -0.051 Br
ENDBRANCH   7  12
ENDBRANCH   4   7
ENDBRANCH   2   3
ENDBRANCH   1   2
BRANCH   1  31
ATOM     31  C   UNL A   1      33.095  31.626  27.740  1.00  0.00     0.023 C 
BRANCH  31  32
ATOM     32  C   UNL A   1      33.270  33.028  27.182  1.00  0.00     0.116 C 
BRANCH  32  33
ATOM     33  N   UNL A   1      32.696  34.085  28.005  1.00  0.00    -0.352 N 
ATOM     34  C   UNL A   1      33.237  34.649  29.138  1.00  0.00     0.251 C 
ATOM     35  H   UNL A   1      31.823  34.437  27.717  1.00  0.00     0.163 HD
ATOM     36  O   UNL A   1      32.627  35.500  29.771  1.00  0.00    -0.269 OA
BRANCH  34  37
ATOM     37  C   UNL A   1      34.548  34.156  29.605  1.00  0.00     0.039 A 
ATOM     38  C   UNL A   1      34.596  33.298  30.705  1.00  0.00     0.014 A 
ATOM     39  C   UNL A   1      35.706  34.455  28.883  1.00  0.00     0.014 A 
ATOM     40  C   UNL A   1      35.802  32.684  31.041  1.00  0.00     0.010 A 
ATOM     41  C   UNL A   1      36.878  33.766  29.157  1.00  0.00     0.010 A 
ATOM     42  C   UNL A   1      36.944  32.884  30.246  1.00  0.00    -0.014 A 
BRANCH  42  43
ATOM     43  C   UNL A   1      38.228  32.211  30.556  1.00  0.00     0.031 A 
ATOM     44  C   UNL A   1      39.181  32.843  31.532  1.00  0.00     0.074 A 
ATOM     45  C   UNL A   1      38.563  31.073  29.918  1.00  0.00     0.049 A 
ATOM     46  N   UNL A   1      40.371  32.445  31.904  1.00  0.00    -0.248 NA
ATOM     47  C   UNL A   1      38.758  34.115  32.142  1.00  0.00     0.031 C 
ATOM     48  C   UNL A   1      37.752  30.396  28.903  1.00  0.00     0.029 A 
ATOM     49  N   UNL A   1      39.680  30.284  30.030  1.00  0.00    -0.354 N 
ATOM     50  C   UNL A   1      40.842  33.426  32.767  1.00  0.00     0.074 A 
ATOM     51  C   UNL A   1      39.843  34.469  32.812  1.00  0.00     0.031 C 
ATOM     52  C   UNL A   1      38.381  29.273  28.516  1.00  0.00     0.029 A 
ATOM     53  C   UNL A   1      39.648  29.166  29.231  1.00  0.00     0.049 A 
ATOM     54  H   UNL A   1      40.433  30.499  30.626  1.00  0.00     0.167 HD
ATOM     55  C   UNL A   1      41.989  33.443  33.486  1.00  0.00     0.037 A 
ATOM     56  C   UNL A   1      40.539  28.166  29.103  1.00  0.00     0.037 A 
ATOM     57  C   UNL A   1      42.957  32.380  33.475  1.00  0.00     0.049 A 
ATOM     58  C   UNL A   1      41.794  28.192  29.932  1.00  0.00     0.074 A 
ATOM     59  C   UNL A   1      44.114  32.260  34.223  1.00  0.00     0.029 A 
ATOM     60  N   UNL A   1      42.876  31.251  32.675  1.00  0.00    -0.354 N 
ATOM     61  N   UNL A   1      42.189  29.086  30.806  1.00  0.00    -0.248 NA
ATOM     62  C   UNL A   1      42.720  27.064  29.763  1.00  0.00     0.031 C 
ATOM     63  C   UNL A   1      44.753  31.073  33.849  1.00  0.00     0.029 A 
ATOM     64  C   UNL A   1      43.971  30.435  32.899  1.00  0.00     0.049 A 
ATOM     65  H   UNL A   1      42.147  31.058  32.041  1.00  0.00     0.167 HD
ATOM     66  C   UNL A   1      43.391  28.613  31.316  1.00  0.00     0.074 A 
ATOM     67  C   UNL A   1      43.653  27.348  30.660  1.00  0.00     0.031 C 
ATOM     68  C   UNL A   1      44.206  29.173  32.244  1.00  0.00     0.037 A 
BRANCH  55  69
ATOM     69  C   UNL A   1      42.243  34.645  34.347  1.00  0.00     0.057 A 
ATOM     70  C   UNL A   1      42.875  35.793  33.848  1.00  0.00     0.134 A 
ATOM     71  C   UNL A   1      41.850  34.659  35.691  1.00  0.00     0.134 A 
ATOM     72  F   UNL A   1      43.292  35.840  32.574  1.00  0.00    -0.206 F 
ATOM     73  C   UNL A   1      43.140  36.894  34.664  1.00  0.00     0.040 A 
ATOM     74  C   UNL A   1      42.083  35.765  36.508  1.00  0.00     0.040 A 
ATOM     75  F   UNL A   1      41.238  33.595  36.232  1.00  0.00    -0.206 F 
ATOM     76  C   UNL A   1      42.738  36.885  35.997  1.00  0.00     0.006 A 
ENDBRANCH  55  69
BRANCH  56  77
ATOM     77  C   UNL A   1      40.255  27.025  28.195  1.00  0.00     0.057 A 
ATOM     78  C   UNL A   1      39.448  25.961  28.615  1.00  0.00     0.134 A 
ATOM     79  C   UNL A   1      40.784  26.963  26.902  1.00  0.00     0.134 A 
ATOM     80  F   UNL A   1      38.927  25.956  29.851  1.00  0.00    -0.206 F 
ATOM     81  C   UNL A   1      39.194  24.864  27.789  1.00  0.00     0.040 A 
ATOM     82  C   UNL A   1      40.520  25.883  26.057  1.00  0.00     0.040 A 
ATOM     83  F   UNL A   1      41.557  27.955  26.437  1.00  0.00    -0.206 F 
ATOM     84  C   UNL A   1      39.729  24.826  26.504  1.00  0.00     0.006 A 
ENDBRANCH  56  77
BRANCH  68  85
ATOM     85  C   UNL A   1      45.431  28.401  32.634  1.00  0.00     0.057 A 
ATOM     86  C   UNL A   1      45.411  27.451  33.663  1.00  0.00     0.134 A 
ATOM     87  C   UNL A   1      46.638  28.589  31.947  1.00  0.00     0.134 A 
ATOM     88  F   UNL A   1      44.290  27.233  34.366  1.00  0.00    -0.206 F 
ATOM     89  C   UNL A   1      46.556  26.732  34.011  1.00  0.00     0.040 A 
ATOM     90  C   UNL A   1      47.781  27.858  32.269  1.00  0.00     0.040 A 
ATOM     91  F   UNL A   1      46.719  29.479  30.946  1.00  0.00    -0.206 F 
ATOM     92  C   UNL A   1      47.743  26.931  33.309  1.00  0.00     0.006 A 
ENDBRANCH  68  85
ENDBRANCH  42  43
ENDBRANCH  34  37
ENDBRANCH  32  33
ENDBRANCH  31  32
ENDBRANCH   1  31
TORSDOF 14
ENDMDL
MODEL 3
REMARK VINA RESULT:     -11.9      3.007      4.074
REMARK SMILES CC(C)C[C@H](C(=O)NCCCCNC(=O)c1ccc(-c2c3nc(c(-c4c(F)cccc4F)c4ccc([nH]4)c(-c4c(F)cccc4F)c4nc(c(-c5c(F)cccc5F)c5ccc2[nH]5)C=C4)C=C3)cc1)N1C(=O)/C(=C2\C(=O)Nc3ccc(Br)cc32)SC1=S
REMARK SMILES IDX 10 1 9 2 8 3 6 4 7 5 5 7 4 8 2 9 1 10 3 11 70 12 71 13 86 14
REMARK SMILES IDX 72 15 73 16 85 17 87 18 74 19 75 20 84 21 76 22 77 23 78 24
REMARK SMILES IDX 83 25 79 27 81 28 80 29 82 30 11 31 12 32 13 33 14 34 15 36
REMARK SMILES IDX 16 37 17 38 69 39 18 40 68 41 19 42 20 43 21 44 62 45 22 46
REMARK SMILES IDX 67 47 61 48 63 49 23 50 66 51 60 52 59 53 24 55 50 56 33 57
REMARK SMILES IDX 49 58 34 59 37 60 48 61 64 62 35 63 36 64 47 66 65 67 38 68
REMARK SMILES IDX 25 69 26 70 31 71 27 72 28 73 30 74 32 75 29 76 51 77 52 78
REMARK SMILES IDX 57 79 53 80 54 81 56 82 58 83 55 84 39 85 40 86 45 87 41 88
REMARK SMILES IDX 42 89 44 90 46 91 43 92
REMARK H PARENT 8 6 77 26 13 35 63 54 37 65
REMARK Flexibility Score: inf
ROOT
ATOM      1  C   UNL A   1      38.761  23.606  26.486  1.00  0.00     0.023 C 
ENDROOT
BRANCH   1   2
ATOM      2  C   UNL A   1      37.311  23.703  26.013  1.00  0.00     0.116 C 
BRANCH   2   3
ATOM      3  N   UNL A   1      37.218  23.495  24.587  1.00  0.00    -0.354 N 
ATOM      4  C   UNL A   1      36.334  22.856  23.785  1.00  0.00     0.243 C 
ATOM      5  O   UNL A   1      36.701  22.775  22.602  1.00  0.00    -0.273 OA
ATOM      6  H   UNL A   1      37.960  23.908  24.090  1.00  0.00     0.163 HD
BRANCH   4   7
ATOM      7  C   UNL A   1      34.932  22.289  24.192  1.00  0.00     0.181 C 
BRANCH   7   8
ATOM      8  C   UNL A   1      35.150  20.973  24.970  1.00  0.00     0.038 C 
BRANCH   8   9
ATOM      9  C   UNL A   1      34.054  19.900  24.853  1.00  0.00    -0.015 C 
ATOM     10  C   UNL A   1      33.016  20.217  23.778  1.00  0.00     0.007 C 
ATOM     11  C   UNL A   1      34.718  18.557  24.522  1.00  0.00     0.007 C 
ENDBRANCH   8   9
ENDBRANCH   7   8
BRANCH   7  12
ATOM     12  N   UNL A   1      33.890  23.220  24.692  1.00  0.00    -0.280 N 
ATOM     13  C   UNL A   1      33.168  23.908  23.728  1.00  0.00     0.267 C 
ATOM     14  C   UNL A   1      33.441  23.446  25.968  1.00  0.00     0.149 C 
ATOM     15  O   UNL A   1      32.944  23.473  22.613  1.00  0.00    -0.268 OA
ATOM     16  C   UNL A   1      32.587  25.162  24.286  1.00  0.00     0.093 C 
ATOM     17  S   UNL A   1      32.569  24.995  26.007  1.00  0.00    -0.053 SA
ATOM     18  S   UNL A   1      33.613  22.522  27.345  1.00  0.00    -0.052 S 
ATOM     19  C   UNL A   1      32.141  26.209  23.572  1.00  0.00     0.069 C 
ATOM     20  C   UNL A   1      31.941  26.177  22.072  1.00  0.00     0.257 C 
ATOM     21  C   UNL A   1      31.605  27.515  24.007  1.00  0.00     0.013 A 
ATOM     22  O   UNL A   1      32.497  25.517  21.224  1.00  0.00    -0.269 OA
ATOM     23  N   UNL A   1      31.030  27.185  21.814  1.00  0.00    -0.321 N 
ATOM     24  C   UNL A   1      30.873  28.010  22.918  1.00  0.00     0.049 A 
ATOM     25  C   UNL A   1      31.843  28.346  25.090  1.00  0.00     0.026 A 
ATOM     26  H   UNL A   1      30.556  27.303  20.958  1.00  0.00     0.170 HD
ATOM     27  C   UNL A   1      30.249  29.240  22.908  1.00  0.00     0.028 A 
ATOM     28  C   UNL A   1      31.280  29.632  25.069  1.00  0.00     0.018 A 
ATOM     29  C   UNL A   1      30.461  30.065  24.009  1.00  0.00     0.018 A 
ATOM     30  Br  UNL A   1      31.702  30.859  26.448  1.00  0.00    -0.051 Br
ENDBRANCH   7  12
ENDBRANCH   4   7
ENDBRANCH   2   3
ENDBRANCH   1   2
BRANCH   1  31
ATOM     31  C   UNL A   1      39.475  22.295  26.184  1.00  0.00     0.023 C 
BRANCH  31  32
ATOM     32  C   UNL A   1      40.922  22.242  26.646  1.00  0.00     0.116 C 
BRANCH  32  33
ATOM     33  N   UNL A   1      41.901  22.544  25.609  1.00  0.00    -0.352 N 
ATOM     34  C   UNL A   1      42.726  23.642  25.534  1.00  0.00     0.251 C 
ATOM     35  H   UNL A   1      41.983  21.886  24.881  1.00  0.00     0.163 HD
ATOM     36  O   UNL A   1      43.474  23.805  24.578  1.00  0.00    -0.269 OA
BRANCH  34  37
ATOM     37  C   UNL A   1      42.642  24.653  26.606  1.00  0.00     0.039 A 
ATOM     38  C   UNL A   1      43.009  25.971  26.326  1.00  0.00     0.014 A 
ATOM     39  C   UNL A   1      42.095  24.314  27.847  1.00  0.00     0.014 A 
ATOM     40  C   UNL A   1      42.762  26.965  27.272  1.00  0.00     0.010 A 
ATOM     41  C   UNL A   1      41.758  25.319  28.742  1.00  0.00     0.010 A 
ATOM     42  C   UNL A   1      42.100  26.652  28.472  1.00  0.00    -0.014 A 
BRANCH  42  43
ATOM     43  C   UNL A   1      41.787  27.697  29.476  1.00  0.00     0.031 A 
ATOM     44  C   UNL A   1      42.663  27.848  30.689  1.00  0.00     0.074 A 
ATOM     45  C   UNL A   1      40.688  28.462  29.332  1.00  0.00     0.049 A 
ATOM     46  N   UNL A   1      42.538  28.662  31.705  1.00  0.00    -0.248 NA
ATOM     47  C   UNL A   1      43.812  26.932  30.793  1.00  0.00     0.031 C 
ATOM     48  C   UNL A   1      39.724  28.369  28.233  1.00  0.00     0.029 A 
ATOM     49  N   UNL A   1      40.196  29.473  30.119  1.00  0.00    -0.354 N 
ATOM     50  C   UNL A   1      43.573  28.339  32.574  1.00  0.00     0.074 A 
ATOM     51  C   UNL A   1      44.275  27.214  32.001  1.00  0.00     0.031 C 
ATOM     52  C   UNL A   1      38.780  29.311  28.396  1.00  0.00     0.029 A 
ATOM     53  C   UNL A   1      39.055  30.054  29.621  1.00  0.00     0.049 A 
ATOM     54  H   UNL A   1      40.621  29.755  30.961  1.00  0.00     0.167 HD
ATOM     55  C   UNL A   1      43.929  28.946  33.730  1.00  0.00     0.037 A 
ATOM     56  C   UNL A   1      38.322  31.077  30.099  1.00  0.00     0.037 A 
ATOM     57  C   UNL A   1      43.257  30.096  34.272  1.00  0.00     0.049 A 
ATOM     58  C   UNL A   1      38.753  31.755  31.371  1.00  0.00     0.074 A 
ATOM     59  C   UNL A   1      43.583  30.837  35.394  1.00  0.00     0.029 A 
ATOM     60  N   UNL A   1      42.122  30.674  33.724  1.00  0.00    -0.354 N 
ATOM     61  N   UNL A   1      39.782  31.492  32.141  1.00  0.00    -0.248 NA
ATOM     62  C   UNL A   1      37.926  32.876  31.834  1.00  0.00     0.031 C 
ATOM     63  C   UNL A   1      42.622  31.843  35.545  1.00  0.00     0.029 A 
ATOM     64  C   UNL A   1      41.723  31.753  34.494  1.00  0.00     0.049 A 
ATOM     65  H   UNL A   1      41.667  30.362  32.908  1.00  0.00     0.167 HD
ATOM     66  C   UNL A   1      39.746  32.436  33.158  1.00  0.00     0.074 A 
ATOM     67  C   UNL A   1      38.599  33.283  32.901  1.00  0.00     0.031 C 
ATOM     68  C   UNL A   1      40.586  32.591  34.211  1.00  0.00     0.037 A 
BRANCH  55  69
ATOM     69  C   UNL A   1      45.105  28.379  34.471  1.00  0.00     0.057 A 
ATOM     70  C   UNL A   1      46.416  28.803  34.214  1.00  0.00     0.134 A 
ATOM     71  C   UNL A   1      44.925  27.398  35.453  1.00  0.00     0.134 A 
ATOM     72  F   UNL A   1      46.660  29.728  33.273  1.00  0.00    -0.206 F 
ATOM     73  C   UNL A   1      47.508  28.247  34.882  1.00  0.00     0.040 A 
ATOM     74  C   UNL A   1      46.006  26.855  36.148  1.00  0.00     0.040 A 
ATOM     75  F   UNL A   1      43.697  26.948  35.750  1.00  0.00    -0.206 F 
ATOM     76  C   UNL A   1      47.304  27.273  35.857  1.00  0.00     0.006 A 
ENDBRANCH  55  69
BRANCH  56  77
ATOM     77  C   UNL A   1      37.138  31.563  29.346  1.00  0.00     0.057 A 
ATOM     78  C   UNL A   1      35.951  30.821  29.323  1.00  0.00     0.134 A 
ATOM     79  C   UNL A   1      37.163  32.764  28.628  1.00  0.00     0.134 A 
ATOM     80  F   UNL A   1      35.874  29.653  29.978  1.00  0.00    -0.206 F 
ATOM     81  C   UNL A   1      34.837  31.244  28.596  1.00  0.00     0.040 A 
ATOM     82  C   UNL A   1      36.048  33.210  27.916  1.00  0.00     0.040 A 
ATOM     83  F   UNL A   1      38.267  33.525  28.619  1.00  0.00    -0.206 F 
ATOM     84  C   UNL A   1      34.884  32.445  27.892  1.00  0.00     0.006 A 
ENDBRANCH  56  77
BRANCH  68  85
ATOM     85  C   UNL A   1      40.319  33.741  35.136  1.00  0.00     0.057 A 
ATOM     86  C   UNL A   1      39.588  33.586  36.320  1.00  0.00     0.134 A 
ATOM     87  C   UNL A   1      40.830  35.015  34.851  1.00  0.00     0.134 A 
ATOM     88  F   UNL A   1      39.062  32.395  36.643  1.00  0.00    -0.206 F 
ATOM     89  C   UNL A   1      39.355  34.662  37.177  1.00  0.00     0.040 A 
ATOM     90  C   UNL A   1      40.626  36.092  35.713  1.00  0.00     0.040 A 
ATOM     91  F   UNL A   1      41.546  35.227  33.736  1.00  0.00    -0.206 F 
ATOM     92  C   UNL A   1      39.879  35.918  36.876  1.00  0.00     0.006 A 
ENDBRANCH  68  85
ENDBRANCH  42  43
ENDBRANCH  34  37
ENDBRANCH  32  33
ENDBRANCH  31  32
ENDBRANCH   1  31
TORSDOF 14
ENDMDL
