MODEL 1
REMARK VINA RESULT:     -11.4      0.000      0.000
REMARK SMILES CC[C@H](C)Oc1ccc(NC(=O)/C=C/C(=O)NCCCCNC(=O)c2ccc(-c3c4nc(c(-c5c(F)cccc5F)c5ccc([nH]5)c(-c5c(F)cccc5F)c5nc(c(-c6c(F)cccc6F)c6ccc3[nH]6)C=C5)C=C4)cc2)cc1
REMARK SMILES IDX 18 1 17 2 15 3 16 4 14 6 13 7 11 8 10 9 12 11 9 12 6 13 7 14
REMARK SMILES IDX 80 15 8 16 79 17 5 18 3 19 4 20 2 21 1 22 19 23 20 24 21 25
REMARK SMILES IDX 22 26 23 27 24 29 25 30 26 31 78 32 27 33 77 34 28 35 29 36
REMARK SMILES IDX 30 37 71 38 31 39 76 40 70 41 72 42 32 43 75 44 69 45 68 46
REMARK SMILES IDX 33 48 59 49 42 50 58 51 43 52 46 53 57 54 73 55 44 56 45 57
REMARK SMILES IDX 56 59 74 60 47 61 34 62 35 63 40 64 36 65 37 66 39 67 41 68
REMARK SMILES IDX 38 69 60 70 61 71 66 72 62 73 63 74 65 75 67 76 64 77 48 78
REMARK SMILES IDX 49 79 54 80 50 81 51 82 53 83 55 84 52 85
REMARK H PARENT 17 5 10 10 22 28 72 47 46 58
REMARK Flexibility Score: inf
ROOT
ATOM      1  C   UNL A   1      35.727  22.008  24.573  1.00  0.00     0.116 C 
ENDROOT
BRANCH   1   2
ATOM      2  N   UNL A   1      35.238  22.918  23.557  1.00  0.00    -0.353 N 
ATOM      3  C   UNL A   1      34.382  23.963  23.684  1.00  0.00     0.244 C 
ATOM      4  O   UNL A   1      34.200  24.732  22.746  1.00  0.00    -0.270 OA
ATOM      5  H   UNL A   1      35.576  22.755  22.646  1.00  0.00     0.163 HD
BRANCH   3   6
ATOM      6  C   UNL A   1      33.686  24.194  24.963  1.00  0.00     0.077 C 
ATOM      7  C   UNL A   1      32.368  23.971  25.079  1.00  0.00     0.077 C 
BRANCH   7   8
ATOM      8  C   UNL A   1      31.651  24.390  26.293  1.00  0.00     0.248 C 
ATOM      9  N   UNL A   1      31.064  25.623  26.346  1.00  0.00    -0.323 N 
ATOM     10  H   UNL A   1      30.704  25.863  27.230  1.00  0.00     0.170 HD
ATOM     11  O   UNL A   1      31.616  23.630  27.258  1.00  0.00    -0.270 OA
BRANCH   9  12
ATOM     12  C   UNL A   1      30.884  26.608  25.358  1.00  0.00     0.041 A 
ATOM     13  C   UNL A   1      30.177  28.626  23.526  1.00  0.00     0.119 A 
ATOM     14  C   UNL A   1      31.291  28.773  24.349  1.00  0.00     0.048 A 
ATOM     15  C   UNL A   1      29.490  27.418  23.542  1.00  0.00     0.048 A 
ATOM     16  C   UNL A   1      31.654  27.764  25.244  1.00  0.00     0.030 A 
ATOM     17  C   UNL A   1      29.842  26.411  24.450  1.00  0.00     0.030 A 
BRANCH  13  18
ATOM     18  O   UNL A   1      29.900  29.715  22.759  1.00  0.00    -0.491 OA
BRANCH  18  19
ATOM     19  C   UNL A   1      28.585  30.284  22.694  1.00  0.00     0.170 C 
ATOM     20  C   UNL A   1      28.456  31.526  23.573  1.00  0.00     0.053 C 
BRANCH  19  21
ATOM     21  C   UNL A   1      28.029  30.403  21.262  1.00  0.00     0.041 C 
ATOM     22  C   UNL A   1      28.036  31.825  20.724  1.00  0.00     0.008 C 
ENDBRANCH  19  21
ENDBRANCH  18  19
ENDBRANCH  13  18
ENDBRANCH   9  12
ENDBRANCH   7   8
ENDBRANCH   3   6
ENDBRANCH   1   2
BRANCH   1  23
ATOM     23  C   UNL A   1      37.228  21.765  24.432  1.00  0.00     0.023 C 
BRANCH  23  24
ATOM     24  C   UNL A   1      37.716  20.430  25.001  1.00  0.00     0.023 C 
BRANCH  24  25
ATOM     25  C   UNL A   1      38.927  20.525  25.922  1.00  0.00     0.116 C 
BRANCH  25  26
ATOM     26  N   UNL A   1      39.824  19.383  25.820  1.00  0.00    -0.352 N 
ATOM     27  C   UNL A   1      41.185  19.360  26.001  1.00  0.00     0.251 C 
ATOM     28  H   UNL A   1      39.404  18.521  25.594  1.00  0.00     0.163 HD
ATOM     29  O   UNL A   1      41.831  18.336  25.816  1.00  0.00    -0.269 OA
BRANCH  27  30
ATOM     30  C   UNL A   1      41.864  20.612  26.378  1.00  0.00     0.039 A 
ATOM     31  C   UNL A   1      42.220  21.514  25.373  1.00  0.00     0.014 A 
ATOM     32  C   UNL A   1      42.081  20.917  27.725  1.00  0.00     0.014 A 
ATOM     33  C   UNL A   1      42.740  22.759  25.723  1.00  0.00     0.010 A 
ATOM     34  C   UNL A   1      42.541  22.181  28.072  1.00  0.00     0.010 A 
ATOM     35  C   UNL A   1      42.871  23.113  27.075  1.00  0.00    -0.014 A 
BRANCH  35  36
ATOM     36  C   UNL A   1      43.369  24.449  27.480  1.00  0.00     0.031 A 
ATOM     37  C   UNL A   1      42.389  25.499  27.923  1.00  0.00     0.074 A 
ATOM     38  C   UNL A   1      44.678  24.741  27.365  1.00  0.00     0.049 A 
ATOM     39  N   UNL A   1      42.597  26.762  28.187  1.00  0.00    -0.248 NA
ATOM     40  C   UNL A   1      40.985  25.078  28.053  1.00  0.00     0.031 C 
ATOM     41  C   UNL A   1      45.717  23.816  26.906  1.00  0.00     0.029 A 
ATOM     42  N   UNL A   1      45.356  25.909  27.607  1.00  0.00    -0.354 N 
ATOM     43  C   UNL A   1      41.348  27.292  28.485  1.00  0.00     0.074 A 
ATOM     44  C   UNL A   1      40.384  26.224  28.333  1.00  0.00     0.031 C 
ATOM     45  C   UNL A   1      46.901  24.451  26.908  1.00  0.00     0.029 A 
ATOM     46  C   UNL A   1      46.700  25.833  27.333  1.00  0.00     0.049 A 
ATOM     47  H   UNL A   1      44.920  26.724  27.945  1.00  0.00     0.167 HD
ATOM     48  C   UNL A   1      41.037  28.552  28.869  1.00  0.00     0.037 A 
ATOM     49  C   UNL A   1      47.657  26.777  27.406  1.00  0.00     0.037 A 
ATOM     50  C   UNL A   1      42.004  29.597  29.064  1.00  0.00     0.049 A 
ATOM     51  C   UNL A   1      47.287  28.162  27.862  1.00  0.00     0.074 A 
ATOM     52  C   UNL A   1      41.799  30.890  29.513  1.00  0.00     0.029 A 
ATOM     53  N   UNL A   1      43.364  29.465  28.828  1.00  0.00    -0.354 N 
ATOM     54  N   UNL A   1      46.111  28.635  28.194  1.00  0.00    -0.248 NA
ATOM     55  C   UNL A   1      48.378  29.143  27.956  1.00  0.00     0.031 C 
ATOM     56  C   UNL A   1      43.031  31.549  29.524  1.00  0.00     0.029 A 
ATOM     57  C   UNL A   1      44.009  30.656  29.116  1.00  0.00     0.049 A 
ATOM     58  H   UNL A   1      43.805  28.646  28.505  1.00  0.00     0.167 HD
ATOM     59  C   UNL A   1      46.324  29.954  28.571  1.00  0.00     0.074 A 
ATOM     60  C   UNL A   1      47.743  30.207  28.430  1.00  0.00     0.031 C 
ATOM     61  C   UNL A   1      45.426  30.874  28.996  1.00  0.00     0.037 A 
BRANCH  48  62
ATOM     62  C   UNL A   1      39.592  28.864  29.114  1.00  0.00     0.057 A 
ATOM     63  C   UNL A   1      39.020  28.755  30.389  1.00  0.00     0.134 A 
ATOM     64  C   UNL A   1      38.772  29.317  28.073  1.00  0.00     0.134 A 
ATOM     65  F   UNL A   1      39.748  28.313  31.424  1.00  0.00    -0.206 F 
ATOM     66  C   UNL A   1      37.678  29.066  30.615  1.00  0.00     0.040 A 
ATOM     67  C   UNL A   1      37.435  29.654  28.292  1.00  0.00     0.040 A 
ATOM     68  F   UNL A   1      39.258  29.448  26.830  1.00  0.00    -0.206 F 
ATOM     69  C   UNL A   1      36.884  29.524  29.565  1.00  0.00     0.006 A 
ENDBRANCH  48  62
BRANCH  49  70
ATOM     70  C   UNL A   1      49.062  26.447  27.060  1.00  0.00     0.057 A 
ATOM     71  C   UNL A   1      49.522  26.552  25.742  1.00  0.00     0.134 A 
ATOM     72  C   UNL A   1      49.970  26.000  28.026  1.00  0.00     0.134 A 
ATOM     73  F   UNL A   1      48.694  26.957  24.768  1.00  0.00    -0.206 F 
ATOM     74  C   UNL A   1      50.828  26.201  25.393  1.00  0.00     0.040 A 
ATOM     75  C   UNL A   1      51.285  25.667  27.695  1.00  0.00     0.040 A 
ATOM     76  F   UNL A   1      49.593  25.886  29.308  1.00  0.00    -0.206 F 
ATOM     77  C   UNL A   1      51.714  25.760  26.373  1.00  0.00     0.006 A 
ENDBRANCH  49  70
BRANCH  61  78
ATOM     78  C   UNL A   1      45.954  32.221  29.391  1.00  0.00     0.057 A 
ATOM     79  C   UNL A   1      46.024  33.282  28.481  1.00  0.00     0.134 A 
ATOM     80  C   UNL A   1      46.339  32.469  30.714  1.00  0.00     0.134 A 
ATOM     81  F   UNL A   1      45.680  33.102  27.198  1.00  0.00    -0.206 F 
ATOM     82  C   UNL A   1      46.472  34.544  28.874  1.00  0.00     0.040 A 
ATOM     83  C   UNL A   1      46.768  33.732  31.122  1.00  0.00     0.040 A 
ATOM     84  F   UNL A   1      46.287  31.493  31.634  1.00  0.00    -0.206 F 
ATOM     85  C   UNL A   1      46.838  34.773  30.199  1.00  0.00     0.006 A 
ENDBRANCH  61  78
ENDBRANCH  35  36
ENDBRANCH  27  30
ENDBRANCH  25  26
ENDBRANCH  24  25
ENDBRANCH  23  24
ENDBRANCH   1  23
TORSDOF 16
ENDMDL
MODEL 2
REMARK VINA RESULT:     -11.3      1.537      6.375
REMARK SMILES CC[C@H](C)Oc1ccc(NC(=O)/C=C/C(=O)NCCCCNC(=O)c2ccc(-c3c4nc(c(-c5c(F)cccc5F)c5ccc([nH]5)c(-c5c(F)cccc5F)c5nc(c(-c6c(F)cccc6F)c6ccc3[nH]6)C=C5)C=C4)cc2)cc1
REMARK SMILES IDX 18 1 17 2 15 3 16 4 14 6 13 7 11 8 10 9 12 11 9 12 6 13 7 14
REMARK SMILES IDX 80 15 8 16 79 17 5 18 3 19 4 20 2 21 1 22 19 23 20 24 21 25
REMARK SMILES IDX 22 26 23 27 24 29 25 30 26 31 78 32 27 33 77 34 28 35 29 36
REMARK SMILES IDX 30 37 71 38 31 39 76 40 70 41 72 42 32 43 75 44 69 45 68 46
REMARK SMILES IDX 33 48 59 49 42 50 58 51 43 52 46 53 57 54 73 55 44 56 45 57
REMARK SMILES IDX 56 59 74 60 47 61 34 62 35 63 40 64 36 65 37 66 39 67 41 68
REMARK SMILES IDX 38 69 60 70 61 71 66 72 62 73 63 74 65 75 67 76 64 77 48 78
REMARK SMILES IDX 49 79 54 80 50 81 51 82 53 83 55 84 52 85
REMARK H PARENT 17 5 10 10 22 28 72 47 46 58
REMARK Flexibility Score: inf
ROOT
ATOM      1  C   UNL A   1      35.523  21.989  24.352  1.00  0.00     0.116 C 
ENDROOT
BRANCH   1   2
ATOM      2  N   UNL A   1      35.026  22.932  23.371  1.00  0.00    -0.353 N 
ATOM      3  C   UNL A   1      34.213  24.004  23.550  1.00  0.00     0.244 C 
ATOM      4  O   UNL A   1      34.020  24.795  22.632  1.00  0.00    -0.270 OA
ATOM      5  H   UNL A   1      35.320  22.773  22.444  1.00  0.00     0.163 HD
BRANCH   3   6
ATOM      6  C   UNL A   1      33.578  24.237  24.860  1.00  0.00     0.077 C 
ATOM      7  C   UNL A   1      32.248  24.145  25.006  1.00  0.00     0.077 C 
BRANCH   7   8
ATOM      8  C   UNL A   1      31.611  24.570  26.262  1.00  0.00     0.248 C 
ATOM      9  N   UNL A   1      30.963  25.772  26.324  1.00  0.00    -0.323 N 
ATOM     10  H   UNL A   1      30.665  26.025  27.227  1.00  0.00     0.170 HD
ATOM     11  O   UNL A   1      31.696  23.845  27.250  1.00  0.00    -0.270 OA
BRANCH   9  12
ATOM     12  C   UNL A   1      30.650  26.710  25.323  1.00  0.00     0.041 A 
ATOM     13  C   UNL A   1      30.373  28.523  23.187  1.00  0.00     0.119 A 
ATOM     14  C   UNL A   1      29.494  27.453  23.328  1.00  0.00     0.048 A 
ATOM     15  C   UNL A   1      31.316  28.747  24.183  1.00  0.00     0.048 A 
ATOM     16  C   UNL A   1      29.618  26.563  24.397  1.00  0.00     0.030 A 
ATOM     17  C   UNL A   1      31.453  27.849  25.248  1.00  0.00     0.030 A 
BRANCH  13  18
ATOM     18  O   UNL A   1      30.180  29.262  22.061  1.00  0.00    -0.491 OA
BRANCH  18  19
ATOM     19  C   UNL A   1      29.309  30.401  22.040  1.00  0.00     0.170 C 
ATOM     20  C   UNL A   1      28.051  30.141  21.214  1.00  0.00     0.053 C 
BRANCH  19  21
ATOM     21  C   UNL A   1      29.095  31.047  23.422  1.00  0.00     0.041 C 
ATOM     22  C   UNL A   1      27.630  31.255  23.775  1.00  0.00     0.008 C 
ENDBRANCH  19  21
ENDBRANCH  18  19
ENDBRANCH  13  18
ENDBRANCH   9  12
ENDBRANCH   7   8
ENDBRANCH   3   6
ENDBRANCH   1   2
BRANCH   1  23
ATOM     23  C   UNL A   1      37.043  21.859  24.283  1.00  0.00     0.023 C 
BRANCH  23  24
ATOM     24  C   UNL A   1      37.593  20.511  24.756  1.00  0.00     0.023 C 
BRANCH  24  25
ATOM     25  C   UNL A   1      38.638  20.590  25.862  1.00  0.00     0.116 C 
BRANCH  25  26
ATOM     26  N   UNL A   1      39.660  19.557  25.771  1.00  0.00    -0.352 N 
ATOM     27  C   UNL A   1      40.994  19.661  26.076  1.00  0.00     0.251 C 
ATOM     28  H   UNL A   1      39.357  18.677  25.451  1.00  0.00     0.163 HD
ATOM     29  O   UNL A   1      41.762  18.725  25.886  1.00  0.00    -0.269 OA
BRANCH  27  30
ATOM     30  C   UNL A   1      41.497  20.944  26.597  1.00  0.00     0.039 A 
ATOM     31  C   UNL A   1      41.975  21.895  25.693  1.00  0.00     0.014 A 
ATOM     32  C   UNL A   1      41.430  21.224  27.964  1.00  0.00     0.014 A 
ATOM     33  C   UNL A   1      42.329  23.162  26.155  1.00  0.00     0.010 A 
ATOM     34  C   UNL A   1      41.724  22.506  28.412  1.00  0.00     0.010 A 
ATOM     35  C   UNL A   1      42.173  23.486  27.512  1.00  0.00    -0.014 A 
BRANCH  35  36
ATOM     36  C   UNL A   1      42.488  24.840  28.025  1.00  0.00     0.031 A 
ATOM     37  C   UNL A   1      43.891  25.157  28.460  1.00  0.00     0.074 A 
ATOM     38  C   UNL A   1      41.503  25.745  28.180  1.00  0.00     0.049 A 
ATOM     39  N   UNL A   1      44.347  26.226  29.059  1.00  0.00    -0.248 NA
ATOM     40  C   UNL A   1      44.907  24.120  28.218  1.00  0.00     0.031 C 
ATOM     41  C   UNL A   1      40.095  25.536  27.833  1.00  0.00     0.029 A 
ATOM     42  N   UNL A   1      41.534  27.018  28.690  1.00  0.00    -0.354 N 
ATOM     43  C   UNL A   1      45.694  25.977  29.292  1.00  0.00     0.074 A 
ATOM     44  C   UNL A   1      45.972  24.644  28.805  1.00  0.00     0.031 C 
ATOM     45  C   UNL A   1      39.400  26.646  28.133  1.00  0.00     0.029 A 
ATOM     46  C   UNL A   1      40.303  27.628  28.725  1.00  0.00     0.049 A 
ATOM     47  H   UNL A   1      42.360  27.453  29.003  1.00  0.00     0.167 HD
ATOM     48  C   UNL A   1      46.618  26.796  29.846  1.00  0.00     0.037 A 
ATOM     49  C   UNL A   1      39.946  28.839  29.192  1.00  0.00     0.037 A 
ATOM     50  C   UNL A   1      46.347  28.137  30.286  1.00  0.00     0.049 A 
ATOM     51  C   UNL A   1      40.999  29.738  29.779  1.00  0.00     0.074 A 
ATOM     52  C   UNL A   1      47.228  29.071  30.803  1.00  0.00     0.029 A 
ATOM     53  N   UNL A   1      45.098  28.739  30.254  1.00  0.00    -0.354 N 
ATOM     54  N   UNL A   1      42.280  29.513  29.942  1.00  0.00    -0.248 NA
ATOM     55  C   UNL A   1      40.559  31.062  30.242  1.00  0.00     0.031 C 
ATOM     56  C   UNL A   1      46.508  30.229  31.107  1.00  0.00     0.029 A 
ATOM     57  C   UNL A   1      45.185  30.029  30.747  1.00  0.00     0.049 A 
ATOM     58  H   UNL A   1      44.273  28.312  29.927  1.00  0.00     0.167 HD
ATOM     59  C   UNL A   1      42.804  30.675  30.491  1.00  0.00     0.074 A 
ATOM     60  C   UNL A   1      41.704  31.606  30.631  1.00  0.00     0.031 C 
ATOM     61  C   UNL A   1      44.082  30.948  30.849  1.00  0.00     0.037 A 
BRANCH  48  62
ATOM     62  C   UNL A   1      48.012  26.266  29.996  1.00  0.00     0.057 A 
ATOM     63  C   UNL A   1      48.468  25.724  31.205  1.00  0.00     0.134 A 
ATOM     64  C   UNL A   1      48.896  26.261  28.910  1.00  0.00     0.134 A 
ATOM     65  F   UNL A   1      47.675  25.713  32.286  1.00  0.00    -0.206 F 
ATOM     66  C   UNL A   1      49.761  25.216  31.334  1.00  0.00     0.040 A 
ATOM     67  C   UNL A   1      50.183  25.733  29.021  1.00  0.00     0.040 A 
ATOM     68  F   UNL A   1      48.521  26.761  27.723  1.00  0.00    -0.206 F 
ATOM     69  C   UNL A   1      50.621  25.212  30.236  1.00  0.00     0.006 A 
ENDBRANCH  48  62
BRANCH  49  70
ATOM     70  C   UNL A   1      38.533  29.285  29.111  1.00  0.00     0.057 A 
ATOM     71  C   UNL A   1      37.995  29.756  27.908  1.00  0.00     0.134 A 
ATOM     72  C   UNL A   1      37.694  29.272  30.232  1.00  0.00     0.134 A 
ATOM     73  F   UNL A   1      38.754  29.809  26.804  1.00  0.00    -0.206 F 
ATOM     74  C   UNL A   1      36.681  30.222  27.827  1.00  0.00     0.040 A 
ATOM     75  C   UNL A   1      36.372  29.714  30.159  1.00  0.00     0.040 A 
ATOM     76  F   UNL A   1      38.148  28.825  31.411  1.00  0.00    -0.206 F 
ATOM     77  C   UNL A   1      35.865  30.198  28.955  1.00  0.00     0.006 A 
ENDBRANCH  49  70
BRANCH  61  78
ATOM     78  C   UNL A   1      44.372  32.322  31.373  1.00  0.00     0.057 A 
ATOM     79  C   UNL A   1      44.333  32.613  32.741  1.00  0.00     0.134 A 
ATOM     80  C   UNL A   1      44.754  33.346  30.498  1.00  0.00     0.134 A 
ATOM     81  F   UNL A   1      43.962  31.676  33.626  1.00  0.00    -0.206 F 
ATOM     82  C   UNL A   1      44.652  33.884  33.221  1.00  0.00     0.040 A 
ATOM     83  C   UNL A   1      45.097  34.614  30.968  1.00  0.00     0.040 A 
ATOM     84  F   UNL A   1      44.818  33.126  29.176  1.00  0.00    -0.206 F 
ATOM     85  C   UNL A   1      45.043  34.886  32.334  1.00  0.00     0.006 A 
ENDBRANCH  61  78
ENDBRANCH  35  36
ENDBRANCH  27  30
ENDBRANCH  25  26
ENDBRANCH  24  25
ENDBRANCH  23  24
ENDBRANCH   1  23
TORSDOF 16
ENDMDL
MODEL 3
REMARK VINA RESULT:     -11.2      3.861      7.281
REMARK SMILES CC[C@H](C)Oc1ccc(NC(=O)/C=C/C(=O)NCCCCNC(=O)c2ccc(-c3c4nc(c(-c5c(F)cccc5F)c5ccc([nH]5)c(-c5c(F)cccc5F)c5nc(c(-c6c(F)cccc6F)c6ccc3[nH]6)C=C5)C=C4)cc2)cc1
REMARK SMILES IDX 18 1 17 2 15 3 16 4 14 6 13 7 11 8 10 9 12 11 9 12 6 13 7 14
REMARK SMILES IDX 80 15 8 16 79 17 5 18 3 19 4 20 2 21 1 22 19 23 20 24 21 25
REMARK SMILES IDX 22 26 23 27 24 29 25 30 26 31 78 32 27 33 77 34 28 35 29 36
REMARK SMILES IDX 30 37 71 38 31 39 76 40 70 41 72 42 32 43 75 44 69 45 68 46
REMARK SMILES IDX 33 48 59 49 42 50 58 51 43 52 46 53 57 54 73 55 44 56 45 57
REMARK SMILES IDX 56 59 74 60 47 61 34 62 35 63 40 64 36 65 37 66 39 67 41 68
REMARK SMILES IDX 38 69 60 70 61 71 66 72 62 73 63 74 65 75 67 76 64 77 48 78
REMARK SMILES IDX 49 79 54 80 50 81 51 82 53 83 55 84 52 85
REMARK H PARENT 17 5 10 10 22 28 72 47 46 58
REMARK Flexibility Score: inf
ROOT
ATOM      1  C   UNL A   1      31.373  26.954  26.003  1.00  0.00     0.116 C 
ENDROOT
BRANCH   1   2
ATOM      2  N   UNL A   1      31.373  25.744  26.800  1.00  0.00    -0.353 N 
ATOM      3  C   UNL A   1      31.920  24.534  26.519  1.00  0.00     0.244 C 
ATOM      4  O   UNL A   1      31.968  23.661  27.380  1.00  0.00    -0.270 OA
ATOM      5  H   UNL A   1      30.913  25.810  27.669  1.00  0.00     0.163 HD
BRANCH   3   6
ATOM      6  C   UNL A   1      32.483  24.272  25.182  1.00  0.00     0.077 C 
ATOM      7  C   UNL A   1      33.691  24.743  24.839  1.00  0.00     0.077 C 
BRANCH   7   8
ATOM      8  C   UNL A   1      34.155  24.646  23.447  1.00  0.00     0.248 C 
ATOM      9  N   UNL A   1      33.619  25.463  22.492  1.00  0.00    -0.323 N 
ATOM     10  H   UNL A   1      33.905  25.255  21.573  1.00  0.00     0.170 HD
ATOM     11  O   UNL A   1      35.003  23.805  23.158  1.00  0.00    -0.270 OA
BRANCH   9  12
ATOM     12  C   UNL A   1      32.730  26.549  22.592  1.00  0.00     0.041 A 
ATOM     13  C   UNL A   1      31.151  28.879  22.511  1.00  0.00     0.119 A 
ATOM     14  C   UNL A   1      30.575  27.624  22.327  1.00  0.00     0.048 A 
ATOM     15  C   UNL A   1      32.496  28.952  22.852  1.00  0.00     0.048 A 
ATOM     16  C   UNL A   1      31.354  26.467  22.386  1.00  0.00     0.030 A 
ATOM     17  C   UNL A   1      33.283  27.794  22.896  1.00  0.00     0.030 A 
BRANCH  13  18
ATOM     18  O   UNL A   1      30.288  29.919  22.354  1.00  0.00    -0.491 OA
BRANCH  18  19
ATOM     19  C   UNL A   1      29.145  30.093  23.202  1.00  0.00     0.170 C 
ATOM     20  C   UNL A   1      29.188  31.424  23.951  1.00  0.00     0.053 C 
BRANCH  19  21
ATOM     21  C   UNL A   1      27.808  29.735  22.526  1.00  0.00     0.041 C 
ATOM     22  C   UNL A   1      27.051  28.620  23.230  1.00  0.00     0.008 C 
ENDBRANCH  19  21
ENDBRANCH  18  19
ENDBRANCH  13  18
ENDBRANCH   9  12
ENDBRANCH   7   8
ENDBRANCH   3   6
ENDBRANCH   1   2
BRANCH   1  23
ATOM     23  C   UNL A   1      32.054  28.107  26.736  1.00  0.00     0.023 C 
BRANCH  23  24
ATOM     24  C   UNL A   1      33.571  27.961  26.889  1.00  0.00     0.023 C 
BRANCH  24  25
ATOM     25  C   UNL A   1      34.393  29.101  26.300  1.00  0.00     0.116 C 
BRANCH  25  26
ATOM     26  N   UNL A   1      33.959  30.418  26.741  1.00  0.00    -0.352 N 
ATOM     27  C   UNL A   1      34.535  31.221  27.693  1.00  0.00     0.251 C 
ATOM     28  H   UNL A   1      33.153  30.777  26.303  1.00  0.00     0.163 HD
ATOM     29  O   UNL A   1      34.023  32.286  28.018  1.00  0.00    -0.269 OA
BRANCH  27  30
ATOM     30  C   UNL A   1      35.766  30.754  28.355  1.00  0.00     0.039 A 
ATOM     31  C   UNL A   1      35.657  29.865  29.426  1.00  0.00     0.014 A 
ATOM     32  C   UNL A   1      37.018  31.141  27.869  1.00  0.00     0.014 A 
ATOM     33  C   UNL A   1      36.812  29.309  29.975  1.00  0.00     0.010 A 
ATOM     34  C   UNL A   1      38.162  30.539  28.376  1.00  0.00     0.010 A 
ATOM     35  C   UNL A   1      38.069  29.617  29.431  1.00  0.00    -0.014 A 
BRANCH  35  36
ATOM     36  C   UNL A   1      39.310  29.001  29.956  1.00  0.00     0.031 A 
ATOM     37  C   UNL A   1      39.965  29.583  31.177  1.00  0.00     0.074 A 
ATOM     38  C   UNL A   1      39.889  27.984  29.290  1.00  0.00     0.049 A 
ATOM     39  N   UNL A   1      41.117  29.286  31.718  1.00  0.00    -0.248 NA
ATOM     40  C   UNL A   1      39.240  30.668  31.859  1.00  0.00     0.031 C 
ATOM     41  C   UNL A   1      39.369  27.363  28.070  1.00  0.00     0.029 A 
ATOM     42  N   UNL A   1      41.056  27.307  29.536  1.00  0.00    -0.354 N 
ATOM     43  C   UNL A   1      41.269  30.164  32.783  1.00  0.00     0.074 A 
ATOM     44  C   UNL A   1      40.110  31.030  32.790  1.00  0.00     0.031 C 
ATOM     45  C   UNL A   1      40.211  26.391  27.680  1.00  0.00     0.029 A 
ATOM     46  C   UNL A   1      41.343  26.344  28.599  1.00  0.00     0.049 A 
ATOM     47  H   UNL A   1      41.634  27.493  30.311  1.00  0.00     0.167 HD
ATOM     48  C   UNL A   1      42.276  30.228  33.685  1.00  0.00     0.037 A 
ATOM     49  C   UNL A   1      42.406  25.525  28.490  1.00  0.00     0.037 A 
ATOM     50  C   UNL A   1      43.402  29.335  33.701  1.00  0.00     0.049 A 
ATOM     51  C   UNL A   1      43.498  25.601  29.522  1.00  0.00     0.074 A 
ATOM     52  C   UNL A   1      44.444  29.277  34.610  1.00  0.00     0.029 A 
ATOM     53  N   UNL A   1      43.629  28.337  32.766  1.00  0.00    -0.354 N 
ATOM     54  N   UNL A   1      43.602  26.399  30.557  1.00  0.00    -0.248 NA
ATOM     55  C   UNL A   1      44.618  24.661  29.373  1.00  0.00     0.031 C 
ATOM     56  C   UNL A   1      45.315  28.259  34.210  1.00  0.00     0.029 A 
ATOM     57  C   UNL A   1      44.797  27.662  33.072  1.00  0.00     0.049 A 
ATOM     58  H   UNL A   1      43.045  28.138  31.998  1.00  0.00     0.167 HD
ATOM     59  C   UNL A   1      44.776  26.034  31.202  1.00  0.00     0.074 A 
ATOM     60  C   UNL A   1      45.349  24.940  30.444  1.00  0.00     0.031 C 
ATOM     61  C   UNL A   1      45.332  26.557  32.320  1.00  0.00     0.037 A 
BRANCH  48  62
ATOM     62  C   UNL A   1      42.198  31.295  34.734  1.00  0.00     0.057 A 
ATOM     63  C   UNL A   1      42.721  32.578  34.522  1.00  0.00     0.134 A 
ATOM     64  C   UNL A   1      41.561  31.049  35.957  1.00  0.00     0.134 A 
ATOM     65  F   UNL A   1      43.357  32.871  33.378  1.00  0.00    -0.206 F 
ATOM     66  C   UNL A   1      42.630  33.572  35.497  1.00  0.00     0.040 A 
ATOM     67  C   UNL A   1      41.442  32.044  36.929  1.00  0.00     0.040 A 
ATOM     68  F   UNL A   1      41.036  29.844  36.223  1.00  0.00    -0.206 F 
ATOM     69  C   UNL A   1      41.982  33.308  36.702  1.00  0.00     0.006 A 
ENDBRANCH  48  62
BRANCH  49  70
ATOM     70  C   UNL A   1      42.487  24.549  27.376  1.00  0.00     0.057 A 
ATOM     71  C   UNL A   1      43.030  24.912  26.137  1.00  0.00     0.134 A 
ATOM     72  C   UNL A   1      42.009  23.240  27.511  1.00  0.00     0.134 A 
ATOM     73  F   UNL A   1      43.487  26.157  25.941  1.00  0.00    -0.206 F 
ATOM     74  C   UNL A   1      43.071  24.018  25.066  1.00  0.00     0.040 A 
ATOM     75  C   UNL A   1      42.065  22.329  26.455  1.00  0.00     0.040 A 
ATOM     76  F   UNL A   1      41.486  22.828  28.675  1.00  0.00    -0.206 F 
ATOM     77  C   UNL A   1      42.590  22.720  25.225  1.00  0.00     0.006 A 
ENDBRANCH  49  70
BRANCH  61  78
ATOM     78  C   UNL A   1      46.592  25.922  32.826  1.00  0.00     0.057 A 
ATOM     79  C   UNL A   1      47.856  26.355  32.409  1.00  0.00     0.134 A 
ATOM     80  C   UNL A   1      46.535  24.905  33.787  1.00  0.00     0.134 A 
ATOM     81  F   UNL A   1      47.974  27.317  31.482  1.00  0.00    -0.206 F 
ATOM     82  C   UNL A   1      49.022  25.787  32.924  1.00  0.00     0.040 A 
ATOM     83  C   UNL A   1      47.695  24.346  34.324  1.00  0.00     0.040 A 
ATOM     84  F   UNL A   1      45.352  24.452  34.232  1.00  0.00    -0.206 F 
ATOM     85  C   UNL A   1      48.943  24.786  33.889  1.00  0.00     0.006 A 
ENDBRANCH  61  78
ENDBRANCH  35  36
ENDBRANCH  27  30
ENDBRANCH  25  26
ENDBRANCH  24  25
ENDBRANCH  23  24
ENDBRANCH   1  23
TORSDOF 16
ENDMDL
