MODEL 1
REMARK VINA RESULT:      -9.8      0.000      0.000
REMARK SMILES O=Cc1[nH]nc2cc(C(=O)NCCCCNC(=O)c3ccc(-c4c5nc(c(-c6c(F)cccc6F)c6ccc([nH]6)c(-c6c(F)cccc6F)c6nc(c(-c7c(F)cccc7F)c7ccc4[nH]7)C=C6)C=C5)cc3)ccc12
REMARK SMILES IDX 14 1 13 2 12 3 11 4 9 5 10 6 8 8 3 9 4 10 75 11 5 12 6 14
REMARK SMILES IDX 74 15 7 16 73 17 2 18 1 19 15 20 16 21 17 22 18 24 19 25
REMARK SMILES IDX 20 26 72 27 21 28 71 29 22 30 23 31 24 32 65 33 25 34 70 35
REMARK SMILES IDX 64 36 66 37 26 38 69 39 63 40 62 41 27 43 53 44 36 45 52 46
REMARK SMILES IDX 37 47 40 48 51 49 67 50 38 51 39 52 50 54 68 55 41 56 28 57
REMARK SMILES IDX 29 58 34 59 30 60 31 61 33 62 35 63 32 64 54 65 55 66 60 67
REMARK SMILES IDX 56 68 57 69 59 70 61 71 58 72 42 73 43 74 48 75 44 76 45 77
REMARK SMILES IDX 47 78 49 79 46 80
REMARK H PARENT 11 7 4 13 16 23 66 42 40 53
REMARK Flexibility Score: inf
ROOT
ATOM      1  C   UNL A   1      33.344  35.958  31.416  1.00  0.00     0.023 C 
ENDROOT
BRANCH   1   2
ATOM      2  C   UNL A   1      34.556  36.189  32.327  1.00  0.00     0.023 C 
BRANCH   2   3
ATOM      3  C   UNL A   1      35.355  34.921  32.639  1.00  0.00     0.116 C 
BRANCH   3   4
ATOM      4  N   UNL A   1      35.444  34.717  34.070  1.00  0.00    -0.352 N 
ATOM      5  C   UNL A   1      36.047  33.772  34.857  1.00  0.00     0.251 C 
ATOM      6  O   UNL A   1      35.889  33.905  36.073  1.00  0.00    -0.269 OA
ATOM      7  H   UNL A   1      34.967  35.405  34.588  1.00  0.00     0.163 HD
BRANCH   5   8
ATOM      8  C   UNL A   1      36.897  32.642  34.360  1.00  0.00     0.042 A 
ATOM      9  C   UNL A   1      38.852  29.382  32.821  1.00  0.00     0.105 A 
ATOM     10  N   UNL A   1      37.815  28.973  32.025  1.00  0.00    -0.274 N 
ATOM     11  C   UNL A   1      38.372  30.520  33.424  1.00  0.00     0.030 A 
ATOM     12  N   UNL A   1      36.702  29.721  32.116  1.00  0.00    -0.175 NA
ATOM     13  H   UNL A   1      37.879  28.190  31.432  1.00  0.00     0.190 HD
ATOM     14  C   UNL A   1      37.014  30.697  32.982  1.00  0.00     0.094 A 
ATOM     15  C   UNL A   1      39.067  31.351  34.294  1.00  0.00     0.013 A 
ATOM     16  C   UNL A   1      36.236  31.766  33.454  1.00  0.00     0.044 A 
ATOM     17  C   UNL A   1      38.272  32.445  34.714  1.00  0.00     0.015 A 
BRANCH   9  18
ATOM     18  C   UNL A   1      40.108  28.690  32.917  1.00  0.00     0.280 C 
ATOM     19  O   UNL A   1      40.332  27.718  33.630  1.00  0.00    -0.296 OA
ENDBRANCH   9  18
ENDBRANCH   5   8
ENDBRANCH   3   4
ENDBRANCH   2   3
ENDBRANCH   1   2
BRANCH   1  20
ATOM     20  C   UNL A   1      33.568  36.289  29.942  1.00  0.00     0.116 C 
BRANCH  20  21
ATOM     21  N   UNL A   1      32.740  35.503  29.040  1.00  0.00    -0.352 N 
ATOM     22  C   UNL A   1      33.039  34.315  28.417  1.00  0.00     0.251 C 
ATOM     23  H   UNL A   1      31.846  35.872  28.852  1.00  0.00     0.163 HD
ATOM     24  O   UNL A   1      32.260  33.826  27.610  1.00  0.00    -0.269 OA
BRANCH  22  25
ATOM     25  C   UNL A   1      34.331  33.657  28.698  1.00  0.00     0.039 A 
ATOM     26  C   UNL A   1      35.436  33.993  27.914  1.00  0.00     0.014 A 
ATOM     27  C   UNL A   1      34.455  32.741  29.745  1.00  0.00     0.014 A 
ATOM     28  C   UNL A   1      36.688  33.461  28.225  1.00  0.00     0.010 A 
ATOM     29  C   UNL A   1      35.714  32.261  30.094  1.00  0.00     0.010 A 
ATOM     30  C   UNL A   1      36.842  32.620  29.341  1.00  0.00    -0.014 A 
BRANCH  30  31
ATOM     31  C   UNL A   1      38.179  32.116  29.739  1.00  0.00     0.031 A 
ATOM     32  C   UNL A   1      38.652  30.774  29.262  1.00  0.00     0.074 A 
ATOM     33  C   UNL A   1      38.934  32.840  30.587  1.00  0.00     0.049 A 
ATOM     34  N   UNL A   1      39.760  30.138  29.551  1.00  0.00    -0.248 NA
ATOM     35  C   UNL A   1      37.753  30.036  28.362  1.00  0.00     0.031 C 
ATOM     36  C   UNL A   1      38.559  34.133  31.164  1.00  0.00     0.029 A 
ATOM     37  N   UNL A   1      40.172  32.585  31.121  1.00  0.00    -0.354 N 
ATOM     38  C   UNL A   1      39.682  28.923  28.884  1.00  0.00     0.074 A 
ATOM     39  C   UNL A   1      38.398  28.888  28.216  1.00  0.00     0.031 C 
ATOM     40  C   UNL A   1      39.555  34.568  31.952  1.00  0.00     0.029 A 
ATOM     41  C   UNL A   1      40.623  33.573  31.963  1.00  0.00     0.049 A 
ATOM     42  H   UNL A   1      40.689  31.772  30.920  1.00  0.00     0.167 HD
ATOM     43  C   UNL A   1      40.605  27.935  28.815  1.00  0.00     0.037 A 
ATOM     44  C   UNL A   1      41.767  33.664  32.665  1.00  0.00     0.037 A 
ATOM     45  C   UNL A   1      41.892  27.985  29.457  1.00  0.00     0.049 A 
ATOM     46  C   UNL A   1      42.781  32.559  32.563  1.00  0.00     0.074 A 
ATOM     47  C   UNL A   1      42.924  27.065  29.394  1.00  0.00     0.029 A 
ATOM     48  N   UNL A   1      42.323  29.014  30.281  1.00  0.00    -0.354 N 
ATOM     49  N   UNL A   1      42.724  31.447  31.870  1.00  0.00    -0.248 NA
ATOM     50  C   UNL A   1      44.020  32.724  33.336  1.00  0.00     0.031 C 
ATOM     51  C   UNL A   1      43.966  27.520  30.209  1.00  0.00     0.029 A 
ATOM     52  C   UNL A   1      43.599  28.744  30.747  1.00  0.00     0.049 A 
ATOM     53  H   UNL A   1      41.799  29.818  30.501  1.00  0.00     0.167 HD
ATOM     54  C   UNL A   1      43.928  30.794  32.101  1.00  0.00     0.074 A 
ATOM     55  C   UNL A   1      44.699  31.641  32.988  1.00  0.00     0.031 C 
ATOM     56  C   UNL A   1      44.355  29.601  31.622  1.00  0.00     0.037 A 
BRANCH  43  57
ATOM     57  C   UNL A   1      40.257  26.720  28.008  1.00  0.00     0.057 A 
ATOM     58  C   UNL A   1      40.746  26.533  26.708  1.00  0.00     0.134 A 
ATOM     59  C   UNL A   1      39.444  25.713  28.543  1.00  0.00     0.134 A 
ATOM     60  F   UNL A   1      41.518  27.466  26.132  1.00  0.00    -0.206 F 
ATOM     61  C   UNL A   1      40.418  25.401  25.960  1.00  0.00     0.040 A 
ATOM     62  C   UNL A   1      39.132  24.563  27.815  1.00  0.00     0.040 A 
ATOM     63  F   UNL A   1      38.947  25.826  29.784  1.00  0.00    -0.206 F 
ATOM     64  C   UNL A   1      39.614  24.409  26.516  1.00  0.00     0.006 A 
ENDBRANCH  43  57
BRANCH  44  65
ATOM     65  C   UNL A   1      42.031  34.859  33.505  1.00  0.00     0.057 A 
ATOM     66  C   UNL A   1      42.759  35.943  33.003  1.00  0.00     0.134 A 
ATOM     67  C   UNL A   1      41.567  34.946  34.822  1.00  0.00     0.134 A 
ATOM     68  F   UNL A   1      43.245  35.910  31.754  1.00  0.00    -0.206 F 
ATOM     69  C   UNL A   1      43.037  37.064  33.788  1.00  0.00     0.040 A 
ATOM     70  C   UNL A   1      41.816  36.070  35.612  1.00  0.00     0.040 A 
ATOM     71  F   UNL A   1      40.855  33.943  35.358  1.00  0.00    -0.206 F 
ATOM     72  C   UNL A   1      42.559  37.131  35.096  1.00  0.00     0.006 A 
ENDBRANCH  44  65
BRANCH  56  73
ATOM     73  C   UNL A   1      45.731  29.156  32.020  1.00  0.00     0.057 A 
ATOM     74  C   UNL A   1      45.952  28.365  33.153  1.00  0.00     0.134 A 
ATOM     75  C   UNL A   1      46.842  29.492  31.236  1.00  0.00     0.134 A 
ATOM     76  F   UNL A   1      44.930  28.022  33.952  1.00  0.00    -0.206 F 
ATOM     77  C   UNL A   1      47.233  27.938  33.505  1.00  0.00     0.040 A 
ATOM     78  C   UNL A   1      48.125  29.051  31.564  1.00  0.00     0.040 A 
ATOM     79  F   UNL A   1      46.697  30.242  30.133  1.00  0.00    -0.206 F 
ATOM     80  C   UNL A   1      48.323  28.276  32.704  1.00  0.00     0.006 A 
ENDBRANCH  56  73
ENDBRANCH  30  31
ENDBRANCH  22  25
ENDBRANCH  20  21
ENDBRANCH   1  20
TORSDOF 12
ENDMDL
MODEL 2
REMARK VINA RESULT:      -9.3      0.363      6.509
REMARK SMILES O=Cc1[nH]nc2cc(C(=O)NCCCCNC(=O)c3ccc(-c4c5nc(c(-c6c(F)cccc6F)c6ccc([nH]6)c(-c6c(F)cccc6F)c6nc(c(-c7c(F)cccc7F)c7ccc4[nH]7)C=C6)C=C5)cc3)ccc12
REMARK SMILES IDX 14 1 13 2 12 3 11 4 9 5 10 6 8 8 3 9 4 10 75 11 5 12 6 14
REMARK SMILES IDX 74 15 7 16 73 17 2 18 1 19 15 20 16 21 17 22 18 24 19 25
REMARK SMILES IDX 20 26 72 27 21 28 71 29 22 30 23 31 24 32 65 33 25 34 70 35
REMARK SMILES IDX 64 36 66 37 26 38 69 39 63 40 62 41 27 43 53 44 36 45 52 46
REMARK SMILES IDX 37 47 40 48 51 49 67 50 38 51 39 52 50 54 68 55 41 56 28 57
REMARK SMILES IDX 29 58 34 59 30 60 31 61 33 62 35 63 32 64 54 65 55 66 60 67
REMARK SMILES IDX 56 68 57 69 59 70 61 71 58 72 42 73 43 74 48 75 44 76 45 77
REMARK SMILES IDX 47 78 49 79 46 80
REMARK H PARENT 11 7 4 13 16 23 66 42 40 53
REMARK Flexibility Score: inf
ROOT
ATOM      1  C   UNL A   1      33.175  35.862  31.322  1.00  0.00     0.023 C 
ENDROOT
BRANCH   1   2
ATOM      2  C   UNL A   1      34.395  36.257  32.163  1.00  0.00     0.023 C 
BRANCH   2   3
ATOM      3  C   UNL A   1      35.286  35.079  32.564  1.00  0.00     0.116 C 
BRANCH   3   4
ATOM      4  N   UNL A   1      35.251  34.882  33.998  1.00  0.00    -0.352 N 
ATOM      5  C   UNL A   1      35.826  33.971  34.844  1.00  0.00     0.251 C 
ATOM      6  O   UNL A   1      35.549  34.097  36.039  1.00  0.00    -0.269 OA
ATOM      7  H   UNL A   1      34.692  35.544  34.465  1.00  0.00     0.163 HD
BRANCH   5   8
ATOM      8  C   UNL A   1      36.778  32.887  34.436  1.00  0.00     0.042 A 
ATOM      9  C   UNL A   1      39.028  29.706  33.156  1.00  0.00     0.105 A 
ATOM     10  N   UNL A   1      38.035  29.142  32.399  1.00  0.00    -0.274 N 
ATOM     11  C   UNL A   1      38.443  30.840  33.668  1.00  0.00     0.030 A 
ATOM     12  N   UNL A   1      36.858  29.791  32.433  1.00  0.00    -0.175 NA
ATOM     13  H   UNL A   1      38.172  28.324  31.870  1.00  0.00     0.190 HD
ATOM     14  C   UNL A   1      37.077  30.857  33.218  1.00  0.00     0.094 A 
ATOM     15  C   UNL A   1      39.057  31.798  34.466  1.00  0.00     0.013 A 
ATOM     16  C   UNL A   1      36.203  31.885  33.605  1.00  0.00     0.044 A 
ATOM     17  C   UNL A   1      38.163  32.845  34.801  1.00  0.00     0.015 A 
BRANCH   9  18
ATOM     18  C   UNL A   1      40.341  29.142  33.303  1.00  0.00     0.280 C 
ATOM     19  O   UNL A   1      40.676  28.333  34.162  1.00  0.00    -0.296 OA
ENDBRANCH   9  18
ENDBRANCH   5   8
ENDBRANCH   3   4
ENDBRANCH   2   3
ENDBRANCH   1   2
BRANCH   1  20
ATOM     20  C   UNL A   1      33.186  36.374  29.884  1.00  0.00     0.116 C 
BRANCH  20  21
ATOM     21  N   UNL A   1      32.590  35.446  28.934  1.00  0.00    -0.352 N 
ATOM     22  C   UNL A   1      33.119  34.285  28.424  1.00  0.00     0.251 C 
ATOM     23  H   UNL A   1      31.689  35.681  28.616  1.00  0.00     0.163 HD
ATOM     24  O   UNL A   1      32.523  33.660  27.558  1.00  0.00    -0.269 OA
BRANCH  22  25
ATOM     25  C   UNL A   1      34.438  33.820  28.901  1.00  0.00     0.039 A 
ATOM     26  C   UNL A   1      34.482  32.809  29.864  1.00  0.00     0.014 A 
ATOM     27  C   UNL A   1      35.618  34.356  28.380  1.00  0.00     0.014 A 
ATOM     28  C   UNL A   1      35.714  32.285  30.255  1.00  0.00     0.010 A 
ATOM     29  C   UNL A   1      36.841  33.789  28.723  1.00  0.00     0.010 A 
ATOM     30  C   UNL A   1      36.901  32.745  29.659  1.00  0.00    -0.014 A 
BRANCH  30  31
ATOM     31  C   UNL A   1      38.211  32.139  29.997  1.00  0.00     0.031 A 
ATOM     32  C   UNL A   1      39.190  32.886  30.856  1.00  0.00     0.074 A 
ATOM     33  C   UNL A   1      38.543  30.944  29.471  1.00  0.00     0.049 A 
ATOM     34  N   UNL A   1      40.405  32.549  31.208  1.00  0.00    -0.248 NA
ATOM     35  C   UNL A   1      38.758  34.197  31.364  1.00  0.00     0.031 C 
ATOM     36  C   UNL A   1      37.700  30.147  28.578  1.00  0.00     0.029 A 
ATOM     37  N   UNL A   1      39.687  30.197  29.604  1.00  0.00    -0.354 N 
ATOM     38  C   UNL A   1      40.886  33.610  31.964  1.00  0.00     0.074 A 
ATOM     39  C   UNL A   1      39.853  34.623  31.977  1.00  0.00     0.031 C 
ATOM     40  C   UNL A   1      38.345  29.012  28.262  1.00  0.00     0.029 A 
ATOM     41  C   UNL A   1      39.657  29.016  28.902  1.00  0.00     0.049 A 
ATOM     42  H   UNL A   1      40.455  30.479  30.151  1.00  0.00     0.167 HD
ATOM     43  C   UNL A   1      42.072  33.721  32.607  1.00  0.00     0.037 A 
ATOM     44  C   UNL A   1      40.584  28.048  28.786  1.00  0.00     0.037 A 
ATOM     45  C   UNL A   1      43.086  32.699  32.616  1.00  0.00     0.049 A 
ATOM     46  C   UNL A   1      41.889  28.190  29.519  1.00  0.00     0.074 A 
ATOM     47  C   UNL A   1      44.294  32.688  33.291  1.00  0.00     0.029 A 
ATOM     48  N   UNL A   1      43.009  31.506  31.914  1.00  0.00    -0.354 N 
ATOM     49  N   UNL A   1      42.302  29.167  30.289  1.00  0.00    -0.248 NA
ATOM     50  C   UNL A   1      42.854  27.091  29.373  1.00  0.00     0.031 C 
ATOM     51  C   UNL A   1      44.964  31.504  32.969  1.00  0.00     0.029 A 
ATOM     52  C   UNL A   1      44.155  30.758  32.126  1.00  0.00     0.049 A 
ATOM     53  H   UNL A   1      42.251  31.231  31.348  1.00  0.00     0.167 HD
ATOM     54  C   UNL A   1      43.560  28.790  30.740  1.00  0.00     0.074 A 
ATOM     55  C   UNL A   1      43.837  27.489  30.167  1.00  0.00     0.031 C 
ATOM     56  C   UNL A   1      44.410  29.462  31.554  1.00  0.00     0.037 A 
BRANCH  43  57
ATOM     57  C   UNL A   1      42.331  34.990  33.363  1.00  0.00     0.057 A 
ATOM     58  C   UNL A   1      41.901  35.161  34.686  1.00  0.00     0.134 A 
ATOM     59  C   UNL A   1      43.039  36.044  32.773  1.00  0.00     0.134 A 
ATOM     60  F   UNL A   1      41.206  34.195  35.305  1.00  0.00    -0.206 F 
ATOM     61  C   UNL A   1      42.143  36.344  35.386  1.00  0.00     0.040 A 
ATOM     62  C   UNL A   1      43.312  37.221  33.472  1.00  0.00     0.040 A 
ATOM     63  F   UNL A   1      43.484  35.944  31.512  1.00  0.00    -0.206 F 
ATOM     64  C   UNL A   1      42.856  37.376  34.780  1.00  0.00     0.006 A 
ENDBRANCH  43  57
BRANCH  44  65
ATOM     65  C   UNL A   1      40.302  26.843  27.967  1.00  0.00     0.057 A 
ATOM     66  C   UNL A   1      40.834  26.707  26.681  1.00  0.00     0.134 A 
ATOM     67  C   UNL A   1      39.496  25.804  28.446  1.00  0.00     0.134 A 
ATOM     68  F   UNL A   1      41.600  27.678  26.161  1.00  0.00    -0.206 F 
ATOM     69  C   UNL A   1      40.559  25.591  25.889  1.00  0.00     0.040 A 
ATOM     70  C   UNL A   1      39.230  24.671  27.675  1.00  0.00     0.040 A 
ATOM     71  F   UNL A   1      38.963  25.871  29.675  1.00  0.00    -0.206 F 
ATOM     72  C   UNL A   1      39.758  24.566  26.389  1.00  0.00     0.006 A 
ENDBRANCH  44  65
BRANCH  56  73
ATOM     73  C   UNL A   1      45.704  28.786  31.900  1.00  0.00     0.057 A 
ATOM     74  C   UNL A   1      46.866  28.986  31.145  1.00  0.00     0.134 A 
ATOM     75  C   UNL A   1      45.795  27.958  33.026  1.00  0.00     0.134 A 
ATOM     76  F   UNL A   1      46.838  29.757  30.047  1.00  0.00    -0.206 F 
ATOM     77  C   UNL A   1      48.070  28.370  31.486  1.00  0.00     0.040 A 
ATOM     78  C   UNL A   1      47.000  27.356  33.391  1.00  0.00     0.040 A 
ATOM     79  F   UNL A   1      44.720  27.732  33.795  1.00  0.00    -0.206 F 
ATOM     80  C   UNL A   1      48.141  27.557  32.617  1.00  0.00     0.006 A 
ENDBRANCH  56  73
ENDBRANCH  30  31
ENDBRANCH  22  25
ENDBRANCH  20  21
ENDBRANCH   1  20
TORSDOF 12
ENDMDL
MODEL 3
REMARK VINA RESULT:      -9.1      4.030      5.992
REMARK SMILES O=Cc1[nH]nc2cc(C(=O)NCCCCNC(=O)c3ccc(-c4c5nc(c(-c6c(F)cccc6F)c6ccc([nH]6)c(-c6c(F)cccc6F)c6nc(c(-c7c(F)cccc7F)c7ccc4[nH]7)C=C6)C=C5)cc3)ccc12
REMARK SMILES IDX 14 1 13 2 12 3 11 4 9 5 10 6 8 8 3 9 4 10 75 11 5 12 6 14
REMARK SMILES IDX 74 15 7 16 73 17 2 18 1 19 15 20 16 21 17 22 18 24 19 25
REMARK SMILES IDX 20 26 72 27 21 28 71 29 22 30 23 31 24 32 65 33 25 34 70 35
REMARK SMILES IDX 64 36 66 37 26 38 69 39 63 40 62 41 27 43 53 44 36 45 52 46
REMARK SMILES IDX 37 47 40 48 51 49 67 50 38 51 39 52 50 54 68 55 41 56 28 57
REMARK SMILES IDX 29 58 34 59 30 60 31 61 33 62 35 63 32 64 54 65 55 66 60 67
REMARK SMILES IDX 56 68 57 69 59 70 61 71 58 72 42 73 43 74 48 75 44 76 45 77
REMARK SMILES IDX 47 78 49 79 46 80
REMARK H PARENT 11 7 4 13 16 23 66 42 40 53
REMARK Flexibility Score: inf
ROOT
ATOM      1  C   UNL A   1      31.603  31.981  26.851  1.00  0.00     0.023 C 
ENDROOT
BRANCH   1   2
ATOM      2  C   UNL A   1      31.863  30.470  26.873  1.00  0.00     0.023 C 
BRANCH   2   3
ATOM      3  C   UNL A   1      33.342  30.088  26.778  1.00  0.00     0.116 C 
BRANCH   3   4
ATOM      4  N   UNL A   1      33.680  29.704  25.423  1.00  0.00    -0.352 N 
ATOM      5  C   UNL A   1      33.551  28.543  24.707  1.00  0.00     0.251 C 
ATOM      6  O   UNL A   1      33.980  28.574  23.551  1.00  0.00    -0.269 OA
ATOM      7  H   UNL A   1      34.091  30.433  24.906  1.00  0.00     0.163 HD
BRANCH   5   8
ATOM      8  C   UNL A   1      32.904  27.284  25.202  1.00  0.00     0.042 A 
ATOM      9  C   UNL A   1      31.539  23.658  26.545  1.00  0.00     0.105 A 
ATOM     10  N   UNL A   1      32.782  23.136  26.791  1.00  0.00    -0.274 N 
ATOM     11  C   UNL A   1      31.804  24.928  26.091  1.00  0.00     0.030 A 
ATOM     12  N   UNL A   1      33.809  23.944  26.478  1.00  0.00    -0.175 NA
ATOM     13  H   UNL A   1      32.913  22.236  27.168  1.00  0.00     0.190 HD
ATOM     14  C   UNL A   1      33.234  25.074  26.037  1.00  0.00     0.094 A 
ATOM     15  C   UNL A   1      30.866  25.897  25.752  1.00  0.00     0.013 A 
ATOM     16  C   UNL A   1      33.821  26.262  25.576  1.00  0.00     0.044 A 
ATOM     17  C   UNL A   1      31.489  27.099  25.337  1.00  0.00     0.015 A 
BRANCH   9  18
ATOM     18  C   UNL A   1      30.313  22.939  26.755  1.00  0.00     0.280 C 
ATOM     19  O   UNL A   1      29.475  23.199  27.613  1.00  0.00    -0.296 OA
ENDBRANCH   9  18
ENDBRANCH   5   8
ENDBRANCH   3   4
ENDBRANCH   2   3
ENDBRANCH   1   2
BRANCH   1  20
ATOM     20  C   UNL A   1      32.795  32.850  27.244  1.00  0.00     0.116 C 
BRANCH  20  21
ATOM     21  N   UNL A   1      32.427  34.214  27.593  1.00  0.00    -0.352 N 
ATOM     22  C   UNL A   1      32.991  35.041  28.534  1.00  0.00     0.251 C 
ATOM     23  H   UNL A   1      31.673  34.595  27.086  1.00  0.00     0.163 HD
ATOM     24  O   UNL A   1      32.502  36.137  28.771  1.00  0.00    -0.269 OA
BRANCH  22  25
ATOM     25  C   UNL A   1      34.171  34.575  29.291  1.00  0.00     0.039 A 
ATOM     26  C   UNL A   1      33.978  34.033  30.563  1.00  0.00     0.014 A 
ATOM     27  C   UNL A   1      35.451  34.643  28.736  1.00  0.00     0.014 A 
ATOM     28  C   UNL A   1      35.063  33.493  31.254  1.00  0.00     0.010 A 
ATOM     29  C   UNL A   1      36.521  34.049  29.398  1.00  0.00     0.010 A 
ATOM     30  C   UNL A   1      36.336  33.464  30.660  1.00  0.00    -0.014 A 
BRANCH  30  31
ATOM     31  C   UNL A   1      37.483  32.817  31.342  1.00  0.00     0.031 A 
ATOM     32  C   UNL A   1      38.153  31.623  30.724  1.00  0.00     0.074 A 
ATOM     33  C   UNL A   1      37.873  33.263  32.552  1.00  0.00     0.049 A 
ATOM     34  N   UNL A   1      39.127  30.887  31.196  1.00  0.00    -0.248 NA
ATOM     35  C   UNL A   1      37.646  31.183  29.416  1.00  0.00     0.031 C 
ATOM     36  C   UNL A   1      37.264  34.378  33.280  1.00  0.00     0.029 A 
ATOM     37  N   UNL A   1      38.869  32.824  33.388  1.00  0.00    -0.354 N 
ATOM     38  C   UNL A   1      39.337  29.890  30.252  1.00  0.00     0.074 A 
ATOM     39  C   UNL A   1      38.357  30.085  29.205  1.00  0.00     0.031 C 
ATOM     40  C   UNL A   1      37.914  34.550  34.442  1.00  0.00     0.029 A 
ATOM     41  C   UNL A   1      38.961  33.541  34.557  1.00  0.00     0.049 A 
ATOM     42  H   UNL A   1      39.462  32.069  33.170  1.00  0.00     0.167 HD
ATOM     43  C   UNL A   1      40.275  28.914  30.247  1.00  0.00     0.037 A 
ATOM     44  C   UNL A   1      39.797  33.397  35.602  1.00  0.00     0.037 A 
ATOM     45  C   UNL A   1      41.267  28.741  31.276  1.00  0.00     0.049 A 
ATOM     46  C   UNL A   1      40.837  32.313  35.567  1.00  0.00     0.074 A 
ATOM     47  C   UNL A   1      42.302  27.823  31.330  1.00  0.00     0.029 A 
ATOM     48  N   UNL A   1      41.345  29.502  32.432  1.00  0.00    -0.354 N 
ATOM     49  N   UNL A   1      41.070  31.421  34.634  1.00  0.00    -0.248 NA
ATOM     50  C   UNL A   1      41.734  32.218  36.727  1.00  0.00     0.031 C 
ATOM     51  C   UNL A   1      42.985  28.007  32.537  1.00  0.00     0.029 A 
ATOM     52  C   UNL A   1      42.401  29.064  33.215  1.00  0.00     0.049 A 
ATOM     53  H   UNL A   1      40.740  30.243  32.662  1.00  0.00     0.167 HD
ATOM     54  C   UNL A   1      42.155  30.679  35.081  1.00  0.00     0.074 A 
ATOM     55  C   UNL A   1      42.542  31.233  36.363  1.00  0.00     0.031 C 
ATOM     56  C   UNL A   1      42.776  29.632  34.484  1.00  0.00     0.037 A 
BRANCH  43  57
ATOM     57  C   UNL A   1      40.278  27.965  29.085  1.00  0.00     0.057 A 
ATOM     58  C   UNL A   1      39.544  26.772  29.107  1.00  0.00     0.134 A 
ATOM     59  C   UNL A   1      41.001  28.259  27.923  1.00  0.00     0.134 A 
ATOM     60  F   UNL A   1      38.841  26.425  30.195  1.00  0.00    -0.206 F 
ATOM     61  C   UNL A   1      39.550  25.891  28.024  1.00  0.00     0.040 A 
ATOM     62  C   UNL A   1      40.993  27.399  26.823  1.00  0.00     0.040 A 
ATOM     63  F   UNL A   1      41.721  29.387  27.834  1.00  0.00    -0.206 F 
ATOM     64  C   UNL A   1      40.272  26.208  26.875  1.00  0.00     0.006 A 
ENDBRANCH  43  57
BRANCH  44  65
ATOM     65  C   UNL A   1      39.705  34.322  36.759  1.00  0.00     0.057 A 
ATOM     66  C   UNL A   1      40.361  35.557  36.746  1.00  0.00     0.134 A 
ATOM     67  C   UNL A   1      38.966  33.995  37.901  1.00  0.00     0.134 A 
ATOM     68  F   UNL A   1      41.099  35.917  35.686  1.00  0.00    -0.206 F 
ATOM     69  C   UNL A   1      40.304  36.427  37.836  1.00  0.00     0.040 A 
ATOM     70  C   UNL A   1      38.880  34.864  38.990  1.00  0.00     0.040 A 
ATOM     71  F   UNL A   1      38.307  32.828  37.972  1.00  0.00    -0.206 F 
ATOM     72  C   UNL A   1      39.556  36.083  38.961  1.00  0.00     0.006 A 
ENDBRANCH  44  65
BRANCH  56  73
ATOM     73  C   UNL A   1      43.957  29.040  35.194  1.00  0.00     0.057 A 
ATOM     74  C   UNL A   1      45.261  29.493  34.960  1.00  0.00     0.134 A 
ATOM     75  C   UNL A   1      43.780  28.034  36.152  1.00  0.00     0.134 A 
ATOM     76  F   UNL A   1      45.496  30.446  34.044  1.00  0.00    -0.206 F 
ATOM     77  C   UNL A   1      46.352  28.951  35.640  1.00  0.00     0.040 A 
ATOM     78  C   UNL A   1      44.861  27.502  36.856  1.00  0.00     0.040 A 
ATOM     79  F   UNL A   1      42.556  27.562  36.427  1.00  0.00    -0.206 F 
ATOM     80  C   UNL A   1      46.152  27.957  36.597  1.00  0.00     0.006 A 
ENDBRANCH  56  73
ENDBRANCH  30  31
ENDBRANCH  22  25
ENDBRANCH  20  21
ENDBRANCH   1  20
TORSDOF 12
ENDMDL
