MODEL 1
REMARK VINA RESULT:     -12.4      0.000      0.000
REMARK SMILES O=C(NCCCCNC(=O)[C@H]1CC=CC[C@H]1C(=O)N[C@@H]1CCN(c2cccc(Cl)c2)C1)c1ccc(-c2c3nc(c(-c4c(F)cccc4F)c4ccc([nH]4)c(-c4c(F)cccc4F)c4nc(c(-c5c(F)cccc5F)c5ccc2[nH]5)C=C4)C=C3)cc1
REMARK SMILES IDX 6 1 5 2 4 3 3 4 1 5 2 6 32 8 33 9 85 10 34 11 84 12 35 13
REMARK SMILES IDX 36 14 37 15 78 16 38 17 83 18 77 19 79 20 39 21 82 22 76 23
REMARK SMILES IDX 75 24 40 26 66 27 49 28 65 29 50 30 53 31 64 32 80 33 51 34
REMARK SMILES IDX 52 35 63 37 81 38 54 39 41 40 42 41 47 42 43 43 44 44 46 45
REMARK SMILES IDX 48 46 45 47 67 48 68 49 73 50 69 51 70 52 72 53 74 54 71 55
REMARK SMILES IDX 55 56 56 57 61 58 57 59 58 60 60 61 62 62 59 63 7 64 8 65
REMARK SMILES IDX 9 66 10 68 11 69 12 70 16 71 13 72 15 73 14 74 17 75 18 76
REMARK SMILES IDX 19 77 20 79 21 80 31 81 22 82 23 83 24 84 25 85 30 86 26 87
REMARK SMILES IDX 28 88 27 89 29 90
REMARK H PARENT 3 7 79 25 53 36 8 67 19 78
REMARK Flexibility Score: inf
ROOT
ATOM      1  C   UNL A   1      37.798  21.907  25.599  1.00  0.00     0.023 C 
ENDROOT
BRANCH   1   2
ATOM      2  C   UNL A   1      38.511  23.185  26.054  1.00  0.00     0.023 C 
BRANCH   2   3
ATOM      3  C   UNL A   1      39.754  22.969  26.903  1.00  0.00     0.116 C 
BRANCH   3   4
ATOM      4  N   UNL A   1      40.932  23.533  26.270  1.00  0.00    -0.352 N 
ATOM      5  O   UNL A   1      42.232  25.123  25.375  1.00  0.00    -0.269 OA
ATOM      6  C   UNL A   1      41.397  24.820  26.232  1.00  0.00     0.251 C 
ATOM      7  H   UNL A   1      41.490  22.881  25.788  1.00  0.00     0.163 HD
BRANCH   6   8
ATOM      8  C   UNL A   1      40.952  25.851  27.200  1.00  0.00     0.039 A 
ATOM      9  C   UNL A   1      40.030  25.563  28.209  1.00  0.00     0.014 A 
ATOM     10  C   UNL A   1      41.586  27.100  27.183  1.00  0.00     0.014 A 
ATOM     11  C   UNL A   1      39.688  26.535  29.149  1.00  0.00     0.010 A 
ATOM     12  C   UNL A   1      41.306  28.045  28.174  1.00  0.00     0.010 A 
ATOM     13  C   UNL A   1      40.357  27.768  29.168  1.00  0.00    -0.014 A 
BRANCH  13  14
ATOM     14  C   UNL A   1      40.152  28.708  30.299  1.00  0.00     0.031 A 
ATOM     15  C   UNL A   1      39.105  29.780  30.236  1.00  0.00     0.074 A 
ATOM     16  C   UNL A   1      40.954  28.608  31.377  1.00  0.00     0.049 A 
ATOM     17  N   UNL A   1      38.851  30.737  31.093  1.00  0.00    -0.248 NA
ATOM     18  C   UNL A   1      38.237  29.788  29.049  1.00  0.00     0.031 C 
ATOM     19  C   UNL A   1      42.019  27.613  31.542  1.00  0.00     0.029 A 
ATOM     20  N   UNL A   1      41.009  29.346  32.531  1.00  0.00    -0.354 N 
ATOM     21  C   UNL A   1      37.814  31.477  30.539  1.00  0.00     0.074 A 
ATOM     22  C   UNL A   1      37.496  30.866  29.264  1.00  0.00     0.031 C 
ATOM     23  C   UNL A   1      42.602  27.788  32.736  1.00  0.00     0.029 A 
ATOM     24  C   UNL A   1      42.004  28.944  33.390  1.00  0.00     0.049 A 
ATOM     25  H   UNL A   1      40.396  30.090  32.726  1.00  0.00     0.167 HD
ATOM     26  C   UNL A   1      37.191  32.566  31.049  1.00  0.00     0.037 A 
ATOM     27  C   UNL A   1      42.415  29.468  34.560  1.00  0.00     0.037 A 
ATOM     28  C   UNL A   1      37.513  33.159  32.322  1.00  0.00     0.049 A 
ATOM     29  C   UNL A   1      41.721  30.682  35.097  1.00  0.00     0.074 A 
ATOM     30  C   UNL A   1      36.919  34.245  32.945  1.00  0.00     0.029 A 
ATOM     31  N   UNL A   1      38.526  32.721  33.165  1.00  0.00    -0.354 N 
ATOM     32  N   UNL A   1      40.726  31.357  34.575  1.00  0.00    -0.248 NA
ATOM     33  C   UNL A   1      42.205  31.212  36.378  1.00  0.00     0.031 C 
ATOM     34  C   UNL A   1      37.600  34.487  34.144  1.00  0.00     0.029 A 
ATOM     35  C   UNL A   1      38.585  33.524  34.292  1.00  0.00     0.049 A 
ATOM     36  H   UNL A   1      39.114  31.951  32.988  1.00  0.00     0.167 HD
ATOM     37  C   UNL A   1      40.452  32.383  35.468  1.00  0.00     0.074 A 
ATOM     38  C   UNL A   1      41.382  32.234  36.571  1.00  0.00     0.031 C 
ATOM     39  C   UNL A   1      39.514  33.357  35.382  1.00  0.00     0.037 A 
BRANCH  26  40
ATOM     40  C   UNL A   1      36.120  33.203  30.211  1.00  0.00     0.057 A 
ATOM     41  C   UNL A   1      34.759  33.065  30.511  1.00  0.00     0.134 A 
ATOM     42  C   UNL A   1      36.459  33.977  29.092  1.00  0.00     0.134 A 
ATOM     43  F   UNL A   1      34.365  32.328  31.560  1.00  0.00    -0.206 F 
ATOM     44  C   UNL A   1      33.771  33.646  29.711  1.00  0.00     0.040 A 
ATOM     45  C   UNL A   1      35.482  34.583  28.301  1.00  0.00     0.040 A 
ATOM     46  F   UNL A   1      37.743  34.157  28.752  1.00  0.00    -0.206 F 
ATOM     47  C   UNL A   1      34.133  34.412  28.605  1.00  0.00     0.006 A 
ENDBRANCH  26  40
BRANCH  27  48
ATOM     48  C   UNL A   1      43.549  28.836  35.278  1.00  0.00     0.057 A 
ATOM     49  C   UNL A   1      43.334  27.846  36.244  1.00  0.00     0.134 A 
ATOM     50  C   UNL A   1      44.875  29.159  34.967  1.00  0.00     0.134 A 
ATOM     51  F   UNL A   1      42.086  27.504  36.593  1.00  0.00    -0.206 F 
ATOM     52  C   UNL A   1      44.399  27.198  36.872  1.00  0.00     0.040 A 
ATOM     53  C   UNL A   1      45.949  28.504  35.571  1.00  0.00     0.040 A 
ATOM     54  F   UNL A   1      45.145  30.093  34.042  1.00  0.00    -0.206 F 
ATOM     55  C   UNL A   1      45.712  27.519  36.528  1.00  0.00     0.006 A 
ENDBRANCH  27  48
BRANCH  39  56
ATOM     56  C   UNL A   1      39.421  34.317  36.528  1.00  0.00     0.057 A 
ATOM     57  C   UNL A   1      38.760  33.987  37.717  1.00  0.00     0.134 A 
ATOM     58  C   UNL A   1      40.048  35.568  36.458  1.00  0.00     0.134 A 
ATOM     59  F   UNL A   1      38.128  32.809  37.839  1.00  0.00    -0.206 F 
ATOM     60  C   UNL A   1      38.717  34.872  38.795  1.00  0.00     0.040 A 
ATOM     61  C   UNL A   1      40.029  36.453  37.535  1.00  0.00     0.040 A 
ATOM     62  F   UNL A   1      40.701  35.940  35.346  1.00  0.00    -0.206 F 
ATOM     63  C   UNL A   1      39.360  36.107  38.707  1.00  0.00     0.006 A 
ENDBRANCH  39  56
ENDBRANCH  13  14
ENDBRANCH   6   8
ENDBRANCH   3   4
ENDBRANCH   2   3
ENDBRANCH   1   2
BRANCH   1  64
ATOM     64  C   UNL A   1      37.047  21.979  24.272  1.00  0.00     0.116 C 
BRANCH  64  65
ATOM     65  N   UNL A   1      36.343  23.220  24.024  1.00  0.00    -0.356 N 
ATOM     66  C   UNL A   1      35.256  23.677  24.698  1.00  0.00     0.224 C 
ATOM     67  H   UNL A   1      36.685  23.788  23.296  1.00  0.00     0.163 HD
ATOM     68  O   UNL A   1      35.394  24.772  25.253  1.00  0.00    -0.275 OA
BRANCH  66  69
ATOM     69  C   UNL A   1      33.941  22.885  24.794  1.00  0.00     0.095 C 
ATOM     70  C   UNL A   1      33.375  23.085  26.228  1.00  0.00     0.041 C 
ATOM     71  C   UNL A   1      32.891  23.022  23.661  1.00  0.00     0.095 C 
ATOM     72  C   UNL A   1      31.900  22.987  26.427  1.00  0.00    -0.030 C 
ATOM     73  C   UNL A   1      31.389  23.051  23.998  1.00  0.00     0.041 C 
ATOM     74  C   UNL A   1      31.014  22.982  25.433  1.00  0.00    -0.030 C 
BRANCH  71  75
ATOM     75  C   UNL A   1      33.112  23.952  22.486  1.00  0.00     0.224 C 
ATOM     76  O   UNL A   1      33.421  23.458  21.392  1.00  0.00    -0.275 OA
ATOM     77  N   UNL A   1      32.922  25.281  22.457  1.00  0.00    -0.351 N 
ATOM     78  H   UNL A   1      33.489  25.725  21.786  1.00  0.00     0.163 HD
BRANCH  77  79
ATOM     79  C   UNL A   1      32.073  26.230  23.183  1.00  0.00     0.103 C 
ATOM     80  C   UNL A   1      32.206  27.593  22.477  1.00  0.00     0.048 C 
ATOM     81  C   UNL A   1      32.496  26.626  24.613  1.00  0.00     0.141 C 
ATOM     82  C   UNL A   1      33.505  28.156  23.059  1.00  0.00     0.119 C 
ATOM     83  N   UNL A   1      33.468  27.729  24.454  1.00  0.00    -0.369 N 
BRANCH  83  84
ATOM     84  C   UNL A   1      33.471  28.653  25.493  1.00  0.00     0.038 A 
ATOM     85  C   UNL A   1      34.428  28.620  26.519  1.00  0.00     0.026 A 
ATOM     86  C   UNL A   1      32.543  29.703  25.497  1.00  0.00     0.046 A 
ATOM     87  C   UNL A   1      34.460  29.596  27.518  1.00  0.00     0.004 A 
ATOM     88  C   UNL A   1      32.565  30.671  26.504  1.00  0.00     0.043 A 
ATOM     89  C   UNL A   1      33.525  30.624  27.513  1.00  0.00     0.020 A 
ATOM     90  Cl  UNL A   1      31.403  31.942  26.502  1.00  0.00    -0.084 Cl
ENDBRANCH  83  84
ENDBRANCH  77  79
ENDBRANCH  71  75
ENDBRANCH  66  69
ENDBRANCH  64  65
ENDBRANCH   1  64
TORSDOF 14
ENDMDL
MODEL 2
REMARK VINA RESULT:     -12.4      2.678      7.714
REMARK SMILES O=C(NCCCCNC(=O)[C@H]1CC=CC[C@H]1C(=O)N[C@@H]1CCN(c2cccc(Cl)c2)C1)c1ccc(-c2c3nc(c(-c4c(F)cccc4F)c4ccc([nH]4)c(-c4c(F)cccc4F)c4nc(c(-c5c(F)cccc5F)c5ccc2[nH]5)C=C4)C=C3)cc1
REMARK SMILES IDX 6 1 5 2 4 3 3 4 1 5 2 6 32 8 33 9 85 10 34 11 84 12 35 13
REMARK SMILES IDX 36 14 37 15 78 16 38 17 83 18 77 19 79 20 39 21 82 22 76 23
REMARK SMILES IDX 75 24 40 26 66 27 49 28 65 29 50 30 53 31 64 32 80 33 51 34
REMARK SMILES IDX 52 35 63 37 81 38 54 39 41 40 42 41 47 42 43 43 44 44 46 45
REMARK SMILES IDX 48 46 45 47 67 48 68 49 73 50 69 51 70 52 72 53 74 54 71 55
REMARK SMILES IDX 55 56 56 57 61 58 57 59 58 60 60 61 62 62 59 63 7 64 8 65
REMARK SMILES IDX 9 66 10 68 11 69 12 70 16 71 13 72 15 73 14 74 17 75 18 76
REMARK SMILES IDX 19 77 20 79 21 80 31 81 22 82 23 83 24 84 25 85 30 86 26 87
REMARK SMILES IDX 28 88 27 89 29 90
REMARK H PARENT 3 7 79 25 53 36 8 67 19 78
REMARK Flexibility Score: inf
ROOT
ATOM      1  C   UNL A   1      31.590  30.607  26.082  1.00  0.00     0.023 C 
ENDROOT
BRANCH   1   2
ATOM      2  C   UNL A   1      31.428  32.047  26.586  1.00  0.00     0.023 C 
BRANCH   2   3
ATOM      3  C   UNL A   1      32.628  32.616  27.324  1.00  0.00     0.116 C 
BRANCH   3   4
ATOM      4  N   UNL A   1      32.470  34.036  27.577  1.00  0.00    -0.352 N 
ATOM      5  O   UNL A   1      32.484  35.934  28.768  1.00  0.00    -0.269 OA
ATOM      6  C   UNL A   1      33.005  34.836  28.551  1.00  0.00     0.251 C 
ATOM      7  H   UNL A   1      31.879  34.502  26.943  1.00  0.00     0.163 HD
BRANCH   6   8
ATOM      8  C   UNL A   1      34.200  34.439  29.332  1.00  0.00     0.039 A 
ATOM      9  C   UNL A   1      34.092  33.808  30.574  1.00  0.00     0.014 A 
ATOM     10  C   UNL A   1      35.461  34.573  28.737  1.00  0.00     0.014 A 
ATOM     11  C   UNL A   1      35.235  33.381  31.249  1.00  0.00     0.010 A 
ATOM     12  C   UNL A   1      36.599  34.069  29.374  1.00  0.00     0.010 A 
ATOM     13  C   UNL A   1      36.494  33.465  30.635  1.00  0.00    -0.014 A 
BRANCH  13  14
ATOM     14  C   UNL A   1      37.671  32.808  31.258  1.00  0.00     0.031 A 
ATOM     15  C   UNL A   1      38.324  31.621  30.618  1.00  0.00     0.074 A 
ATOM     16  C   UNL A   1      38.122  33.275  32.439  1.00  0.00     0.049 A 
ATOM     17  N   UNL A   1      39.302  30.875  31.067  1.00  0.00    -0.248 NA
ATOM     18  C   UNL A   1      37.805  31.208  29.305  1.00  0.00     0.031 C 
ATOM     19  C   UNL A   1      37.554  34.415  33.165  1.00  0.00     0.029 A 
ATOM     20  N   UNL A   1      39.152  32.853  33.241  1.00  0.00    -0.354 N 
ATOM     21  C   UNL A   1      39.498  29.889  30.109  1.00  0.00     0.074 A 
ATOM     22  C   UNL A   1      38.527  30.123  29.059  1.00  0.00     0.031 C 
ATOM     23  C   UNL A   1      38.257  34.616  34.288  1.00  0.00     0.029 A 
ATOM     24  C   UNL A   1      39.277  33.582  34.399  1.00  0.00     0.049 A 
ATOM     25  H   UNL A   1      39.743  32.101  33.009  1.00  0.00     0.167 HD
ATOM     26  C   UNL A   1      40.404  28.881  30.110  1.00  0.00     0.037 A 
ATOM     27  C   UNL A   1      40.099  33.419  35.451  1.00  0.00     0.037 A 
ATOM     28  C   UNL A   1      41.369  28.663  31.158  1.00  0.00     0.049 A 
ATOM     29  C   UNL A   1      41.081  32.288  35.438  1.00  0.00     0.074 A 
ATOM     30  C   UNL A   1      42.351  27.690  31.239  1.00  0.00     0.029 A 
ATOM     31  N   UNL A   1      41.466  29.426  32.314  1.00  0.00    -0.354 N 
ATOM     32  N   UNL A   1      41.273  31.377  34.515  1.00  0.00    -0.248 NA
ATOM     33  C   UNL A   1      41.958  32.155  36.610  1.00  0.00     0.031 C 
ATOM     34  C   UNL A   1      43.015  27.840  32.463  1.00  0.00     0.029 A 
ATOM     35  C   UNL A   1      42.479  28.936  33.122  1.00  0.00     0.049 A 
ATOM     36  H   UNL A   1      40.900  30.203  32.527  1.00  0.00     0.167 HD
ATOM     37  C   UNL A   1      42.300  30.571  34.983  1.00  0.00     0.074 A 
ATOM     38  C   UNL A   1      42.698  31.108  36.270  1.00  0.00     0.031 C 
ATOM     39  C   UNL A   1      42.864  29.487  34.397  1.00  0.00     0.037 A 
BRANCH  26  40
ATOM     40  C   UNL A   1      40.368  27.920  28.957  1.00  0.00     0.057 A 
ATOM     41  C   UNL A   1      41.111  28.131  27.789  1.00  0.00     0.134 A 
ATOM     42  C   UNL A   1      39.585  26.759  29.022  1.00  0.00     0.134 A 
ATOM     43  F   UNL A   1      41.871  29.227  27.655  1.00  0.00    -0.206 F 
ATOM     44  C   UNL A   1      41.053  27.239  26.714  1.00  0.00     0.040 A 
ATOM     45  C   UNL A   1      39.538  25.848  27.966  1.00  0.00     0.040 A 
ATOM     46  F   UNL A   1      38.854  26.491  30.114  1.00  0.00    -0.206 F 
ATOM     47  C   UNL A   1      40.268  26.091  26.803  1.00  0.00     0.006 A 
ENDBRANCH  26  40
BRANCH  27  48
ATOM     48  C   UNL A   1      40.002  34.354  36.599  1.00  0.00     0.057 A 
ATOM     49  C   UNL A   1      40.647  35.595  36.579  1.00  0.00     0.134 A 
ATOM     50  C   UNL A   1      39.207  34.056  37.713  1.00  0.00     0.134 A 
ATOM     51  F   UNL A   1      41.433  35.931  35.546  1.00  0.00    -0.206 F 
ATOM     52  C   UNL A   1      40.503  36.508  37.625  1.00  0.00     0.040 A 
ATOM     53  C   UNL A   1      39.036  34.969  38.754  1.00  0.00     0.040 A 
ATOM     54  F   UNL A   1      38.555  32.886  37.785  1.00  0.00    -0.206 F 
ATOM     55  C   UNL A   1      39.686  36.200  38.712  1.00  0.00     0.006 A 
ENDBRANCH  27  48
BRANCH  39  56
ATOM     56  C   UNL A   1      43.995  28.829  35.126  1.00  0.00     0.057 A 
ATOM     57  C   UNL A   1      43.782  27.791  36.040  1.00  0.00     0.134 A 
ATOM     58  C   UNL A   1      45.320  29.207  34.867  1.00  0.00     0.134 A 
ATOM     59  F   UNL A   1      42.536  27.394  36.340  1.00  0.00    -0.206 F 
ATOM     60  C   UNL A   1      44.847  27.156  36.680  1.00  0.00     0.040 A 
ATOM     61  C   UNL A   1      46.393  28.567  35.486  1.00  0.00     0.040 A 
ATOM     62  F   UNL A   1      45.589  30.194  33.998  1.00  0.00    -0.206 F 
ATOM     63  C   UNL A   1      46.158  27.540  36.397  1.00  0.00     0.006 A 
ENDBRANCH  39  56
ENDBRANCH  13  14
ENDBRANCH   6   8
ENDBRANCH   3   4
ENDBRANCH   2   3
ENDBRANCH   1   2
BRANCH   1  64
ATOM     64  C   UNL A   1      32.907  29.911  26.413  1.00  0.00     0.116 C 
BRANCH  64  65
ATOM     65  N   UNL A   1      32.822  28.477  26.598  1.00  0.00    -0.356 N 
ATOM     66  C   UNL A   1      33.142  27.527  25.681  1.00  0.00     0.224 C 
ATOM     67  H   UNL A   1      32.500  28.159  27.473  1.00  0.00     0.163 HD
ATOM     68  O   UNL A   1      34.026  26.734  26.022  1.00  0.00    -0.275 OA
BRANCH  66  69
ATOM     69  C   UNL A   1      32.475  27.446  24.298  1.00  0.00     0.095 C 
ATOM     70  C   UNL A   1      33.604  27.297  23.240  1.00  0.00     0.041 C 
ATOM     71  C   UNL A   1      31.270  26.492  24.094  1.00  0.00     0.095 C 
ATOM     72  C   UNL A   1      33.288  26.597  21.961  1.00  0.00    -0.030 C 
ATOM     73  C   UNL A   1      31.120  25.706  22.779  1.00  0.00     0.041 C 
ATOM     74  C   UNL A   1      32.185  25.879  21.759  1.00  0.00    -0.030 C 
BRANCH  71  75
ATOM     75  C   UNL A   1      30.764  25.606  25.214  1.00  0.00     0.224 C 
ATOM     76  O   UNL A   1      29.709  25.919  25.784  1.00  0.00    -0.275 OA
ATOM     77  N   UNL A   1      31.285  24.437  25.621  1.00  0.00    -0.351 N 
ATOM     78  H   UNL A   1      31.086  24.248  26.567  1.00  0.00     0.163 HD
BRANCH  77  79
ATOM     79  C   UNL A   1      32.078  23.374  24.998  1.00  0.00     0.103 C 
ATOM     80  C   UNL A   1      32.226  22.246  26.036  1.00  0.00     0.048 C 
ATOM     81  C   UNL A   1      33.565  23.664  24.703  1.00  0.00     0.141 C 
ATOM     82  C   UNL A   1      33.383  22.734  26.911  1.00  0.00     0.119 C 
ATOM     83  N   UNL A   1      34.289  23.368  25.958  1.00  0.00    -0.369 N 
BRANCH  83  84
ATOM     84  C   UNL A   1      35.590  22.909  25.782  1.00  0.00     0.038 A 
ATOM     85  C   UNL A   1      36.707  23.725  26.016  1.00  0.00     0.026 A 
ATOM     86  C   UNL A   1      35.818  21.571  25.432  1.00  0.00     0.046 A 
ATOM     87  C   UNL A   1      38.009  23.231  25.902  1.00  0.00     0.004 A 
ATOM     88  C   UNL A   1      37.120  21.080  25.304  1.00  0.00     0.043 A 
ATOM     89  C   UNL A   1      38.217  21.904  25.542  1.00  0.00     0.020 A 
ATOM     90  Cl  UNL A   1      37.379  19.438  24.852  1.00  0.00    -0.084 Cl
ENDBRANCH  83  84
ENDBRANCH  77  79
ENDBRANCH  71  75
ENDBRANCH  66  69
ENDBRANCH  64  65
ENDBRANCH   1  64
TORSDOF 14
ENDMDL
MODEL 3
REMARK VINA RESULT:     -12.4      4.805      7.214
REMARK SMILES O=C(NCCCCNC(=O)[C@H]1CC=CC[C@H]1C(=O)N[C@@H]1CCN(c2cccc(Cl)c2)C1)c1ccc(-c2c3nc(c(-c4c(F)cccc4F)c4ccc([nH]4)c(-c4c(F)cccc4F)c4nc(c(-c5c(F)cccc5F)c5ccc2[nH]5)C=C4)C=C3)cc1
REMARK SMILES IDX 6 1 5 2 4 3 3 4 1 5 2 6 32 8 33 9 85 10 34 11 84 12 35 13
REMARK SMILES IDX 36 14 37 15 78 16 38 17 83 18 77 19 79 20 39 21 82 22 76 23
REMARK SMILES IDX 75 24 40 26 66 27 49 28 65 29 50 30 53 31 64 32 80 33 51 34
REMARK SMILES IDX 52 35 63 37 81 38 54 39 41 40 42 41 47 42 43 43 44 44 46 45
REMARK SMILES IDX 48 46 45 47 67 48 68 49 73 50 69 51 70 52 72 53 74 54 71 55
REMARK SMILES IDX 55 56 56 57 61 58 57 59 58 60 60 61 62 62 59 63 7 64 8 65
REMARK SMILES IDX 9 66 10 68 11 69 12 70 16 71 13 72 15 73 14 74 17 75 18 76
REMARK SMILES IDX 19 77 20 79 21 80 31 81 22 82 23 83 24 84 25 85 30 86 26 87
REMARK SMILES IDX 28 88 27 89 29 90
REMARK H PARENT 3 7 79 25 53 36 8 67 19 78
REMARK Flexibility Score: inf
ROOT
ATOM      1  C   UNL A   1      36.659  20.630  25.007  1.00  0.00     0.023 C 
ENDROOT
BRANCH   1   2
ATOM      2  C   UNL A   1      37.921  19.761  24.926  1.00  0.00     0.023 C 
BRANCH   2   3
ATOM      3  C   UNL A   1      39.100  20.249  25.751  1.00  0.00     0.116 C 
BRANCH   3   4
ATOM      4  N   UNL A   1      40.079  19.197  25.950  1.00  0.00    -0.352 N 
ATOM      5  O   UNL A   1      42.093  18.214  25.896  1.00  0.00    -0.269 OA
ATOM      6  C   UNL A   1      41.444  19.252  26.054  1.00  0.00     0.251 C 
ATOM      7  H   UNL A   1      39.700  18.291  26.021  1.00  0.00     0.163 HD
BRANCH   6   8
ATOM      8  C   UNL A   1      42.161  20.509  26.376  1.00  0.00     0.039 A 
ATOM      9  C   UNL A   1      42.690  21.331  25.377  1.00  0.00     0.014 A 
ATOM     10  C   UNL A   1      42.176  20.947  27.706  1.00  0.00     0.014 A 
ATOM     11  C   UNL A   1      43.295  22.542  25.710  1.00  0.00     0.010 A 
ATOM     12  C   UNL A   1      42.706  22.199  28.030  1.00  0.00     0.010 A 
ATOM     13  C   UNL A   1      43.267  23.009  27.032  1.00  0.00    -0.014 A 
BRANCH  13  14
ATOM     14  C   UNL A   1      43.708  24.393  27.342  1.00  0.00     0.031 A 
ATOM     15  C   UNL A   1      42.730  25.434  27.799  1.00  0.00     0.074 A 
ATOM     16  C   UNL A   1      45.005  24.713  27.167  1.00  0.00     0.049 A 
ATOM     17  N   UNL A   1      42.928  26.707  28.029  1.00  0.00    -0.248 NA
ATOM     18  C   UNL A   1      41.345  24.990  28.016  1.00  0.00     0.031 C 
ATOM     19  C   UNL A   1      46.045  23.786  26.710  1.00  0.00     0.029 A 
ATOM     20  N   UNL A   1      45.673  25.897  27.343  1.00  0.00    -0.354 N 
ATOM     21  C   UNL A   1      41.690  27.224  28.389  1.00  0.00     0.074 A 
ATOM     22  C   UNL A   1      40.745  26.128  28.335  1.00  0.00     0.031 C 
ATOM     23  C   UNL A   1      47.220  24.429  26.667  1.00  0.00     0.029 A 
ATOM     24  C   UNL A   1      47.008  25.826  27.024  1.00  0.00     0.049 A 
ATOM     25  H   UNL A   1      45.239  26.719  27.667  1.00  0.00     0.167 HD
ATOM     26  C   UNL A   1      41.377  28.497  28.731  1.00  0.00     0.037 A 
ATOM     27  C   UNL A   1      47.952  26.783  26.989  1.00  0.00     0.037 A 
ATOM     28  C   UNL A   1      42.329  29.577  28.788  1.00  0.00     0.049 A 
ATOM     29  C   UNL A   1      47.579  28.187  27.355  1.00  0.00     0.074 A 
ATOM     30  C   UNL A   1      42.119  30.896  29.153  1.00  0.00     0.029 A 
ATOM     31  N   UNL A   1      43.674  29.463  28.460  1.00  0.00    -0.354 N 
ATOM     32  N   UNL A   1      46.410  28.658  27.718  1.00  0.00    -0.248 NA
ATOM     33  C   UNL A   1      48.647  29.194  27.303  1.00  0.00     0.031 C 
ATOM     34  C   UNL A   1      43.328  31.588  29.008  1.00  0.00     0.029 A 
ATOM     35  C   UNL A   1      44.301  30.691  28.597  1.00  0.00     0.049 A 
ATOM     36  H   UNL A   1      44.117  28.632  28.174  1.00  0.00     0.167 HD
ATOM     37  C   UNL A   1      46.602  30.011  27.954  1.00  0.00     0.074 A 
ATOM     38  C   UNL A   1      48.004  30.284  27.701  1.00  0.00     0.031 C 
ATOM     39  C   UNL A   1      45.698  30.941  28.346  1.00  0.00     0.037 A 
BRANCH  26  40
ATOM     40  C   UNL A   1      39.937  28.794  29.038  1.00  0.00     0.057 A 
ATOM     41  C   UNL A   1      39.414  28.690  30.332  1.00  0.00     0.134 A 
ATOM     42  C   UNL A   1      39.063  29.201  28.020  1.00  0.00     0.134 A 
ATOM     43  F   UNL A   1      40.193  28.294  31.350  1.00  0.00    -0.206 F 
ATOM     44  C   UNL A   1      38.068  28.950  30.601  1.00  0.00     0.040 A 
ATOM     45  C   UNL A   1      37.722  29.487  28.280  1.00  0.00     0.040 A 
ATOM     46  F   UNL A   1      39.498  29.328  26.758  1.00  0.00    -0.206 F 
ATOM     47  C   UNL A   1      37.218  29.354  29.573  1.00  0.00     0.006 A 
ENDBRANCH  26  40
BRANCH  27  48
ATOM     48  C   UNL A   1      49.332  26.426  26.577  1.00  0.00     0.057 A 
ATOM     49  C   UNL A   1      49.760  26.592  25.255  1.00  0.00     0.134 A 
ATOM     50  C   UNL A   1      50.274  25.974  27.509  1.00  0.00     0.134 A 
ATOM     51  F   UNL A   1      48.900  27.009  24.315  1.00  0.00    -0.206 F 
ATOM     52  C   UNL A   1      51.077  26.325  24.876  1.00  0.00     0.040 A 
ATOM     53  C   UNL A   1      51.599  25.725  27.149  1.00  0.00     0.040 A 
ATOM     54  F   UNL A   1      49.926  25.805  28.794  1.00  0.00    -0.206 F 
ATOM     55  C   UNL A   1      52.003  25.900  25.828  1.00  0.00     0.006 A 
ENDBRANCH  27  48
BRANCH  39  56
ATOM     56  C   UNL A   1      46.204  32.334  28.562  1.00  0.00     0.057 A 
ATOM     57  C   UNL A   1      46.187  33.293  27.543  1.00  0.00     0.134 A 
ATOM     58  C   UNL A   1      46.666  32.734  29.824  1.00  0.00     0.134 A 
ATOM     59  F   UNL A   1      45.770  32.968  26.310  1.00  0.00    -0.206 F 
ATOM     60  C   UNL A   1      46.621  34.601  27.768  1.00  0.00     0.040 A 
ATOM     61  C   UNL A   1      47.083  34.042  30.065  1.00  0.00     0.040 A 
ATOM     62  F   UNL A   1      46.704  31.861  30.842  1.00  0.00    -0.206 F 
ATOM     63  C   UNL A   1      47.063  34.979  29.035  1.00  0.00     0.006 A 
ENDBRANCH  39  56
ENDBRANCH  13  14
ENDBRANCH   6   8
ENDBRANCH   3   4
ENDBRANCH   2   3
ENDBRANCH   1   2
BRANCH   1  64
ATOM     64  C   UNL A   1      36.818  22.008  25.643  1.00  0.00     0.116 C 
BRANCH  64  65
ATOM     65  N   UNL A   1      36.260  23.109  24.884  1.00  0.00    -0.356 N 
ATOM     66  C   UNL A   1      35.082  23.740  25.131  1.00  0.00     0.224 C 
ATOM     67  H   UNL A   1      36.783  23.431  24.115  1.00  0.00     0.163 HD
ATOM     68  O   UNL A   1      35.164  24.953  25.349  1.00  0.00    -0.275 OA
BRANCH  66  69
ATOM     69  C   UNL A   1      33.733  23.004  25.165  1.00  0.00     0.095 C 
ATOM     70  C   UNL A   1      33.050  23.334  26.522  1.00  0.00     0.041 C 
ATOM     71  C   UNL A   1      32.794  23.088  23.933  1.00  0.00     0.095 C 
ATOM     72  C   UNL A   1      31.561  23.302  26.592  1.00  0.00    -0.030 C 
ATOM     73  C   UNL A   1      31.271  23.196  24.129  1.00  0.00     0.041 C 
ATOM     74  C   UNL A   1      30.767  23.251  25.524  1.00  0.00    -0.030 C 
BRANCH  71  75
ATOM     75  C   UNL A   1      33.157  23.916  22.718  1.00  0.00     0.224 C 
ATOM     76  O   UNL A   1      33.554  23.329  21.701  1.00  0.00    -0.275 OA
ATOM     77  N   UNL A   1      33.012  25.243  22.567  1.00  0.00    -0.351 N 
ATOM     78  H   UNL A   1      33.656  25.618  21.924  1.00  0.00     0.163 HD
BRANCH  77  79
ATOM     79  C   UNL A   1      32.128  26.267  23.131  1.00  0.00     0.103 C 
ATOM     80  C   UNL A   1      32.412  27.579  22.376  1.00  0.00     0.048 C 
ATOM     81  C   UNL A   1      32.392  26.728  24.580  1.00  0.00     0.141 C 
ATOM     82  C   UNL A   1      33.656  28.121  23.085  1.00  0.00     0.119 C 
ATOM     83  N   UNL A   1      33.428  27.778  24.485  1.00  0.00    -0.369 N 
BRANCH  83  84
ATOM     84  C   UNL A   1      33.348  28.761  25.466  1.00  0.00     0.038 A 
ATOM     85  C   UNL A   1      34.291  28.861  26.500  1.00  0.00     0.026 A 
ATOM     86  C   UNL A   1      32.344  29.737  25.398  1.00  0.00     0.046 A 
ATOM     87  C   UNL A   1      34.238  29.895  27.439  1.00  0.00     0.004 A 
ATOM     88  C   UNL A   1      32.282  30.762  26.345  1.00  0.00     0.043 A 
ATOM     89  C   UNL A   1      33.228  30.848  27.363  1.00  0.00     0.020 A 
ATOM     90  Cl  UNL A   1      31.028  31.940  26.255  1.00  0.00    -0.084 Cl
ENDBRANCH  83  84
ENDBRANCH  77  79
ENDBRANCH  71  75
ENDBRANCH  66  69
ENDBRANCH  64  65
ENDBRANCH   1  64
TORSDOF 14
ENDMDL
