MODEL 1
REMARK VINA RESULT:     -12.7      0.000      0.000
REMARK SMILES COC(=O)c1c(NC(=O)[C@@H]2[C@H]3CC[C@H](CC3)[C@H]2C(=O)NCCCCNC(=O)c2ccc(-c3c4nc(c(-c5c(F)cccc5F)c5ccc([nH]5)c(-c5c(F)cccc5F)c5nc(c(-c6c(F)cccc6F)c6ccc3[nH]6)C=C5)C=C4)cc2)sc(C)c1-c1ccc(C)cc1
REMARK SMILES IDX 21 1 20 2 18 3 19 4 17 6 10 7 11 8 16 9 12 10 14 11 15 12
REMARK SMILES IDX 13 13 8 14 7 15 9 17 6 18 5 19 85 20 82 21 83 22 84 23 3 24
REMARK SMILES IDX 4 25 2 26 1 27 86 28 87 29 92 30 88 31 91 32 89 33 90 34
REMARK SMILES IDX 22 35 23 36 24 37 25 38 26 39 27 41 28 42 29 43 81 44 30 45
REMARK SMILES IDX 80 46 31 47 32 48 33 49 74 50 34 51 79 52 73 53 75 54 35 55
REMARK SMILES IDX 78 56 72 57 71 58 36 60 62 61 45 62 61 63 46 64 49 65 60 66
REMARK SMILES IDX 76 67 47 68 48 69 59 71 77 72 50 73 37 74 38 75 43 76 39 77
REMARK SMILES IDX 40 78 42 79 44 80 41 81 63 82 64 83 69 84 65 85 66 86 68 87
REMARK SMILES IDX 70 88 67 89 51 90 52 91 57 92 53 93 54 94 56 95 58 96 55 97
REMARK H PARENT 20 5 7 16 25 40 75 59 49 70
REMARK Flexibility Score: inf
ROOT
ATOM      1  C   UNL A   1      35.598  19.253  24.624  1.00  0.00     0.116 C 
ENDROOT
BRANCH   1   2
ATOM      2  N   UNL A   1      34.193  19.199  24.917  1.00  0.00    -0.356 N 
ATOM      3  C   UNL A   1      33.321  20.214  25.158  1.00  0.00     0.224 C 
ATOM      4  O   UNL A   1      32.122  19.909  25.147  1.00  0.00    -0.275 OA
ATOM      5  H   UNL A   1      33.805  18.295  24.947  1.00  0.00     0.163 HD
BRANCH   3   6
ATOM      6  C   UNL A   1      33.726  21.672  25.447  1.00  0.00     0.094 C 
ATOM      7  C   UNL A   1      32.781  22.770  24.900  1.00  0.00     0.094 C 
ATOM      8  C   UNL A   1      32.684  23.920  25.974  1.00  0.00     0.002 C 
ATOM      9  C   UNL A   1      32.088  23.371  27.293  1.00  0.00     0.005 C 
ATOM     10  C   UNL A   1      34.069  24.470  26.381  1.00  0.00     0.005 C 
ATOM     11  C   UNL A   1      34.179  22.000  26.903  1.00  0.00     0.002 C 
ATOM     12  C   UNL A   1      33.024  22.292  27.880  1.00  0.00     0.005 C 
ATOM     13  C   UNL A   1      34.988  23.321  26.831  1.00  0.00     0.005 C 
BRANCH   7  14
ATOM     14  C   UNL A   1      33.340  23.308  23.561  1.00  0.00     0.229 C 
ATOM     15  N   UNL A   1      32.929  24.435  22.916  1.00  0.00    -0.317 N 
ATOM     16  H   UNL A   1      33.548  24.701  22.198  1.00  0.00     0.170 HD
ATOM     17  O   UNL A   1      34.284  22.718  23.015  1.00  0.00    -0.274 OA
BRANCH  15  18
ATOM     18  C   UNL A   1      31.854  25.292  23.029  1.00  0.00     0.111 A 
ATOM     19  C   UNL A   1      31.844  26.668  22.817  1.00  0.00     0.102 A 
ATOM     20  C   UNL A   1      30.546  27.233  23.166  1.00  0.00     0.012 A 
ATOM     21  S   UNL A   1      30.297  24.706  23.242  1.00  0.00    -0.122 S 
ATOM     22  C   UNL A   1      29.644  26.250  23.538  1.00  0.00     0.012 A 
ATOM     23  C   UNL A   1      28.252  26.356  24.075  1.00  0.00     0.057 C 
BRANCH  19  24
ATOM     24  C   UNL A   1      33.033  27.376  22.335  1.00  0.00     0.341 C 
ATOM     25  O   UNL A   1      33.683  26.991  21.373  1.00  0.00    -0.246 OA
BRANCH  24  26
ATOM     26  O   UNL A   1      33.322  28.498  23.050  1.00  0.00    -0.465 OA
ATOM     27  C   UNL A   1      33.976  28.269  24.296  1.00  0.00     0.282 C 
ENDBRANCH  24  26
ENDBRANCH  19  24
BRANCH  20  28
ATOM     28  C   UNL A   1      30.129  28.630  23.103  1.00  0.00    -0.016 A 
ATOM     29  C   UNL A   1      29.513  29.112  21.943  1.00  0.00     0.009 A 
ATOM     30  C   UNL A   1      30.317  29.490  24.191  1.00  0.00     0.009 A 
ATOM     31  C   UNL A   1      29.106  30.445  21.864  1.00  0.00     0.004 A 
ATOM     32  C   UNL A   1      29.895  30.821  24.115  1.00  0.00     0.004 A 
ATOM     33  C   UNL A   1      29.289  31.308  22.950  1.00  0.00    -0.051 A 
ATOM     34  C   UNL A   1      28.863  32.742  22.841  1.00  0.00     0.044 C 
ENDBRANCH  20  28
ENDBRANCH  15  18
ENDBRANCH   7  14
ENDBRANCH   3   6
ENDBRANCH   1   2
BRANCH   1  35
ATOM     35  C   UNL A   1      36.368  20.442  25.170  1.00  0.00     0.023 C 
BRANCH  35  36
ATOM     36  C   UNL A   1      37.789  20.567  24.662  1.00  0.00     0.023 C 
BRANCH  36  37
ATOM     37  C   UNL A   1      38.813  20.659  25.781  1.00  0.00     0.116 C 
BRANCH  37  38
ATOM     38  N   UNL A   1      39.807  19.591  25.738  1.00  0.00    -0.352 N 
ATOM     39  C   UNL A   1      41.145  19.655  26.036  1.00  0.00     0.251 C 
ATOM     40  H   UNL A   1      39.474  18.707  25.458  1.00  0.00     0.163 HD
ATOM     41  O   UNL A   1      41.887  18.705  25.817  1.00  0.00    -0.269 OA
BRANCH  39  42
ATOM     42  C   UNL A   1      41.668  20.910  26.596  1.00  0.00     0.039 A 
ATOM     43  C   UNL A   1      42.075  21.922  25.729  1.00  0.00     0.014 A 
ATOM     44  C   UNL A   1      41.655  21.108  27.980  1.00  0.00     0.014 A 
ATOM     45  C   UNL A   1      42.409  23.167  26.255  1.00  0.00     0.010 A 
ATOM     46  C   UNL A   1      41.870  22.377  28.486  1.00  0.00     0.010 A 
ATOM     47  C   UNL A   1      42.270  23.414  27.633  1.00  0.00    -0.014 A 
BRANCH  47  48
ATOM     48  C   UNL A   1      42.561  24.751  28.198  1.00  0.00     0.031 A 
ATOM     49  C   UNL A   1      43.964  25.103  28.605  1.00  0.00     0.074 A 
ATOM     50  C   UNL A   1      41.553  25.623  28.389  1.00  0.00     0.049 A 
ATOM     51  N   UNL A   1      44.422  26.223  29.100  1.00  0.00    -0.248 NA
ATOM     52  C   UNL A   1      44.983  24.046  28.475  1.00  0.00     0.031 C 
ATOM     53  C   UNL A   1      40.138  25.357  28.119  1.00  0.00     0.029 A 
ATOM     54  N   UNL A   1      41.566  26.913  28.852  1.00  0.00    -0.354 N 
ATOM     55  C   UNL A   1      45.768  25.998  29.353  1.00  0.00     0.074 A 
ATOM     56  C   UNL A   1      46.039  24.617  29.031  1.00  0.00     0.031 C 
ATOM     57  C   UNL A   1      39.426  26.466  28.377  1.00  0.00     0.029 A 
ATOM     58  C   UNL A   1      40.328  27.509  28.855  1.00  0.00     0.049 A 
ATOM     59  H   UNL A   1      42.384  27.370  29.154  1.00  0.00     0.167 HD
ATOM     60  C   UNL A   1      46.706  26.876  29.782  1.00  0.00     0.037 A 
ATOM     61  C   UNL A   1      39.969  28.761  29.189  1.00  0.00     0.037 A 
ATOM     62  C   UNL A   1      46.434  28.258  30.065  1.00  0.00     0.049 A 
ATOM     63  C   UNL A   1      41.034  29.734  29.613  1.00  0.00     0.074 A 
ATOM     64  C   UNL A   1      47.321  29.255  30.428  1.00  0.00     0.029 A 
ATOM     65  N   UNL A   1      45.175  28.838  30.014  1.00  0.00    -0.354 N 
ATOM     66  N   UNL A   1      42.324  29.538  29.751  1.00  0.00    -0.248 NA
ATOM     67  C   UNL A   1      40.598  31.105  29.908  1.00  0.00     0.031 C 
ATOM     68  C   UNL A   1      46.592  30.429  30.641  1.00  0.00     0.029 A 
ATOM     69  C   UNL A   1      45.258  30.177  30.357  1.00  0.00     0.049 A 
ATOM     70  H   UNL A   1      44.345  28.368  29.770  1.00  0.00     0.167 HD
ATOM     71  C   UNL A   1      42.858  30.765  30.119  1.00  0.00     0.074 A 
ATOM     72  C   UNL A   1      41.752  31.702  30.168  1.00  0.00     0.031 C 
ATOM     73  C   UNL A   1      44.145  31.091  30.392  1.00  0.00     0.037 A 
BRANCH  60  74
ATOM     74  C   UNL A   1      48.105  26.361  29.956  1.00  0.00     0.057 A 
ATOM     75  C   UNL A   1      48.542  25.795  31.163  1.00  0.00     0.134 A 
ATOM     76  C   UNL A   1      49.025  26.419  28.902  1.00  0.00     0.134 A 
ATOM     77  F   UNL A   1      47.717  25.725  32.219  1.00  0.00    -0.206 F 
ATOM     78  C   UNL A   1      49.851  25.338  31.325  1.00  0.00     0.040 A 
ATOM     79  C   UNL A   1      50.327  25.936  29.042  1.00  0.00     0.040 A 
ATOM     80  F   UNL A   1      48.674  26.945  27.719  1.00  0.00    -0.206 F 
ATOM     81  C   UNL A   1      50.746  25.402  30.259  1.00  0.00     0.006 A 
ENDBRANCH  60  74
BRANCH  61  82
ATOM     82  C   UNL A   1      38.548  29.178  29.082  1.00  0.00     0.057 A 
ATOM     83  C   UNL A   1      37.692  29.120  30.188  1.00  0.00     0.134 A 
ATOM     84  C   UNL A   1      38.015  29.653  27.878  1.00  0.00     0.134 A 
ATOM     85  F   UNL A   1      38.142  28.662  31.366  1.00  0.00    -0.206 F 
ATOM     86  C   UNL A   1      36.352  29.499  30.097  1.00  0.00     0.040 A 
ATOM     87  C   UNL A   1      36.683  30.059  27.779  1.00  0.00     0.040 A 
ATOM     88  F   UNL A   1      38.786  29.747  26.786  1.00  0.00    -0.206 F 
ATOM     89  C   UNL A   1      35.846  29.976  28.890  1.00  0.00     0.006 A 
ENDBRANCH  61  82
BRANCH  73  90
ATOM     90  C   UNL A   1      44.432  32.525  30.729  1.00  0.00     0.057 A 
ATOM     91  C   UNL A   1      44.427  32.992  32.048  1.00  0.00     0.134 A 
ATOM     92  C   UNL A   1      44.753  33.440  29.718  1.00  0.00     0.134 A 
ATOM     93  F   UNL A   1      44.117  32.168  33.060  1.00  0.00    -0.206 F 
ATOM     94  C   UNL A   1      44.703  34.327  32.348  1.00  0.00     0.040 A 
ATOM     95  C   UNL A   1      45.059  34.769  30.008  1.00  0.00     0.040 A 
ATOM     96  F   UNL A   1      44.787  33.052  28.433  1.00  0.00    -0.206 F 
ATOM     97  C   UNL A   1      45.027  35.218  31.326  1.00  0.00     0.006 A 
ENDBRANCH  73  90
ENDBRANCH  47  48
ENDBRANCH  39  42
ENDBRANCH  37  38
ENDBRANCH  36  37
ENDBRANCH  35  36
ENDBRANCH   1  35
TORSDOF 16
ENDMDL
MODEL 2
REMARK VINA RESULT:     -12.7      2.775      8.579
REMARK SMILES COC(=O)c1c(NC(=O)[C@@H]2[C@H]3CC[C@H](CC3)[C@H]2C(=O)NCCCCNC(=O)c2ccc(-c3c4nc(c(-c5c(F)cccc5F)c5ccc([nH]5)c(-c5c(F)cccc5F)c5nc(c(-c6c(F)cccc6F)c6ccc3[nH]6)C=C5)C=C4)cc2)sc(C)c1-c1ccc(C)cc1
REMARK SMILES IDX 21 1 20 2 18 3 19 4 17 6 10 7 11 8 16 9 12 10 14 11 15 12
REMARK SMILES IDX 13 13 8 14 7 15 9 17 6 18 5 19 85 20 82 21 83 22 84 23 3 24
REMARK SMILES IDX 4 25 2 26 1 27 86 28 87 29 92 30 88 31 91 32 89 33 90 34
REMARK SMILES IDX 22 35 23 36 24 37 25 38 26 39 27 41 28 42 29 43 81 44 30 45
REMARK SMILES IDX 80 46 31 47 32 48 33 49 74 50 34 51 79 52 73 53 75 54 35 55
REMARK SMILES IDX 78 56 72 57 71 58 36 60 62 61 45 62 61 63 46 64 49 65 60 66
REMARK SMILES IDX 76 67 47 68 48 69 59 71 77 72 50 73 37 74 38 75 43 76 39 77
REMARK SMILES IDX 40 78 42 79 44 80 41 81 63 82 64 83 69 84 65 85 66 86 68 87
REMARK SMILES IDX 70 88 67 89 51 90 52 91 57 92 53 93 54 94 56 95 58 96 55 97
REMARK H PARENT 20 5 7 16 25 40 75 59 49 70
REMARK Flexibility Score: inf
ROOT
ATOM      1  C   UNL A   1      31.497  28.097  27.553  1.00  0.00     0.116 C 
ENDROOT
BRANCH   1   2
ATOM      2  N   UNL A   1      30.669  27.124  26.898  1.00  0.00    -0.356 N 
ATOM      3  C   UNL A   1      30.885  26.446  25.739  1.00  0.00     0.224 C 
ATOM      4  O   UNL A   1      30.126  25.493  25.522  1.00  0.00    -0.275 OA
ATOM      5  H   UNL A   1      29.822  26.918  27.354  1.00  0.00     0.163 HD
BRANCH   3   6
ATOM      6  C   UNL A   1      31.976  26.791  24.708  1.00  0.00     0.094 C 
ATOM      7  C   UNL A   1      32.511  25.616  23.853  1.00  0.00     0.094 C 
ATOM      8  C   UNL A   1      32.742  26.139  22.384  1.00  0.00     0.002 C 
ATOM      9  C   UNL A   1      31.406  26.625  21.772  1.00  0.00     0.005 C 
ATOM     10  C   UNL A   1      33.658  27.382  22.333  1.00  0.00     0.005 C 
ATOM     11  C   UNL A   1      31.738  28.058  23.831  1.00  0.00     0.002 C 
ATOM     12  C   UNL A   1      30.861  27.817  22.588  1.00  0.00     0.005 C 
ATOM     13  C   UNL A   1      33.122  28.478  23.270  1.00  0.00     0.005 C 
BRANCH   7  14
ATOM     14  C   UNL A   1      33.830  25.091  24.469  1.00  0.00     0.229 C 
ATOM     15  N   UNL A   1      34.271  23.802  24.438  1.00  0.00    -0.317 N 
ATOM     16  H   UNL A   1      35.216  23.725  24.704  1.00  0.00     0.170 HD
ATOM     17  O   UNL A   1      34.612  25.890  25.004  1.00  0.00    -0.274 OA
BRANCH  15  18
ATOM     18  C   UNL A   1      33.710  22.581  24.125  1.00  0.00     0.111 A 
ATOM     19  C   UNL A   1      33.893  21.372  24.791  1.00  0.00     0.102 A 
ATOM     20  C   UNL A   1      33.236  20.286  24.074  1.00  0.00     0.012 A 
ATOM     21  S   UNL A   1      32.510  22.452  22.962  1.00  0.00    -0.122 S 
ATOM     22  C   UNL A   1      32.542  20.749  22.969  1.00  0.00     0.012 A 
ATOM     23  C   UNL A   1      31.820  20.008  21.888  1.00  0.00     0.057 C 
BRANCH  19  24
ATOM     24  C   UNL A   1      34.679  21.290  26.025  1.00  0.00     0.341 C 
ATOM     25  O   UNL A   1      35.894  21.426  26.041  1.00  0.00    -0.246 OA
BRANCH  24  26
ATOM     26  O   UNL A   1      33.923  21.068  27.136  1.00  0.00    -0.465 OA
ATOM     27  C   UNL A   1      33.337  22.234  27.710  1.00  0.00     0.282 C 
ENDBRANCH  24  26
ENDBRANCH  19  24
BRANCH  20  28
ATOM     28  C   UNL A   1      33.200  18.870  24.426  1.00  0.00    -0.016 A 
ATOM     29  C   UNL A   1      33.928  17.952  23.661  1.00  0.00     0.009 A 
ATOM     30  C   UNL A   1      32.464  18.419  25.529  1.00  0.00     0.009 A 
ATOM     31  C   UNL A   1      33.906  16.594  23.983  1.00  0.00     0.004 A 
ATOM     32  C   UNL A   1      32.456  17.060  25.857  1.00  0.00     0.004 A 
ATOM     33  C   UNL A   1      33.175  16.138  25.086  1.00  0.00    -0.051 A 
ATOM     34  C   UNL A   1      33.147  14.673  25.405  1.00  0.00     0.044 C 
ENDBRANCH  20  28
ENDBRANCH  15  18
ENDBRANCH   7  14
ENDBRANCH   3   6
ENDBRANCH   1   2
BRANCH   1  35
ATOM     35  C   UNL A   1      32.994  27.994  27.322  1.00  0.00     0.023 C 
BRANCH  35  36
ATOM     36  C   UNL A   1      33.688  29.312  27.054  1.00  0.00     0.023 C 
BRANCH  36  37
ATOM     37  C   UNL A   1      35.075  29.389  27.670  1.00  0.00     0.116 C 
BRANCH  37  38
ATOM     38  N   UNL A   1      35.138  30.273  28.830  1.00  0.00    -0.352 N 
ATOM     39  C   UNL A   1      36.188  30.482  29.689  1.00  0.00     0.251 C 
ATOM     40  H   UNL A   1      34.321  30.788  29.021  1.00  0.00     0.163 HD
ATOM     41  O   UNL A   1      36.048  31.151  30.706  1.00  0.00    -0.269 OA
BRANCH  39  42
ATOM     42  C   UNL A   1      37.478  29.851  29.371  1.00  0.00     0.039 A 
ATOM     43  C   UNL A   1      37.997  29.981  28.084  1.00  0.00     0.014 A 
ATOM     44  C   UNL A   1      38.208  29.223  30.383  1.00  0.00     0.014 A 
ATOM     45  C   UNL A   1      39.290  29.531  27.830  1.00  0.00     0.010 A 
ATOM     46  C   UNL A   1      39.532  28.889  30.158  1.00  0.00     0.010 A 
ATOM     47  C   UNL A   1      40.080  29.019  28.875  1.00  0.00    -0.014 A 
BRANCH  47  48
ATOM     48  C   UNL A   1      41.477  28.597  28.634  1.00  0.00     0.031 A 
ATOM     49  C   UNL A   1      41.772  27.180  28.228  1.00  0.00     0.074 A 
ATOM     50  C   UNL A   1      42.478  29.476  28.829  1.00  0.00     0.049 A 
ATOM     51  N   UNL A   1      42.923  26.624  27.954  1.00  0.00    -0.248 NA
ATOM     52  C   UNL A   1      40.628  26.254  28.156  1.00  0.00     0.031 C 
ATOM     53  C   UNL A   1      42.320  30.849  29.313  1.00  0.00     0.029 A 
ATOM     54  N   UNL A   1      43.830  29.344  28.641  1.00  0.00    -0.354 N 
ATOM     55  C   UNL A   1      42.642  25.288  27.697  1.00  0.00     0.074 A 
ATOM     56  C   UNL A   1      41.228  25.098  27.920  1.00  0.00     0.031 C 
ATOM     57  C   UNL A   1      43.522  31.447  29.338  1.00  0.00     0.029 A 
ATOM     58  C   UNL A   1      44.536  30.493  28.900  1.00  0.00     0.049 A 
ATOM     59  H   UNL A   1      44.255  28.505  28.349  1.00  0.00     0.167 HD
ATOM     60  C   UNL A   1      43.482  24.314  27.275  1.00  0.00     0.037 A 
ATOM     61  C   UNL A   1      45.851  30.750  28.779  1.00  0.00     0.037 A 
ATOM     62  C   UNL A   1      44.881  24.522  27.021  1.00  0.00     0.049 A 
ATOM     63  C   UNL A   1      46.757  29.669  28.260  1.00  0.00     0.074 A 
ATOM     64  C   UNL A   1      45.809  23.629  26.517  1.00  0.00     0.029 A 
ATOM     65  N   UNL A   1      45.554  25.714  27.252  1.00  0.00    -0.354 N 
ATOM     66  N   UNL A   1      46.463  28.436  27.921  1.00  0.00    -0.248 NA
ATOM     67  C   UNL A   1      48.173  30.019  28.089  1.00  0.00     0.031 C 
ATOM     68  C   UNL A   1      47.053  24.266  26.485  1.00  0.00     0.029 A 
ATOM     69  C   UNL A   1      46.890  25.573  26.918  1.00  0.00     0.049 A 
ATOM     70  H   UNL A   1      45.142  26.536  27.602  1.00  0.00     0.167 HD
ATOM     71  C   UNL A   1      47.648  27.872  27.468  1.00  0.00     0.074 A 
ATOM     72  C   UNL A   1      48.662  28.905  27.563  1.00  0.00     0.031 C 
ATOM     73  C   UNL A   1      47.879  26.616  27.014  1.00  0.00     0.037 A 
BRANCH  60  74
ATOM     74  C   UNL A   1      42.900  22.948  27.057  1.00  0.00     0.057 A 
ATOM     75  C   UNL A   1      42.631  22.453  25.772  1.00  0.00     0.134 A 
ATOM     76  C   UNL A   1      42.614  22.111  28.141  1.00  0.00     0.134 A 
ATOM     77  F   UNL A   1      42.864  23.211  24.688  1.00  0.00    -0.206 F 
ATOM     78  C   UNL A   1      42.069  21.191  25.577  1.00  0.00     0.040 A 
ATOM     79  C   UNL A   1      42.082  20.834  27.958  1.00  0.00     0.040 A 
ATOM     80  F   UNL A   1      42.848  22.519  29.398  1.00  0.00    -0.206 F 
ATOM     81  C   UNL A   1      41.799  20.374  26.673  1.00  0.00     0.006 A 
ENDBRANCH  60  74
BRANCH  61  82
ATOM     82  C   UNL A   1      46.375  32.101  29.103  1.00  0.00     0.057 A 
ATOM     83  C   UNL A   1      46.430  33.106  28.130  1.00  0.00     0.134 A 
ATOM     84  C   UNL A   1      46.821  32.424  30.389  1.00  0.00     0.134 A 
ATOM     85  F   UNL A   1      46.028  32.855  26.875  1.00  0.00    -0.206 F 
ATOM     86  C   UNL A   1      46.929  34.378  28.418  1.00  0.00     0.040 A 
ATOM     87  C   UNL A   1      47.299  33.698  30.698  1.00  0.00     0.040 A 
ATOM     88  F   UNL A   1      46.780  31.510  31.369  1.00  0.00    -0.206 F 
ATOM     89  C   UNL A   1      47.361  34.677  29.708  1.00  0.00     0.006 A 
ENDBRANCH  61  82
BRANCH  73  90
ATOM     90  C   UNL A   1      49.270  26.301  26.549  1.00  0.00     0.057 A 
ATOM     91  C   UNL A   1      50.188  25.624  27.361  1.00  0.00     0.134 A 
ATOM     92  C   UNL A   1      49.682  26.652  25.257  1.00  0.00     0.134 A 
ATOM     93  F   UNL A   1      49.857  25.271  28.612  1.00  0.00    -0.206 F 
ATOM     94  C   UNL A   1      51.476  25.331  26.914  1.00  0.00     0.040 A 
ATOM     95  C   UNL A   1      50.958  26.338  24.789  1.00  0.00     0.040 A 
ATOM     96  F   UNL A   1      48.846  27.293  24.425  1.00  0.00    -0.206 F 
ATOM     97  C   UNL A   1      51.862  25.683  25.621  1.00  0.00     0.006 A 
ENDBRANCH  73  90
ENDBRANCH  47  48
ENDBRANCH  39  42
ENDBRANCH  37  38
ENDBRANCH  36  37
ENDBRANCH  35  36
ENDBRANCH   1  35
TORSDOF 16
ENDMDL
MODEL 3
REMARK VINA RESULT:     -12.4      4.902     10.200
REMARK SMILES COC(=O)c1c(NC(=O)[C@@H]2[C@H]3CC[C@H](CC3)[C@H]2C(=O)NCCCCNC(=O)c2ccc(-c3c4nc(c(-c5c(F)cccc5F)c5ccc([nH]5)c(-c5c(F)cccc5F)c5nc(c(-c6c(F)cccc6F)c6ccc3[nH]6)C=C5)C=C4)cc2)sc(C)c1-c1ccc(C)cc1
REMARK SMILES IDX 21 1 20 2 18 3 19 4 17 6 10 7 11 8 16 9 12 10 14 11 15 12
REMARK SMILES IDX 13 13 8 14 7 15 9 17 6 18 5 19 85 20 82 21 83 22 84 23 3 24
REMARK SMILES IDX 4 25 2 26 1 27 86 28 87 29 92 30 88 31 91 32 89 33 90 34
REMARK SMILES IDX 22 35 23 36 24 37 25 38 26 39 27 41 28 42 29 43 81 44 30 45
REMARK SMILES IDX 80 46 31 47 32 48 33 49 74 50 34 51 79 52 73 53 75 54 35 55
REMARK SMILES IDX 78 56 72 57 71 58 36 60 62 61 45 62 61 63 46 64 49 65 60 66
REMARK SMILES IDX 76 67 47 68 48 69 59 71 77 72 50 73 37 74 38 75 43 76 39 77
REMARK SMILES IDX 40 78 42 79 44 80 41 81 63 82 64 83 69 84 65 85 66 86 68 87
REMARK SMILES IDX 70 88 67 89 51 90 52 91 57 92 53 93 54 94 56 95 58 96 55 97
REMARK H PARENT 20 5 7 16 25 40 75 59 49 70
REMARK Flexibility Score: inf
ROOT
ATOM      1  C   UNL A   1      34.100  32.032  27.624  1.00  0.00     0.116 C 
ENDROOT
BRANCH   1   2
ATOM      2  N   UNL A   1      34.878  30.833  27.766  1.00  0.00    -0.356 N 
ATOM      3  C   UNL A   1      34.773  29.651  27.101  1.00  0.00     0.224 C 
ATOM      4  O   UNL A   1      35.717  28.865  27.248  1.00  0.00    -0.275 OA
ATOM      5  H   UNL A   1      35.591  30.874  28.443  1.00  0.00     0.163 HD
BRANCH   3   6
ATOM      6  C   UNL A   1      33.579  29.243  26.217  1.00  0.00     0.094 C 
ATOM      7  C   UNL A   1      33.368  27.723  26.008  1.00  0.00     0.094 C 
ATOM      8  C   UNL A   1      31.819  27.432  26.030  1.00  0.00     0.002 C 
ATOM      9  C   UNL A   1      31.220  27.828  27.401  1.00  0.00     0.005 C 
ATOM     10  C   UNL A   1      31.038  28.291  25.011  1.00  0.00     0.005 C 
ATOM     11  C   UNL A   1      32.224  29.964  26.488  1.00  0.00     0.002 C 
ATOM     12  C   UNL A   1      31.390  29.346  27.627  1.00  0.00     0.005 C 
ATOM     13  C   UNL A   1      31.359  29.783  25.214  1.00  0.00     0.005 C 
BRANCH   7  14
ATOM     14  C   UNL A   1      33.993  27.299  24.657  1.00  0.00     0.229 C 
ATOM     15  N   UNL A   1      34.094  26.024  24.187  1.00  0.00    -0.317 N 
ATOM     16  H   UNL A   1      34.333  25.996  23.232  1.00  0.00     0.170 HD
ATOM     17  O   UNL A   1      34.405  28.169  23.877  1.00  0.00    -0.274 OA
BRANCH  15  18
ATOM     18  C   UNL A   1      33.943  24.764  24.729  1.00  0.00     0.111 A 
ATOM     19  C   UNL A   1      34.052  23.542  24.070  1.00  0.00     0.102 A 
ATOM     20  C   UNL A   1      33.692  22.445  24.958  1.00  0.00     0.012 A 
ATOM     21  S   UNL A   1      33.810  24.543  26.385  1.00  0.00    -0.122 S 
ATOM     22  C   UNL A   1      33.414  22.893  26.239  1.00  0.00     0.012 A 
ATOM     23  C   UNL A   1      32.903  22.163  27.441  1.00  0.00     0.057 C 
BRANCH  19  24
ATOM     24  C   UNL A   1      34.452  23.466  22.662  1.00  0.00     0.341 C 
ATOM     25  O   UNL A   1      33.655  23.239  21.763  1.00  0.00    -0.246 OA
BRANCH  24  26
ATOM     26  O   UNL A   1      35.781  23.690  22.463  1.00  0.00    -0.465 OA
ATOM     27  C   UNL A   1      36.653  22.841  23.205  1.00  0.00     0.282 C 
ENDBRANCH  24  26
ENDBRANCH  19  24
BRANCH  20  28
ATOM     28  C   UNL A   1      33.660  21.017  24.655  1.00  0.00    -0.016 A 
ATOM     29  C   UNL A   1      34.790  20.234  24.914  1.00  0.00     0.009 A 
ATOM     30  C   UNL A   1      32.511  20.416  24.128  1.00  0.00     0.009 A 
ATOM     31  C   UNL A   1      34.779  18.867  24.632  1.00  0.00     0.004 A 
ATOM     32  C   UNL A   1      32.497  19.044  23.860  1.00  0.00     0.004 A 
ATOM     33  C   UNL A   1      33.631  18.261  24.108  1.00  0.00    -0.051 A 
ATOM     34  C   UNL A   1      33.644  16.794  23.793  1.00  0.00     0.044 C 
ENDBRANCH  20  28
ENDBRANCH  15  18
ENDBRANCH   7  14
ENDBRANCH   3   6
ENDBRANCH   1   2
BRANCH   1  35
ATOM     35  C   UNL A   1      34.212  33.060  28.736  1.00  0.00     0.023 C 
BRANCH  35  36
ATOM     36  C   UNL A   1      33.223  34.203  28.647  1.00  0.00     0.023 C 
BRANCH  36  37
ATOM     37  C   UNL A   1      33.673  35.438  29.410  1.00  0.00     0.116 C 
BRANCH  37  38
ATOM     38  N   UNL A   1      32.725  35.853  30.438  1.00  0.00    -0.352 N 
ATOM     39  C   UNL A   1      32.756  35.594  31.786  1.00  0.00     0.251 C 
ATOM     40  H   UNL A   1      31.961  36.390  30.125  1.00  0.00     0.163 HD
ATOM     41  O   UNL A   1      31.812  35.889  32.508  1.00  0.00    -0.269 OA
BRANCH  39  42
ATOM     42  C   UNL A   1      33.945  34.921  32.332  1.00  0.00     0.039 A 
ATOM     43  C   UNL A   1      33.867  33.569  32.662  1.00  0.00     0.014 A 
ATOM     44  C   UNL A   1      35.155  35.616  32.415  1.00  0.00     0.014 A 
ATOM     45  C   UNL A   1      35.032  32.894  33.017  1.00  0.00     0.010 A 
ATOM     46  C   UNL A   1      36.325  34.916  32.650  1.00  0.00     0.010 A 
ATOM     47  C   UNL A   1      36.274  33.554  32.975  1.00  0.00    -0.014 A 
BRANCH  47  48
ATOM     48  C   UNL A   1      37.528  32.832  33.288  1.00  0.00     0.031 A 
ATOM     49  C   UNL A   1      38.266  33.133  34.562  1.00  0.00     0.074 A 
ATOM     50  C   UNL A   1      38.022  31.947  32.402  1.00  0.00     0.049 A 
ATOM     51  N   UNL A   1      39.366  32.597  35.022  1.00  0.00    -0.248 NA
ATOM     52  C   UNL A   1      37.719  34.202  35.415  1.00  0.00     0.031 C 
ATOM     53  C   UNL A   1      37.441  31.643  31.091  1.00  0.00     0.029 A 
ATOM     54  N   UNL A   1      39.125  31.136  32.472  1.00  0.00    -0.354 N 
ATOM     55  C   UNL A   1      39.648  33.274  36.201  1.00  0.00     0.074 A 
ATOM     56  C   UNL A   1      38.650  34.307  36.349  1.00  0.00     0.031 C 
ATOM     57  C   UNL A   1      38.168  30.679  30.502  1.00  0.00     0.029 A 
ATOM     58  C   UNL A   1      39.277  30.318  31.379  1.00  0.00     0.049 A 
ATOM     59  H   UNL A   1      39.750  31.140  33.233  1.00  0.00     0.167 HD
ATOM     60  C   UNL A   1      40.629  33.031  37.102  1.00  0.00     0.037 A 
ATOM     61  C   UNL A   1      40.199  29.372  31.125  1.00  0.00     0.037 A 
ATOM     62  C   UNL A   1      41.595  31.976  36.964  1.00  0.00     0.049 A 
ATOM     63  C   UNL A   1      41.249  29.084  32.162  1.00  0.00     0.074 A 
ATOM     64  C   UNL A   1      42.583  31.590  37.851  1.00  0.00     0.029 A 
ATOM     65  N   UNL A   1      41.691  31.137  35.863  1.00  0.00    -0.354 N 
ATOM     66  N   UNL A   1      41.445  29.662  33.323  1.00  0.00    -0.248 NA
ATOM     67  C   UNL A   1      42.194  28.000  31.862  1.00  0.00     0.031 C 
ATOM     68  C   UNL A   1      43.307  30.545  37.267  1.00  0.00     0.029 A 
ATOM     69  C   UNL A   1      42.735  30.245  36.040  1.00  0.00     0.049 A 
ATOM     70  H   UNL A   1      41.105  31.172  35.073  1.00  0.00     0.167 HD
ATOM     71  C   UNL A   1      42.513  28.995  33.906  1.00  0.00     0.074 A 
ATOM     72  C   UNL A   1      42.913  27.959  32.975  1.00  0.00     0.031 C 
ATOM     73  C   UNL A   1      43.111  29.217  35.102  1.00  0.00     0.037 A 
BRANCH  60  74
ATOM     74  C   UNL A   1      40.691  33.918  38.311  1.00  0.00     0.057 A 
ATOM     75  C   UNL A   1      41.501  35.062  38.351  1.00  0.00     0.134 A 
ATOM     76  C   UNL A   1      39.923  33.633  39.447  1.00  0.00     0.134 A 
ATOM     77  F   UNL A   1      42.276  35.384  37.303  1.00  0.00    -0.206 F 
ATOM     78  C   UNL A   1      41.570  35.870  39.487  1.00  0.00     0.040 A 
ATOM     79  C   UNL A   1      39.960  34.451  40.577  1.00  0.00     0.040 A 
ATOM     80  F   UNL A   1      39.125  32.556  39.477  1.00  0.00    -0.206 F 
ATOM     81  C   UNL A   1      40.792  35.568  40.603  1.00  0.00     0.006 A 
ENDBRANCH  60  74
BRANCH  61  82
ATOM     82  C   UNL A   1      40.133  28.594  29.863  1.00  0.00     0.057 A 
ATOM     83  C   UNL A   1      39.339  27.445  29.763  1.00  0.00     0.134 A 
ATOM     84  C   UNL A   1      40.849  28.983  28.725  1.00  0.00     0.134 A 
ATOM     85  F   UNL A   1      38.638  27.014  30.822  1.00  0.00    -0.206 F 
ATOM     86  C   UNL A   1      39.276  26.699  28.585  1.00  0.00     0.040 A 
ATOM     87  C   UNL A   1      40.776  28.261  27.533  1.00  0.00     0.040 A 
ATOM     88  F   UNL A   1      41.616  30.083  28.752  1.00  0.00    -0.206 F 
ATOM     89  C   UNL A   1      39.994  27.111  27.464  1.00  0.00     0.006 A 
ENDBRANCH  61  82
BRANCH  73  90
ATOM     90  C   UNL A   1      44.232  28.299  35.488  1.00  0.00     0.057 A 
ATOM     91  C   UNL A   1      45.566  28.584  35.172  1.00  0.00     0.134 A 
ATOM     92  C   UNL A   1      43.974  27.131  36.218  1.00  0.00     0.134 A 
ATOM     93  F   UNL A   1      45.878  29.681  34.466  1.00  0.00    -0.206 F 
ATOM     94  C   UNL A   1      46.601  27.725  35.544  1.00  0.00     0.040 A 
ATOM     95  C   UNL A   1      45.003  26.280  36.620  1.00  0.00     0.040 A 
ATOM     96  F   UNL A   1      42.717  26.807  36.562  1.00  0.00    -0.206 F 
ATOM     97  C   UNL A   1      46.320  26.572  36.276  1.00  0.00     0.006 A 
ENDBRANCH  73  90
ENDBRANCH  47  48
ENDBRANCH  39  42
ENDBRANCH  37  38
ENDBRANCH  36  37
ENDBRANCH  35  36
ENDBRANCH   1  35
TORSDOF 16
ENDMDL
