MODEL 1
REMARK VINA RESULT:     -10.7      0.000      0.000
REMARK SMILES CC(C)CCOCC[N@@H+]1CC[C@@H](C(=O)NCCCCNC(=O)c2ccc(-c3c4nc(c(-c5c(F)cccc5F)c5ccc([nH]5)c(-c5c(F)cccc5F)c5nc(c(-c6c(F)cccc6F)c6ccc3[nH]6)C=C5)C=C4)cc2)[C@@H]1C
REMARK SMILES IDX 13 1 14 2 15 3 12 5 9 6 10 7 77 8 11 10 78 11 8 12 7 13 6 14
REMARK SMILES IDX 5 15 4 16 2 17 1 18 3 19 16 20 17 21 18 22 19 23 20 24 21 25
REMARK SMILES IDX 22 27 23 28 24 29 76 30 25 31 75 32 26 33 27 34 28 35 69 36
REMARK SMILES IDX 29 37 74 38 68 39 70 40 30 41 73 42 67 43 66 44 31 46 57 47
REMARK SMILES IDX 40 48 56 49 41 50 44 51 55 52 71 53 42 54 43 55 54 57 72 58
REMARK SMILES IDX 45 59 32 60 33 61 38 62 34 63 35 64 37 65 39 66 36 67 58 68
REMARK SMILES IDX 59 69 64 70 60 71 61 72 63 73 65 74 62 75 46 76 47 77 52 78
REMARK SMILES IDX 48 79 49 80 51 81 53 82 50 83
REMARK H PARENT 15 4 9 9 20 26 70 45 44 56
REMARK Flexibility Score: inf
ROOT
ATOM      1  C   UNL A   1      33.706  28.493  24.421  1.00  0.00     0.229 C 
ATOM      2  O   UNL A   1      34.259  28.497  23.314  1.00  0.00    -0.275 OA
ATOM      3  N   UNL A   1      33.715  29.673  25.094  1.00  0.00    -0.356 N 
ATOM      4  H   UNL A   1      34.259  30.375  24.667  1.00  0.00     0.163 HD
ENDROOT
BRANCH   1   5
ATOM      5  C   UNL A   1      33.018  27.213  24.899  1.00  0.00     0.142 C 
ATOM      6  N   UNL A   1      31.060  26.455  23.879  1.00  0.00    -0.330 N 
ATOM      7  C   UNL A   1      31.973  25.329  23.803  1.00  0.00     0.263 C 
ATOM      8  C   UNL A   1      31.488  27.254  25.035  1.00  0.00     0.193 C 
ATOM      9  H   UNL A   1      31.146  27.000  23.021  1.00  0.00     0.348 HD
ATOM     10  C   UNL A   1      33.318  26.008  24.007  1.00  0.00     0.081 C 
ATOM     11  C   UNL A   1      31.035  26.681  26.384  1.00  0.00     0.076 C 
BRANCH   6  12
ATOM     12  C   UNL A   1      29.628  26.247  23.667  1.00  0.00     0.291 C 
BRANCH  12  13
ATOM     13  C   UNL A   1      28.859  27.567  23.364  1.00  0.00     0.221 C 
BRANCH  13  14
ATOM     14  O   UNL A   1      29.259  28.455  22.322  1.00  0.00    -0.376 OA
BRANCH  14  15
ATOM     15  C   UNL A   1      29.941  29.643  22.648  1.00  0.00     0.160 C 
BRANCH  15  16
ATOM     16  C   UNL A   1      29.142  30.714  23.409  1.00  0.00     0.031 C 
BRANCH  16  17
ATOM     17  C   UNL A   1      28.413  31.933  22.779  1.00  0.00    -0.015 C 
ATOM     18  C   UNL A   1      28.911  33.336  23.066  1.00  0.00     0.007 C 
ATOM     19  C   UNL A   1      28.307  31.748  21.257  1.00  0.00     0.007 C 
ENDBRANCH  16  17
ENDBRANCH  15  16
ENDBRANCH  14  15
ENDBRANCH  13  14
ENDBRANCH  12  13
ENDBRANCH   6  12
ENDBRANCH   1   5
BRANCH   3  20
ATOM     20  C   UNL A   1      33.074  30.089  26.324  1.00  0.00     0.116 C 
BRANCH  20  21
ATOM     21  C   UNL A   1      31.679  30.680  26.114  1.00  0.00     0.023 C 
BRANCH  21  22
ATOM     22  C   UNL A   1      31.420  31.980  26.870  1.00  0.00     0.023 C 
BRANCH  22  23
ATOM     23  C   UNL A   1      32.667  32.758  27.269  1.00  0.00     0.116 C 
BRANCH  23  24
ATOM     24  N   UNL A   1      32.403  34.147  27.620  1.00  0.00    -0.352 N 
ATOM     25  C   UNL A   1      33.035  34.935  28.555  1.00  0.00     0.251 C 
ATOM     26  H   UNL A   1      31.674  34.581  27.121  1.00  0.00     0.163 HD
ATOM     27  O   UNL A   1      32.621  36.063  28.805  1.00  0.00    -0.269 OA
BRANCH  25  28
ATOM     28  C   UNL A   1      34.195  34.392  29.295  1.00  0.00     0.039 A 
ATOM     29  C   UNL A   1      33.971  33.665  30.468  1.00  0.00     0.014 A 
ATOM     30  C   UNL A   1      35.491  34.549  28.799  1.00  0.00     0.014 A 
ATOM     31  C   UNL A   1      35.040  33.019  31.091  1.00  0.00     0.010 A 
ATOM     32  C   UNL A   1      36.536  33.832  29.370  1.00  0.00     0.010 A 
ATOM     33  C   UNL A   1      36.322  33.054  30.519  1.00  0.00    -0.014 A 
BRANCH  33  34
ATOM     34  C   UNL A   1      37.450  32.279  31.096  1.00  0.00     0.031 A 
ATOM     35  C   UNL A   1      37.964  32.605  32.471  1.00  0.00     0.074 A 
ATOM     36  C   UNL A   1      38.064  31.336  30.355  1.00  0.00     0.049 A 
ATOM     37  N   UNL A   1      38.982  32.096  33.117  1.00  0.00    -0.248 NA
ATOM     38  C   UNL A   1      37.257  33.666  33.207  1.00  0.00     0.031 C 
ATOM     39  C   UNL A   1      37.697  30.959  28.988  1.00  0.00     0.029 A 
ATOM     40  N   UNL A   1      39.134  30.526  30.645  1.00  0.00    -0.354 N 
ATOM     41  C   UNL A   1      39.048  32.785  34.322  1.00  0.00     0.074 A 
ATOM     42  C   UNL A   1      38.006  33.788  34.291  1.00  0.00     0.031 C 
ATOM     43  C   UNL A   1      38.505  29.970  28.572  1.00  0.00     0.029 A 
ATOM     44  C   UNL A   1      39.473  29.673  29.623  1.00  0.00     0.049 A 
ATOM     45  H   UNL A   1      39.614  30.555  31.504  1.00  0.00     0.167 HD
ATOM     46  C   UNL A   1      39.882  32.584  35.370  1.00  0.00     0.037 A 
ATOM     47  C   UNL A   1      40.456  28.756  29.542  1.00  0.00     0.037 A 
ATOM     48  C   UNL A   1      40.903  31.570  35.407  1.00  0.00     0.049 A 
ATOM     49  C   UNL A   1      41.381  28.562  30.711  1.00  0.00     0.074 A 
ATOM     50  C   UNL A   1      41.757  31.244  36.446  1.00  0.00     0.029 A 
ATOM     51  N   UNL A   1      41.210  30.721  34.355  1.00  0.00    -0.354 N 
ATOM     52  N   UNL A   1      41.383  29.170  31.874  1.00  0.00    -0.248 NA
ATOM     53  C   UNL A   1      42.440  27.554  30.558  1.00  0.00     0.031 C 
ATOM     54  C   UNL A   1      42.613  30.229  36.006  1.00  0.00     0.029 A 
ATOM     55  C   UNL A   1      42.259  29.887  34.711  1.00  0.00     0.049 A 
ATOM     56  H   UNL A   1      40.752  30.710  33.484  1.00  0.00     0.167 HD
ATOM     57  C   UNL A   1      42.417  28.595  32.601  1.00  0.00     0.074 A 
ATOM     58  C   UNL A   1      43.013  27.583  31.753  1.00  0.00     0.031 C 
ATOM     59  C   UNL A   1      42.835  28.878  33.860  1.00  0.00     0.037 A 
BRANCH  46  60
ATOM     60  C   UNL A   1      39.719  33.483  36.561  1.00  0.00     0.057 A 
ATOM     61  C   UNL A   1      40.424  34.689  36.681  1.00  0.00     0.134 A 
ATOM     62  C   UNL A   1      38.835  33.149  37.595  1.00  0.00     0.134 A 
ATOM     63  F   UNL A   1      41.296  35.064  35.733  1.00  0.00    -0.206 F 
ATOM     64  C   UNL A   1      40.284  35.510  37.801  1.00  0.00     0.040 A 
ATOM     65  C   UNL A   1      38.662  33.977  38.705  1.00  0.00     0.040 A 
ATOM     66  F   UNL A   1      38.122  32.013  37.543  1.00  0.00    -0.206 F 
ATOM     67  C   UNL A   1      39.395  35.157  38.815  1.00  0.00     0.006 A 
ENDBRANCH  46  60
BRANCH  47  68
ATOM     68  C   UNL A   1      40.600  27.921  28.321  1.00  0.00     0.057 A 
ATOM     69  C   UNL A   1      39.975  26.671  28.228  1.00  0.00     0.134 A 
ATOM     70  C   UNL A   1      41.368  28.340  27.228  1.00  0.00     0.134 A 
ATOM     71  F   UNL A   1      39.242  26.206  29.251  1.00  0.00    -0.206 F 
ATOM     72  C   UNL A   1      40.126  25.859  27.104  1.00  0.00     0.040 A 
ATOM     73  C   UNL A   1      41.506  27.548  26.086  1.00  0.00     0.040 A 
ATOM     74  F   UNL A   1      41.986  29.529  27.250  1.00  0.00    -0.206 F 
ATOM     75  C   UNL A   1      40.891  26.300  26.026  1.00  0.00     0.006 A 
ENDBRANCH  47  68
BRANCH  59  76
ATOM     76  C   UNL A   1      43.963  28.055  34.411  1.00  0.00     0.057 A 
ATOM     77  C   UNL A   1      45.297  28.470  34.325  1.00  0.00     0.134 A 
ATOM     78  C   UNL A   1      43.703  26.846  35.071  1.00  0.00     0.134 A 
ATOM     79  F   UNL A   1      45.614  29.611  33.694  1.00  0.00    -0.206 F 
ATOM     80  C   UNL A   1      46.335  27.703  34.855  1.00  0.00     0.040 A 
ATOM     81  C   UNL A   1      44.730  26.085  35.630  1.00  0.00     0.040 A 
ATOM     82  F   UNL A   1      42.447  26.394  35.197  1.00  0.00    -0.206 F 
ATOM     83  C   UNL A   1      46.052  26.509  35.517  1.00  0.00     0.006 A 
ENDBRANCH  59  76
ENDBRANCH  33  34
ENDBRANCH  25  28
ENDBRANCH  23  24
ENDBRANCH  22  23
ENDBRANCH  21  22
ENDBRANCH  20  21
ENDBRANCH   3  20
TORSDOF 17
ENDMDL
MODEL 2
REMARK VINA RESULT:     -10.4      6.119     10.438
REMARK SMILES CC(C)CCOCC[N@@H+]1CC[C@@H](C(=O)NCCCCNC(=O)c2ccc(-c3c4nc(c(-c5c(F)cccc5F)c5ccc([nH]5)c(-c5c(F)cccc5F)c5nc(c(-c6c(F)cccc6F)c6ccc3[nH]6)C=C5)C=C4)cc2)[C@@H]1C
REMARK SMILES IDX 13 1 14 2 15 3 12 5 9 6 10 7 77 8 11 10 78 11 8 12 7 13 6 14
REMARK SMILES IDX 5 15 4 16 2 17 1 18 3 19 16 20 17 21 18 22 19 23 20 24 21 25
REMARK SMILES IDX 22 27 23 28 24 29 76 30 25 31 75 32 26 33 27 34 28 35 69 36
REMARK SMILES IDX 29 37 74 38 68 39 70 40 30 41 73 42 67 43 66 44 31 46 57 47
REMARK SMILES IDX 40 48 56 49 41 50 44 51 55 52 71 53 42 54 43 55 54 57 72 58
REMARK SMILES IDX 45 59 32 60 33 61 38 62 34 63 35 64 37 65 39 66 36 67 58 68
REMARK SMILES IDX 59 69 64 70 60 71 61 72 63 73 65 74 62 75 46 76 47 77 52 78
REMARK SMILES IDX 48 79 49 80 51 81 53 82 50 83
REMARK H PARENT 15 4 9 9 20 26 70 45 44 56
REMARK Flexibility Score: inf
ROOT
ATOM      1  C   UNL A   1      34.920  22.844  26.625  1.00  0.00     0.229 C 
ATOM      2  O   UNL A   1      34.364  22.467  27.665  1.00  0.00    -0.275 OA
ATOM      3  N   UNL A   1      36.233  22.516  26.501  1.00  0.00    -0.356 N 
ATOM      4  H   UNL A   1      36.622  22.105  27.308  1.00  0.00     0.163 HD
ENDROOT
BRANCH   1   5
ATOM      5  C   UNL A   1      34.090  23.569  25.564  1.00  0.00     0.142 C 
ATOM      6  N   UNL A   1      32.455  22.436  24.344  1.00  0.00    -0.330 N 
ATOM      7  C   UNL A   1      31.758  23.567  24.929  1.00  0.00     0.263 C 
ATOM      8  C   UNL A   1      33.865  22.834  24.234  1.00  0.00     0.193 C 
ATOM      9  H   UNL A   1      32.361  21.637  24.971  1.00  0.00     0.348 HD
ATOM     10  C   UNL A   1      32.697  23.956  26.061  1.00  0.00     0.081 C 
ATOM     11  C   UNL A   1      34.158  23.748  23.037  1.00  0.00     0.076 C 
BRANCH   6  12
ATOM     12  C   UNL A   1      31.849  21.704  23.232  1.00  0.00     0.291 C 
BRANCH  12  13
ATOM     13  C   UNL A   1      32.331  20.226  23.142  1.00  0.00     0.221 C 
BRANCH  13  14
ATOM     14  O   UNL A   1      32.183  19.312  24.229  1.00  0.00    -0.376 OA
BRANCH  14  15
ATOM     15  C   UNL A   1      33.288  19.034  25.055  1.00  0.00     0.160 C 
BRANCH  15  16
ATOM     16  C   UNL A   1      34.330  18.044  24.508  1.00  0.00     0.031 C 
BRANCH  16  17
ATOM     17  C   UNL A   1      34.326  16.504  24.712  1.00  0.00    -0.015 C 
ATOM     18  C   UNL A   1      35.513  15.831  25.374  1.00  0.00     0.007 C 
ATOM     19  C   UNL A   1      33.044  16.078  25.445  1.00  0.00     0.007 C 
ENDBRANCH  16  17
ENDBRANCH  15  16
ENDBRANCH  14  15
ENDBRANCH  13  14
ENDBRANCH  12  13
ENDBRANCH   6  12
ENDBRANCH   1   5
BRANCH   3  20
ATOM     20  C   UNL A   1      37.165  22.660  25.403  1.00  0.00     0.116 C 
BRANCH  20  21
ATOM     21  C   UNL A   1      37.171  21.465  24.449  1.00  0.00     0.023 C 
BRANCH  21  22
ATOM     22  C   UNL A   1      37.850  20.215  25.001  1.00  0.00     0.023 C 
BRANCH  22  23
ATOM     23  C   UNL A   1      39.146  20.462  25.763  1.00  0.00     0.116 C 
BRANCH  23  24
ATOM     24  N   UNL A   1      40.013  19.294  25.836  1.00  0.00    -0.352 N 
ATOM     25  C   UNL A   1      41.364  19.240  26.095  1.00  0.00     0.251 C 
ATOM     26  H   UNL A   1      39.574  18.427  25.681  1.00  0.00     0.163 HD
ATOM     27  O   UNL A   1      41.972  18.176  26.018  1.00  0.00    -0.269 OA
BRANCH  25  28
ATOM     28  C   UNL A   1      42.091  20.485  26.420  1.00  0.00     0.039 A 
ATOM     29  C   UNL A   1      42.609  21.259  25.378  1.00  0.00     0.014 A 
ATOM     30  C   UNL A   1      42.205  20.917  27.744  1.00  0.00     0.014 A 
ATOM     31  C   UNL A   1      43.162  22.511  25.660  1.00  0.00     0.010 A 
ATOM     32  C   UNL A   1      42.673  22.199  28.010  1.00  0.00     0.010 A 
ATOM     33  C   UNL A   1      43.151  23.012  26.972  1.00  0.00    -0.014 A 
BRANCH  33  34
ATOM     34  C   UNL A   1      43.624  24.386  27.280  1.00  0.00     0.031 A 
ATOM     35  C   UNL A   1      42.646  25.439  27.725  1.00  0.00     0.074 A 
ATOM     36  C   UNL A   1      44.918  24.709  27.085  1.00  0.00     0.049 A 
ATOM     37  N   UNL A   1      42.851  26.709  27.968  1.00  0.00    -0.248 NA
ATOM     38  C   UNL A   1      41.247  25.014  27.889  1.00  0.00     0.031 C 
ATOM     39  C   UNL A   1      45.958  23.794  26.608  1.00  0.00     0.029 A 
ATOM     40  N   UNL A   1      45.579  25.899  27.257  1.00  0.00    -0.354 N 
ATOM     41  C   UNL A   1      41.608  27.236  28.295  1.00  0.00     0.074 A 
ATOM     42  C   UNL A   1      40.647  26.163  28.159  1.00  0.00     0.031 C 
ATOM     43  C   UNL A   1      47.129  24.449  26.558  1.00  0.00     0.029 A 
ATOM     44  C   UNL A   1      46.918  25.836  26.957  1.00  0.00     0.049 A 
ATOM     45  H   UNL A   1      45.134  26.723  27.566  1.00  0.00     0.167 HD
ATOM     46  C   UNL A   1      41.297  28.491  28.697  1.00  0.00     0.037 A 
ATOM     47  C   UNL A   1      47.867  26.790  26.997  1.00  0.00     0.037 A 
ATOM     48  C   UNL A   1      42.259  29.550  28.854  1.00  0.00     0.049 A 
ATOM     49  C   UNL A   1      47.496  28.181  27.429  1.00  0.00     0.074 A 
ATOM     50  C   UNL A   1      42.055  30.838  29.316  1.00  0.00     0.029 A 
ATOM     51  N   UNL A   1      43.607  29.444  28.546  1.00  0.00    -0.354 N 
ATOM     52  N   UNL A   1      46.329  28.646  27.808  1.00  0.00    -0.248 NA
ATOM     53  C   UNL A   1      48.574  29.180  27.443  1.00  0.00     0.031 C 
ATOM     54  C   UNL A   1      43.271  31.527  29.243  1.00  0.00     0.029 A 
ATOM     55  C   UNL A   1      44.243  30.652  28.785  1.00  0.00     0.049 A 
ATOM     56  H   UNL A   1      44.048  28.631  28.209  1.00  0.00     0.167 HD
ATOM     57  C   UNL A   1      46.539  29.979  28.136  1.00  0.00     0.074 A 
ATOM     58  C   UNL A   1      47.947  30.245  27.923  1.00  0.00     0.031 C 
ATOM     59  C   UNL A   1      45.647  30.900  28.577  1.00  0.00     0.037 A 
BRANCH  46  60
ATOM     60  C   UNL A   1      39.854  28.781  28.995  1.00  0.00     0.057 A 
ATOM     61  C   UNL A   1      39.326  28.660  30.288  1.00  0.00     0.134 A 
ATOM     62  C   UNL A   1      38.984  29.201  27.982  1.00  0.00     0.134 A 
ATOM     63  F   UNL A   1      40.102  28.251  31.303  1.00  0.00    -0.206 F 
ATOM     64  C   UNL A   1      37.980  28.911  30.555  1.00  0.00     0.040 A 
ATOM     65  C   UNL A   1      37.643  29.485  28.241  1.00  0.00     0.040 A 
ATOM     66  F   UNL A   1      39.422  29.345  26.721  1.00  0.00    -0.206 F 
ATOM     67  C   UNL A   1      37.134  29.331  29.530  1.00  0.00     0.006 A 
ENDBRANCH  46  60
BRANCH  47  68
ATOM     68  C   UNL A   1      49.273  26.459  26.649  1.00  0.00     0.057 A 
ATOM     69  C   UNL A   1      49.767  26.688  25.359  1.00  0.00     0.134 A 
ATOM     70  C   UNL A   1      50.151  25.897  27.584  1.00  0.00     0.134 A 
ATOM     71  F   UNL A   1      48.968  27.205  24.414  1.00  0.00    -0.206 F 
ATOM     72  C   UNL A   1      51.074  26.353  25.004  1.00  0.00     0.040 A 
ATOM     73  C   UNL A   1      51.470  25.581  27.250  1.00  0.00     0.040 A 
ATOM     74  F   UNL A   1      49.744  25.659  28.839  1.00  0.00    -0.206 F 
ATOM     75  C   UNL A   1      51.932  25.801  25.954  1.00  0.00     0.006 A 
ENDBRANCH  47  68
BRANCH  59  76
ATOM     76  C   UNL A   1      46.173  32.268  28.898  1.00  0.00     0.057 A 
ATOM     77  C   UNL A   1      46.670  32.595  30.165  1.00  0.00     0.134 A 
ATOM     78  C   UNL A   1      46.217  33.261  27.910  1.00  0.00     0.134 A 
ATOM     79  F   UNL A   1      46.644  31.695  31.159  1.00  0.00    -0.206 F 
ATOM     80  C   UNL A   1      47.171  33.868  30.446  1.00  0.00     0.040 A 
ATOM     81  C   UNL A   1      46.742  34.528  28.171  1.00  0.00     0.040 A 
ATOM     82  F   UNL A   1      45.766  33.012  26.672  1.00  0.00    -0.206 F 
ATOM     83  C   UNL A   1      47.214  34.836  29.444  1.00  0.00     0.006 A 
ENDBRANCH  59  76
ENDBRANCH  33  34
ENDBRANCH  25  28
ENDBRANCH  23  24
ENDBRANCH  22  23
ENDBRANCH  21  22
ENDBRANCH  20  21
ENDBRANCH   3  20
TORSDOF 17
ENDMDL
MODEL 3
REMARK VINA RESULT:     -10.3      4.424      9.184
REMARK SMILES CC(C)CCOCC[N@@H+]1CC[C@@H](C(=O)NCCCCNC(=O)c2ccc(-c3c4nc(c(-c5c(F)cccc5F)c5ccc([nH]5)c(-c5c(F)cccc5F)c5nc(c(-c6c(F)cccc6F)c6ccc3[nH]6)C=C5)C=C4)cc2)[C@@H]1C
REMARK SMILES IDX 13 1 14 2 15 3 12 5 9 6 10 7 77 8 11 10 78 11 8 12 7 13 6 14
REMARK SMILES IDX 5 15 4 16 2 17 1 18 3 19 16 20 17 21 18 22 19 23 20 24 21 25
REMARK SMILES IDX 22 27 23 28 24 29 76 30 25 31 75 32 26 33 27 34 28 35 69 36
REMARK SMILES IDX 29 37 74 38 68 39 70 40 30 41 73 42 67 43 66 44 31 46 57 47
REMARK SMILES IDX 40 48 56 49 41 50 44 51 55 52 71 53 42 54 43 55 54 57 72 58
REMARK SMILES IDX 45 59 32 60 33 61 38 62 34 63 35 64 37 65 39 66 36 67 58 68
REMARK SMILES IDX 59 69 64 70 60 71 61 72 63 73 65 74 62 75 46 76 47 77 52 78
REMARK SMILES IDX 48 79 49 80 51 81 53 82 50 83
REMARK H PARENT 15 4 9 9 20 26 70 45 44 56
REMARK Flexibility Score: inf
ROOT
ATOM      1  C   UNL A   1      34.397  23.706  23.669  1.00  0.00     0.229 C 
ATOM      2  O   UNL A   1      33.652  23.890  22.698  1.00  0.00    -0.275 OA
ATOM      3  N   UNL A   1      35.497  22.942  23.438  1.00  0.00    -0.356 N 
ATOM      4  H   UNL A   1      35.518  22.530  22.542  1.00  0.00     0.163 HD
ENDROOT
BRANCH   1   5
ATOM      5  C   UNL A   1      34.065  24.391  24.996  1.00  0.00     0.142 C 
ATOM      6  N   UNL A   1      31.909  25.170  25.433  1.00  0.00    -0.330 N 
ATOM      7  C   UNL A   1      32.216  24.293  26.549  1.00  0.00     0.263 C 
ATOM      8  C   UNL A   1      33.199  25.658  24.928  1.00  0.00     0.193 C 
ATOM      9  H   UNL A   1      31.431  24.627  24.715  1.00  0.00     0.348 HD
ATOM     10  C   UNL A   1      33.358  23.463  25.983  1.00  0.00     0.081 C 
ATOM     11  C   UNL A   1      33.804  26.791  25.767  1.00  0.00     0.076 C 
BRANCH   6  12
ATOM     12  C   UNL A   1      30.798  26.116  25.535  1.00  0.00     0.291 C 
BRANCH  12  13
ATOM     13  C   UNL A   1      30.547  26.904  24.215  1.00  0.00     0.221 C 
BRANCH  13  14
ATOM     14  O   UNL A   1      30.720  28.319  24.132  1.00  0.00    -0.376 OA
BRANCH  14  15
ATOM     15  C   UNL A   1      30.836  28.929  22.869  1.00  0.00     0.160 C 
BRANCH  15  16
ATOM     16  C   UNL A   1      29.635  29.762  22.389  1.00  0.00     0.031 C 
BRANCH  16  17
ATOM     17  C   UNL A   1      28.392  30.149  23.235  1.00  0.00    -0.015 C 
ATOM     18  C   UNL A   1      27.774  31.525  23.075  1.00  0.00     0.007 C 
ATOM     19  C   UNL A   1      27.291  29.090  23.060  1.00  0.00     0.007 C 
ENDBRANCH  16  17
ENDBRANCH  15  16
ENDBRANCH  14  15
ENDBRANCH  13  14
ENDBRANCH  12  13
ENDBRANCH   6  12
ENDBRANCH   1   5
BRANCH   3  20
ATOM     20  C   UNL A   1      36.641  22.620  24.264  1.00  0.00     0.116 C 
BRANCH  20  21
ATOM     21  C   UNL A   1      36.518  21.273  24.977  1.00  0.00     0.023 C 
BRANCH  21  22
ATOM     22  C   UNL A   1      37.719  20.349  24.799  1.00  0.00     0.023 C 
BRANCH  22  23
ATOM     23  C   UNL A   1      38.840  20.538  25.813  1.00  0.00     0.116 C 
BRANCH  23  24
ATOM     24  N   UNL A   1      39.856  19.496  25.763  1.00  0.00    -0.352 N 
ATOM     25  C   UNL A   1      41.194  19.581  26.075  1.00  0.00     0.251 C 
ATOM     26  H   UNL A   1      39.544  18.610  25.468  1.00  0.00     0.163 HD
ATOM     27  O   UNL A   1      41.944  18.629  25.879  1.00  0.00    -0.269 OA
BRANCH  25  28
ATOM     28  C   UNL A   1      41.735  20.851  26.606  1.00  0.00     0.039 A 
ATOM     29  C   UNL A   1      42.224  21.807  25.711  1.00  0.00     0.014 A 
ATOM     30  C   UNL A   1      41.703  21.120  27.976  1.00  0.00     0.014 A 
ATOM     31  C   UNL A   1      42.594  23.067  26.184  1.00  0.00     0.010 A 
ATOM     32  C   UNL A   1      41.986  22.402  28.431  1.00  0.00     0.010 A 
ATOM     33  C   UNL A   1      42.429  23.392  27.540  1.00  0.00    -0.014 A 
BRANCH  33  34
ATOM     34  C   UNL A   1      42.704  24.761  28.048  1.00  0.00     0.031 A 
ATOM     35  C   UNL A   1      44.098  25.149  28.455  1.00  0.00     0.074 A 
ATOM     36  C   UNL A   1      41.687  25.629  28.217  1.00  0.00     0.049 A 
ATOM     37  N   UNL A   1      44.524  26.265  28.990  1.00  0.00    -0.248 NA
ATOM     38  C   UNL A   1      45.149  24.136  28.265  1.00  0.00     0.031 C 
ATOM     39  C   UNL A   1      40.281  25.360  27.909  1.00  0.00     0.029 A 
ATOM     40  N   UNL A   1      41.679  26.915  28.698  1.00  0.00    -0.354 N 
ATOM     41  C   UNL A   1      45.883  26.082  29.214  1.00  0.00     0.074 A 
ATOM     42  C   UNL A   1      46.197  24.727  28.815  1.00  0.00     0.031 C 
ATOM     43  C   UNL A   1      39.554  26.457  28.177  1.00  0.00     0.029 A 
ATOM     44  C   UNL A   1      40.432  27.490  28.714  1.00  0.00     0.049 A 
ATOM     45  H   UNL A   1      42.492  27.381  29.004  1.00  0.00     0.167 HD
ATOM     46  C   UNL A   1      46.793  26.968  29.684  1.00  0.00     0.037 A 
ATOM     47  C   UNL A   1      40.041  28.713  29.120  1.00  0.00     0.037 A 
ATOM     48  C   UNL A   1      46.482  28.323  30.058  1.00  0.00     0.049 A 
ATOM     49  C   UNL A   1      41.066  29.675  29.655  1.00  0.00     0.074 A 
ATOM     50  C   UNL A   1      47.343  29.319  30.486  1.00  0.00     0.029 A 
ATOM     51  N   UNL A   1      45.208  28.870  30.054  1.00  0.00    -0.354 N 
ATOM     52  N   UNL A   1      42.360  29.513  29.791  1.00  0.00    -0.248 NA
ATOM     53  C   UNL A   1      40.575  30.991  30.091  1.00  0.00     0.031 C 
ATOM     54  C   UNL A   1      46.583  30.455  30.786  1.00  0.00     0.029 A 
ATOM     55  C   UNL A   1      45.256  30.183  30.495  1.00  0.00     0.049 A 
ATOM     56  H   UNL A   1      44.390  28.398  29.778  1.00  0.00     0.167 HD
ATOM     57  C   UNL A   1      42.843  30.714  30.295  1.00  0.00     0.074 A 
ATOM     58  C   UNL A   1      41.703  31.598  30.429  1.00  0.00     0.031 C 
ATOM     59  C   UNL A   1      44.115  31.055  30.615  1.00  0.00     0.037 A 
BRANCH  46  60
ATOM     60  C   UNL A   1      48.211  26.494  29.818  1.00  0.00     0.057 A 
ATOM     61  C   UNL A   1      49.152  26.675  28.795  1.00  0.00     0.134 A 
ATOM     62  C   UNL A   1      48.647  25.861  30.989  1.00  0.00     0.134 A 
ATOM     63  F   UNL A   1      48.798  27.262  27.642  1.00  0.00    -0.206 F 
ATOM     64  C   UNL A   1      50.463  26.213  28.917  1.00  0.00     0.040 A 
ATOM     65  C   UNL A   1      49.964  25.423  31.136  1.00  0.00     0.040 A 
ATOM     66  F   UNL A   1      47.802  25.661  32.012  1.00  0.00    -0.206 F 
ATOM     67  C   UNL A   1      50.874  25.590  30.094  1.00  0.00     0.006 A 
ENDBRANCH  46  60
BRANCH  47  68
ATOM     68  C   UNL A   1      38.616  29.117  29.006  1.00  0.00     0.057 A 
ATOM     69  C   UNL A   1      38.090  29.560  27.786  1.00  0.00     0.134 A 
ATOM     70  C   UNL A   1      37.750  29.085  30.105  1.00  0.00     0.134 A 
ATOM     71  F   UNL A   1      38.876  29.633  26.700  1.00  0.00    -0.206 F 
ATOM     72  C   UNL A   1      36.764  29.975  27.666  1.00  0.00     0.040 A 
ATOM     73  C   UNL A   1      36.413  29.473  29.995  1.00  0.00     0.040 A 
ATOM     74  F   UNL A   1      38.188  28.665  31.301  1.00  0.00    -0.206 F 
ATOM     75  C   UNL A   1      35.919  29.928  28.774  1.00  0.00     0.006 A 
ENDBRANCH  47  68
BRANCH  59  76
ATOM     76  C   UNL A   1      44.350  32.456  31.102  1.00  0.00     0.057 A 
ATOM     77  C   UNL A   1      44.602  33.516  30.224  1.00  0.00     0.134 A 
ATOM     78  C   UNL A   1      44.284  32.751  32.471  1.00  0.00     0.134 A 
ATOM     79  F   UNL A   1      44.691  33.298  28.903  1.00  0.00    -0.206 F 
ATOM     80  C   UNL A   1      44.803  34.816  30.689  1.00  0.00     0.040 A 
ATOM     81  C   UNL A   1      44.455  34.052  32.945  1.00  0.00     0.040 A 
ATOM     82  F   UNL A   1      44.037  31.784  33.366  1.00  0.00    -0.206 F 
ATOM     83  C   UNL A   1      44.723  35.088  32.054  1.00  0.00     0.006 A 
ENDBRANCH  59  76
ENDBRANCH  33  34
ENDBRANCH  25  28
ENDBRANCH  23  24
ENDBRANCH  22  23
ENDBRANCH  21  22
ENDBRANCH  20  21
ENDBRANCH   3  20
TORSDOF 17
ENDMDL
