MODEL 1
REMARK VINA RESULT:     -11.0      0.000      0.000
REMARK SMILES CC(C)(C)c1cc(NC(=O)CSC[C@H]([NH3+])C(=O)NCCCCNC(=O)c2ccc(-c3c4nc(c(-c5c(F)cccc5F)c5ccc([nH]5)c(-c5c(F)cccc5F)c5nc(c(-c6c(F)cccc6F)c6ccc3[nH]6)C=C5)C=C4)cc2)on1
REMARK SMILES IDX 16 1 17 2 18 3 14 5 13 6 12 7 11 8 9 9 8 10 10 12 7 13 5 14
REMARK SMILES IDX 6 15 81 16 80 17 2 18 1 19 3 20 4 21 15 22 19 26 20 27 21 28
REMARK SMILES IDX 22 29 23 30 24 31 25 33 26 34 27 35 79 36 28 37 78 38 29 39
REMARK SMILES IDX 30 40 31 41 72 42 32 43 77 44 71 45 73 46 33 47 76 48 70 49
REMARK SMILES IDX 69 50 34 52 60 53 43 54 59 55 44 56 47 57 58 58 74 59 45 60
REMARK SMILES IDX 46 61 57 63 75 64 48 65 35 66 36 67 41 68 37 69 38 70 40 71
REMARK SMILES IDX 42 72 39 73 61 74 62 75 67 76 63 77 64 78 66 79 68 80 65 81
REMARK SMILES IDX 49 82 50 83 55 84 51 85 52 86 54 87 56 88 53 89
REMARK H PARENT 18 4 8 11 15 23 15 24 15 25 23 32 73 51 47 62
REMARK Flexibility Score: inf
ROOT
ATOM      1  C   UNL A   1      33.709  21.762  26.589  1.00  0.00     0.279 C 
ATOM      2  O   UNL A   1      33.507  22.040  27.774  1.00  0.00    -0.268 OA
ATOM      3  N   UNL A   1      34.791  20.985  26.293  1.00  0.00    -0.351 N 
ATOM      4  H   UNL A   1      35.295  20.653  27.073  1.00  0.00     0.163 HD
ENDROOT
BRANCH   1   5
ATOM      5  C   UNL A   1      32.747  22.242  25.490  1.00  0.00     0.280 C 
BRANCH   5   6
ATOM      6  C   UNL A   1      32.938  23.748  25.261  1.00  0.00     0.145 C 
BRANCH   6   7
ATOM      7  S   UNL A   1      33.828  24.125  23.709  1.00  0.00    -0.145 SA
BRANCH   7   8
ATOM      8  C   UNL A   1      32.466  24.731  22.657  1.00  0.00     0.170 C 
BRANCH   8   9
ATOM      9  C   UNL A   1      32.891  25.817  21.685  1.00  0.00     0.236 C 
ATOM     10  N   UNL A   1      32.904  27.144  22.001  1.00  0.00    -0.294 N 
ATOM     11  H   UNL A   1      33.219  27.749  21.291  1.00  0.00     0.173 HD
ATOM     12  O   UNL A   1      33.280  25.504  20.552  1.00  0.00    -0.274 OA
BRANCH  10  13
ATOM     13  C   UNL A   1      32.536  27.742  23.174  1.00  0.00     0.231 A 
ATOM     14  C   UNL A   1      32.367  28.589  25.211  1.00  0.00     0.091 A 
ATOM     15  C   UNL A   1      33.291  28.041  24.281  1.00  0.00     0.097 A 
ATOM     16  N   UNL A   1      31.144  28.657  24.666  1.00  0.00    -0.082 NA
ATOM     17  O   UNL A   1      31.263  28.146  23.393  1.00  0.00    -0.338 OA
BRANCH  14  18
ATOM     18  C   UNL A   1      32.595  29.017  26.647  1.00  0.00     0.008 C 
ATOM     19  C   UNL A   1      32.285  30.517  26.839  1.00  0.00     0.018 C 
ATOM     20  C   UNL A   1      34.059  28.781  27.072  1.00  0.00     0.018 C 
ATOM     21  C   UNL A   1      31.676  28.202  27.580  1.00  0.00     0.018 C 
ENDBRANCH  14  18
ENDBRANCH  10  13
ENDBRANCH   8   9
ENDBRANCH   7   8
ENDBRANCH   6   7
ENDBRANCH   5   6
BRANCH   5  22
ATOM     22  N   UNL A   1      31.356  21.845  25.814  1.00  0.00    -0.347 N 
ATOM     23  H   UNL A   1      30.972  22.490  26.505  1.00  0.00     0.345 HD
ATOM     24  H   UNL A   1      31.352  20.898  26.193  1.00  0.00     0.345 HD
ATOM     25  H   UNL A   1      30.788  21.876  24.968  1.00  0.00     0.345 HD
ENDBRANCH   5  22
ENDBRANCH   1   5
BRANCH   3  26
ATOM     26  C   UNL A   1      35.311  20.573  25.002  1.00  0.00     0.116 C 
BRANCH  26  27
ATOM     27  C   UNL A   1      36.766  20.985  24.807  1.00  0.00     0.023 C 
BRANCH  27  28
ATOM     28  C   UNL A   1      37.780  19.859  25.000  1.00  0.00     0.023 C 
BRANCH  28  29
ATOM     29  C   UNL A   1      39.011  20.223  25.821  1.00  0.00     0.116 C 
BRANCH  29  30
ATOM     30  N   UNL A   1      40.003  19.160  25.866  1.00  0.00    -0.352 N 
ATOM     31  C   UNL A   1      41.357  19.239  26.074  1.00  0.00     0.251 C 
ATOM     32  H   UNL A   1      39.651  18.251  25.727  1.00  0.00     0.163 HD
ATOM     33  O   UNL A   1      42.059  18.239  25.947  1.00  0.00    -0.269 OA
BRANCH  31  34
ATOM     34  C   UNL A   1      41.980  20.535  26.416  1.00  0.00     0.039 A 
ATOM     35  C   UNL A   1      42.401  21.370  25.378  1.00  0.00     0.014 A 
ATOM     36  C   UNL A   1      42.144  20.934  27.746  1.00  0.00     0.014 A 
ATOM     37  C   UNL A   1      42.922  22.631  25.673  1.00  0.00     0.010 A 
ATOM     38  C   UNL A   1      42.585  22.223  28.034  1.00  0.00     0.010 A 
ATOM     39  C   UNL A   1      42.981  23.086  27.001  1.00  0.00    -0.014 A 
BRANCH  39  40
ATOM     40  C   UNL A   1      43.441  24.463  27.311  1.00  0.00     0.031 A 
ATOM     41  C   UNL A   1      42.462  25.520  27.742  1.00  0.00     0.074 A 
ATOM     42  C   UNL A   1      44.744  24.774  27.168  1.00  0.00     0.049 A 
ATOM     43  N   UNL A   1      42.683  26.771  28.060  1.00  0.00    -0.248 NA
ATOM     44  C   UNL A   1      41.044  25.130  27.801  1.00  0.00     0.031 C 
ATOM     45  C   UNL A   1      45.785  23.857  26.696  1.00  0.00     0.029 A 
ATOM     46  N   UNL A   1      45.418  25.945  27.405  1.00  0.00    -0.354 N 
ATOM     47  C   UNL A   1      41.438  27.316  28.349  1.00  0.00     0.074 A 
ATOM     48  C   UNL A   1      40.459  26.277  28.109  1.00  0.00     0.031 C 
ATOM     49  C   UNL A   1      46.969  24.488  26.716  1.00  0.00     0.029 A 
ATOM     50  C   UNL A   1      46.769  25.862  27.165  1.00  0.00     0.049 A 
ATOM     51  H   UNL A   1      44.975  26.768  27.717  1.00  0.00     0.167 HD
ATOM     52  C   UNL A   1      41.139  28.557  28.801  1.00  0.00     0.037 A 
ATOM     53  C   UNL A   1      47.737  26.788  27.296  1.00  0.00     0.037 A 
ATOM     54  C   UNL A   1      42.116  29.585  29.052  1.00  0.00     0.049 A 
ATOM     55  C   UNL A   1      47.379  28.159  27.798  1.00  0.00     0.074 A 
ATOM     56  C   UNL A   1      41.919  30.857  29.562  1.00  0.00     0.029 A 
ATOM     57  N   UNL A   1      43.476  29.462  28.803  1.00  0.00    -0.354 N 
ATOM     58  N   UNL A   1      46.207  28.634  28.145  1.00  0.00    -0.248 NA
ATOM     59  C   UNL A   1      48.482  29.118  27.938  1.00  0.00     0.031 C 
ATOM     60  C   UNL A   1      43.152  31.520  29.575  1.00  0.00     0.029 A 
ATOM     61  C   UNL A   1      44.126  30.642  29.127  1.00  0.00     0.049 A 
ATOM     62  H   UNL A   1      43.913  28.654  28.449  1.00  0.00     0.167 HD
ATOM     63  C   UNL A   1      46.435  29.937  28.568  1.00  0.00     0.074 A 
ATOM     64  C   UNL A   1      47.860  30.167  28.456  1.00  0.00     0.031 C 
ATOM     65  C   UNL A   1      45.545  30.860  29.007  1.00  0.00     0.037 A 
BRANCH  52  66
ATOM     66  C   UNL A   1      39.691  28.871  29.055  1.00  0.00     0.057 A 
ATOM     67  C   UNL A   1      38.843  29.325  28.036  1.00  0.00     0.134 A 
ATOM     68  C   UNL A   1      39.130  28.689  30.325  1.00  0.00     0.134 A 
ATOM     69  F   UNL A   1      39.317  29.533  26.798  1.00  0.00    -0.206 F 
ATOM     70  C   UNL A   1      37.498  29.614  28.277  1.00  0.00     0.040 A 
ATOM     71  C   UNL A   1      37.780  28.945  30.571  1.00  0.00     0.040 A 
ATOM     72  F   UNL A   1      39.882  28.252  31.346  1.00  0.00    -0.206 F 
ATOM     73  C   UNL A   1      36.961  29.417  29.547  1.00  0.00     0.006 A 
ENDBRANCH  52  66
BRANCH  53  74
ATOM     74  C   UNL A   1      49.146  26.442  26.975  1.00  0.00     0.057 A 
ATOM     75  C   UNL A   1      49.644  26.573  25.673  1.00  0.00     0.134 A 
ATOM     76  C   UNL A   1      50.023  25.963  27.955  1.00  0.00     0.134 A 
ATOM     77  F   UNL A   1      48.847  27.009  24.686  1.00  0.00    -0.206 F 
ATOM     78  C   UNL A   1      50.955  26.217  25.352  1.00  0.00     0.040 A 
ATOM     79  C   UNL A   1      51.344  25.631  27.654  1.00  0.00     0.040 A 
ATOM     80  F   UNL A   1      49.610  25.823  29.224  1.00  0.00    -0.206 F 
ATOM     81  C   UNL A   1      51.810  25.748  26.346  1.00  0.00     0.006 A 
ENDBRANCH  53  74
BRANCH  65  82
ATOM     82  C   UNL A   1      46.097  32.194  29.425  1.00  0.00     0.057 A 
ATOM     83  C   UNL A   1      46.213  33.265  28.528  1.00  0.00     0.134 A 
ATOM     84  C   UNL A   1      46.515  32.410  30.744  1.00  0.00     0.134 A 
ATOM     85  F   UNL A   1      45.843  33.122  27.246  1.00  0.00    -0.206 F 
ATOM     86  C   UNL A   1      46.761  34.488  28.918  1.00  0.00     0.040 A 
ATOM     87  C   UNL A   1      47.033  33.639  31.155  1.00  0.00     0.040 A 
ATOM     88  F   UNL A   1      46.423  31.432  31.659  1.00  0.00    -0.206 F 
ATOM     89  C   UNL A   1      47.169  34.679  30.237  1.00  0.00     0.006 A 
ENDBRANCH  65  82
ENDBRANCH  39  40
ENDBRANCH  31  34
ENDBRANCH  29  30
ENDBRANCH  28  29
ENDBRANCH  27  28
ENDBRANCH  26  27
ENDBRANCH   3  26
TORSDOF 18
ENDMDL
MODEL 2
REMARK VINA RESULT:     -10.8      1.641      6.470
REMARK SMILES CC(C)(C)c1cc(NC(=O)CSC[C@H]([NH3+])C(=O)NCCCCNC(=O)c2ccc(-c3c4nc(c(-c5c(F)cccc5F)c5ccc([nH]5)c(-c5c(F)cccc5F)c5nc(c(-c6c(F)cccc6F)c6ccc3[nH]6)C=C5)C=C4)cc2)on1
REMARK SMILES IDX 16 1 17 2 18 3 14 5 13 6 12 7 11 8 9 9 8 10 10 12 7 13 5 14
REMARK SMILES IDX 6 15 81 16 80 17 2 18 1 19 3 20 4 21 15 22 19 26 20 27 21 28
REMARK SMILES IDX 22 29 23 30 24 31 25 33 26 34 27 35 79 36 28 37 78 38 29 39
REMARK SMILES IDX 30 40 31 41 72 42 32 43 77 44 71 45 73 46 33 47 76 48 70 49
REMARK SMILES IDX 69 50 34 52 60 53 43 54 59 55 44 56 47 57 58 58 74 59 45 60
REMARK SMILES IDX 46 61 57 63 75 64 48 65 35 66 36 67 41 68 37 69 38 70 40 71
REMARK SMILES IDX 42 72 39 73 61 74 62 75 67 76 63 77 64 78 66 79 68 80 65 81
REMARK SMILES IDX 49 82 50 83 55 84 51 85 52 86 54 87 56 88 53 89
REMARK H PARENT 18 4 8 11 15 23 15 24 15 25 23 32 73 51 47 62
REMARK Flexibility Score: inf
ROOT
ATOM      1  C   UNL A   1      36.747  23.552  25.862  1.00  0.00     0.279 C 
ATOM      2  O   UNL A   1      37.272  24.474  26.492  1.00  0.00    -0.268 OA
ATOM      3  N   UNL A   1      37.554  22.769  25.089  1.00  0.00    -0.351 N 
ATOM      4  H   UNL A   1      38.517  22.972  25.149  1.00  0.00     0.163 HD
ENDROOT
BRANCH   1   5
ATOM      5  C   UNL A   1      35.240  23.271  25.981  1.00  0.00     0.280 C 
BRANCH   5   6
ATOM      6  C   UNL A   1      34.449  24.503  25.514  1.00  0.00     0.145 C 
BRANCH   6   7
ATOM      7  S   UNL A   1      33.288  24.128  24.153  1.00  0.00    -0.145 SA
BRANCH   7   8
ATOM      8  C   UNL A   1      32.532  25.765  23.871  1.00  0.00     0.170 C 
BRANCH   8   9
ATOM      9  C   UNL A   1      33.099  26.492  22.666  1.00  0.00     0.236 C 
ATOM     10  N   UNL A   1      32.584  27.658  22.182  1.00  0.00    -0.294 N 
ATOM     11  H   UNL A   1      33.052  28.045  21.407  1.00  0.00     0.173 HD
ATOM     12  O   UNL A   1      34.100  26.039  22.094  1.00  0.00    -0.274 OA
BRANCH  10  13
ATOM     13  C   UNL A   1      31.502  28.363  22.635  1.00  0.00     0.231 A 
ATOM     14  C   UNL A   1      29.576  29.403  22.950  1.00  0.00     0.091 A 
ATOM     15  C   UNL A   1      30.257  28.513  22.077  1.00  0.00     0.097 A 
ATOM     16  N   UNL A   1      30.356  29.722  23.991  1.00  0.00    -0.082 NA
ATOM     17  O   UNL A   1      31.546  29.055  23.797  1.00  0.00    -0.338 OA
BRANCH  14  18
ATOM     18  C   UNL A   1      28.196  30.016  22.806  1.00  0.00     0.008 C 
ATOM     19  C   UNL A   1      27.942  30.486  21.358  1.00  0.00     0.018 C 
ATOM     20  C   UNL A   1      28.032  31.238  23.732  1.00  0.00     0.018 C 
ATOM     21  C   UNL A   1      27.126  28.969  23.178  1.00  0.00     0.018 C 
ENDBRANCH  14  18
ENDBRANCH  10  13
ENDBRANCH   8   9
ENDBRANCH   7   8
ENDBRANCH   6   7
ENDBRANCH   5   6
BRANCH   5  22
ATOM     22  N   UNL A   1      34.907  22.816  27.351  1.00  0.00    -0.347 N 
ATOM     23  H   UNL A   1      35.447  21.979  27.572  1.00  0.00     0.345 HD
ATOM     24  H   UNL A   1      33.911  22.601  27.406  1.00  0.00     0.345 HD
ATOM     25  H   UNL A   1      35.133  23.553  28.019  1.00  0.00     0.345 HD
ENDBRANCH   5  22
ENDBRANCH   1   5
BRANCH   3  26
ATOM     26  C   UNL A   1      37.207  21.681  24.192  1.00  0.00     0.116 C 
BRANCH  26  27
ATOM     27  C   UNL A   1      36.965  20.373  24.937  1.00  0.00     0.023 C 
BRANCH  27  28
ATOM     28  C   UNL A   1      38.151  19.409  24.936  1.00  0.00     0.023 C 
BRANCH  28  29
ATOM     29  C   UNL A   1      39.365  19.870  25.733  1.00  0.00     0.116 C 
BRANCH  29  30
ATOM     30  N   UNL A   1      40.424  18.875  25.787  1.00  0.00    -0.352 N 
ATOM     31  C   UNL A   1      41.760  19.036  26.058  1.00  0.00     0.251 C 
ATOM     32  H   UNL A   1      40.142  17.950  25.601  1.00  0.00     0.163 HD
ATOM     33  O   UNL A   1      42.533  18.090  25.929  1.00  0.00    -0.269 OA
BRANCH  31  34
ATOM     34  C   UNL A   1      42.278  20.358  26.471  1.00  0.00     0.039 A 
ATOM     35  C   UNL A   1      42.827  21.195  25.497  1.00  0.00     0.014 A 
ATOM     36  C   UNL A   1      42.219  20.778  27.803  1.00  0.00     0.014 A 
ATOM     37  C   UNL A   1      43.254  22.477  25.848  1.00  0.00     0.010 A 
ATOM     38  C   UNL A   1      42.566  22.084  28.134  1.00  0.00     0.010 A 
ATOM     39  C   UNL A   1      43.089  22.949  27.161  1.00  0.00    -0.014 A 
BRANCH  39  40
ATOM     40  C   UNL A   1      43.449  24.345  27.516  1.00  0.00     0.031 A 
ATOM     41  C   UNL A   1      44.881  24.804  27.472  1.00  0.00     0.074 A 
ATOM     42  C   UNL A   1      42.483  25.196  27.916  1.00  0.00     0.049 A 
ATOM     43  N   UNL A   1      45.378  25.986  27.740  1.00  0.00    -0.248 NA
ATOM     44  C   UNL A   1      45.890  23.800  27.102  1.00  0.00     0.031 C 
ATOM     45  C   UNL A   1      41.065  24.857  28.062  1.00  0.00     0.029 A 
ATOM     46  N   UNL A   1      42.545  26.520  28.271  1.00  0.00    -0.354 N 
ATOM     47  C   UNL A   1      46.752  25.864  27.578  1.00  0.00     0.074 A 
ATOM     48  C   UNL A   1      47.016  24.481  27.249  1.00  0.00     0.031 C 
ATOM     49  C   UNL A   1      40.388  25.953  28.439  1.00  0.00     0.029 A 
ATOM     50  C   UNL A   1      41.324  27.061  28.596  1.00  0.00     0.049 A 
ATOM     51  H   UNL A   1      43.385  27.033  28.292  1.00  0.00     0.167 HD
ATOM     52  C   UNL A   1      47.705  26.823  27.666  1.00  0.00     0.037 A 
ATOM     53  C   UNL A   1      40.996  28.310  28.975  1.00  0.00     0.037 A 
ATOM     54  C   UNL A   1      47.438  28.203  27.981  1.00  0.00     0.049 A 
ATOM     55  C   UNL A   1      42.072  29.356  29.066  1.00  0.00     0.074 A 
ATOM     56  C   UNL A   1      48.328  29.262  28.040  1.00  0.00     0.029 A 
ATOM     57  N   UNL A   1      46.188  28.715  28.297  1.00  0.00    -0.354 N 
ATOM     58  N   UNL A   1      43.357  29.245  28.830  1.00  0.00    -0.248 NA
ATOM     59  C   UNL A   1      41.648  30.704  29.465  1.00  0.00     0.031 C 
ATOM     60  C   UNL A   1      47.625  30.403  28.442  1.00  0.00     0.029 A 
ATOM     61  C   UNL A   1      46.287  30.070  28.576  1.00  0.00     0.049 A 
ATOM     62  H   UNL A   1      45.354  28.193  28.320  1.00  0.00     0.167 HD
ATOM     63  C   UNL A   1      43.891  30.512  29.027  1.00  0.00     0.074 A 
ATOM     64  C   UNL A   1      42.785  31.379  29.377  1.00  0.00     0.031 C 
ATOM     65  C   UNL A   1      45.180  30.920  28.929  1.00  0.00     0.037 A 
BRANCH  52  66
ATOM     66  C   UNL A   1      49.128  26.410  27.416  1.00  0.00     0.057 A 
ATOM     67  C   UNL A   1      49.982  26.029  28.460  1.00  0.00     0.134 A 
ATOM     68  C   UNL A   1      49.643  26.363  26.114  1.00  0.00     0.134 A 
ATOM     69  F   UNL A   1      49.557  26.062  29.733  1.00  0.00    -0.206 F 
ATOM     70  C   UNL A   1      51.303  25.644  28.222  1.00  0.00     0.040 A 
ATOM     71  C   UNL A   1      50.953  25.951  25.861  1.00  0.00     0.040 A 
ATOM     72  F   UNL A   1      48.881  26.709  25.067  1.00  0.00    -0.206 F 
ATOM     73  C   UNL A   1      51.790  25.598  26.918  1.00  0.00     0.006 A 
ENDBRANCH  52  66
BRANCH  53  74
ATOM     74  C   UNL A   1      39.580  28.652  29.267  1.00  0.00     0.057 A 
ATOM     75  C   UNL A   1      38.744  29.180  28.275  1.00  0.00     0.134 A 
ATOM     76  C   UNL A   1      39.032  28.471  30.543  1.00  0.00     0.134 A 
ATOM     77  F   UNL A   1      39.215  29.393  27.038  1.00  0.00    -0.206 F 
ATOM     78  C   UNL A   1      37.423  29.538  28.548  1.00  0.00     0.040 A 
ATOM     79  C   UNL A   1      37.705  28.799  30.821  1.00  0.00     0.040 A 
ATOM     80  F   UNL A   1      39.778  27.961  31.534  1.00  0.00    -0.206 F 
ATOM     81  C   UNL A   1      36.899  29.344  29.823  1.00  0.00     0.006 A 
ENDBRANCH  53  74
BRANCH  65  82
ATOM     82  C   UNL A   1      45.453  32.377  29.177  1.00  0.00     0.057 A 
ATOM     83  C   UNL A   1      45.388  33.330  28.151  1.00  0.00     0.134 A 
ATOM     84  C   UNL A   1      45.781  32.833  30.460  1.00  0.00     0.134 A 
ATOM     85  F   UNL A   1      45.091  32.960  26.896  1.00  0.00    -0.206 F 
ATOM     86  C   UNL A   1      45.678  34.676  28.385  1.00  0.00     0.040 A 
ATOM     87  C   UNL A   1      46.040  34.181  30.713  1.00  0.00     0.040 A 
ATOM     88  F   UNL A   1      45.850  31.977  31.491  1.00  0.00    -0.206 F 
ATOM     89  C   UNL A   1      46.001  35.104  29.671  1.00  0.00     0.006 A 
ENDBRANCH  65  82
ENDBRANCH  39  40
ENDBRANCH  31  34
ENDBRANCH  29  30
ENDBRANCH  28  29
ENDBRANCH  27  28
ENDBRANCH  26  27
ENDBRANCH   3  26
TORSDOF 18
ENDMDL
MODEL 3
REMARK VINA RESULT:     -10.7      4.712      9.567
REMARK SMILES CC(C)(C)c1cc(NC(=O)CSC[C@H]([NH3+])C(=O)NCCCCNC(=O)c2ccc(-c3c4nc(c(-c5c(F)cccc5F)c5ccc([nH]5)c(-c5c(F)cccc5F)c5nc(c(-c6c(F)cccc6F)c6ccc3[nH]6)C=C5)C=C4)cc2)on1
REMARK SMILES IDX 16 1 17 2 18 3 14 5 13 6 12 7 11 8 9 9 8 10 10 12 7 13 5 14
REMARK SMILES IDX 6 15 81 16 80 17 2 18 1 19 3 20 4 21 15 22 19 26 20 27 21 28
REMARK SMILES IDX 22 29 23 30 24 31 25 33 26 34 27 35 79 36 28 37 78 38 29 39
REMARK SMILES IDX 30 40 31 41 72 42 32 43 77 44 71 45 73 46 33 47 76 48 70 49
REMARK SMILES IDX 69 50 34 52 60 53 43 54 59 55 44 56 47 57 58 58 74 59 45 60
REMARK SMILES IDX 46 61 57 63 75 64 48 65 35 66 36 67 41 68 37 69 38 70 40 71
REMARK SMILES IDX 42 72 39 73 61 74 62 75 67 76 63 77 64 78 66 79 68 80 65 81
REMARK SMILES IDX 49 82 50 83 55 84 51 85 52 86 54 87 56 88 53 89
REMARK H PARENT 18 4 8 11 15 23 15 24 15 25 23 32 73 51 47 62
REMARK Flexibility Score: inf
ROOT
ATOM      1  C   UNL A   1      33.080  29.029  23.479  1.00  0.00     0.279 C 
ATOM      2  O   UNL A   1      34.072  28.944  22.750  1.00  0.00    -0.268 OA
ATOM      3  N   UNL A   1      33.263  29.486  24.752  1.00  0.00    -0.351 N 
ATOM      4  H   UNL A   1      34.181  29.775  24.966  1.00  0.00     0.163 HD
ENDROOT
BRANCH   1   5
ATOM      5  C   UNL A   1      31.680  28.671  22.954  1.00  0.00     0.280 C 
BRANCH   5   6
ATOM      6  C   UNL A   1      31.694  27.244  22.385  1.00  0.00     0.145 C 
BRANCH   6   7
ATOM      7  S   UNL A   1      30.786  26.052  23.432  1.00  0.00    -0.145 SA
BRANCH   7   8
ATOM      8  C   UNL A   1      31.963  25.817  24.805  1.00  0.00     0.170 C 
BRANCH   8   9
ATOM      9  C   UNL A   1      31.385  25.032  25.969  1.00  0.00     0.236 C 
ATOM     10  N   UNL A   1      31.947  23.888  26.455  1.00  0.00    -0.294 N 
ATOM     11  H   UNL A   1      31.489  23.481  27.226  1.00  0.00     0.173 HD
ATOM     12  O   UNL A   1      30.369  25.447  26.541  1.00  0.00    -0.274 OA
BRANCH  10  13
ATOM     13  C   UNL A   1      33.064  23.234  26.013  1.00  0.00     0.231 A 
ATOM     14  C   UNL A   1      35.065  22.596  25.320  1.00  0.00     0.091 A 
ATOM     15  C   UNL A   1      34.356  23.683  25.897  1.00  0.00     0.097 A 
ATOM     16  N   UNL A   1      34.250  21.546  25.150  1.00  0.00    -0.082 NA
ATOM     17  O   UNL A   1      33.011  21.946  25.602  1.00  0.00    -0.338 OA
BRANCH  14  18
ATOM     18  C   UNL A   1      36.511  22.529  24.867  1.00  0.00     0.008 C 
ATOM     19  C   UNL A   1      36.654  22.953  23.390  1.00  0.00     0.018 C 
ATOM     20  C   UNL A   1      37.069  21.098  25.001  1.00  0.00     0.018 C 
ATOM     21  C   UNL A   1      37.366  23.473  25.735  1.00  0.00     0.018 C 
ENDBRANCH  14  18
ENDBRANCH  10  13
ENDBRANCH   8   9
ENDBRANCH   7   8
ENDBRANCH   6   7
ENDBRANCH   5   6
BRANCH   5  22
ATOM     22  N   UNL A   1      31.208  29.703  22.002  1.00  0.00    -0.347 N 
ATOM     23  H   UNL A   1      31.656  30.594  22.217  1.00  0.00     0.345 HD
ATOM     24  H   UNL A   1      30.196  29.804  22.083  1.00  0.00     0.345 HD
ATOM     25  H   UNL A   1      31.447  29.423  21.051  1.00  0.00     0.345 HD
ENDBRANCH   5  22
ENDBRANCH   1   5
BRANCH   3  26
ATOM     26  C   UNL A   1      32.308  29.611  25.838  1.00  0.00     0.116 C 
BRANCH  26  27
ATOM     27  C   UNL A   1      31.404  30.828  25.676  1.00  0.00     0.023 C 
BRANCH  27  28
ATOM     28  C   UNL A   1      31.387  31.776  26.874  1.00  0.00     0.023 C 
BRANCH  28  29
ATOM     29  C   UNL A   1      32.651  32.607  27.065  1.00  0.00     0.116 C 
BRANCH  29  30
ATOM     30  N   UNL A   1      32.381  33.960  27.523  1.00  0.00    -0.352 N 
ATOM     31  C   UNL A   1      33.004  34.690  28.505  1.00  0.00     0.251 C 
ATOM     32  H   UNL A   1      31.642  34.421  27.062  1.00  0.00     0.163 HD
ATOM     33  O   UNL A   1      32.550  35.780  28.844  1.00  0.00    -0.269 OA
BRANCH  31  34
ATOM     34  C   UNL A   1      34.202  34.150  29.181  1.00  0.00     0.039 A 
ATOM     35  C   UNL A   1      34.027  33.295  30.271  1.00  0.00     0.014 A 
ATOM     36  C   UNL A   1      35.491  34.474  28.745  1.00  0.00     0.014 A 
ATOM     37  C   UNL A   1      35.140  32.712  30.879  1.00  0.00     0.010 A 
ATOM     38  C   UNL A   1      36.593  33.827  29.297  1.00  0.00     0.010 A 
ATOM     39  C   UNL A   1      36.431  32.940  30.372  1.00  0.00    -0.014 A 
BRANCH  39  40
ATOM     40  C   UNL A   1      37.607  32.244  30.952  1.00  0.00     0.031 A 
ATOM     41  C   UNL A   1      38.154  32.649  32.294  1.00  0.00     0.074 A 
ATOM     42  C   UNL A   1      38.210  31.266  30.249  1.00  0.00     0.049 A 
ATOM     43  N   UNL A   1      39.167  32.150  32.958  1.00  0.00    -0.248 NA
ATOM     44  C   UNL A   1      37.494  33.777  32.969  1.00  0.00     0.031 C 
ATOM     45  C   UNL A   1      37.817  30.822  28.909  1.00  0.00     0.029 A 
ATOM     46  N   UNL A   1      39.280  30.466  30.561  1.00  0.00    -0.354 N 
ATOM     47  C   UNL A   1      39.267  32.905  34.120  1.00  0.00     0.074 A 
ATOM     48  C   UNL A   1      38.253  33.933  34.042  1.00  0.00     0.031 C 
ATOM     49  C   UNL A   1      38.609  29.806  28.533  1.00  0.00     0.029 A 
ATOM     50  C   UNL A   1      39.587  29.549  29.584  1.00  0.00     0.049 A 
ATOM     51  H   UNL A   1      39.781  30.542  31.406  1.00  0.00     0.167 HD
ATOM     52  C   UNL A   1      40.107  32.738  35.169  1.00  0.00     0.037 A 
ATOM     53  C   UNL A   1      40.546  28.606  29.542  1.00  0.00     0.037 A 
ATOM     54  C   UNL A   1      41.107  31.705  35.251  1.00  0.00     0.049 A 
ATOM     55  C   UNL A   1      41.467  28.443  30.720  1.00  0.00     0.074 A 
ATOM     56  C   UNL A   1      41.970  31.420  36.295  1.00  0.00     0.029 A 
ATOM     57  N   UNL A   1      41.384  30.791  34.244  1.00  0.00    -0.354 N 
ATOM     58  N   UNL A   1      41.497  29.112  31.848  1.00  0.00    -0.248 NA
ATOM     59  C   UNL A   1      42.480  27.384  30.622  1.00  0.00     0.031 C 
ATOM     60  C   UNL A   1      42.802  30.366  35.900  1.00  0.00     0.029 A 
ATOM     61  C   UNL A   1      42.420  29.957  34.634  1.00  0.00     0.049 A 
ATOM     62  H   UNL A   1      40.913  30.743  33.381  1.00  0.00     0.167 HD
ATOM     63  C   UNL A   1      42.512  28.539  32.603  1.00  0.00     0.074 A 
ATOM     64  C   UNL A   1      43.056  27.453  31.813  1.00  0.00     0.031 C 
ATOM     65  C   UNL A   1      42.956  28.883  33.836  1.00  0.00     0.037 A 
BRANCH  52  66
ATOM     66  C   UNL A   1      39.978  33.699  36.318  1.00  0.00     0.057 A 
ATOM     67  C   UNL A   1      40.701  34.898  36.365  1.00  0.00     0.134 A 
ATOM     68  C   UNL A   1      39.097  33.437  37.376  1.00  0.00     0.134 A 
ATOM     69  F   UNL A   1      41.572  35.206  35.391  1.00  0.00    -0.206 F 
ATOM     70  C   UNL A   1      40.576  35.788  37.434  1.00  0.00     0.040 A 
ATOM     71  C   UNL A   1      38.941  34.334  38.435  1.00  0.00     0.040 A 
ATOM     72  F   UNL A   1      38.369  32.311  37.394  1.00  0.00    -0.206 F 
ATOM     73  C   UNL A   1      39.688  35.509  38.470  1.00  0.00     0.006 A 
ENDBRANCH  52  66
BRANCH  53  74
ATOM     74  C   UNL A   1      40.668  27.720  28.356  1.00  0.00     0.057 A 
ATOM     75  C   UNL A   1      40.019  26.480  28.310  1.00  0.00     0.134 A 
ATOM     76  C   UNL A   1      41.444  28.083  27.248  1.00  0.00     0.134 A 
ATOM     77  F   UNL A   1      39.277  26.068  29.348  1.00  0.00    -0.206 F 
ATOM     78  C   UNL A   1      40.156  25.624  27.217  1.00  0.00     0.040 A 
ATOM     79  C   UNL A   1      41.565  27.249  26.137  1.00  0.00     0.040 A 
ATOM     80  F   UNL A   1      42.084  29.262  27.226  1.00  0.00    -0.206 F 
ATOM     81  C   UNL A   1      40.928  26.009  26.124  1.00  0.00     0.006 A 
ENDBRANCH  53  74
BRANCH  65  82
ATOM     82  C   UNL A   1      44.066  28.052  34.416  1.00  0.00     0.057 A 
ATOM     83  C   UNL A   1      45.414  28.401  34.258  1.00  0.00     0.134 A 
ATOM     84  C   UNL A   1      43.782  26.891  35.145  1.00  0.00     0.134 A 
ATOM     85  F   UNL A   1      45.758  29.495  33.560  1.00  0.00    -0.206 F 
ATOM     86  C   UNL A   1      46.440  27.604  34.770  1.00  0.00     0.040 A 
ATOM     87  C   UNL A   1      44.797  26.103  35.691  1.00  0.00     0.040 A 
ATOM     88  F   UNL A   1      42.513  26.504  35.345  1.00  0.00    -0.206 F 
ATOM     89  C   UNL A   1      46.131  26.453  35.493  1.00  0.00     0.006 A 
ENDBRANCH  65  82
ENDBRANCH  39  40
ENDBRANCH  31  34
ENDBRANCH  29  30
ENDBRANCH  28  29
ENDBRANCH  27  28
ENDBRANCH  26  27
ENDBRANCH   3  26
TORSDOF 18
ENDMDL
