MODEL 1
REMARK VINA RESULT:     -12.8      0.000      0.000
REMARK SMILES O=C(NCCCCNC(=O)c1ccc(-c2c3nc(c(-c4c(F)cccc4F)c4ccc([nH]4)c(-c4c(F)cccc4F)c4nc(c(-c5c(F)cccc5F)c5ccc2[nH]5)C=C4)C=C3)cc1)C1=Cc2cc(Cl)cc(C#Cc3ccccc3)c2O[C@@H]1C(F)(F)F
REMARK SMILES IDX 5 1 4 2 3 3 1 4 2 5 65 7 66 8 83 9 67 10 82 11 68 12 81 13
REMARK SMILES IDX 69 14 72 15 70 16 71 17 84 18 85 19 86 20 87 21 73 22 74 23
REMARK SMILES IDX 75 24 76 25 80 26 77 27 79 28 78 29 6 30 7 31 8 32 9 33
REMARK SMILES IDX 10 35 11 36 12 37 64 38 13 39 63 40 14 41 15 42 16 43 57 44
REMARK SMILES IDX 17 45 62 46 56 47 58 48 18 49 61 50 55 51 54 52 19 54 45 55
REMARK SMILES IDX 28 56 44 57 29 58 32 59 43 60 59 61 30 62 31 63 42 65 60 66
REMARK SMILES IDX 33 67 20 68 21 69 26 70 22 71 23 72 25 73 27 74 24 75 46 76
REMARK SMILES IDX 47 77 52 78 48 79 49 80 51 81 53 82 50 83 34 84 35 85 40 86
REMARK SMILES IDX 36 87 37 88 39 89 41 90 38 91
REMARK H PARENT 3 6 8 34 58 53 32 64
REMARK Flexibility Score: inf
ROOT
ATOM      1  C   UNL A   1      34.958  21.718  26.833  1.00  0.00     0.023 C 
ENDROOT
BRANCH   1   2
ATOM      2  C   UNL A   1      33.469  21.417  26.779  1.00  0.00     0.116 C 
BRANCH   2   3
ATOM      3  N   UNL A   1      32.574  22.441  27.273  1.00  0.00    -0.352 N 
ATOM      4  O   UNL A   1      30.915  23.945  27.172  1.00  0.00    -0.270 OA
ATOM      5  C   UNL A   1      31.780  23.307  26.570  1.00  0.00     0.251 C 
ATOM      6  H   UNL A   1      32.531  22.527  28.253  1.00  0.00     0.163 HD
BRANCH   5   7
ATOM      7  C   UNL A   1      31.845  23.451  25.079  1.00  0.00     0.067 C 
ATOM      8  C   UNL A   1      30.780  23.712  24.298  1.00  0.00     0.025 C 
ATOM      9  C   UNL A   1      33.181  23.996  24.625  1.00  0.00     0.314 C 
ATOM     10  C   UNL A   1      30.771  25.145  23.863  1.00  0.00     0.020 A 
ATOM     11  O   UNL A   1      33.108  25.446  24.502  1.00  0.00    -0.474 OA
ATOM     12  C   UNL A   1      29.526  25.704  23.541  1.00  0.00     0.032 A 
ATOM     13  C   UNL A   1      31.872  25.970  24.184  1.00  0.00     0.143 A 
ATOM     14  C   UNL A   1      29.347  27.079  23.668  1.00  0.00     0.043 A 
ATOM     15  C   UNL A   1      31.657  27.345  24.365  1.00  0.00     0.069 A 
ATOM     16  Cl  UNL A   1      27.770  27.743  23.501  1.00  0.00    -0.084 Cl
ATOM     17  C   UNL A   1      30.393  27.894  24.098  1.00  0.00     0.041 A 
BRANCH   9  18
ATOM     18  C   UNL A   1      33.686  23.298  23.348  1.00  0.00     0.429 C 
ATOM     19  F   UNL A   1      35.031  23.371  23.235  1.00  0.00    -0.167 F 
ATOM     20  F   UNL A   1      33.362  21.981  23.350  1.00  0.00    -0.167 F 
ATOM     21  F   UNL A   1      33.158  23.828  22.218  1.00  0.00    -0.167 F 
ENDBRANCH   9  18
BRANCH  15  22
ATOM     22  C   UNL A   1      32.589  28.176  25.075  1.00  0.00    -0.058 C 
ATOM     23  C   UNL A   1      33.244  28.861  25.813  1.00  0.00    -0.062 C 
BRANCH  23  24
ATOM     24  C   UNL A   1      33.921  29.725  26.735  1.00  0.00     0.025 A 
ATOM     25  C   UNL A   1      35.159  29.332  27.253  1.00  0.00     0.017 A 
ATOM     26  C   UNL A   1      33.370  30.951  27.118  1.00  0.00     0.017 A 
ATOM     27  C   UNL A   1      35.823  30.139  28.179  1.00  0.00     0.001 A 
ATOM     28  C   UNL A   1      34.037  31.759  28.045  1.00  0.00     0.001 A 
ATOM     29  C   UNL A   1      35.258  31.347  28.582  1.00  0.00     0.000 A 
ENDBRANCH  23  24
ENDBRANCH  15  22
ENDBRANCH   5   7
ENDBRANCH   2   3
ENDBRANCH   1   2
BRANCH   1  30
ATOM     30  C   UNL A   1      35.764  21.234  25.638  1.00  0.00     0.023 C 
BRANCH  30  31
ATOM     31  C   UNL A   1      37.116  21.906  25.402  1.00  0.00     0.116 C 
BRANCH  31  32
ATOM     32  N   UNL A   1      38.278  21.027  25.451  1.00  0.00    -0.352 N 
ATOM     33  C   UNL A   1      39.471  21.235  26.118  1.00  0.00     0.251 C 
ATOM     34  H   UNL A   1      38.205  20.184  24.948  1.00  0.00     0.163 HD
ATOM     35  O   UNL A   1      40.352  20.383  26.128  1.00  0.00    -0.269 OA
BRANCH  33  36
ATOM     36  C   UNL A   1      39.705  22.551  26.748  1.00  0.00     0.039 A 
ATOM     37  C   UNL A   1      40.658  22.633  27.764  1.00  0.00     0.014 A 
ATOM     38  C   UNL A   1      39.129  23.706  26.212  1.00  0.00     0.014 A 
ATOM     39  C   UNL A   1      41.140  23.885  28.149  1.00  0.00     0.010 A 
ATOM     40  C   UNL A   1      39.674  24.945  26.534  1.00  0.00     0.010 A 
ATOM     41  C   UNL A   1      40.709  25.043  27.481  1.00  0.00    -0.014 A 
BRANCH  41  42
ATOM     42  C   UNL A   1      41.383  26.347  27.713  1.00  0.00     0.031 A 
ATOM     43  C   UNL A   1      42.779  26.578  27.216  1.00  0.00     0.074 A 
ATOM     44  C   UNL A   1      40.760  27.300  28.436  1.00  0.00     0.049 A 
ATOM     45  N   UNL A   1      43.546  27.627  27.365  1.00  0.00    -0.248 NA
ATOM     46  C   UNL A   1      43.404  25.475  26.472  1.00  0.00     0.031 C 
ATOM     47  C   UNL A   1      39.423  27.179  29.022  1.00  0.00     0.029 A 
ATOM     48  N   UNL A   1      41.170  28.556  28.812  1.00  0.00    -0.354 N 
ATOM     49  C   UNL A   1      44.743  27.310  26.738  1.00  0.00     0.074 A 
ATOM     50  C   UNL A   1      44.622  25.950  26.262  1.00  0.00     0.031 C 
ATOM     51  C   UNL A   1      39.117  28.317  29.665  1.00  0.00     0.029 A 
ATOM     52  C   UNL A   1      40.252  29.231  29.580  1.00  0.00     0.049 A 
ATOM     53  H   UNL A   1      42.042  28.937  28.556  1.00  0.00     0.167 HD
ATOM     54  C   UNL A   1      45.836  28.090  26.558  1.00  0.00     0.037 A 
ATOM     55  C   UNL A   1      40.319  30.443  30.167  1.00  0.00     0.037 A 
ATOM     56  C   UNL A   1      45.952  29.442  27.038  1.00  0.00     0.049 A 
ATOM     57  C   UNL A   1      41.556  31.278  29.983  1.00  0.00     0.074 A 
ATOM     58  C   UNL A   1      46.995  30.333  26.858  1.00  0.00     0.029 A 
ATOM     59  N   UNL A   1      44.999  30.092  27.810  1.00  0.00    -0.354 N 
ATOM     60  N   UNL A   1      42.648  30.998  29.314  1.00  0.00    -0.248 NA
ATOM     61  C   UNL A   1      41.571  32.596  30.633  1.00  0.00     0.031 C 
ATOM     62  C   UNL A   1      46.704  31.496  27.579  1.00  0.00     0.029 A 
ATOM     63  C   UNL A   1      45.449  31.358  28.150  1.00  0.00     0.049 A 
ATOM     64  H   UNL A   1      44.132  29.711  28.076  1.00  0.00     0.167 HD
ATOM     65  C   UNL A   1      43.472  32.109  29.445  1.00  0.00     0.074 A 
ATOM     66  C   UNL A   1      42.744  33.076  30.242  1.00  0.00     0.031 C 
ATOM     67  C   UNL A   1      44.719  32.309  28.950  1.00  0.00     0.037 A 
BRANCH  54  68
ATOM     68  C   UNL A   1      46.997  27.484  25.822  1.00  0.00     0.057 A 
ATOM     69  C   UNL A   1      47.127  27.577  24.429  1.00  0.00     0.134 A 
ATOM     70  C   UNL A   1      48.005  26.804  26.517  1.00  0.00     0.134 A 
ATOM     71  F   UNL A   1      46.192  28.205  23.700  1.00  0.00    -0.206 F 
ATOM     72  C   UNL A   1      48.192  26.981  23.751  1.00  0.00     0.040 A 
ATOM     73  C   UNL A   1      49.094  26.233  25.854  1.00  0.00     0.040 A 
ATOM     74  F   UNL A   1      47.951  26.682  27.852  1.00  0.00    -0.206 F 
ATOM     75  C   UNL A   1      49.183  26.311  24.466  1.00  0.00     0.006 A 
ENDBRANCH  54  68
BRANCH  55  76
ATOM     76  C   UNL A   1      39.180  30.933  30.988  1.00  0.00     0.057 A 
ATOM     77  C   UNL A   1      38.983  30.490  32.301  1.00  0.00     0.134 A 
ATOM     78  C   UNL A   1      38.262  31.860  30.478  1.00  0.00     0.134 A 
ATOM     79  F   UNL A   1      39.815  29.587  32.841  1.00  0.00    -0.206 F 
ATOM     80  C   UNL A   1      37.909  30.939  33.072  1.00  0.00     0.040 A 
ATOM     81  C   UNL A   1      37.200  32.340  31.247  1.00  0.00     0.040 A 
ATOM     82  F   UNL A   1      38.396  32.329  29.229  1.00  0.00    -0.206 F 
ATOM     83  C   UNL A   1      37.017  31.873  32.547  1.00  0.00     0.006 A 
ENDBRANCH  55  76
BRANCH  67  84
ATOM     84  C   UNL A   1      45.372  33.631  29.239  1.00  0.00     0.057 A 
ATOM     85  C   UNL A   1      46.246  33.806  30.320  1.00  0.00     0.134 A 
ATOM     86  C   UNL A   1      45.169  34.727  28.389  1.00  0.00     0.134 A 
ATOM     87  F   UNL A   1      46.474  32.801  31.179  1.00  0.00    -0.206 F 
ATOM     88  C   UNL A   1      46.878  35.028  30.557  1.00  0.00     0.040 A 
ATOM     89  C   UNL A   1      45.820  35.944  28.597  1.00  0.00     0.040 A 
ATOM     90  F   UNL A   1      44.353  34.627  27.330  1.00  0.00    -0.206 F 
ATOM     91  C   UNL A   1      46.673  36.099  29.688  1.00  0.00     0.006 A 
ENDBRANCH  67  84
ENDBRANCH  41  42
ENDBRANCH  33  36
ENDBRANCH  31  32
ENDBRANCH  30  31
ENDBRANCH   1  30
TORSDOF 14
ENDMDL
MODEL 2
REMARK VINA RESULT:     -12.5      0.522      6.058
REMARK SMILES O=C(NCCCCNC(=O)c1ccc(-c2c3nc(c(-c4c(F)cccc4F)c4ccc([nH]4)c(-c4c(F)cccc4F)c4nc(c(-c5c(F)cccc5F)c5ccc2[nH]5)C=C4)C=C3)cc1)C1=Cc2cc(Cl)cc(C#Cc3ccccc3)c2O[C@@H]1C(F)(F)F
REMARK SMILES IDX 5 1 4 2 3 3 1 4 2 5 65 7 66 8 83 9 67 10 82 11 68 12 81 13
REMARK SMILES IDX 69 14 72 15 70 16 71 17 84 18 85 19 86 20 87 21 73 22 74 23
REMARK SMILES IDX 75 24 76 25 80 26 77 27 79 28 78 29 6 30 7 31 8 32 9 33
REMARK SMILES IDX 10 35 11 36 12 37 64 38 13 39 63 40 14 41 15 42 16 43 57 44
REMARK SMILES IDX 17 45 62 46 56 47 58 48 18 49 61 50 55 51 54 52 19 54 45 55
REMARK SMILES IDX 28 56 44 57 29 58 32 59 43 60 59 61 30 62 31 63 42 65 60 66
REMARK SMILES IDX 33 67 20 68 21 69 26 70 22 71 23 72 25 73 27 74 24 75 46 76
REMARK SMILES IDX 47 77 52 78 48 79 49 80 51 81 53 82 50 83 34 84 35 85 40 86
REMARK SMILES IDX 36 87 37 88 39 89 41 90 38 91
REMARK H PARENT 3 6 8 34 58 53 32 64
REMARK Flexibility Score: inf
ROOT
ATOM      1  C   UNL A   1      35.028  21.708  26.514  1.00  0.00     0.023 C 
ENDROOT
BRANCH   1   2
ATOM      2  C   UNL A   1      33.602  21.185  26.587  1.00  0.00     0.116 C 
BRANCH   2   3
ATOM      3  N   UNL A   1      32.599  22.087  27.111  1.00  0.00    -0.352 N 
ATOM      4  O   UNL A   1      30.865  23.505  27.029  1.00  0.00    -0.270 OA
ATOM      5  C   UNL A   1      31.824  22.998  26.445  1.00  0.00     0.251 C 
ATOM      6  H   UNL A   1      32.453  22.038  28.083  1.00  0.00     0.163 HD
BRANCH   5   7
ATOM      7  C   UNL A   1      32.028  23.346  25.001  1.00  0.00     0.067 C 
ATOM      8  C   UNL A   1      31.028  23.622  24.143  1.00  0.00     0.025 C 
ATOM      9  C   UNL A   1      33.345  24.055  24.773  1.00  0.00     0.314 C 
ATOM     10  C   UNL A   1      30.927  25.095  23.891  1.00  0.00     0.020 A 
ATOM     11  O   UNL A   1      33.147  25.497  24.824  1.00  0.00    -0.474 OA
ATOM     12  C   UNL A   1      29.674  25.589  23.502  1.00  0.00     0.032 A 
ATOM     13  C   UNL A   1      31.905  25.956  24.435  1.00  0.00     0.143 A 
ATOM     14  C   UNL A   1      29.352  26.915  23.778  1.00  0.00     0.043 A 
ATOM     15  C   UNL A   1      31.543  27.272  24.760  1.00  0.00     0.069 A 
ATOM     16  Cl  UNL A   1      27.744  27.465  23.516  1.00  0.00    -0.084 Cl
ATOM     17  C   UNL A   1      30.267  27.748  24.421  1.00  0.00     0.041 A 
BRANCH   9  18
ATOM     18  C   UNL A   1      34.042  23.577  23.484  1.00  0.00     0.429 C 
ATOM     19  F   UNL A   1      35.386  23.698  23.567  1.00  0.00    -0.167 F 
ATOM     20  F   UNL A   1      33.779  22.269  23.242  1.00  0.00    -0.167 F 
ATOM     21  F   UNL A   1      33.643  24.266  22.388  1.00  0.00    -0.167 F 
ENDBRANCH   9  18
BRANCH  15  22
ATOM     22  C   UNL A   1      32.314  28.074  25.669  1.00  0.00    -0.058 C 
ATOM     23  C   UNL A   1      32.965  28.871  26.289  1.00  0.00    -0.062 C 
BRANCH  23  24
ATOM     24  C   UNL A   1      33.798  29.850  26.923  1.00  0.00     0.025 A 
ATOM     25  C   UNL A   1      33.257  31.096  27.251  1.00  0.00     0.017 A 
ATOM     26  C   UNL A   1      35.136  29.577  27.225  1.00  0.00     0.017 A 
ATOM     27  C   UNL A   1      34.056  32.079  27.838  1.00  0.00     0.001 A 
ATOM     28  C   UNL A   1      35.935  30.562  27.815  1.00  0.00     0.001 A 
ATOM     29  C   UNL A   1      35.396  31.815  28.111  1.00  0.00     0.000 A 
ENDBRANCH  23  24
ENDBRANCH  15  22
ENDBRANCH   5   7
ENDBRANCH   2   3
ENDBRANCH   1   2
BRANCH   1  30
ATOM     30  C   UNL A   1      35.920  21.027  25.488  1.00  0.00     0.023 C 
BRANCH  30  31
ATOM     31  C   UNL A   1      37.317  21.614  25.295  1.00  0.00     0.116 C 
BRANCH  31  32
ATOM     32  N   UNL A   1      38.421  20.664  25.375  1.00  0.00    -0.352 N 
ATOM     33  C   UNL A   1      39.592  20.785  26.099  1.00  0.00     0.251 C 
ATOM     34  H   UNL A   1      38.320  19.837  24.851  1.00  0.00     0.163 HD
ATOM     35  O   UNL A   1      40.418  19.880  26.129  1.00  0.00    -0.269 OA
BRANCH  33  36
ATOM     36  C   UNL A   1      39.877  22.072  26.767  1.00  0.00     0.039 A 
ATOM     37  C   UNL A   1      40.820  22.084  27.796  1.00  0.00     0.014 A 
ATOM     38  C   UNL A   1      39.360  23.265  26.256  1.00  0.00     0.014 A 
ATOM     39  C   UNL A   1      41.352  23.302  28.220  1.00  0.00     0.010 A 
ATOM     40  C   UNL A   1      39.955  24.470  26.619  1.00  0.00     0.010 A 
ATOM     41  C   UNL A   1      40.982  24.495  27.579  1.00  0.00    -0.014 A 
BRANCH  41  42
ATOM     42  C   UNL A   1      41.710  25.762  27.855  1.00  0.00     0.031 A 
ATOM     43  C   UNL A   1      41.055  26.856  28.644  1.00  0.00     0.074 A 
ATOM     44  C   UNL A   1      42.938  25.951  27.332  1.00  0.00     0.049 A 
ATOM     45  N   UNL A   1      41.511  28.045  28.943  1.00  0.00    -0.248 NA
ATOM     46  C   UNL A   1      39.700  26.586  29.145  1.00  0.00     0.031 C 
ATOM     47  C   UNL A   1      43.663  24.987  26.501  1.00  0.00     0.029 A 
ATOM     48  N   UNL A   1      43.794  27.024  27.411  1.00  0.00    -0.354 N 
ATOM     49  C   UNL A   1      40.499  28.667  29.661  1.00  0.00     0.074 A 
ATOM     50  C   UNL A   1      39.384  27.746  29.701  1.00  0.00     0.031 C 
ATOM     51  C   UNL A   1      44.856  25.502  26.164  1.00  0.00     0.029 A 
ATOM     52  C   UNL A   1      44.964  26.851  26.712  1.00  0.00     0.049 A 
ATOM     53  H   UNL A   1      43.587  27.842  27.919  1.00  0.00     0.167 HD
ATOM     54  C   UNL A   1      40.507  29.885  30.253  1.00  0.00     0.037 A 
ATOM     55  C   UNL A   1      46.003  27.687  26.517  1.00  0.00     0.037 A 
ATOM     56  C   UNL A   1      41.618  30.798  30.207  1.00  0.00     0.049 A 
ATOM     57  C   UNL A   1      45.976  29.049  27.153  1.00  0.00     0.074 A 
ATOM     58  C   UNL A   1      41.745  32.032  30.820  1.00  0.00     0.029 A 
ATOM     59  N   UNL A   1      42.789  30.585  29.491  1.00  0.00    -0.354 N 
ATOM     60  N   UNL A   1      45.047  29.591  27.903  1.00  0.00    -0.248 NA
ATOM     61  C   UNL A   1      47.139  29.917  26.919  1.00  0.00     0.031 C 
ATOM     62  C   UNL A   1      42.961  32.596  30.419  1.00  0.00     0.029 A 
ATOM     63  C   UNL A   1      43.624  31.684  29.613  1.00  0.00     0.049 A 
ATOM     64  H   UNL A   1      42.995  29.774  28.974  1.00  0.00     0.167 HD
ATOM     65  C   UNL A   1      45.518  30.851  28.247  1.00  0.00     0.074 A 
ATOM     66  C   UNL A   1      46.827  30.986  27.638  1.00  0.00     0.031 C 
ATOM     67  C   UNL A   1      44.922  31.810  28.997  1.00  0.00     0.037 A 
BRANCH  54  68
ATOM     68  C   UNL A   1      39.262  30.300  30.985  1.00  0.00     0.057 A 
ATOM     69  C   UNL A   1      38.341  31.202  30.434  1.00  0.00     0.134 A 
ATOM     70  C   UNL A   1      38.977  29.785  32.256  1.00  0.00     0.134 A 
ATOM     71  F   UNL A   1      38.557  31.742  29.226  1.00  0.00    -0.206 F 
ATOM     72  C   UNL A   1      37.204  31.608  31.137  1.00  0.00     0.040 A 
ATOM     73  C   UNL A   1      37.826  30.157  32.954  1.00  0.00     0.040 A 
ATOM     74  F   UNL A   1      39.810  28.912  32.841  1.00  0.00    -0.206 F 
ATOM     75  C   UNL A   1      36.942  31.080  32.399  1.00  0.00     0.006 A 
ENDBRANCH  54  68
BRANCH  55  76
ATOM     76  C   UNL A   1      47.151  27.259  25.674  1.00  0.00     0.057 A 
ATOM     77  C   UNL A   1      47.200  27.546  24.305  1.00  0.00     0.134 A 
ATOM     78  C   UNL A   1      48.231  26.554  26.222  1.00  0.00     0.134 A 
ATOM     79  F   UNL A   1      46.188  28.200  23.716  1.00  0.00    -0.206 F 
ATOM     80  C   UNL A   1      48.271  27.137  23.509  1.00  0.00     0.040 A 
ATOM     81  C   UNL A   1      49.323  26.164  25.444  1.00  0.00     0.040 A 
ATOM     82  F   UNL A   1      48.251  26.253  27.528  1.00  0.00    -0.206 F 
ATOM     83  C   UNL A   1      49.341  26.449  24.080  1.00  0.00     0.006 A 
ENDBRANCH  55  76
BRANCH  67  84
ATOM     84  C   UNL A   1      45.683  33.086  29.222  1.00  0.00     0.057 A 
ATOM     85  C   UNL A   1      45.521  34.202  28.391  1.00  0.00     0.134 A 
ATOM     86  C   UNL A   1      46.547  33.217  30.317  1.00  0.00     0.134 A 
ATOM     87  F   UNL A   1      44.718  34.140  27.317  1.00  0.00    -0.206 F 
ATOM     88  C   UNL A   1      46.204  35.396  28.630  1.00  0.00     0.040 A 
ATOM     89  C   UNL A   1      47.212  34.415  30.585  1.00  0.00     0.040 A 
ATOM     90  F   UNL A   1      46.743  32.191  31.158  1.00  0.00    -0.206 F 
ATOM     91  C   UNL A   1      47.045  35.507  29.736  1.00  0.00     0.006 A 
ENDBRANCH  67  84
ENDBRANCH  41  42
ENDBRANCH  33  36
ENDBRANCH  31  32
ENDBRANCH  30  31
ENDBRANCH   1  30
TORSDOF 14
ENDMDL
MODEL 3
REMARK VINA RESULT:     -12.2      5.037     10.387
REMARK SMILES O=C(NCCCCNC(=O)c1ccc(-c2c3nc(c(-c4c(F)cccc4F)c4ccc([nH]4)c(-c4c(F)cccc4F)c4nc(c(-c5c(F)cccc5F)c5ccc2[nH]5)C=C4)C=C3)cc1)C1=Cc2cc(Cl)cc(C#Cc3ccccc3)c2O[C@@H]1C(F)(F)F
REMARK SMILES IDX 5 1 4 2 3 3 1 4 2 5 65 7 66 8 83 9 67 10 82 11 68 12 81 13
REMARK SMILES IDX 69 14 72 15 70 16 71 17 84 18 85 19 86 20 87 21 73 22 74 23
REMARK SMILES IDX 75 24 76 25 80 26 77 27 79 28 78 29 6 30 7 31 8 32 9 33
REMARK SMILES IDX 10 35 11 36 12 37 64 38 13 39 63 40 14 41 15 42 16 43 57 44
REMARK SMILES IDX 17 45 62 46 56 47 58 48 18 49 61 50 55 51 54 52 19 54 45 55
REMARK SMILES IDX 28 56 44 57 29 58 32 59 43 60 59 61 30 62 31 63 42 65 60 66
REMARK SMILES IDX 33 67 20 68 21 69 26 70 22 71 23 72 25 73 27 74 24 75 46 76
REMARK SMILES IDX 47 77 52 78 48 79 49 80 51 81 53 82 50 83 34 84 35 85 40 86
REMARK SMILES IDX 36 87 37 88 39 89 41 90 38 91
REMARK H PARENT 3 6 8 34 58 53 32 64
REMARK Flexibility Score: inf
ROOT
ATOM      1  C   UNL A   1      34.829  32.280  30.630  1.00  0.00     0.023 C 
ENDROOT
BRANCH   1   2
ATOM      2  C   UNL A   1      34.528  32.983  31.943  1.00  0.00     0.116 C 
BRANCH   2   3
ATOM      3  N   UNL A   1      35.223  32.503  33.118  1.00  0.00    -0.352 N 
ATOM      4  O   UNL A   1      36.798  32.491  34.713  1.00  0.00    -0.270 OA
ATOM      5  C   UNL A   1      36.475  32.822  33.572  1.00  0.00     0.251 C 
ATOM      6  H   UNL A   1      34.726  31.856  33.669  1.00  0.00     0.163 HD
BRANCH   5   7
ATOM      7  C   UNL A   1      37.448  33.642  32.780  1.00  0.00     0.067 C 
ATOM      8  C   UNL A   1      38.126  34.695  33.274  1.00  0.00     0.025 C 
ATOM      9  C   UNL A   1      38.136  32.821  31.712  1.00  0.00     0.314 C 
ATOM     10  C   UNL A   1      39.549  34.330  33.564  1.00  0.00     0.020 A 
ATOM     11  O   UNL A   1      39.394  32.296  32.224  1.00  0.00    -0.474 OA
ATOM     12  C   UNL A   1      40.209  35.080  34.548  1.00  0.00     0.032 A 
ATOM     13  C   UNL A   1      40.024  33.054  33.190  1.00  0.00     0.143 A 
ATOM     14  C   UNL A   1      41.265  34.501  35.249  1.00  0.00     0.043 A 
ATOM     15  C   UNL A   1      41.049  32.464  33.946  1.00  0.00     0.069 A 
ATOM     16  Cl  UNL A   1      41.928  35.322  36.606  1.00  0.00    -0.084 Cl
ATOM     17  C   UNL A   1      41.670  33.196  34.969  1.00  0.00     0.041 A 
BRANCH   9  18
ATOM     18  C   UNL A   1      38.291  33.604  30.393  1.00  0.00     0.429 C 
ATOM     19  F   UNL A   1      38.257  32.785  29.317  1.00  0.00    -0.167 F 
ATOM     20  F   UNL A   1      37.287  34.502  30.236  1.00  0.00    -0.167 F 
ATOM     21  F   UNL A   1      39.452  34.300  30.330  1.00  0.00    -0.167 F 
ENDBRANCH   9  18
BRANCH  15  22
ATOM     22  C   UNL A   1      41.307  31.051  33.910  1.00  0.00    -0.058 C 
ATOM     23  C   UNL A   1      41.688  29.913  33.965  1.00  0.00    -0.062 C 
BRANCH  23  24
ATOM     24  C   UNL A   1      42.255  28.598  34.010  1.00  0.00     0.025 A 
ATOM     25  C   UNL A   1      41.718  27.654  34.891  1.00  0.00     0.017 A 
ATOM     26  C   UNL A   1      43.326  28.241  33.185  1.00  0.00     0.017 A 
ATOM     27  C   UNL A   1      42.273  26.376  34.978  1.00  0.00     0.001 A 
ATOM     28  C   UNL A   1      43.881  26.960  33.274  1.00  0.00     0.001 A 
ATOM     29  C   UNL A   1      43.360  26.032  34.178  1.00  0.00     0.000 A 
ENDBRANCH  23  24
ENDBRANCH  15  22
ENDBRANCH   5   7
ENDBRANCH   2   3
ENDBRANCH   1   2
BRANCH   1  30
ATOM     30  C   UNL A   1      34.243  32.937  29.390  1.00  0.00     0.023 C 
BRANCH  30  31
ATOM     31  C   UNL A   1      34.708  32.395  28.039  1.00  0.00     0.116 C 
BRANCH  31  32
ATOM     32  N   UNL A   1      34.281  31.038  27.720  1.00  0.00    -0.352 N 
ATOM     33  C   UNL A   1      35.001  29.867  27.858  1.00  0.00     0.251 C 
ATOM     34  H   UNL A   1      33.368  30.944  27.361  1.00  0.00     0.163 HD
ATOM     35  O   UNL A   1      34.500  28.777  27.608  1.00  0.00    -0.269 OA
BRANCH  33  36
ATOM     36  C   UNL A   1      36.428  29.959  28.230  1.00  0.00     0.039 A 
ATOM     37  C   UNL A   1      36.791  29.624  29.536  1.00  0.00     0.014 A 
ATOM     38  C   UNL A   1      37.401  30.188  27.254  1.00  0.00     0.014 A 
ATOM     39  C   UNL A   1      38.132  29.380  29.831  1.00  0.00     0.010 A 
ATOM     40  C   UNL A   1      38.725  29.859  27.529  1.00  0.00     0.010 A 
ATOM     41  C   UNL A   1      39.097  29.419  28.811  1.00  0.00    -0.014 A 
BRANCH  41  42
ATOM     42  C   UNL A   1      40.480  28.933  29.058  1.00  0.00     0.031 A 
ATOM     43  C   UNL A   1      41.508  29.844  29.661  1.00  0.00     0.074 A 
ATOM     44  C   UNL A   1      40.829  27.688  28.672  1.00  0.00     0.049 A 
ATOM     45  N   UNL A   1      42.773  29.616  29.904  1.00  0.00    -0.248 NA
ATOM     46  C   UNL A   1      41.059  31.197  30.017  1.00  0.00     0.031 C 
ATOM     47  C   UNL A   1      39.938  26.722  28.025  1.00  0.00     0.029 A 
ATOM     48  N   UNL A   1      42.028  27.023  28.756  1.00  0.00    -0.354 N 
ATOM     49  C   UNL A   1      43.272  30.797  30.437  1.00  0.00     0.074 A 
ATOM     50  C   UNL A   1      42.189  31.756  30.424  1.00  0.00     0.031 C 
ATOM     51  C   UNL A   1      40.613  25.587  27.788  1.00  0.00     0.029 A 
ATOM     52  C   UNL A   1      41.996  25.756  28.222  1.00  0.00     0.049 A 
ATOM     53  H   UNL A   1      42.835  27.416  29.160  1.00  0.00     0.167 HD
ATOM     54  C   UNL A   1      44.514  31.051  30.913  1.00  0.00     0.037 A 
ATOM     55  C   UNL A   1      42.973  24.839  28.079  1.00  0.00     0.037 A 
ATOM     56  C   UNL A   1      45.589  30.095  30.919  1.00  0.00     0.049 A 
ATOM     57  C   UNL A   1      44.354  25.156  28.582  1.00  0.00     0.074 A 
ATOM     58  C   UNL A   1      46.866  30.238  31.430  1.00  0.00     0.029 A 
ATOM     59  N   UNL A   1      45.517  28.820  30.372  1.00  0.00    -0.354 N 
ATOM     60  N   UNL A   1      44.791  26.247  29.163  1.00  0.00    -0.248 NA
ATOM     61  C   UNL A   1      45.379  24.115  28.413  1.00  0.00     0.031 C 
ATOM     62  C   UNL A   1      47.589  29.078  31.130  1.00  0.00     0.029 A 
ATOM     63  C   UNL A   1      46.742  28.184  30.494  1.00  0.00     0.049 A 
ATOM     64  H   UNL A   1      44.716  28.428  29.958  1.00  0.00     0.167 HD
ATOM     65  C   UNL A   1      46.131  26.021  29.447  1.00  0.00     0.074 A 
ATOM     66  C   UNL A   1      46.432  24.678  28.991  1.00  0.00     0.031 C 
ATOM     67  C   UNL A   1      47.032  26.849  30.030  1.00  0.00     0.037 A 
BRANCH  54  68
ATOM     68  C   UNL A   1      44.773  32.431  31.450  1.00  0.00     0.057 A 
ATOM     69  C   UNL A   1      45.057  33.516  30.608  1.00  0.00     0.134 A 
ATOM     70  C   UNL A   1      44.732  32.680  32.827  1.00  0.00     0.134 A 
ATOM     71  F   UNL A   1      45.123  33.346  29.278  1.00  0.00    -0.206 F 
ATOM     72  C   UNL A   1      45.331  34.786  31.118  1.00  0.00     0.040 A 
ATOM     73  C   UNL A   1      44.970  33.954  33.347  1.00  0.00     0.040 A 
ATOM     74  F   UNL A   1      44.460  31.691  33.692  1.00  0.00    -0.206 F 
ATOM     75  C   UNL A   1      45.282  35.008  32.493  1.00  0.00     0.006 A 
ENDBRANCH  54  68
BRANCH  55  76
ATOM     76  C   UNL A   1      42.678  23.538  27.423  1.00  0.00     0.057 A 
ATOM     77  C   UNL A   1      42.773  23.380  26.035  1.00  0.00     0.134 A 
ATOM     78  C   UNL A   1      42.296  22.416  28.172  1.00  0.00     0.134 A 
ATOM     79  F   UNL A   1      43.113  24.421  25.260  1.00  0.00    -0.206 F 
ATOM     80  C   UNL A   1      42.486  22.163  25.415  1.00  0.00     0.040 A 
ATOM     81  C   UNL A   1      42.034  21.185  27.568  1.00  0.00     0.040 A 
ATOM     82  F   UNL A   1      42.192  22.496  29.506  1.00  0.00    -0.206 F 
ATOM     83  C   UNL A   1      42.122  21.059  26.183  1.00  0.00     0.006 A 
ENDBRANCH  55  76
BRANCH  67  84
ATOM     84  C   UNL A   1      48.426  26.325  30.230  1.00  0.00     0.057 A 
ATOM     85  C   UNL A   1      48.810  25.670  31.406  1.00  0.00     0.134 A 
ATOM     86  C   UNL A   1      49.379  26.428  29.207  1.00  0.00     0.134 A 
ATOM     87  F   UNL A   1      47.950  25.548  32.429  1.00  0.00    -0.206 F 
ATOM     88  C   UNL A   1      50.097  25.153  31.567  1.00  0.00     0.040 A 
ATOM     89  C   UNL A   1      50.659  25.888  29.343  1.00  0.00     0.040 A 
ATOM     90  F   UNL A   1      49.075  27.036  28.051  1.00  0.00    -0.206 F 
ATOM     91  C   UNL A   1      51.022  25.253  30.529  1.00  0.00     0.006 A 
ENDBRANCH  67  84
ENDBRANCH  41  42
ENDBRANCH  33  36
ENDBRANCH  31  32
ENDBRANCH  30  31
ENDBRANCH   1  30
TORSDOF 14
ENDMDL
