MODEL 1
REMARK VINA RESULT:     -12.9      0.000      0.000
REMARK SMILES CC1(C)[C@H](O)CC[C@@]2(C)[C@H]3Cc4c(oc(C(=O)NCCCCNC(=O)c5ccc(-c6c7nc(c(-c8c(F)cccc8F)c8ccc([nH]8)c(-c8c(F)cccc8F)c8nc(c(-c9c(F)cccc9F)c9ccc6[nH]9)C=C8)C=C7)cc5)cc4=O)O[C@@]3(C)CC[C@@H]12
REMARK SMILES IDX 21 1 20 2 19 3 18 4 16 5 17 6 15 8 1 9 2 10 3 11 4 12 88 13
REMARK SMILES IDX 6 14 8 15 87 16 7 17 9 18 10 19 86 20 84 21 11 22 85 23
REMARK SMILES IDX 83 24 12 25 13 26 81 27 14 28 80 29 82 30 5 31 22 33 23 34
REMARK SMILES IDX 24 35 25 37 26 38 27 39 79 40 28 41 78 42 29 43 30 44 31 45
REMARK SMILES IDX 72 46 32 47 77 48 71 49 73 50 33 51 76 52 70 53 69 54 34 56
REMARK SMILES IDX 60 57 43 58 59 59 44 60 47 61 58 62 74 63 45 64 46 65 57 67
REMARK SMILES IDX 75 68 48 69 35 70 36 71 41 72 37 73 38 74 40 75 42 76 39 77
REMARK SMILES IDX 61 78 62 79 67 80 63 81 64 82 66 83 68 84 65 85 49 86 50 87
REMARK SMILES IDX 55 88 51 89 52 90 54 91 56 92 53 93
REMARK H PARENT 18 7 5 32 23 36 73 55 47 66
REMARK Flexibility Score: inf
ROOT
ATOM      1  C   UNL A   1      36.024  22.976  25.550  1.00  0.00     0.023 C 
ENDROOT
BRANCH   1   2
ATOM      2  C   UNL A   1      36.070  21.530  26.059  1.00  0.00     0.023 C 
BRANCH   2   3
ATOM      3  C   UNL A   1      35.621  20.486  25.014  1.00  0.00     0.116 C 
BRANCH   3   4
ATOM      4  N   UNL A   1      34.242  19.969  25.177  1.00  0.00    -0.349 N 
ATOM      5  C   UNL A   1      32.939  20.422  25.058  1.00  0.00     0.287 C 
ATOM      6  O   UNL A   1      32.053  19.569  25.133  1.00  0.00    -0.266 OA
ATOM      7  H   UNL A   1      34.256  19.024  25.454  1.00  0.00     0.163 HD
BRANCH   5   8
ATOM      8  C   UNL A   1      32.549  21.872  24.941  1.00  0.00     0.199 A 
ATOM      9  C   UNL A   1      31.872  30.940  26.771  1.00  0.00     0.014 C 
ATOM     10  C   UNL A   1      32.755  29.772  26.215  1.00  0.00    -0.006 C 
ATOM     11  C   UNL A   1      34.215  30.297  26.420  1.00  0.00     0.014 C 
ATOM     12  C   UNL A   1      32.649  28.599  27.381  1.00  0.00     0.120 C 
ATOM     13  C   UNL A   1      32.330  29.297  24.422  1.00  0.00     0.004 C 
ATOM     14  C   UNL A   1      31.280  28.012  27.326  1.00  0.00     0.033 C 
ATOM     15  C   UNL A   1      32.334  27.864  24.859  1.00  0.00    -0.022 C 
ATOM     16  C   UNL A   1      31.180  28.922  23.218  1.00  0.00     0.009 C 
ATOM     17  C   UNL A   1      31.005  28.083  25.859  1.00  0.00     0.010 C 
ATOM     18  C   UNL A   1      33.945  27.914  24.668  1.00  0.00     0.012 C 
ATOM     19  C   UNL A   1      32.184  26.455  24.276  1.00  0.00     0.044 C 
ATOM     20  C   UNL A   1      30.862  27.409  22.571  1.00  0.00     0.049 C 
ATOM     21  C   UNL A   1      31.938  26.277  22.800  1.00  0.00     0.113 C 
ATOM     22  C   UNL A   1      31.071  25.701  25.000  1.00  0.00     0.055 C 
ATOM     23  C   UNL A   1      33.059  26.583  21.787  1.00  0.00     0.057 C 
ATOM     24  O   UNL A   1      31.668  24.773  22.560  1.00  0.00    -0.458 OA
ATOM     25  C   UNL A   1      31.379  24.316  24.873  1.00  0.00     0.081 A 
ATOM     26  C   UNL A   1      31.764  23.853  23.693  1.00  0.00     0.292 A 
ATOM     27  C   UNL A   1      31.528  23.635  26.138  1.00  0.00     0.192 A 
ATOM     28  O   UNL A   1      32.253  22.504  23.664  1.00  0.00    -0.420 OA
ATOM     29  C   UNL A   1      32.383  22.497  26.105  1.00  0.00     0.105 A 
ATOM     30  O   UNL A   1      31.016  23.987  27.197  1.00  0.00    -0.289 OA
BRANCH  12  31
ATOM     31  O   UNL A   1      33.535  27.484  27.267  1.00  0.00    -0.393 OA
ATOM     32  H   UNL A   1      34.044  27.558  26.445  1.00  0.00     0.210 HD
ENDBRANCH  12  31
ENDBRANCH   5   8
ENDBRANCH   3   4
ENDBRANCH   2   3
ENDBRANCH   1   2
BRANCH   1  33
ATOM     33  C   UNL A   1      37.378  23.606  25.235  1.00  0.00     0.116 C 
BRANCH  33  34
ATOM     34  N   UNL A   1      38.533  22.759  25.503  1.00  0.00    -0.352 N 
ATOM     35  C   UNL A   1      39.623  23.095  26.281  1.00  0.00     0.251 C 
ATOM     36  H   UNL A   1      38.536  21.864  25.091  1.00  0.00     0.163 HD
ATOM     37  O   UNL A   1      40.568  22.336  26.448  1.00  0.00    -0.269 OA
BRANCH  35  38
ATOM     38  C   UNL A   1      39.631  24.447  26.872  1.00  0.00     0.039 A 
ATOM     39  C   UNL A   1      39.113  24.618  28.157  1.00  0.00     0.014 A 
ATOM     40  C   UNL A   1      40.346  25.467  26.237  1.00  0.00     0.014 A 
ATOM     41  C   UNL A   1      39.384  25.800  28.844  1.00  0.00     0.010 A 
ATOM     42  C   UNL A   1      40.675  26.612  26.954  1.00  0.00     0.010 A 
ATOM     43  C   UNL A   1      40.202  26.785  28.265  1.00  0.00    -0.014 A 
BRANCH  43  44
ATOM     44  C   UNL A   1      40.552  28.010  29.026  1.00  0.00     0.031 A 
ATOM     45  C   UNL A   1      39.564  29.136  29.115  1.00  0.00     0.074 A 
ATOM     46  C   UNL A   1      41.754  28.112  29.624  1.00  0.00     0.049 A 
ATOM     47  N   UNL A   1      39.646  30.256  29.786  1.00  0.00    -0.248 NA
ATOM     48  C   UNL A   1      38.326  28.991  28.334  1.00  0.00     0.031 C 
ATOM     49  C   UNL A   1      42.820  27.109  29.567  1.00  0.00     0.029 A 
ATOM     50  N   UNL A   1      42.281  29.110  30.406  1.00  0.00    -0.354 N 
ATOM     51  C   UNL A   1      38.467  30.937  29.522  1.00  0.00     0.074 A 
ATOM     52  C   UNL A   1      37.725  30.146  28.565  1.00  0.00     0.031 C 
ATOM     53  C   UNL A   1      43.857  27.526  30.314  1.00  0.00     0.029 A 
ATOM     54  C   UNL A   1      43.540  28.832  30.882  1.00  0.00     0.049 A 
ATOM     55  H   UNL A   1      41.801  29.945  30.607  1.00  0.00     0.167 HD
ATOM     56  C   UNL A   1      38.021  32.099  30.056  1.00  0.00     0.037 A 
ATOM     57  C   UNL A   1      44.338  29.550  31.697  1.00  0.00     0.037 A 
ATOM     58  C   UNL A   1      38.768  32.893  30.994  1.00  0.00     0.049 A 
ATOM     59  C   UNL A   1      43.841  30.866  32.236  1.00  0.00     0.074 A 
ATOM     60  C   UNL A   1      38.399  34.074  31.613  1.00  0.00     0.029 A 
ATOM     61  N   UNL A   1      40.049  32.593  31.435  1.00  0.00    -0.354 N 
ATOM     62  N   UNL A   1      42.686  31.457  32.047  1.00  0.00    -0.248 NA
ATOM     63  C   UNL A   1      44.758  31.606  33.115  1.00  0.00     0.031 C 
ATOM     64  C   UNL A   1      39.478  34.516  32.386  1.00  0.00     0.029 A 
ATOM     65  C   UNL A   1      40.495  33.578  32.300  1.00  0.00     0.049 A 
ATOM     66  H   UNL A   1      40.565  31.795  31.173  1.00  0.00     0.167 HD
ATOM     67  C   UNL A   1      42.722  32.616  32.815  1.00  0.00     0.074 A 
ATOM     68  C   UNL A   1      44.007  32.633  33.483  1.00  0.00     0.031 C 
ATOM     69  C   UNL A   1      41.776  33.577  32.960  1.00  0.00     0.037 A 
BRANCH  56  70
ATOM     70  C   UNL A   1      36.662  32.568  29.624  1.00  0.00     0.057 A 
ATOM     71  C   UNL A   1      36.509  33.392  28.503  1.00  0.00     0.134 A 
ATOM     72  C   UNL A   1      35.500  32.196  30.315  1.00  0.00     0.134 A 
ATOM     73  F   UNL A   1      37.578  33.787  27.796  1.00  0.00    -0.206 F 
ATOM     74  C   UNL A   1      35.250  33.824  28.083  1.00  0.00     0.040 A 
ATOM     75  C   UNL A   1      34.233  32.595  29.886  1.00  0.00     0.040 A 
ATOM     76  F   UNL A   1      35.574  31.393  31.388  1.00  0.00    -0.206 F 
ATOM     77  C   UNL A   1      34.107  33.417  28.768  1.00  0.00     0.006 A 
ENDBRANCH  56  70
BRANCH  57  78
ATOM     78  C   UNL A   1      45.678  29.037  32.088  1.00  0.00     0.057 A 
ATOM     79  C   UNL A   1      45.853  28.235  33.221  1.00  0.00     0.134 A 
ATOM     80  C   UNL A   1      46.809  29.298  31.303  1.00  0.00     0.134 A 
ATOM     81  F   UNL A   1      44.813  27.954  34.019  1.00  0.00    -0.206 F 
ATOM     82  C   UNL A   1      47.101  27.704  33.556  1.00  0.00     0.040 A 
ATOM     83  C   UNL A   1      48.056  28.749  31.610  1.00  0.00     0.040 A 
ATOM     84  F   UNL A   1      46.704  30.044  30.193  1.00  0.00    -0.206 F 
ATOM     85  C   UNL A   1      48.204  27.951  32.740  1.00  0.00     0.006 A 
ENDBRANCH  57  78
BRANCH  69  86
ATOM     86  C   UNL A   1      42.079  34.697  33.915  1.00  0.00     0.057 A 
ATOM     87  C   UNL A   1      42.695  35.870  33.460  1.00  0.00     0.134 A 
ATOM     88  C   UNL A   1      41.771  34.619  35.280  1.00  0.00     0.134 A 
ATOM     89  F   UNL A   1      43.029  36.008  32.167  1.00  0.00    -0.206 F 
ATOM     90  C   UNL A   1      42.989  36.925  34.324  1.00  0.00     0.040 A 
ATOM     91  C   UNL A   1      42.028  35.682  36.148  1.00  0.00     0.040 A 
ATOM     92  F   UNL A   1      41.170  33.529  35.781  1.00  0.00    -0.206 F 
ATOM     93  C   UNL A   1      42.644  36.838  35.671  1.00  0.00     0.006 A 
ENDBRANCH  69  86
ENDBRANCH  43  44
ENDBRANCH  35  38
ENDBRANCH  33  34
ENDBRANCH   1  33
TORSDOF 12
ENDMDL
MODEL 2
REMARK VINA RESULT:     -12.8      1.598      2.095
REMARK SMILES CC1(C)[C@H](O)CC[C@@]2(C)[C@H]3Cc4c(oc(C(=O)NCCCCNC(=O)c5ccc(-c6c7nc(c(-c8c(F)cccc8F)c8ccc([nH]8)c(-c8c(F)cccc8F)c8nc(c(-c9c(F)cccc9F)c9ccc6[nH]9)C=C8)C=C7)cc5)cc4=O)O[C@@]3(C)CC[C@@H]12
REMARK SMILES IDX 21 1 20 2 19 3 18 4 16 5 17 6 15 8 1 9 2 10 3 11 4 12 88 13
REMARK SMILES IDX 6 14 8 15 87 16 7 17 9 18 10 19 86 20 84 21 11 22 85 23
REMARK SMILES IDX 83 24 12 25 13 26 81 27 14 28 80 29 82 30 5 31 22 33 23 34
REMARK SMILES IDX 24 35 25 37 26 38 27 39 79 40 28 41 78 42 29 43 30 44 31 45
REMARK SMILES IDX 72 46 32 47 77 48 71 49 73 50 33 51 76 52 70 53 69 54 34 56
REMARK SMILES IDX 60 57 43 58 59 59 44 60 47 61 58 62 74 63 45 64 46 65 57 67
REMARK SMILES IDX 75 68 48 69 35 70 36 71 41 72 37 73 38 74 40 75 42 76 39 77
REMARK SMILES IDX 61 78 62 79 67 80 63 81 64 82 66 83 68 84 65 85 49 86 50 87
REMARK SMILES IDX 55 88 51 89 52 90 54 91 56 92 53 93
REMARK H PARENT 18 7 5 32 23 36 73 55 47 66
REMARK Flexibility Score: inf
ROOT
ATOM      1  C   UNL A   1      36.624  23.158  25.373  1.00  0.00     0.023 C 
ENDROOT
BRANCH   1   2
ATOM      2  C   UNL A   1      36.504  21.764  25.999  1.00  0.00     0.023 C 
BRANCH   2   3
ATOM      3  C   UNL A   1      36.025  20.677  25.013  1.00  0.00     0.116 C 
BRANCH   3   4
ATOM      4  N   UNL A   1      34.682  20.114  25.285  1.00  0.00    -0.349 N 
ATOM      5  C   UNL A   1      33.356  20.510  25.231  1.00  0.00     0.287 C 
ATOM      6  O   UNL A   1      32.513  19.627  25.395  1.00  0.00    -0.266 OA
ATOM      7  H   UNL A   1      34.752  19.182  25.597  1.00  0.00     0.163 HD
BRANCH   5   8
ATOM      8  C   UNL A   1      32.900  21.938  25.083  1.00  0.00     0.199 A 
ATOM      9  C   UNL A   1      31.753  30.989  26.750  1.00  0.00     0.014 C 
ATOM     10  C   UNL A   1      32.701  29.857  26.232  1.00  0.00    -0.006 C 
ATOM     11  C   UNL A   1      34.131  30.454  26.456  1.00  0.00     0.014 C 
ATOM     12  C   UNL A   1      32.627  28.698  27.414  1.00  0.00     0.120 C 
ATOM     13  C   UNL A   1      32.337  29.334  24.438  1.00  0.00     0.004 C 
ATOM     14  C   UNL A   1      31.289  28.045  27.341  1.00  0.00     0.033 C 
ATOM     15  C   UNL A   1      32.400  27.910  24.898  1.00  0.00    -0.022 C 
ATOM     16  C   UNL A   1      31.232  28.886  23.217  1.00  0.00     0.009 C 
ATOM     17  C   UNL A   1      31.042  28.080  25.868  1.00  0.00     0.010 C 
ATOM     18  C   UNL A   1      34.011  28.035  24.739  1.00  0.00     0.012 C 
ATOM     19  C   UNL A   1      32.330  26.486  24.336  1.00  0.00     0.044 C 
ATOM     20  C   UNL A   1      31.000  27.350  22.589  1.00  0.00     0.049 C 
ATOM     21  C   UNL A   1      32.124  26.274  22.858  1.00  0.00     0.113 C 
ATOM     22  C   UNL A   1      31.239  25.692  25.050  1.00  0.00     0.055 C 
ATOM     23  C   UNL A   1      33.250  26.619  21.862  1.00  0.00     0.057 C 
ATOM     24  O   UNL A   1      31.931  24.756  22.638  1.00  0.00    -0.458 OA
ATOM     25  C   UNL A   1      31.616  24.321  24.951  1.00  0.00     0.081 A 
ATOM     26  C   UNL A   1      32.048  23.859  23.787  1.00  0.00     0.292 A 
ATOM     27  C   UNL A   1      31.771  23.667  26.229  1.00  0.00     0.192 A 
ATOM     28  O   UNL A   1      32.601  22.535  23.790  1.00  0.00    -0.420 OA
ATOM     29  C   UNL A   1      32.679  22.572  26.233  1.00  0.00     0.105 A 
ATOM     30  O   UNL A   1      31.221  24.011  27.273  1.00  0.00    -0.289 OA
BRANCH  12  31
ATOM     31  O   UNL A   1      33.568  27.625  27.335  1.00  0.00    -0.393 OA
ATOM     32  H   UNL A   1      34.075  27.699  26.512  1.00  0.00     0.210 HD
ENDBRANCH  12  31
ENDBRANCH   5   8
ENDBRANCH   3   4
ENDBRANCH   2   3
ENDBRANCH   1   2
BRANCH   1  33
ATOM     33  C   UNL A   1      37.672  24.073  26.001  1.00  0.00     0.116 C 
BRANCH  33  34
ATOM     34  N   UNL A   1      39.043  23.586  25.927  1.00  0.00    -0.352 N 
ATOM     35  C   UNL A   1      40.141  24.152  26.546  1.00  0.00     0.251 C 
ATOM     36  H   UNL A   1      39.203  22.780  25.385  1.00  0.00     0.163 HD
ATOM     37  O   UNL A   1      41.270  23.696  26.424  1.00  0.00    -0.269 OA
BRANCH  35  38
ATOM     38  C   UNL A   1      39.906  25.378  27.333  1.00  0.00     0.039 A 
ATOM     39  C   UNL A   1      39.177  25.283  28.519  1.00  0.00     0.014 A 
ATOM     40  C   UNL A   1      40.594  26.549  26.997  1.00  0.00     0.014 A 
ATOM     41  C   UNL A   1      39.203  26.348  29.418  1.00  0.00     0.010 A 
ATOM     42  C   UNL A   1      40.678  27.577  27.929  1.00  0.00     0.010 A 
ATOM     43  C   UNL A   1      39.989  27.482  29.149  1.00  0.00    -0.014 A 
BRANCH  43  44
ATOM     44  C   UNL A   1      40.076  28.583  30.140  1.00  0.00     0.031 A 
ATOM     45  C   UNL A   1      39.107  29.726  30.068  1.00  0.00     0.074 A 
ATOM     46  C   UNL A   1      41.029  28.559  31.092  1.00  0.00     0.049 A 
ATOM     47  N   UNL A   1      38.970  30.745  30.877  1.00  0.00    -0.248 NA
ATOM     48  C   UNL A   1      38.179  29.734  28.927  1.00  0.00     0.031 C 
ATOM     49  C   UNL A   1      42.062  27.530  31.236  1.00  0.00     0.029 A 
ATOM     50  N   UNL A   1      41.278  29.425  32.127  1.00  0.00    -0.354 N 
ATOM     51  C   UNL A   1      37.932  31.501  30.352  1.00  0.00     0.074 A 
ATOM     52  C   UNL A   1      37.532  30.872  29.113  1.00  0.00     0.031 C 
ATOM     53  C   UNL A   1      42.809  27.805  32.319  1.00  0.00     0.029 A 
ATOM     54  C   UNL A   1      42.324  29.038  32.931  1.00  0.00     0.049 A 
ATOM     55  H   UNL A   1      40.758  30.246  32.280  1.00  0.00     0.167 HD
ATOM     56  C   UNL A   1      37.336  32.600  30.872  1.00  0.00     0.037 A 
ATOM     57  C   UNL A   1      42.823  29.612  34.044  1.00  0.00     0.037 A 
ATOM     58  C   UNL A   1      37.747  33.236  32.095  1.00  0.00     0.049 A 
ATOM     59  C   UNL A   1      42.177  30.866  34.574  1.00  0.00     0.074 A 
ATOM     60  C   UNL A   1      37.198  34.340  32.722  1.00  0.00     0.029 A 
ATOM     61  N   UNL A   1      38.825  32.830  32.870  1.00  0.00    -0.354 N 
ATOM     62  N   UNL A   1      41.138  31.521  34.115  1.00  0.00    -0.248 NA
ATOM     63  C   UNL A   1      42.767  31.448  35.787  1.00  0.00     0.031 C 
ATOM     64  C   UNL A   1      37.976  34.635  33.846  1.00  0.00     0.029 A 
ATOM     65  C   UNL A   1      38.972  33.677  33.956  1.00  0.00     0.049 A 
ATOM     66  H   UNL A   1      39.399  32.054  32.676  1.00  0.00     0.167 HD
ATOM     67  C   UNL A   1      40.926  32.568  35.006  1.00  0.00     0.074 A 
ATOM     68  C   UNL A   1      41.935  32.448  36.038  1.00  0.00     0.031 C 
ATOM     69  C   UNL A   1      39.980  33.539  34.977  1.00  0.00     0.037 A 
BRANCH  56  70
ATOM     70  C   UNL A   1      36.181  33.175  30.104  1.00  0.00     0.057 A 
ATOM     71  C   UNL A   1      36.395  34.036  29.022  1.00  0.00     0.134 A 
ATOM     72  C   UNL A   1      34.852  32.870  30.434  1.00  0.00     0.134 A 
ATOM     73  F   UNL A   1      37.639  34.372  28.653  1.00  0.00    -0.206 F 
ATOM     74  C   UNL A   1      35.330  34.566  28.291  1.00  0.00     0.040 A 
ATOM     75  C   UNL A   1      33.781  33.368  29.691  1.00  0.00     0.040 A 
ATOM     76  F   UNL A   1      34.578  32.037  31.450  1.00  0.00    -0.206 F 
ATOM     77  C   UNL A   1      34.020  34.224  28.619  1.00  0.00     0.006 A 
ENDBRANCH  56  70
BRANCH  57  78
ATOM     78  C   UNL A   1      43.973  29.000  34.761  1.00  0.00     0.057 A 
ATOM     79  C   UNL A   1      43.784  28.084  35.802  1.00  0.00     0.134 A 
ATOM     80  C   UNL A   1      45.292  29.281  34.383  1.00  0.00     0.134 A 
ATOM     81  F   UNL A   1      42.546  27.777  36.217  1.00  0.00    -0.206 F 
ATOM     82  C   UNL A   1      44.862  27.463  36.436  1.00  0.00     0.040 A 
ATOM     83  C   UNL A   1      46.379  28.646  34.989  1.00  0.00     0.040 A 
ATOM     84  F   UNL A   1      45.541  30.136  33.380  1.00  0.00    -0.206 F 
ATOM     85  C   UNL A   1      46.164  27.735  36.019  1.00  0.00     0.006 A 
ENDBRANCH  57  78
BRANCH  69  86
ATOM     86  C   UNL A   1      39.963  34.513  36.122  1.00  0.00     0.057 A 
ATOM     87  C   UNL A   1      39.224  34.233  37.280  1.00  0.00     0.134 A 
ATOM     88  C   UNL A   1      40.664  35.726  36.082  1.00  0.00     0.134 A 
ATOM     89  F   UNL A   1      38.519  33.096  37.380  1.00  0.00    -0.206 F 
ATOM     90  C   UNL A   1      39.190  35.119  38.357  1.00  0.00     0.040 A 
ATOM     91  C   UNL A   1      40.665  36.603  37.167  1.00  0.00     0.040 A 
ATOM     92  F   UNL A   1      41.401  36.051  35.008  1.00  0.00    -0.206 F 
ATOM     93  C   UNL A   1      39.922  36.304  38.307  1.00  0.00     0.006 A 
ENDBRANCH  69  86
ENDBRANCH  43  44
ENDBRANCH  35  38
ENDBRANCH  33  34
ENDBRANCH   1  33
TORSDOF 12
ENDMDL
MODEL 3
REMARK VINA RESULT:     -12.8      3.808      8.762
REMARK SMILES CC1(C)[C@H](O)CC[C@@]2(C)[C@H]3Cc4c(oc(C(=O)NCCCCNC(=O)c5ccc(-c6c7nc(c(-c8c(F)cccc8F)c8ccc([nH]8)c(-c8c(F)cccc8F)c8nc(c(-c9c(F)cccc9F)c9ccc6[nH]9)C=C8)C=C7)cc5)cc4=O)O[C@@]3(C)CC[C@@H]12
REMARK SMILES IDX 21 1 20 2 19 3 18 4 16 5 17 6 15 8 1 9 2 10 3 11 4 12 88 13
REMARK SMILES IDX 6 14 8 15 87 16 7 17 9 18 10 19 86 20 84 21 11 22 85 23
REMARK SMILES IDX 83 24 12 25 13 26 81 27 14 28 80 29 82 30 5 31 22 33 23 34
REMARK SMILES IDX 24 35 25 37 26 38 27 39 79 40 28 41 78 42 29 43 30 44 31 45
REMARK SMILES IDX 72 46 32 47 77 48 71 49 73 50 33 51 76 52 70 53 69 54 34 56
REMARK SMILES IDX 60 57 43 58 59 59 44 60 47 61 58 62 74 63 45 64 46 65 57 67
REMARK SMILES IDX 75 68 48 69 35 70 36 71 41 72 37 73 38 74 40 75 42 76 39 77
REMARK SMILES IDX 61 78 62 79 67 80 63 81 64 82 66 83 68 84 65 85 49 86 50 87
REMARK SMILES IDX 55 88 51 89 52 90 54 91 56 92 53 93
REMARK H PARENT 18 7 5 32 23 36 73 55 47 66
REMARK Flexibility Score: inf
ROOT
ATOM      1  C   UNL A   1      33.314  28.496  27.228  1.00  0.00     0.023 C 
ENDROOT
BRANCH   1   2
ATOM      2  C   UNL A   1      32.055  29.334  26.972  1.00  0.00     0.023 C 
BRANCH   2   3
ATOM      3  C   UNL A   1      32.200  30.336  25.808  1.00  0.00     0.116 C 
BRANCH   3   4
ATOM      4  N   UNL A   1      31.345  30.072  24.627  1.00  0.00    -0.349 N 
ATOM      5  C   UNL A   1      30.896  28.991  23.887  1.00  0.00     0.287 C 
ATOM      6  O   UNL A   1      30.028  29.226  23.045  1.00  0.00    -0.266 OA
ATOM      7  H   UNL A   1      30.992  30.915  24.258  1.00  0.00     0.163 HD
BRANCH   5   8
ATOM      8  C   UNL A   1      31.462  27.599  23.984  1.00  0.00     0.199 A 
ATOM      9  C   UNL A   1      37.571  20.646  24.587  1.00  0.00     0.014 C 
ATOM     10  C   UNL A   1      36.828  21.812  25.322  1.00  0.00    -0.006 C 
ATOM     11  C   UNL A   1      37.794  22.167  26.501  1.00  0.00     0.014 C 
ATOM     12  C   UNL A   1      37.028  23.113  24.315  1.00  0.00     0.120 C 
ATOM     13  C   UNL A   1      35.060  21.356  25.859  1.00  0.00     0.004 C 
ATOM     14  C   UNL A   1      36.174  22.905  23.111  1.00  0.00     0.033 C 
ATOM     15  C   UNL A   1      34.606  22.661  25.281  1.00  0.00    -0.022 C 
ATOM     16  C   UNL A   1      33.532  20.677  25.515  1.00  0.00     0.009 C 
ATOM     17  C   UNL A   1      35.006  22.198  23.719  1.00  0.00     0.010 C 
ATOM     18  C   UNL A   1      35.068  23.330  26.686  1.00  0.00     0.012 C 
ATOM     19  C   UNL A   1      33.340  23.513  25.147  1.00  0.00     0.044 C 
ATOM     20  C   UNL A   1      32.100  21.509  25.258  1.00  0.00     0.049 C 
ATOM     21  C   UNL A   1      32.039  23.017  25.723  1.00  0.00     0.113 C 
ATOM     22  C   UNL A   1      33.075  23.836  23.679  1.00  0.00     0.055 C 
ATOM     23  C   UNL A   1      31.843  22.953  27.251  1.00  0.00     0.057 C 
ATOM     24  O   UNL A   1      30.937  24.008  25.283  1.00  0.00    -0.458 OA
ATOM     25  C   UNL A   1      32.330  25.051  23.666  1.00  0.00     0.081 A 
ATOM     26  C   UNL A   1      31.323  25.192  24.516  1.00  0.00     0.292 A 
ATOM     27  C   UNL A   1      32.966  26.115  22.926  1.00  0.00     0.192 A 
ATOM     28  O   UNL A   1      30.737  26.499  24.602  1.00  0.00    -0.420 OA
ATOM     29  C   UNL A   1      32.625  27.428  23.357  1.00  0.00     0.105 A 
ATOM     30  O   UNL A   1      33.776  25.960  22.016  1.00  0.00    -0.289 OA
BRANCH  12  31
ATOM     31  O   UNL A   1      36.649  24.394  24.822  1.00  0.00    -0.393 OA
ATOM     32  H   UNL A   1      35.762  24.619  24.500  1.00  0.00     0.210 HD
ENDBRANCH  12  31
ENDBRANCH   5   8
ENDBRANCH   3   4
ENDBRANCH   2   3
ENDBRANCH   1   2
BRANCH   1  33
ATOM     33  C   UNL A   1      34.619  29.282  27.327  1.00  0.00     0.116 C 
BRANCH  33  34
ATOM     34  N   UNL A   1      34.654  30.293  28.376  1.00  0.00    -0.352 N 
ATOM     35  C   UNL A   1      35.744  30.607  29.164  1.00  0.00     0.251 C 
ATOM     36  H   UNL A   1      33.825  30.798  28.538  1.00  0.00     0.163 HD
ATOM     37  O   UNL A   1      35.695  31.460  30.040  1.00  0.00    -0.269 OA
BRANCH  35  38
ATOM     38  C   UNL A   1      36.977  29.829  28.940  1.00  0.00     0.039 A 
ATOM     39  C   UNL A   1      37.592  29.894  27.689  1.00  0.00     0.014 A 
ATOM     40  C   UNL A   1      37.616  29.231  30.032  1.00  0.00     0.014 A 
ATOM     41  C   UNL A   1      38.897  29.423  27.550  1.00  0.00     0.010 A 
ATOM     42  C   UNL A   1      38.941  28.831  29.905  1.00  0.00     0.010 A 
ATOM     43  C   UNL A   1      39.595  28.930  28.666  1.00  0.00    -0.014 A 
BRANCH  43  44
ATOM     44  C   UNL A   1      41.008  28.499  28.534  1.00  0.00     0.031 A 
ATOM     45  C   UNL A   1      41.321  27.064  28.224  1.00  0.00     0.074 A 
ATOM     46  C   UNL A   1      42.004  29.390  28.702  1.00  0.00     0.049 A 
ATOM     47  N   UNL A   1      42.481  26.501  28.000  1.00  0.00    -0.248 NA
ATOM     48  C   UNL A   1      40.182  26.135  28.177  1.00  0.00     0.031 C 
ATOM     49  C   UNL A   1      41.831  30.801  29.057  1.00  0.00     0.029 A 
ATOM     50  N   UNL A   1      43.363  29.242  28.589  1.00  0.00    -0.354 N 
ATOM     51  C   UNL A   1      42.206  25.162  27.767  1.00  0.00     0.074 A 
ATOM     52  C   UNL A   1      40.785  24.979  27.962  1.00  0.00     0.031 C 
ATOM     53  C   UNL A   1      43.035  31.396  29.095  1.00  0.00     0.029 A 
ATOM     54  C   UNL A   1      44.065  30.407  28.791  1.00  0.00     0.049 A 
ATOM     55  H   UNL A   1      43.796  28.383  28.382  1.00  0.00     0.167 HD
ATOM     56  C   UNL A   1      43.054  24.177  27.388  1.00  0.00     0.037 A 
ATOM     57  C   UNL A   1      45.389  30.646  28.724  1.00  0.00     0.037 A 
ATOM     58  C   UNL A   1      44.471  24.356  27.213  1.00  0.00     0.049 A 
ATOM     59  C   UNL A   1      46.319  29.520  28.352  1.00  0.00     0.074 A 
ATOM     60  C   UNL A   1      45.416  23.430  26.809  1.00  0.00     0.029 A 
ATOM     61  N   UNL A   1      45.149  25.543  27.449  1.00  0.00    -0.354 N 
ATOM     62  N   UNL A   1      46.036  28.277  28.049  1.00  0.00    -0.248 NA
ATOM     63  C   UNL A   1      47.752  29.840  28.300  1.00  0.00     0.031 C 
ATOM     64  C   UNL A   1      46.673  24.042  26.854  1.00  0.00     0.029 A 
ATOM     65  C   UNL A   1      46.504  25.368  27.223  1.00  0.00     0.049 A 
ATOM     66  H   UNL A   1      44.728  26.387  27.734  1.00  0.00     0.167 HD
ATOM     67  C   UNL A   1      47.250  27.678  27.730  1.00  0.00     0.074 A 
ATOM     68  C   UNL A   1      48.266  28.700  27.863  1.00  0.00     0.031 C 
ATOM     69  C   UNL A   1      47.502  26.399  27.356  1.00  0.00     0.037 A 
BRANCH  56  70
ATOM     70  C   UNL A   1      42.456  22.821  27.145  1.00  0.00     0.057 A 
ATOM     71  C   UNL A   1      42.065  22.006  28.214  1.00  0.00     0.134 A 
ATOM     72  C   UNL A   1      42.260  22.323  25.848  1.00  0.00     0.134 A 
ATOM     73  F   UNL A   1      42.225  22.419  29.479  1.00  0.00    -0.206 F 
ATOM     74  C   UNL A   1      41.495  20.750  28.001  1.00  0.00     0.040 A 
ATOM     75  C   UNL A   1      41.662  21.084  25.623  1.00  0.00     0.040 A 
ATOM     76  F   UNL A   1      42.597  23.061  24.779  1.00  0.00    -0.206 F 
ATOM     77  C   UNL A   1      41.282  20.290  26.703  1.00  0.00     0.006 A 
ENDBRANCH  56  70
BRANCH  57  78
ATOM     78  C   UNL A   1      45.926  32.009  28.980  1.00  0.00     0.057 A 
ATOM     79  C   UNL A   1      46.310  32.416  30.262  1.00  0.00     0.134 A 
ATOM     80  C   UNL A   1      46.117  32.919  27.932  1.00  0.00     0.134 A 
ATOM     81  F   UNL A   1      46.147  31.595  31.311  1.00  0.00    -0.206 F 
ATOM     82  C   UNL A   1      46.871  33.674  30.494  1.00  0.00     0.040 A 
ATOM     83  C   UNL A   1      46.703  34.169  28.145  1.00  0.00     0.040 A 
ATOM     84  F   UNL A   1      45.788  32.583  26.676  1.00  0.00    -0.206 F 
ATOM     85  C   UNL A   1      47.080  34.549  29.430  1.00  0.00     0.006 A 
ENDBRANCH  57  78
BRANCH  69  86
ATOM     86  C   UNL A   1      48.924  26.052  27.015  1.00  0.00     0.057 A 
ATOM     87  C   UNL A   1      49.415  26.266  25.720  1.00  0.00     0.134 A 
ATOM     88  C   UNL A   1      49.806  25.503  27.957  1.00  0.00     0.134 A 
ATOM     89  F   UNL A   1      48.622  26.777  24.767  1.00  0.00    -0.206 F 
ATOM     90  C   UNL A   1      50.731  25.954  25.376  1.00  0.00     0.040 A 
ATOM     91  C   UNL A   1      51.133  25.219  27.633  1.00  0.00     0.040 A 
ATOM     92  F   UNL A   1      49.404  25.284  29.218  1.00  0.00    -0.206 F 
ATOM     93  C   UNL A   1      51.598  25.439  26.337  1.00  0.00     0.006 A 
ENDBRANCH  69  86
ENDBRANCH  43  44
ENDBRANCH  35  38
ENDBRANCH  33  34
ENDBRANCH   1  33
TORSDOF 12
ENDMDL
