MODEL 1
REMARK VINA RESULT:     -13.3      0.000      0.000
REMARK SMILES Cc1ccc(C(=O)C2=C(NCCCCNC(=O)c3ccc(-c4c5nc(c(-c6c(F)cccc6F)c6ccc([nH]6)c(-c6c(F)cccc6F)c6nc(c(-c7c(F)cccc7F)c7ccc4[nH]7)C=C6)C=C5)cc3)C(=O)N(CCCC(=O)[O-])[C@H]2c2ccc3c(c2)OCO3)cc1
REMARK SMILES IDX 11 1 10 2 9 4 8 5 81 6 72 7 74 8 73 9 6 10 7 11 5 12 1 13
REMARK SMILES IDX 2 14 3 15 92 16 4 17 91 18 82 19 83 20 87 21 84 22 86 23
REMARK SMILES IDX 85 24 88 25 90 26 89 27 75 28 76 29 77 30 78 31 79 32 80 33
REMARK SMILES IDX 12 34 13 35 14 36 15 37 16 38 17 40 18 41 19 42 71 43 20 44
REMARK SMILES IDX 70 45 21 46 22 47 23 48 64 49 24 50 69 51 63 52 65 53 25 54
REMARK SMILES IDX 68 55 62 56 61 57 26 59 52 60 35 61 51 62 36 63 39 64 50 65
REMARK SMILES IDX 66 66 37 67 38 68 49 70 67 71 40 72 27 73 28 74 33 75 29 76
REMARK SMILES IDX 30 77 32 78 34 79 31 80 53 81 54 82 59 83 55 84 56 85 58 86
REMARK SMILES IDX 60 87 57 88 41 89 42 90 47 91 43 92 44 93 46 94 48 95 45 96
REMARK H PARENT 10 3 15 39 65 58 39 69
REMARK Flexibility Score: inf
ROOT
ATOM      1  C   UNL A   1      33.605  29.380  25.325  1.00  0.00     0.113 C 
ENDROOT
BRANCH   1   2
ATOM      2  N   UNL A   1      32.147  29.365  25.310  1.00  0.00    -0.380 N 
ATOM      3  H   UNL A   1      31.658  30.051  25.819  1.00  0.00     0.160 HD
BRANCH   2   4
ATOM      4  C   UNL A   1      31.436  28.425  24.613  1.00  0.00     0.110 C 
ATOM      5  C   UNL A   1      30.921  27.235  24.965  1.00  0.00     0.056 C 
ATOM      6  C   UNL A   1      30.062  26.681  23.861  1.00  0.00     0.153 C 
ATOM      7  C   UNL A   1      30.992  28.667  23.194  1.00  0.00     0.271 C 
ATOM      8  N   UNL A   1      29.874  27.850  23.016  1.00  0.00    -0.326 N 
ATOM      9  O   UNL A   1      31.387  29.544  22.457  1.00  0.00    -0.267 OA
BRANCH   5  10
ATOM     10  C   UNL A   1      31.187  26.633  26.301  1.00  0.00     0.193 C 
ATOM     11  O   UNL A   1      30.962  27.272  27.330  1.00  0.00    -0.289 OA
BRANCH  10  12
ATOM     12  C   UNL A   1      31.889  25.326  26.441  1.00  0.00     0.022 A 
ATOM     13  C   UNL A   1      34.062  21.592  26.290  1.00  0.00     0.044 C 
ATOM     14  C   UNL A   1      33.325  22.894  26.435  1.00  0.00    -0.051 A 
ATOM     15  C   UNL A   1      33.983  24.103  26.199  1.00  0.00     0.004 A 
ATOM     16  C   UNL A   1      31.973  22.927  26.796  1.00  0.00     0.004 A 
ATOM     17  C   UNL A   1      33.270  25.308  26.195  1.00  0.00     0.012 A 
ATOM     18  C   UNL A   1      31.263  24.139  26.819  1.00  0.00     0.012 A 
ENDBRANCH  10  12
ENDBRANCH   5  10
BRANCH   6  19
ATOM     19  C   UNL A   1      30.779  25.528  23.149  1.00  0.00    -0.017 A 
ATOM     20  C   UNL A   1      30.316  24.199  23.312  1.00  0.00     0.010 A 
ATOM     21  C   UNL A   1      32.058  25.745  22.598  1.00  0.00     0.056 A 
ATOM     22  C   UNL A   1      31.199  23.119  23.162  1.00  0.00     0.051 A 
ATOM     23  C   UNL A   1      32.919  24.681  22.559  1.00  0.00     0.166 A 
ATOM     24  C   UNL A   1      32.515  23.408  22.871  1.00  0.00     0.165 A 
ATOM     25  O   UNL A   1      34.265  24.781  22.387  1.00  0.00    -0.454 OA
ATOM     26  O   UNL A   1      33.572  22.552  22.954  1.00  0.00    -0.454 OA
ATOM     27  C   UNL A   1      34.667  23.494  22.890  1.00  0.00     0.468 C 
ENDBRANCH   6  19
BRANCH   8  28
ATOM     28  C   UNL A   1      28.635  28.624  23.095  1.00  0.00     0.121 C 
BRANCH  28  29
ATOM     29  C   UNL A   1      28.477  29.679  21.994  1.00  0.00     0.028 C 
BRANCH  29  30
ATOM     30  C   UNL A   1      28.314  31.085  22.557  1.00  0.00     0.054 C 
BRANCH  30  31
ATOM     31  C   UNL A   1      28.094  32.145  21.508  1.00  0.00     0.041 C 
ATOM     32  O   UNL A   1      28.026  31.948  20.307  1.00  0.00    -0.550 OA
ATOM     33  O   UNL A   1      27.999  33.400  21.988  1.00  0.00    -0.550 OA
ENDBRANCH  30  31
ENDBRANCH  29  30
ENDBRANCH  28  29
ENDBRANCH   8  28
ENDBRANCH   2   4
ENDBRANCH   1   2
BRANCH   1  34
ATOM     34  C   UNL A   1      34.137  28.658  26.569  1.00  0.00     0.023 C 
BRANCH  34  35
ATOM     35  C   UNL A   1      34.417  29.557  27.773  1.00  0.00     0.023 C 
BRANCH  35  36
ATOM     36  C   UNL A   1      34.783  30.981  27.403  1.00  0.00     0.116 C 
BRANCH  36  37
ATOM     37  N   UNL A   1      35.656  31.633  28.365  1.00  0.00    -0.352 N 
ATOM     38  C   UNL A   1      36.649  31.105  29.166  1.00  0.00     0.251 C 
ATOM     39  H   UNL A   1      35.518  32.603  28.459  1.00  0.00     0.163 HD
ATOM     40  O   UNL A   1      37.127  31.810  30.053  1.00  0.00    -0.269 OA
BRANCH  38  41
ATOM     41  C   UNL A   1      37.294  29.802  28.835  1.00  0.00     0.039 A 
ATOM     42  C   UNL A   1      37.359  28.877  29.890  1.00  0.00     0.014 A 
ATOM     43  C   UNL A   1      38.157  29.675  27.757  1.00  0.00     0.014 A 
ATOM     44  C   UNL A   1      38.503  28.109  30.045  1.00  0.00     0.010 A 
ATOM     45  C   UNL A   1      39.353  29.040  27.973  1.00  0.00     0.010 A 
ATOM     46  C   UNL A   1      39.547  28.333  29.160  1.00  0.00    -0.014 A 
BRANCH  46  47
ATOM     47  C   UNL A   1      40.902  27.873  29.356  1.00  0.00     0.031 A 
ATOM     48  C   UNL A   1      41.259  26.568  28.787  1.00  0.00     0.074 A 
ATOM     49  C   UNL A   1      41.802  28.739  29.871  1.00  0.00     0.049 A 
ATOM     50  N   UNL A   1      42.337  25.933  29.062  1.00  0.00    -0.248 NA
ATOM     51  C   UNL A   1      40.371  25.829  27.890  1.00  0.00     0.031 C 
ATOM     52  C   UNL A   1      43.258  28.650  29.853  1.00  0.00     0.029 A 
ATOM     53  N   UNL A   1      41.537  29.832  30.713  1.00  0.00    -0.354 N 
ATOM     54  C   UNL A   1      42.431  24.874  28.189  1.00  0.00     0.074 A 
ATOM     55  C   UNL A   1      41.132  24.776  27.579  1.00  0.00     0.031 C 
ATOM     56  C   UNL A   1      43.752  29.413  30.845  1.00  0.00     0.029 A 
ATOM     57  C   UNL A   1      42.617  29.883  31.624  1.00  0.00     0.049 A 
ATOM     58  H   UNL A   1      40.760  30.435  30.676  1.00  0.00     0.167 HD
ATOM     59  C   UNL A   1      43.655  24.308  28.015  1.00  0.00     0.037 A 
ATOM     60  C   UNL A   1      42.415  29.592  32.943  1.00  0.00     0.037 A 
ATOM     61  C   UNL A   1      44.566  24.796  29.053  1.00  0.00     0.049 A 
ATOM     62  C   UNL A   1      43.152  28.345  33.380  1.00  0.00     0.074 A 
ATOM     63  C   UNL A   1      45.537  25.780  29.067  1.00  0.00     0.029 A 
ATOM     64  N   UNL A   1      44.269  24.512  30.385  1.00  0.00    -0.354 N 
ATOM     65  N   UNL A   1      43.516  27.387  32.569  1.00  0.00    -0.248 NA
ATOM     66  C   UNL A   1      43.580  28.105  34.755  1.00  0.00     0.031 C 
ATOM     67  C   UNL A   1      45.728  26.175  30.421  1.00  0.00     0.029 A 
ATOM     68  C   UNL A   1      44.916  25.394  31.229  1.00  0.00     0.049 A 
ATOM     69  H   UNL A   1      43.679  23.783  30.683  1.00  0.00     0.167 HD
ATOM     70  C   UNL A   1      44.213  26.435  33.266  1.00  0.00     0.074 A 
ATOM     71  C   UNL A   1      44.230  26.936  34.629  1.00  0.00     0.031 C 
ATOM     72  C   UNL A   1      44.726  25.314  32.674  1.00  0.00     0.037 A 
BRANCH  59  73
ATOM     73  C   UNL A   1      44.105  23.491  26.822  1.00  0.00     0.057 A 
ATOM     74  C   UNL A   1      44.881  24.101  25.814  1.00  0.00     0.134 A 
ATOM     75  C   UNL A   1      43.728  22.165  26.526  1.00  0.00     0.134 A 
ATOM     76  F   UNL A   1      45.326  25.359  25.940  1.00  0.00    -0.206 F 
ATOM     77  C   UNL A   1      45.223  23.460  24.614  1.00  0.00     0.040 A 
ATOM     78  C   UNL A   1      44.091  21.502  25.345  1.00  0.00     0.040 A 
ATOM     79  F   UNL A   1      42.948  21.436  27.328  1.00  0.00    -0.206 F 
ATOM     80  C   UNL A   1      44.831  22.152  24.374  1.00  0.00     0.006 A 
ENDBRANCH  59  73
BRANCH  60  81
ATOM     81  C   UNL A   1      41.077  30.048  33.421  1.00  0.00     0.057 A 
ATOM     82  C   UNL A   1      40.884  31.433  33.584  1.00  0.00     0.134 A 
ATOM     83  C   UNL A   1      39.929  29.266  33.252  1.00  0.00     0.134 A 
ATOM     84  F   UNL A   1      41.939  32.239  33.782  1.00  0.00    -0.206 F 
ATOM     85  C   UNL A   1      39.634  32.035  33.408  1.00  0.00     0.040 A 
ATOM     86  C   UNL A   1      38.667  29.858  33.100  1.00  0.00     0.040 A 
ATOM     87  F   UNL A   1      40.022  27.939  33.094  1.00  0.00    -0.206 F 
ATOM     88  C   UNL A   1      38.527  31.247  33.116  1.00  0.00     0.006 A 
ENDBRANCH  60  81
BRANCH  72  89
ATOM     89  C   UNL A   1      45.177  24.066  33.405  1.00  0.00     0.057 A 
ATOM     90  C   UNL A   1      46.437  23.914  34.005  1.00  0.00     0.134 A 
ATOM     91  C   UNL A   1      44.268  23.016  33.672  1.00  0.00     0.134 A 
ATOM     92  F   UNL A   1      47.363  24.881  33.963  1.00  0.00    -0.206 F 
ATOM     93  C   UNL A   1      46.791  22.776  34.742  1.00  0.00     0.040 A 
ATOM     94  C   UNL A   1      44.587  21.910  34.464  1.00  0.00     0.040 A 
ATOM     95  F   UNL A   1      43.012  23.028  33.201  1.00  0.00    -0.206 F 
ATOM     96  C   UNL A   1      45.862  21.774  34.985  1.00  0.00     0.006 A 
ENDBRANCH  72  89
ENDBRANCH  46  47
ENDBRANCH  38  41
ENDBRANCH  36  37
ENDBRANCH  35  36
ENDBRANCH  34  35
ENDBRANCH   1  34
TORSDOF 18
ENDMDL
MODEL 2
REMARK VINA RESULT:     -13.1      3.428      8.834
REMARK SMILES Cc1ccc(C(=O)C2=C(NCCCCNC(=O)c3ccc(-c4c5nc(c(-c6c(F)cccc6F)c6ccc([nH]6)c(-c6c(F)cccc6F)c6nc(c(-c7c(F)cccc7F)c7ccc4[nH]7)C=C6)C=C5)cc3)C(=O)N(CCCC(=O)[O-])[C@H]2c2ccc3c(c2)OCO3)cc1
REMARK SMILES IDX 11 1 10 2 9 4 8 5 81 6 72 7 74 8 73 9 6 10 7 11 5 12 1 13
REMARK SMILES IDX 2 14 3 15 92 16 4 17 91 18 82 19 83 20 87 21 84 22 86 23
REMARK SMILES IDX 85 24 88 25 90 26 89 27 75 28 76 29 77 30 78 31 79 32 80 33
REMARK SMILES IDX 12 34 13 35 14 36 15 37 16 38 17 40 18 41 19 42 71 43 20 44
REMARK SMILES IDX 70 45 21 46 22 47 23 48 64 49 24 50 69 51 63 52 65 53 25 54
REMARK SMILES IDX 68 55 62 56 61 57 26 59 52 60 35 61 51 62 36 63 39 64 50 65
REMARK SMILES IDX 66 66 37 67 38 68 49 70 67 71 40 72 27 73 28 74 33 75 29 76
REMARK SMILES IDX 30 77 32 78 34 79 31 80 53 81 54 82 59 83 55 84 56 85 58 86
REMARK SMILES IDX 60 87 57 88 41 89 42 90 47 91 43 92 44 93 46 94 48 95 45 96
REMARK H PARENT 10 3 15 39 65 58 39 69
REMARK Flexibility Score: inf
ROOT
ATOM      1  C   UNL A   1      36.398  23.575  26.227  1.00  0.00     0.113 C 
ENDROOT
BRANCH   1   2
ATOM      2  N   UNL A   1      35.961  22.249  25.805  1.00  0.00    -0.380 N 
ATOM      3  H   UNL A   1      36.577  21.488  25.912  1.00  0.00     0.160 HD
BRANCH   2   4
ATOM      4  C   UNL A   1      34.723  22.029  25.266  1.00  0.00     0.110 C 
ATOM      5  C   UNL A   1      34.129  22.483  24.148  1.00  0.00     0.056 C 
ATOM      6  C   UNL A   1      32.818  21.781  23.921  1.00  0.00     0.153 C 
ATOM      7  C   UNL A   1      33.761  21.045  25.877  1.00  0.00     0.271 C 
ATOM      8  N   UNL A   1      32.925  20.650  24.831  1.00  0.00    -0.326 N 
ATOM      9  O   UNL A   1      33.846  20.545  26.978  1.00  0.00    -0.267 OA
BRANCH   5  10
ATOM     10  C   UNL A   1      34.768  23.518  23.290  1.00  0.00     0.193 C 
ATOM     11  O   UNL A   1      35.865  23.309  22.771  1.00  0.00    -0.289 OA
BRANCH  10  12
ATOM     12  C   UNL A   1      34.200  24.891  23.171  1.00  0.00     0.022 A 
ATOM     13  C   UNL A   1      32.170  28.708  23.226  1.00  0.00     0.044 C 
ATOM     14  C   UNL A   1      32.954  27.426  23.178  1.00  0.00    -0.051 A 
ATOM     15  C   UNL A   1      33.596  26.952  24.324  1.00  0.00     0.004 A 
ATOM     16  C   UNL A   1      33.049  26.677  21.999  1.00  0.00     0.004 A 
ATOM     17  C   UNL A   1      34.207  25.693  24.323  1.00  0.00     0.012 A 
ATOM     18  C   UNL A   1      33.686  25.425  21.990  1.00  0.00     0.012 A 
ENDBRANCH  10  12
ENDBRANCH   5  10
BRANCH   6  19
ATOM     19  C   UNL A   1      31.645  22.712  24.250  1.00  0.00    -0.017 A 
ATOM     20  C   UNL A   1      30.909  23.319  23.202  1.00  0.00     0.010 A 
ATOM     21  C   UNL A   1      31.500  23.203  25.563  1.00  0.00     0.056 A 
ATOM     22  C   UNL A   1      30.242  24.533  23.418  1.00  0.00     0.051 A 
ATOM     23  C   UNL A   1      30.927  24.437  25.718  1.00  0.00     0.166 A 
ATOM     24  C   UNL A   1      30.348  25.106  24.668  1.00  0.00     0.165 A 
ATOM     25  O   UNL A   1      31.016  25.197  26.842  1.00  0.00    -0.454 OA
ATOM     26  O   UNL A   1      30.022  26.385  25.007  1.00  0.00    -0.454 OA
ATOM     27  C   UNL A   1      30.678  26.482  26.291  1.00  0.00     0.468 C 
ENDBRANCH   6  19
BRANCH   8  28
ATOM     28  C   UNL A   1      33.302  19.330  24.323  1.00  0.00     0.121 C 
BRANCH  28  29
ATOM     29  C   UNL A   1      32.326  18.208  24.693  1.00  0.00     0.028 C 
BRANCH  29  30
ATOM     30  C   UNL A   1      32.969  17.148  25.578  1.00  0.00     0.054 C 
BRANCH  30  31
ATOM     31  C   UNL A   1      33.515  15.965  24.821  1.00  0.00     0.041 C 
ATOM     32  O   UNL A   1      33.914  14.927  25.322  1.00  0.00    -0.550 OA
ATOM     33  O   UNL A   1      33.571  16.129  23.486  1.00  0.00    -0.550 OA
ENDBRANCH  30  31
ENDBRANCH  29  30
ENDBRANCH  28  29
ENDBRANCH   8  28
ENDBRANCH   2   4
ENDBRANCH   1   2
BRANCH   1  34
ATOM     34  C   UNL A   1      37.926  23.682  26.162  1.00  0.00     0.023 C 
BRANCH  34  35
ATOM     35  C   UNL A   1      38.661  22.367  25.906  1.00  0.00     0.023 C 
BRANCH  35  36
ATOM     36  C   UNL A   1      40.036  22.299  26.541  1.00  0.00     0.116 C 
BRANCH  36  37
ATOM     37  N   UNL A   1      40.860  21.209  26.046  1.00  0.00    -0.352 N 
ATOM     38  C   UNL A   1      42.234  21.070  26.025  1.00  0.00     0.251 C 
ATOM     39  H   UNL A   1      40.360  20.451  25.667  1.00  0.00     0.163 HD
ATOM     40  O   UNL A   1      42.723  20.148  25.375  1.00  0.00    -0.269 OA
BRANCH  38  41
ATOM     41  C   UNL A   1      43.102  21.866  26.940  1.00  0.00     0.039 A 
ATOM     42  C   UNL A   1      42.753  21.814  28.299  1.00  0.00     0.014 A 
ATOM     43  C   UNL A   1      43.876  22.916  26.470  1.00  0.00     0.014 A 
ATOM     44  C   UNL A   1      42.833  22.970  29.061  1.00  0.00     0.010 A 
ATOM     45  C   UNL A   1      43.824  24.101  27.158  1.00  0.00     0.010 A 
ATOM     46  C   UNL A   1      43.221  24.134  28.416  1.00  0.00    -0.014 A 
BRANCH  46  47
ATOM     47  C   UNL A   1      43.057  25.465  28.954  1.00  0.00     0.031 A 
ATOM     48  C   UNL A   1      41.881  26.227  28.516  1.00  0.00     0.074 A 
ATOM     49  C   UNL A   1      43.870  25.851  29.962  1.00  0.00     0.049 A 
ATOM     50  N   UNL A   1      41.717  27.481  28.728  1.00  0.00    -0.248 NA
ATOM     51  C   UNL A   1      40.803  25.633  27.727  1.00  0.00     0.031 C 
ATOM     52  C   UNL A   1      43.701  26.967  30.885  1.00  0.00     0.029 A 
ATOM     53  N   UNL A   1      45.165  25.378  30.229  1.00  0.00    -0.354 N 
ATOM     54  C   UNL A   1      40.425  27.795  28.377  1.00  0.00     0.074 A 
ATOM     55  C   UNL A   1      39.947  26.655  27.643  1.00  0.00     0.031 C 
ATOM     56  C   UNL A   1      44.902  27.295  31.393  1.00  0.00     0.029 A 
ATOM     57  C   UNL A   1      45.894  26.501  30.686  1.00  0.00     0.049 A 
ATOM     58  H   UNL A   1      45.496  24.458  30.121  1.00  0.00     0.167 HD
ATOM     59  C   UNL A   1      39.898  28.944  28.880  1.00  0.00     0.037 A 
ATOM     60  C   UNL A   1      46.897  27.024  29.920  1.00  0.00     0.037 A 
ATOM     61  C   UNL A   1      40.969  29.750  29.471  1.00  0.00     0.049 A 
ATOM     62  C   UNL A   1      46.588  28.426  29.443  1.00  0.00     0.074 A 
ATOM     63  C   UNL A   1      41.406  29.928  30.771  1.00  0.00     0.029 A 
ATOM     64  N   UNL A   1      41.993  30.204  28.642  1.00  0.00    -0.354 N 
ATOM     65  N   UNL A   1      45.379  28.909  29.320  1.00  0.00    -0.248 NA
ATOM     66  C   UNL A   1      47.617  29.408  29.115  1.00  0.00     0.031 C 
ATOM     67  C   UNL A   1      42.756  30.377  30.712  1.00  0.00     0.029 A 
ATOM     68  C   UNL A   1      43.116  30.522  29.381  1.00  0.00     0.049 A 
ATOM     69  H   UNL A   1      41.925  30.287  27.664  1.00  0.00     0.167 HD
ATOM     70  C   UNL A   1      45.446  30.219  28.925  1.00  0.00     0.074 A 
ATOM     71  C   UNL A   1      46.869  30.484  28.816  1.00  0.00     0.031 C 
ATOM     72  C   UNL A   1      44.333  30.987  28.722  1.00  0.00     0.037 A 
BRANCH  59  73
ATOM     73  C   UNL A   1      38.427  29.264  29.036  1.00  0.00     0.057 A 
ATOM     74  C   UNL A   1      37.697  29.740  27.926  1.00  0.00     0.134 A 
ATOM     75  C   UNL A   1      37.691  29.255  30.238  1.00  0.00     0.134 A 
ATOM     76  F   UNL A   1      38.247  29.810  26.706  1.00  0.00    -0.206 F 
ATOM     77  C   UNL A   1      36.370  30.190  28.013  1.00  0.00     0.040 A 
ATOM     78  C   UNL A   1      36.355  29.670  30.332  1.00  0.00     0.040 A 
ATOM     79  F   UNL A   1      38.219  28.890  31.409  1.00  0.00    -0.206 F 
ATOM     80  C   UNL A   1      35.691  30.155  29.221  1.00  0.00     0.006 A 
ENDBRANCH  59  73
BRANCH  60  81
ATOM     81  C   UNL A   1      47.637  25.971  29.167  1.00  0.00     0.057 A 
ATOM     82  C   UNL A   1      47.369  25.849  27.789  1.00  0.00     0.134 A 
ATOM     83  C   UNL A   1      48.859  25.463  29.618  1.00  0.00     0.134 A 
ATOM     84  F   UNL A   1      46.201  26.287  27.291  1.00  0.00    -0.206 F 
ATOM     85  C   UNL A   1      48.337  25.411  26.880  1.00  0.00     0.040 A 
ATOM     86  C   UNL A   1      49.828  24.998  28.716  1.00  0.00     0.040 A 
ATOM     87  F   UNL A   1      49.192  25.534  30.914  1.00  0.00    -0.206 F 
ATOM     88  C   UNL A   1      49.592  25.030  27.342  1.00  0.00     0.006 A 
ENDBRANCH  60  81
BRANCH  72  89
ATOM     89  C   UNL A   1      44.298  32.293  27.954  1.00  0.00     0.057 A 
ATOM     90  C   UNL A   1      43.936  33.529  28.513  1.00  0.00     0.134 A 
ATOM     91  C   UNL A   1      44.798  32.368  26.633  1.00  0.00     0.134 A 
ATOM     92  F   UNL A   1      43.574  33.646  29.798  1.00  0.00    -0.206 F 
ATOM     93  C   UNL A   1      43.992  34.729  27.793  1.00  0.00     0.040 A 
ATOM     94  C   UNL A   1      44.925  33.569  25.931  1.00  0.00     0.040 A 
ATOM     95  F   UNL A   1      45.219  31.281  25.971  1.00  0.00    -0.206 F 
ATOM     96  C   UNL A   1      44.499  34.756  26.502  1.00  0.00     0.006 A 
ENDBRANCH  72  89
ENDBRANCH  46  47
ENDBRANCH  38  41
ENDBRANCH  36  37
ENDBRANCH  35  36
ENDBRANCH  34  35
ENDBRANCH   1  34
TORSDOF 18
ENDMDL
MODEL 3
REMARK VINA RESULT:     -13.1      4.005      9.542
REMARK SMILES Cc1ccc(C(=O)C2=C(NCCCCNC(=O)c3ccc(-c4c5nc(c(-c6c(F)cccc6F)c6ccc([nH]6)c(-c6c(F)cccc6F)c6nc(c(-c7c(F)cccc7F)c7ccc4[nH]7)C=C6)C=C5)cc3)C(=O)N(CCCC(=O)[O-])[C@H]2c2ccc3c(c2)OCO3)cc1
REMARK SMILES IDX 11 1 10 2 9 4 8 5 81 6 72 7 74 8 73 9 6 10 7 11 5 12 1 13
REMARK SMILES IDX 2 14 3 15 92 16 4 17 91 18 82 19 83 20 87 21 84 22 86 23
REMARK SMILES IDX 85 24 88 25 90 26 89 27 75 28 76 29 77 30 78 31 79 32 80 33
REMARK SMILES IDX 12 34 13 35 14 36 15 37 16 38 17 40 18 41 19 42 71 43 20 44
REMARK SMILES IDX 70 45 21 46 22 47 23 48 64 49 24 50 69 51 63 52 65 53 25 54
REMARK SMILES IDX 68 55 62 56 61 57 26 59 52 60 35 61 51 62 36 63 39 64 50 65
REMARK SMILES IDX 66 66 37 67 38 68 49 70 67 71 40 72 27 73 28 74 33 75 29 76
REMARK SMILES IDX 30 77 32 78 34 79 31 80 53 81 54 82 59 83 55 84 56 85 58 86
REMARK SMILES IDX 60 87 57 88 41 89 42 90 47 91 43 92 44 93 46 94 48 95 45 96
REMARK H PARENT 10 3 15 39 65 58 39 69
REMARK Flexibility Score: inf
ROOT
ATOM      1  C   UNL A   1      36.131  23.126  26.358  1.00  0.00     0.113 C 
ENDROOT
BRANCH   1   2
ATOM      2  N   UNL A   1      35.620  21.999  25.586  1.00  0.00    -0.380 N 
ATOM      3  H   UNL A   1      36.212  21.233  25.410  1.00  0.00     0.160 HD
BRANCH   2   4
ATOM      4  C   UNL A   1      34.341  21.974  25.097  1.00  0.00     0.110 C 
ATOM      5  C   UNL A   1      33.765  22.574  24.041  1.00  0.00     0.056 C 
ATOM      6  C   UNL A   1      32.365  22.060  23.837  1.00  0.00     0.153 C 
ATOM      7  C   UNL A   1      33.287  21.079  25.693  1.00  0.00     0.271 C 
ATOM      8  N   UNL A   1      32.365  20.865  24.667  1.00  0.00    -0.326 N 
ATOM      9  O   UNL A   1      33.354  20.499  26.755  1.00  0.00    -0.267 OA
BRANCH   5  10
ATOM     10  C   UNL A   1      34.495  23.578  23.218  1.00  0.00     0.193 C 
ATOM     11  O   UNL A   1      35.534  23.269  22.635  1.00  0.00    -0.289 OA
BRANCH  10  12
ATOM     12  C   UNL A   1      34.102  25.015  23.211  1.00  0.00     0.022 A 
ATOM     13  C   UNL A   1      32.576  29.042  23.597  1.00  0.00     0.044 C 
ATOM     14  C   UNL A   1      33.188  27.679  23.433  1.00  0.00    -0.051 A 
ATOM     15  C   UNL A   1      33.806  27.051  24.518  1.00  0.00     0.004 A 
ATOM     16  C   UNL A   1      33.146  27.007  22.206  1.00  0.00     0.004 A 
ATOM     17  C   UNL A   1      34.252  25.729  24.410  1.00  0.00     0.012 A 
ATOM     18  C   UNL A   1      33.618  25.689  22.090  1.00  0.00     0.012 A 
ENDBRANCH  10  12
ENDBRANCH   5  10
BRANCH   6  19
ATOM     19  C   UNL A   1      31.337  23.107  24.282  1.00  0.00    -0.017 A 
ATOM     20  C   UNL A   1      30.604  23.835  23.312  1.00  0.00     0.010 A 
ATOM     21  C   UNL A   1      31.346  23.560  25.617  1.00  0.00     0.056 A 
ATOM     22  C   UNL A   1      30.103  25.109  23.615  1.00  0.00     0.051 A 
ATOM     23  C   UNL A   1      30.935  24.845  25.852  1.00  0.00     0.166 A 
ATOM     24  C   UNL A   1      30.365  25.616  24.871  1.00  0.00     0.165 A 
ATOM     25  O   UNL A   1      31.194  25.544  26.989  1.00  0.00    -0.454 OA
ATOM     26  O   UNL A   1      30.217  26.910  25.272  1.00  0.00    -0.454 OA
ATOM     27  C   UNL A   1      30.970  26.880  26.505  1.00  0.00     0.468 C 
ENDBRANCH   6  19
BRANCH   8  28
ATOM     28  C   UNL A   1      32.546  19.547  24.060  1.00  0.00     0.121 C 
BRANCH  28  29
ATOM     29  C   UNL A   1      32.868  18.429  25.058  1.00  0.00     0.028 C 
BRANCH  29  30
ATOM     30  C   UNL A   1      34.130  17.662  24.683  1.00  0.00     0.054 C 
BRANCH  30  31
ATOM     31  C   UNL A   1      33.867  16.311  24.069  1.00  0.00     0.041 C 
ATOM     32  O   UNL A   1      33.472  15.326  24.669  1.00  0.00    -0.550 OA
ATOM     33  O   UNL A   1      34.131  16.230  22.751  1.00  0.00    -0.550 OA
ENDBRANCH  30  31
ENDBRANCH  29  30
ENDBRANCH  28  29
ENDBRANCH   8  28
ENDBRANCH   2   4
ENDBRANCH   1   2
BRANCH   1  34
ATOM     34  C   UNL A   1      37.542  23.501  25.888  1.00  0.00     0.023 C 
BRANCH  34  35
ATOM     35  C   UNL A   1      38.647  22.530  26.303  1.00  0.00     0.023 C 
BRANCH  35  36
ATOM     36  C   UNL A   1      40.047  23.035  26.015  1.00  0.00     0.116 C 
BRANCH  36  37
ATOM     37  N   UNL A   1      40.865  23.211  27.202  1.00  0.00    -0.352 N 
ATOM     38  C   UNL A   1      41.117  24.344  27.950  1.00  0.00     0.251 C 
ATOM     39  H   UNL A   1      41.309  22.394  27.525  1.00  0.00     0.163 HD
ATOM     40  O   UNL A   1      42.003  24.304  28.802  1.00  0.00    -0.269 OA
BRANCH  38  41
ATOM     41  C   UNL A   1      40.202  25.520  27.897  1.00  0.00     0.039 A 
ATOM     42  C   UNL A   1      40.575  26.535  27.000  1.00  0.00     0.014 A 
ATOM     43  C   UNL A   1      39.338  25.813  28.942  1.00  0.00     0.014 A 
ATOM     44  C   UNL A   1      40.414  27.860  27.375  1.00  0.00     0.010 A 
ATOM     45  C   UNL A   1      39.306  27.106  29.396  1.00  0.00     0.010 A 
ATOM     46  C   UNL A   1      39.924  28.108  28.648  1.00  0.00    -0.014 A 
BRANCH  46  47
ATOM     47  C   UNL A   1      39.989  29.387  29.317  1.00  0.00     0.031 A 
ATOM     48  C   UNL A   1      38.935  30.362  29.011  1.00  0.00     0.074 A 
ATOM     49  C   UNL A   1      40.886  29.539  30.317  1.00  0.00     0.049 A 
ATOM     50  N   UNL A   1      38.978  31.597  29.347  1.00  0.00    -0.248 NA
ATOM     51  C   UNL A   1      37.751  30.023  28.222  1.00  0.00     0.031 C 
ATOM     52  C   UNL A   1      40.926  30.569  31.349  1.00  0.00     0.029 A 
ATOM     53  N   UNL A   1      42.098  28.848  30.475  1.00  0.00    -0.354 N 
ATOM     54  C   UNL A   1      37.741  32.141  29.091  1.00  0.00     0.074 A 
ATOM     55  C   UNL A   1      37.065  31.167  28.276  1.00  0.00     0.031 C 
ATOM     56  C   UNL A   1      42.179  30.656  31.827  1.00  0.00     0.029 A 
ATOM     57  C   UNL A   1      43.009  29.793  31.000  1.00  0.00     0.049 A 
ATOM     58  H   UNL A   1      42.276  27.904  30.265  1.00  0.00     0.167 HD
ATOM     59  C   UNL A   1      37.419  33.300  29.725  1.00  0.00     0.037 A 
ATOM     60  C   UNL A   1      44.057  30.231  30.240  1.00  0.00     0.037 A 
ATOM     61  C   UNL A   1      38.623  33.868  30.337  1.00  0.00     0.049 A 
ATOM     62  C   UNL A   1      43.958  31.705  29.913  1.00  0.00     0.074 A 
ATOM     63  C   UNL A   1      39.125  33.845  31.625  1.00  0.00     0.029 A 
ATOM     64  N   UNL A   1      39.678  34.241  29.506  1.00  0.00    -0.354 N 
ATOM     65  N   UNL A   1      42.837  32.378  29.894  1.00  0.00    -0.248 NA
ATOM     66  C   UNL A   1      45.118  32.544  29.630  1.00  0.00     0.031 C 
ATOM     67  C   UNL A   1      40.526  34.084  31.544  1.00  0.00     0.029 A 
ATOM     68  C   UNL A   1      40.861  34.306  30.216  1.00  0.00     0.049 A 
ATOM     69  H   UNL A   1      39.592  34.431  28.544  1.00  0.00     0.167 HD
ATOM     70  C   UNL A   1      43.097  33.695  29.622  1.00  0.00     0.074 A 
ATOM     71  C   UNL A   1      44.540  33.748  29.471  1.00  0.00     0.031 C 
ATOM     72  C   UNL A   1      42.113  34.642  29.547  1.00  0.00     0.037 A 
BRANCH  59  73
ATOM     73  C   UNL A   1      36.022  33.826  29.981  1.00  0.00     0.057 A 
ATOM     74  C   UNL A   1      35.224  34.240  28.893  1.00  0.00     0.134 A 
ATOM     75  C   UNL A   1      35.439  34.073  31.240  1.00  0.00     0.134 A 
ATOM     76  F   UNL A   1      35.630  34.074  27.626  1.00  0.00    -0.206 F 
ATOM     77  C   UNL A   1      33.977  34.865  29.048  1.00  0.00     0.040 A 
ATOM     78  C   UNL A   1      34.179  34.666  31.408  1.00  0.00     0.040 A 
ATOM     79  F   UNL A   1      36.058  33.803  32.392  1.00  0.00    -0.206 F 
ATOM     80  C   UNL A   1      33.447  35.079  30.310  1.00  0.00     0.006 A 
ENDBRANCH  59  73
BRANCH  60  81
ATOM     81  C   UNL A   1      44.596  29.158  29.356  1.00  0.00     0.057 A 
ATOM     82  C   UNL A   1      45.404  28.170  29.952  1.00  0.00     0.134 A 
ATOM     83  C   UNL A   1      43.981  28.822  28.145  1.00  0.00     0.134 A 
ATOM     84  F   UNL A   1      46.050  28.435  31.100  1.00  0.00    -0.206 F 
ATOM     85  C   UNL A   1      45.455  26.859  29.468  1.00  0.00     0.040 A 
ATOM     86  C   UNL A   1      44.047  27.516  27.637  1.00  0.00     0.040 A 
ATOM     87  F   UNL A   1      43.199  29.704  27.507  1.00  0.00    -0.206 F 
ATOM     88  C   UNL A   1      44.732  26.518  28.331  1.00  0.00     0.006 A 
ENDBRANCH  60  81
BRANCH  72  89
ATOM     89  C   UNL A   1      42.259  36.008  28.908  1.00  0.00     0.057 A 
ATOM     90  C   UNL A   1      42.956  37.080  29.488  1.00  0.00     0.134 A 
ATOM     91  C   UNL A   1      41.827  36.235  27.581  1.00  0.00     0.134 A 
ATOM     92  F   UNL A   1      43.548  36.976  30.685  1.00  0.00    -0.206 F 
ATOM     93  C   UNL A   1      43.139  38.305  28.832  1.00  0.00     0.040 A 
ATOM     94  C   UNL A   1      42.066  37.428  26.893  1.00  0.00     0.040 A 
ATOM     95  F   UNL A   1      41.178  35.298  26.875  1.00  0.00    -0.206 F 
ATOM     96  C   UNL A   1      42.705  38.479  27.526  1.00  0.00     0.006 A 
ENDBRANCH  72  89
ENDBRANCH  46  47
ENDBRANCH  38  41
ENDBRANCH  36  37
ENDBRANCH  35  36
ENDBRANCH  34  35
ENDBRANCH   1  34
TORSDOF 18
ENDMDL
