MODEL 1
REMARK VINA RESULT:     -11.2      0.000      0.000
REMARK SMILES CC[C@H]1CCCC[C@@H]1Sc1csc(C(=O)NCCCCNC(=O)c2ccc(-c3c4nc(c(-c5c(F)cccc5F)c5ccc([nH]5)c(-c5c(F)cccc5F)c5nc(c(-c6c(F)cccc6F)c6ccc3[nH]6)C=C5)C=C4)cc2)c1
REMARK SMILES IDX 18 1 17 2 16 3 14 4 15 5 13 7 10 8 11 9 78 10 12 11 9 12
REMARK SMILES IDX 8 13 3 14 4 15 5 16 7 17 6 18 2 19 1 20 19 21 20 22 21 23
REMARK SMILES IDX 22 24 23 26 24 27 25 28 77 29 26 30 76 31 27 32 28 33 29 34
REMARK SMILES IDX 70 35 30 36 75 37 69 38 71 39 31 40 74 41 68 42 67 43 32 45
REMARK SMILES IDX 58 46 41 47 57 48 42 49 45 50 56 51 72 52 43 53 44 54 55 56
REMARK SMILES IDX 73 57 46 58 33 59 34 60 39 61 35 62 36 63 38 64 40 65 37 66
REMARK SMILES IDX 59 67 60 68 65 69 61 70 62 71 64 72 66 73 63 74 47 75 48 76
REMARK SMILES IDX 53 77 49 78 50 79 52 80 54 81 51 82
REMARK H PARENT 16 6 21 25 71 44 45 55
REMARK Flexibility Score: inf
ROOT
ATOM      1  C   UNL A   1      36.167  21.599  24.943  1.00  0.00     0.023 C 
ENDROOT
BRANCH   1   2
ATOM      2  C   UNL A   1      35.194  21.582  26.125  1.00  0.00     0.116 C 
BRANCH   2   3
ATOM      3  N   UNL A   1      34.268  20.469  26.023  1.00  0.00    -0.351 N 
ATOM      4  C   UNL A   1      33.009  20.379  25.469  1.00  0.00     0.261 C 
ATOM      5  O   UNL A   1      32.506  19.253  25.471  1.00  0.00    -0.268 OA
ATOM      6  H   UNL A   1      34.598  19.630  26.420  1.00  0.00     0.163 HD
BRANCH   4   7
ATOM      7  C   UNL A   1      32.362  21.550  24.894  1.00  0.00     0.093 A 
ATOM      8  C   UNL A   1      31.334  23.629  24.586  1.00  0.00     0.019 A 
ATOM      9  C   UNL A   1      31.720  23.347  23.300  1.00  0.00     0.080 A 
ATOM     10  C   UNL A   1      31.608  22.552  25.472  1.00  0.00     0.040 A 
ATOM     11  S   UNL A   1      32.476  21.811  23.194  1.00  0.00    -0.137 S 
BRANCH   8  12
ATOM     12  S   UNL A   1      30.673  25.111  25.232  1.00  0.00    -0.122 SA
BRANCH  12  13
ATOM     13  C   UNL A   1      32.041  25.953  26.113  1.00  0.00     0.055 C 
ATOM     14  C   UNL A   1      31.647  27.457  26.232  1.00  0.00     0.002 C 
ATOM     15  C   UNL A   1      31.722  28.164  24.859  1.00  0.00     0.005 C 
ATOM     16  C   UNL A   1      33.060  27.965  24.148  1.00  0.00     0.000 C 
ATOM     17  C   UNL A   1      33.392  25.790  25.401  1.00  0.00     0.015 C 
ATOM     18  C   UNL A   1      33.455  26.496  24.047  1.00  0.00     0.001 C 
BRANCH  14  19
ATOM     19  C   UNL A   1      32.503  28.172  27.304  1.00  0.00     0.001 C 
ATOM     20  C   UNL A   1      32.387  29.691  27.240  1.00  0.00     0.004 C 
ENDBRANCH  14  19
ENDBRANCH  12  13
ENDBRANCH   8  12
ENDBRANCH   4   7
ENDBRANCH   2   3
ENDBRANCH   1   2
BRANCH   1  21
ATOM     21  C   UNL A   1      37.191  20.461  24.961  1.00  0.00     0.023 C 
BRANCH  21  22
ATOM     22  C   UNL A   1      38.529  20.801  25.614  1.00  0.00     0.116 C 
BRANCH  22  23
ATOM     23  N   UNL A   1      39.477  19.698  25.605  1.00  0.00    -0.352 N 
ATOM     24  C   UNL A   1      40.799  19.698  25.989  1.00  0.00     0.251 C 
ATOM     25  H   UNL A   1      39.126  18.837  25.281  1.00  0.00     0.163 HD
ATOM     26  O   UNL A   1      41.495  18.707  25.833  1.00  0.00    -0.269 OA
BRANCH  24  27
ATOM     27  C   UNL A   1      41.383  20.936  26.549  1.00  0.00     0.039 A 
ATOM     28  C   UNL A   1      42.028  21.824  25.685  1.00  0.00     0.014 A 
ATOM     29  C   UNL A   1      41.248  21.238  27.906  1.00  0.00     0.014 A 
ATOM     30  C   UNL A   1      42.461  23.060  26.166  1.00  0.00     0.010 A 
ATOM     31  C   UNL A   1      41.627  22.493  28.371  1.00  0.00     0.010 A 
ATOM     32  C   UNL A   1      42.220  23.421  27.502  1.00  0.00    -0.014 A 
BRANCH  32  33
ATOM     33  C   UNL A   1      42.533  24.784  28.000  1.00  0.00     0.031 A 
ATOM     34  C   UNL A   1      43.922  25.125  28.453  1.00  0.00     0.074 A 
ATOM     35  C   UNL A   1      41.538  25.684  28.129  1.00  0.00     0.049 A 
ATOM     36  N   UNL A   1      44.361  26.223  29.014  1.00  0.00    -0.248 NA
ATOM     37  C   UNL A   1      44.948  24.085  28.278  1.00  0.00     0.031 C 
ATOM     38  C   UNL A   1      40.138  25.456  27.768  1.00  0.00     0.029 A 
ATOM     39  N   UNL A   1      41.550  26.966  28.618  1.00  0.00    -0.354 N 
ATOM     40  C   UNL A   1      45.707  26.002  29.273  1.00  0.00     0.074 A 
ATOM     41  C   UNL A   1      46.004  24.650  28.846  1.00  0.00     0.031 C 
ATOM     42  C   UNL A   1      39.428  26.563  28.037  1.00  0.00     0.029 A 
ATOM     43  C   UNL A   1      40.314  27.564  28.623  1.00  0.00     0.049 A 
ATOM     44  H   UNL A   1      42.368  27.415  28.935  1.00  0.00     0.167 HD
ATOM     45  C   UNL A   1      46.616  26.855  29.800  1.00  0.00     0.037 A 
ATOM     46  C   UNL A   1      39.933  28.778  29.063  1.00  0.00     0.037 A 
ATOM     47  C   UNL A   1      46.325  28.207  30.200  1.00  0.00     0.049 A 
ATOM     48  C   UNL A   1      40.958  29.701  29.657  1.00  0.00     0.074 A 
ATOM     49  C   UNL A   1      47.195  29.173  30.674  1.00  0.00     0.029 A 
ATOM     50  N   UNL A   1      45.062  28.781  30.178  1.00  0.00    -0.354 N 
ATOM     51  N   UNL A   1      42.243  29.506  29.829  1.00  0.00    -0.248 NA
ATOM     52  C   UNL A   1      40.483  31.013  30.118  1.00  0.00     0.031 C 
ATOM     53  C   UNL A   1      46.452  30.319  30.977  1.00  0.00     0.029 A 
ATOM     54  C   UNL A   1      45.127  30.080  30.655  1.00  0.00     0.049 A 
ATOM     55  H   UNL A   1      44.243  28.333  29.868  1.00  0.00     0.167 HD
ATOM     56  C   UNL A   1      42.732  30.673  30.400  1.00  0.00     0.074 A 
ATOM     57  C   UNL A   1      41.609  31.578  30.531  1.00  0.00     0.031 C 
ATOM     58  C   UNL A   1      43.999  30.967  30.782  1.00  0.00     0.037 A 
BRANCH  45  59
ATOM     59  C   UNL A   1      48.018  26.350  29.973  1.00  0.00     0.057 A 
ATOM     60  C   UNL A   1      48.981  26.488  28.964  1.00  0.00     0.134 A 
ATOM     61  C   UNL A   1      48.419  25.750  31.172  1.00  0.00     0.134 A 
ATOM     62  F   UNL A   1      48.656  27.044  27.787  1.00  0.00    -0.206 F 
ATOM     63  C   UNL A   1      50.286  26.025  29.134  1.00  0.00     0.040 A 
ATOM     64  C   UNL A   1      49.729  25.305  31.363  1.00  0.00     0.040 A 
ATOM     65  F   UNL A   1      47.549  25.593  32.181  1.00  0.00    -0.206 F 
ATOM     66  C   UNL A   1      50.665  25.437  30.339  1.00  0.00     0.006 A 
ENDBRANCH  45  59
BRANCH  46  67
ATOM     67  C   UNL A   1      38.513  29.194  28.950  1.00  0.00     0.057 A 
ATOM     68  C   UNL A   1      37.655  29.127  30.053  1.00  0.00     0.134 A 
ATOM     69  C   UNL A   1      37.982  29.666  27.745  1.00  0.00     0.134 A 
ATOM     70  F   UNL A   1      38.103  28.665  31.230  1.00  0.00    -0.206 F 
ATOM     71  C   UNL A   1      36.314  29.504  29.959  1.00  0.00     0.040 A 
ATOM     72  C   UNL A   1      36.649  30.066  27.641  1.00  0.00     0.040 A 
ATOM     73  F   UNL A   1      38.757  29.759  26.654  1.00  0.00    -0.206 F 
ATOM     74  C   UNL A   1      35.809  29.979  28.750  1.00  0.00     0.006 A 
ENDBRANCH  46  67
BRANCH  58  75
ATOM     75  C   UNL A   1      44.241  32.328  31.362  1.00  0.00     0.057 A 
ATOM     76  C   UNL A   1      44.190  32.559  32.741  1.00  0.00     0.134 A 
ATOM     77  C   UNL A   1      44.572  33.409  30.534  1.00  0.00     0.134 A 
ATOM     78  F   UNL A   1      43.863  31.567  33.584  1.00  0.00    -0.206 F 
ATOM     79  C   UNL A   1      44.448  33.821  33.278  1.00  0.00     0.040 A 
ATOM     80  C   UNL A   1      44.854  34.670  31.061  1.00  0.00     0.040 A 
ATOM     81  F   UNL A   1      44.643  33.252  29.204  1.00  0.00    -0.206 F 
ATOM     82  C   UNL A   1      44.789  34.879  32.437  1.00  0.00     0.006 A 
ENDBRANCH  58  75
ENDBRANCH  32  33
ENDBRANCH  24  27
ENDBRANCH  22  23
ENDBRANCH  21  22
ENDBRANCH   1  21
TORSDOF 14
ENDMDL
MODEL 2
REMARK VINA RESULT:     -11.1      2.994      7.616
REMARK SMILES CC[C@H]1CCCC[C@@H]1Sc1csc(C(=O)NCCCCNC(=O)c2ccc(-c3c4nc(c(-c5c(F)cccc5F)c5ccc([nH]5)c(-c5c(F)cccc5F)c5nc(c(-c6c(F)cccc6F)c6ccc3[nH]6)C=C5)C=C4)cc2)c1
REMARK SMILES IDX 18 1 17 2 16 3 14 4 15 5 13 7 10 8 11 9 78 10 12 11 9 12
REMARK SMILES IDX 8 13 3 14 4 15 5 16 7 17 6 18 2 19 1 20 19 21 20 22 21 23
REMARK SMILES IDX 22 24 23 26 24 27 25 28 77 29 26 30 76 31 27 32 28 33 29 34
REMARK SMILES IDX 70 35 30 36 75 37 69 38 71 39 31 40 74 41 68 42 67 43 32 45
REMARK SMILES IDX 58 46 41 47 57 48 42 49 45 50 56 51 72 52 43 53 44 54 55 56
REMARK SMILES IDX 73 57 46 58 33 59 34 60 39 61 35 62 36 63 38 64 40 65 37 66
REMARK SMILES IDX 59 67 60 68 65 69 61 70 62 71 64 72 66 73 63 74 47 75 48 76
REMARK SMILES IDX 53 77 49 78 50 79 52 80 54 81 51 82
REMARK H PARENT 16 6 21 25 71 44 45 55
REMARK Flexibility Score: inf
ROOT
ATOM      1  C   UNL A   1      32.926  29.318  24.899  1.00  0.00     0.023 C 
ENDROOT
BRANCH   1   2
ATOM      2  C   UNL A   1      33.089  29.124  23.389  1.00  0.00     0.116 C 
BRANCH   2   3
ATOM      3  N   UNL A   1      31.829  29.327  22.697  1.00  0.00    -0.351 N 
ATOM      4  C   UNL A   1      30.814  28.451  22.376  1.00  0.00     0.261 C 
ATOM      5  O   UNL A   1      29.822  28.957  21.849  1.00  0.00    -0.268 OA
ATOM      6  H   UNL A   1      31.672  30.254  22.406  1.00  0.00     0.163 HD
BRANCH   4   7
ATOM      7  C   UNL A   1      30.925  27.034  22.691  1.00  0.00     0.093 A 
ATOM      8  C   UNL A   1      31.689  24.836  22.934  1.00  0.00     0.019 A 
ATOM      9  C   UNL A   1      30.653  24.841  23.832  1.00  0.00     0.080 A 
ATOM     10  C   UNL A   1      31.772  26.056  22.209  1.00  0.00     0.040 A 
ATOM     11  S   UNL A   1      29.837  26.350  23.840  1.00  0.00    -0.137 S 
BRANCH   8  12
ATOM     12  S   UNL A   1      32.904  23.608  22.668  1.00  0.00    -0.122 SA
BRANCH  12  13
ATOM     13  C   UNL A   1      33.270  22.871  24.304  1.00  0.00     0.055 C 
ATOM     14  C   UNL A   1      33.572  24.052  25.276  1.00  0.00     0.002 C 
ATOM     15  C   UNL A   1      34.935  24.706  24.953  1.00  0.00     0.005 C 
ATOM     16  C   UNL A   1      36.085  23.702  24.878  1.00  0.00     0.000 C 
ATOM     17  C   UNL A   1      34.442  21.879  24.258  1.00  0.00     0.015 C 
ATOM     18  C   UNL A   1      35.783  22.538  23.941  1.00  0.00     0.001 C 
BRANCH  14  19
ATOM     19  C   UNL A   1      33.478  23.594  26.751  1.00  0.00     0.001 C 
ATOM     20  C   UNL A   1      32.136  22.953  27.090  1.00  0.00     0.004 C 
ENDBRANCH  14  19
ENDBRANCH  12  13
ENDBRANCH   8  12
ENDBRANCH   4   7
ENDBRANCH   2   3
ENDBRANCH   1   2
BRANCH   1  21
ATOM     21  C   UNL A   1      33.920  28.513  25.742  1.00  0.00     0.023 C 
BRANCH  21  22
ATOM     22  C   UNL A   1      33.719  28.612  27.252  1.00  0.00     0.116 C 
BRANCH  22  23
ATOM     23  N   UNL A   1      33.731  29.979  27.751  1.00  0.00    -0.352 N 
ATOM     24  C   UNL A   1      34.767  30.670  28.338  1.00  0.00     0.251 C 
ATOM     25  H   UNL A   1      32.886  30.475  27.656  1.00  0.00     0.163 HD
ATOM     26  O   UNL A   1      34.592  31.790  28.792  1.00  0.00    -0.269 OA
BRANCH  24  27
ATOM     27  C   UNL A   1      36.089  30.018  28.457  1.00  0.00     0.039 A 
ATOM     28  C   UNL A   1      36.966  30.079  27.373  1.00  0.00     0.014 A 
ATOM     29  C   UNL A   1      36.474  29.398  29.648  1.00  0.00     0.014 A 
ATOM     30  C   UNL A   1      38.268  29.595  27.512  1.00  0.00     0.010 A 
ATOM     31  C   UNL A   1      37.788  28.969  29.805  1.00  0.00     0.010 A 
ATOM     32  C   UNL A   1      38.701  29.080  28.745  1.00  0.00    -0.014 A 
BRANCH  32  33
ATOM     33  C   UNL A   1      40.118  28.699  28.966  1.00  0.00     0.031 A 
ATOM     34  C   UNL A   1      41.095  29.697  29.515  1.00  0.00     0.074 A 
ATOM     35  C   UNL A   1      40.540  27.478  28.583  1.00  0.00     0.049 A 
ATOM     36  N   UNL A   1      42.389  29.582  29.677  1.00  0.00    -0.248 NA
ATOM     37  C   UNL A   1      40.552  31.006  29.907  1.00  0.00     0.031 C 
ATOM     38  C   UNL A   1      39.697  26.437  27.992  1.00  0.00     0.029 A 
ATOM     39  N   UNL A   1      41.790  26.913  28.614  1.00  0.00    -0.354 N 
ATOM     40  C   UNL A   1      42.816  30.806  30.174  1.00  0.00     0.074 A 
ATOM     41  C   UNL A   1      41.651  31.663  30.248  1.00  0.00     0.031 C 
ATOM     42  C   UNL A   1      40.450  25.358  27.728  1.00  0.00     0.029 A 
ATOM     43  C   UNL A   1      41.834  25.643  28.095  1.00  0.00     0.049 A 
ATOM     44  H   UNL A   1      42.582  27.375  28.975  1.00  0.00     0.167 HD
ATOM     45  C   UNL A   1      44.063  31.174  30.553  1.00  0.00     0.037 A 
ATOM     46  C   UNL A   1      42.874  24.806  27.919  1.00  0.00     0.037 A 
ATOM     47  C   UNL A   1      45.215  30.312  30.502  1.00  0.00     0.049 A 
ATOM     48  C   UNL A   1      44.249  25.243  28.335  1.00  0.00     0.074 A 
ATOM     49  C   UNL A   1      46.504  30.569  30.934  1.00  0.00     0.029 A 
ATOM     50  N   UNL A   1      45.215  29.027  29.981  1.00  0.00    -0.354 N 
ATOM     51  N   UNL A   1      44.627  26.377  28.872  1.00  0.00    -0.248 NA
ATOM     52  C   UNL A   1      45.343  24.286  28.120  1.00  0.00     0.031 C 
ATOM     53  C   UNL A   1      47.294  29.454  30.637  1.00  0.00     0.029 A 
ATOM     54  C   UNL A   1      46.490  28.488  30.056  1.00  0.00     0.049 A 
ATOM     55  H   UNL A   1      44.428  28.566  29.612  1.00  0.00     0.167 HD
ATOM     56  C   UNL A   1      45.995  26.264  29.076  1.00  0.00     0.074 A 
ATOM     57  C   UNL A   1      46.379  24.945  28.619  1.00  0.00     0.031 C 
ATOM     58  C   UNL A   1      46.856  27.173  29.595  1.00  0.00     0.037 A 
BRANCH  45  59
ATOM     59  C   UNL A   1      44.245  32.574  31.059  1.00  0.00     0.057 A 
ATOM     60  C   UNL A   1      44.136  32.885  32.422  1.00  0.00     0.134 A 
ATOM     61  C   UNL A   1      44.567  33.616  30.183  1.00  0.00     0.134 A 
ATOM     62  F   UNL A   1      43.819  31.932  33.313  1.00  0.00    -0.206 F 
ATOM     63  C   UNL A   1      44.316  34.187  32.889  1.00  0.00     0.040 A 
ATOM     64  C   UNL A   1      44.774  34.918  30.642  1.00  0.00     0.040 A 
ATOM     65  F   UNL A   1      44.693  33.386  28.867  1.00  0.00    -0.206 F 
ATOM     66  C   UNL A   1      44.643  35.208  31.999  1.00  0.00     0.006 A 
ENDBRANCH  45  59
BRANCH  46  67
ATOM     67  C   UNL A   1      42.651  23.463  27.328  1.00  0.00     0.057 A 
ATOM     68  C   UNL A   1      42.736  23.262  25.946  1.00  0.00     0.134 A 
ATOM     69  C   UNL A   1      42.349  22.353  28.126  1.00  0.00     0.134 A 
ATOM     70  F   UNL A   1      43.004  24.293  25.130  1.00  0.00    -0.206 F 
ATOM     71  C   UNL A   1      42.517  22.008  25.375  1.00  0.00     0.040 A 
ATOM     72  C   UNL A   1      42.148  21.089  27.571  1.00  0.00     0.040 A 
ATOM     73  F   UNL A   1      42.259  22.481  29.458  1.00  0.00    -0.206 F 
ATOM     74  C   UNL A   1      42.226  20.915  26.190  1.00  0.00     0.006 A 
ENDBRANCH  46  67
BRANCH  58  75
ATOM     75  C   UNL A   1      48.294  26.766  29.712  1.00  0.00     0.057 A 
ATOM     76  C   UNL A   1      48.751  25.981  30.777  1.00  0.00     0.134 A 
ATOM     77  C   UNL A   1      49.221  27.125  28.725  1.00  0.00     0.134 A 
ATOM     78  F   UNL A   1      47.914  25.619  31.762  1.00  0.00    -0.206 F 
ATOM     79  C   UNL A   1      50.084  25.578  30.865  1.00  0.00     0.040 A 
ATOM     80  C   UNL A   1      50.551  26.708  28.790  1.00  0.00     0.040 A 
ATOM     81  F   UNL A   1      48.845  27.871  27.676  1.00  0.00    -0.206 F 
ATOM     82  C   UNL A   1      50.986  25.935  29.864  1.00  0.00     0.006 A 
ENDBRANCH  58  75
ENDBRANCH  32  33
ENDBRANCH  24  27
ENDBRANCH  22  23
ENDBRANCH  21  22
ENDBRANCH   1  21
TORSDOF 14
ENDMDL
MODEL 3
REMARK VINA RESULT:     -11.1      4.754      9.322
REMARK SMILES CC[C@H]1CCCC[C@@H]1Sc1csc(C(=O)NCCCCNC(=O)c2ccc(-c3c4nc(c(-c5c(F)cccc5F)c5ccc([nH]5)c(-c5c(F)cccc5F)c5nc(c(-c6c(F)cccc6F)c6ccc3[nH]6)C=C5)C=C4)cc2)c1
REMARK SMILES IDX 18 1 17 2 16 3 14 4 15 5 13 7 10 8 11 9 78 10 12 11 9 12
REMARK SMILES IDX 8 13 3 14 4 15 5 16 7 17 6 18 2 19 1 20 19 21 20 22 21 23
REMARK SMILES IDX 22 24 23 26 24 27 25 28 77 29 26 30 76 31 27 32 28 33 29 34
REMARK SMILES IDX 70 35 30 36 75 37 69 38 71 39 31 40 74 41 68 42 67 43 32 45
REMARK SMILES IDX 58 46 41 47 57 48 42 49 45 50 56 51 72 52 43 53 44 54 55 56
REMARK SMILES IDX 73 57 46 58 33 59 34 60 39 61 35 62 36 63 38 64 40 65 37 66
REMARK SMILES IDX 59 67 60 68 65 69 61 70 62 71 64 72 66 73 63 74 47 75 48 76
REMARK SMILES IDX 53 77 49 78 50 79 52 80 54 81 51 82
REMARK H PARENT 16 6 21 25 71 44 45 55
REMARK Flexibility Score: inf
ROOT
ATOM      1  C   UNL A   1      31.996  30.169  27.044  1.00  0.00     0.023 C 
ENDROOT
BRANCH   1   2
ATOM      2  C   UNL A   1      33.349  29.599  26.613  1.00  0.00     0.116 C 
BRANCH   2   3
ATOM      3  N   UNL A   1      33.529  29.708  25.177  1.00  0.00    -0.351 N 
ATOM      4  C   UNL A   1      33.393  28.777  24.168  1.00  0.00     0.261 C 
ATOM      5  O   UNL A   1      33.539  29.210  23.023  1.00  0.00    -0.268 OA
ATOM      6  H   UNL A   1      33.795  30.604  24.869  1.00  0.00     0.163 HD
BRANCH   4   7
ATOM      7  C   UNL A   1      33.059  27.393  24.471  1.00  0.00     0.093 A 
ATOM      8  C   UNL A   1      33.107  25.183  25.237  1.00  0.00     0.019 A 
ATOM      9  C   UNL A   1      31.762  25.343  25.017  1.00  0.00     0.080 A 
ATOM     10  C   UNL A   1      33.853  26.319  24.823  1.00  0.00     0.040 A 
ATOM     11  S   UNL A   1      31.411  26.896  24.380  1.00  0.00    -0.137 S 
BRANCH   8  12
ATOM     12  S   UNL A   1      33.941  23.857  26.012  1.00  0.00    -0.122 SA
BRANCH  12  13
ATOM     13  C   UNL A   1      33.922  22.463  24.825  1.00  0.00     0.055 C 
ATOM     14  C   UNL A   1      34.717  21.295  25.483  1.00  0.00     0.002 C 
ATOM     15  C   UNL A   1      36.231  21.605  25.526  1.00  0.00     0.005 C 
ATOM     16  C   UNL A   1      36.804  22.009  24.168  1.00  0.00     0.000 C 
ATOM     17  C   UNL A   1      34.519  22.839  23.460  1.00  0.00     0.015 C 
ATOM     18  C   UNL A   1      36.016  23.139  23.515  1.00  0.00     0.001 C 
BRANCH  14  19
ATOM     19  C   UNL A   1      34.415  19.951  24.779  1.00  0.00     0.001 C 
ATOM     20  C   UNL A   1      32.921  19.673  24.646  1.00  0.00     0.004 C 
ENDBRANCH  14  19
ENDBRANCH  12  13
ENDBRANCH   8  12
ENDBRANCH   4   7
ENDBRANCH   2   3
ENDBRANCH   1   2
BRANCH   1  21
ATOM     21  C   UNL A   1      31.827  31.663  26.751  1.00  0.00     0.023 C 
BRANCH  21  22
ATOM     22  C   UNL A   1      32.918  32.565  27.325  1.00  0.00     0.116 C 
BRANCH  22  23
ATOM     23  N   UNL A   1      32.468  33.922  27.594  1.00  0.00    -0.352 N 
ATOM     24  C   UNL A   1      32.981  34.835  28.487  1.00  0.00     0.251 C 
ATOM     25  H   UNL A   1      31.693  34.227  27.068  1.00  0.00     0.163 HD
ATOM     26  O   UNL A   1      32.430  35.910  28.666  1.00  0.00    -0.269 OA
BRANCH  24  27
ATOM     27  C   UNL A   1      34.185  34.478  29.267  1.00  0.00     0.039 A 
ATOM     28  C   UNL A   1      34.020  33.930  30.541  1.00  0.00     0.014 A 
ATOM     29  C   UNL A   1      35.461  34.634  28.722  1.00  0.00     0.014 A 
ATOM     30  C   UNL A   1      35.133  33.456  31.237  1.00  0.00     0.010 A 
ATOM     31  C   UNL A   1      36.563  34.109  29.390  1.00  0.00     0.010 A 
ATOM     32  C   UNL A   1      36.406  33.499  30.644  1.00  0.00    -0.014 A 
BRANCH  32  33
ATOM     33  C   UNL A   1      37.580  32.867  31.295  1.00  0.00     0.031 A 
ATOM     34  C   UNL A   1      38.222  31.654  30.689  1.00  0.00     0.074 A 
ATOM     35  C   UNL A   1      38.007  33.336  32.484  1.00  0.00     0.049 A 
ATOM     36  N   UNL A   1      39.184  30.905  31.164  1.00  0.00    -0.248 NA
ATOM     37  C   UNL A   1      37.694  31.207  29.391  1.00  0.00     0.031 C 
ATOM     38  C   UNL A   1      37.435  34.479  33.199  1.00  0.00     0.029 A 
ATOM     39  N   UNL A   1      39.010  32.897  33.312  1.00  0.00    -0.354 N 
ATOM     40  C   UNL A   1      39.367  29.892  30.233  1.00  0.00     0.074 A 
ATOM     41  C   UNL A   1      38.388  30.097  29.186  1.00  0.00     0.031 C 
ATOM     42  C   UNL A   1      38.102  34.657  34.350  1.00  0.00     0.029 A 
ATOM     43  C   UNL A   1      39.123  33.621  34.473  1.00  0.00     0.049 A 
ATOM     44  H   UNL A   1      39.594  32.134  33.093  1.00  0.00     0.167 HD
ATOM     45  C   UNL A   1      40.281  28.892  30.241  1.00  0.00     0.037 A 
ATOM     46  C   UNL A   1      39.946  33.460  35.526  1.00  0.00     0.037 A 
ATOM     47  C   UNL A   1      41.269  28.705  31.271  1.00  0.00     0.049 A 
ATOM     48  C   UNL A   1      40.941  32.336  35.517  1.00  0.00     0.074 A 
ATOM     49  C   UNL A   1      42.286  27.769  31.330  1.00  0.00     0.029 A 
ATOM     50  N   UNL A   1      41.360  29.468  32.426  1.00  0.00    -0.354 N 
ATOM     51  N   UNL A   1      41.152  31.428  34.596  1.00  0.00    -0.248 NA
ATOM     52  C   UNL A   1      41.814  32.212  36.694  1.00  0.00     0.031 C 
ATOM     53  C   UNL A   1      42.967  27.938  32.540  1.00  0.00     0.029 A 
ATOM     54  C   UNL A   1      42.399  29.005  33.216  1.00  0.00     0.049 A 
ATOM     55  H   UNL A   1      40.773  30.225  32.650  1.00  0.00     0.167 HD
ATOM     56  C   UNL A   1      42.190  30.638  35.071  1.00  0.00     0.074 A 
ATOM     57  C   UNL A   1      42.577  31.183  36.356  1.00  0.00     0.031 C 
ATOM     58  C   UNL A   1      42.770  29.557  34.494  1.00  0.00     0.037 A 
BRANCH  45  59
ATOM     59  C   UNL A   1      40.255  27.923  29.097  1.00  0.00     0.057 A 
ATOM     60  C   UNL A   1      39.494  26.747  29.144  1.00  0.00     0.134 A 
ATOM     61  C   UNL A   1      40.969  28.185  27.922  1.00  0.00     0.134 A 
ATOM     62  F   UNL A   1      38.796  26.433  30.247  1.00  0.00    -0.206 F 
ATOM     63  C   UNL A   1      39.465  25.854  28.073  1.00  0.00     0.040 A 
ATOM     64  C   UNL A   1      40.928  27.311  26.834  1.00  0.00     0.040 A 
ATOM     65  F   UNL A   1      41.712  29.296  27.808  1.00  0.00    -0.206 F 
ATOM     66  C   UNL A   1      40.179  26.138  26.910  1.00  0.00     0.006 A 
ENDBRANCH  45  59
BRANCH  46  67
ATOM     67  C   UNL A   1      39.868  34.396  36.675  1.00  0.00     0.057 A 
ATOM     68  C   UNL A   1      39.093  34.091  37.800  1.00  0.00     0.134 A 
ATOM     69  C   UNL A   1      40.562  35.611  36.679  1.00  0.00     0.134 A 
ATOM     70  F   UNL A   1      38.391  32.948  37.845  1.00  0.00    -0.206 F 
ATOM     71  C   UNL A   1      39.001  34.966  38.883  1.00  0.00     0.040 A 
ATOM     72  C   UNL A   1      40.496  36.486  37.763  1.00  0.00     0.040 A 
ATOM     73  F   UNL A   1      41.326  35.957  35.632  1.00  0.00    -0.206 F 
ATOM     74  C   UNL A   1      39.708  36.167  38.868  1.00  0.00     0.006 A 
ENDBRANCH  46  67
BRANCH  58  75
ATOM     75  C   UNL A   1      43.895  28.903  35.239  1.00  0.00     0.057 A 
ATOM     76  C   UNL A   1      45.224  29.302  35.060  1.00  0.00     0.134 A 
ATOM     77  C   UNL A   1      43.639  27.896  36.179  1.00  0.00     0.134 A 
ATOM     78  F   UNL A   1      45.534  30.251  34.164  1.00  0.00    -0.206 F 
ATOM     79  C   UNL A   1      46.264  28.713  35.780  1.00  0.00     0.040 A 
ATOM     80  C   UNL A   1      44.668  27.315  36.921  1.00  0.00     0.040 A 
ATOM     81  F   UNL A   1      42.386  27.474  36.401  1.00  0.00    -0.206 F 
ATOM     82  C   UNL A   1      45.985  27.721  36.720  1.00  0.00     0.006 A 
ENDBRANCH  58  75
ENDBRANCH  32  33
ENDBRANCH  24  27
ENDBRANCH  22  23
ENDBRANCH  21  22
ENDBRANCH   1  21
TORSDOF 14
ENDMDL
