MODEL 1
REMARK VINA RESULT:     -11.5      0.000      0.000
REMARK SMILES CC(C)C[C@H](C)NS(=O)(=O)c1cc(C(=O)NCCCCNC(=O)c2ccc(-c3c4nc(c(-c5c(F)cccc5F)c5ccc([nH]5)c(-c5c(F)cccc5F)c5nc(c(-c6c(F)cccc6F)c6ccc3[nH]6)C=C5)C=C4)cc2)ccc1Cl
REMARK SMILES IDX 17 1 16 2 14 3 15 4 13 6 11 7 12 8 80 9 79 10 81 11 78 12
REMARK SMILES IDX 8 13 9 14 10 15 7 16 5 18 6 19 4 20 2 21 1 22 3 23 18 24
REMARK SMILES IDX 19 25 20 26 21 27 22 28 23 30 24 31 25 32 77 33 26 34 76 35
REMARK SMILES IDX 27 36 28 37 29 38 70 39 30 40 75 41 69 42 71 43 31 44 74 45
REMARK SMILES IDX 68 46 67 47 32 49 58 50 41 51 57 52 42 53 45 54 56 55 72 56
REMARK SMILES IDX 43 57 44 58 55 60 73 61 46 62 33 63 34 64 39 65 35 66 36 67
REMARK SMILES IDX 38 68 40 69 37 70 59 71 60 72 65 73 61 74 62 75 64 76 66 77
REMARK SMILES IDX 63 78 47 79 48 80 53 81 49 82 50 83 52 84 54 85 51 86
REMARK H PARENT 16 5 7 17 21 29 71 48 45 59
REMARK Flexibility Score: inf
ROOT
ATOM      1  C   UNL A   1      32.096  29.842  25.149  1.00  0.00     0.116 C 
ENDROOT
BRANCH   1   2
ATOM      2  N   UNL A   1      31.118  28.960  24.557  1.00  0.00    -0.352 N 
ATOM      3  C   UNL A   1      31.000  27.604  24.455  1.00  0.00     0.251 C 
ATOM      4  O   UNL A   1      29.999  27.197  23.860  1.00  0.00    -0.269 OA
ATOM      5  H   UNL A   1      30.372  29.444  24.135  1.00  0.00     0.163 HD
BRANCH   3   6
ATOM      6  C   UNL A   1      31.963  26.598  25.006  1.00  0.00     0.041 A 
ATOM      7  C   UNL A   1      32.172  24.498  26.279  1.00  0.00     0.101 A 
ATOM      8  C   UNL A   1      31.391  25.532  25.726  1.00  0.00     0.037 A 
ATOM      9  C   UNL A   1      33.556  24.535  26.137  1.00  0.00     0.061 A 
ATOM     10  C   UNL A   1      34.134  25.595  25.436  1.00  0.00     0.023 A 
ATOM     11  Cl  UNL A   1      34.670  23.373  26.739  1.00  0.00    -0.083 Cl
ATOM     12  C   UNL A   1      33.347  26.594  24.852  1.00  0.00     0.015 A 
BRANCH   7  13
ATOM     13  S   UNL A   1      31.298  23.096  26.910  1.00  0.00     0.242 S 
ATOM     14  O   UNL A   1      29.946  23.468  27.247  1.00  0.00    -0.207 OA
ATOM     15  O   UNL A   1      32.136  22.509  27.940  1.00  0.00    -0.207 OA
BRANCH  13  16
ATOM     16  N   UNL A   1      31.241  21.895  25.729  1.00  0.00    -0.208 NA
ATOM     17  H   UNL A   1      31.117  21.018  26.235  1.00  0.00     0.141 HD
BRANCH  16  18
ATOM     18  C   UNL A   1      32.310  21.639  24.751  1.00  0.00     0.067 C 
ATOM     19  C   UNL A   1      32.604  20.133  24.748  1.00  0.00     0.025 C 
BRANCH  18  20
ATOM     20  C   UNL A   1      31.950  22.139  23.335  1.00  0.00     0.022 C 
BRANCH  20  21
ATOM     21  C   UNL A   1      33.027  22.827  22.461  1.00  0.00    -0.016 C 
ATOM     22  C   UNL A   1      32.724  24.299  22.167  1.00  0.00     0.007 C 
ATOM     23  C   UNL A   1      34.376  22.765  23.193  1.00  0.00     0.007 C 
ENDBRANCH  20  21
ENDBRANCH  18  20
ENDBRANCH  16  18
ENDBRANCH  13  16
ENDBRANCH   7  13
ENDBRANCH   3   6
ENDBRANCH   1   2
BRANCH   1  24
ATOM     24  C   UNL A   1      31.630  30.337  26.518  1.00  0.00     0.023 C 
BRANCH  24  25
ATOM     25  C   UNL A   1      31.471  31.860  26.590  1.00  0.00     0.023 C 
BRANCH  25  26
ATOM     26  C   UNL A   1      32.631  32.590  27.259  1.00  0.00     0.116 C 
BRANCH  26  27
ATOM     27  N   UNL A   1      32.327  33.976  27.585  1.00  0.00    -0.352 N 
ATOM     28  C   UNL A   1      32.966  34.792  28.486  1.00  0.00     0.251 C 
ATOM     29  H   UNL A   1      31.571  34.378  27.099  1.00  0.00     0.163 HD
ATOM     30  O   UNL A   1      32.527  35.905  28.749  1.00  0.00    -0.269 OA
BRANCH  28  31
ATOM     31  C   UNL A   1      34.170  34.279  29.161  1.00  0.00     0.039 A 
ATOM     32  C   UNL A   1      34.019  33.456  30.276  1.00  0.00     0.014 A 
ATOM     33  C   UNL A   1      35.437  34.555  28.639  1.00  0.00     0.014 A 
ATOM     34  C   UNL A   1      35.146  32.861  30.840  1.00  0.00     0.010 A 
ATOM     35  C   UNL A   1      36.545  33.891  29.146  1.00  0.00     0.010 A 
ATOM     36  C   UNL A   1      36.412  33.045  30.257  1.00  0.00    -0.014 A 
BRANCH  36  37
ATOM     37  C   UNL A   1      37.608  32.367  30.812  1.00  0.00     0.031 A 
ATOM     38  C   UNL A   1      38.220  32.854  32.096  1.00  0.00     0.074 A 
ATOM     39  C   UNL A   1      38.163  31.340  30.140  1.00  0.00     0.049 A 
ATOM     40  N   UNL A   1      39.268  32.399  32.735  1.00  0.00    -0.248 NA
ATOM     41  C   UNL A   1      37.590  34.023  32.732  1.00  0.00     0.031 C 
ATOM     42  C   UNL A   1      37.692  30.816  28.855  1.00  0.00     0.029 A 
ATOM     43  N   UNL A   1      39.242  30.551  30.445  1.00  0.00    -0.354 N 
ATOM     44  C   UNL A   1      39.423  33.228  33.839  1.00  0.00     0.074 A 
ATOM     45  C   UNL A   1      38.409  34.254  33.746  1.00  0.00     0.031 C 
ATOM     46  C   UNL A   1      38.456  29.770  28.503  1.00  0.00     0.029 A 
ATOM     47  C   UNL A   1      39.491  29.573  29.513  1.00  0.00     0.049 A 
ATOM     48  H   UNL A   1      39.788  30.675  31.255  1.00  0.00     0.167 HD
ATOM     49  C   UNL A   1      40.310  33.124  34.856  1.00  0.00     0.037 A 
ATOM     50  C   UNL A   1      40.447  28.626  29.478  1.00  0.00     0.037 A 
ATOM     51  C   UNL A   1      41.307  32.090  34.951  1.00  0.00     0.049 A 
ATOM     52  C   UNL A   1      41.431  28.541  30.612  1.00  0.00     0.074 A 
ATOM     53  C   UNL A   1      42.216  31.861  35.967  1.00  0.00     0.029 A 
ATOM     54  N   UNL A   1      41.528  31.116  33.988  1.00  0.00    -0.354 N 
ATOM     55  N   UNL A   1      41.514  29.280  31.694  1.00  0.00    -0.248 NA
ATOM     56  C   UNL A   1      42.450  27.487  30.526  1.00  0.00     0.031 C 
ATOM     57  C   UNL A   1      43.026  30.785  35.593  1.00  0.00     0.029 A 
ATOM     58  C   UNL A   1      42.581  30.303  34.372  1.00  0.00     0.049 A 
ATOM     59  H   UNL A   1      41.013  31.019  33.154  1.00  0.00     0.167 HD
ATOM     60  C   UNL A   1      42.574  28.763  32.428  1.00  0.00     0.074 A 
ATOM     61  C   UNL A   1      43.088  27.635  31.678  1.00  0.00     0.031 C 
ATOM     62  C   UNL A   1      43.079  29.183  33.614  1.00  0.00     0.037 A 
BRANCH  49  63
ATOM     63  C   UNL A   1      40.239  34.155  35.945  1.00  0.00     0.057 A 
ATOM     64  C   UNL A   1      40.983  35.342  35.893  1.00  0.00     0.134 A 
ATOM     65  C   UNL A   1      39.395  33.974  37.048  1.00  0.00     0.134 A 
ATOM     66  F   UNL A   1      41.823  35.574  34.872  1.00  0.00    -0.206 F 
ATOM     67  C   UNL A   1      40.914  36.295  36.911  1.00  0.00     0.040 A 
ATOM     68  C   UNL A   1      39.293  34.934  38.056  1.00  0.00     0.040 A 
ATOM     69  F   UNL A   1      38.649  32.863  37.161  1.00  0.00    -0.206 F 
ATOM     70  C   UNL A   1      40.060  36.095  37.992  1.00  0.00     0.006 A 
ENDBRANCH  49  63
BRANCH  50  71
ATOM     71  C   UNL A   1      40.508  27.668  28.345  1.00  0.00     0.057 A 
ATOM     72  C   UNL A   1      39.857  26.430  28.406  1.00  0.00     0.134 A 
ATOM     73  C   UNL A   1      41.232  27.956  27.182  1.00  0.00     0.134 A 
ATOM     74  F   UNL A   1      39.162  26.087  29.500  1.00  0.00    -0.206 F 
ATOM     75  C   UNL A   1      39.944  25.504  27.365  1.00  0.00     0.040 A 
ATOM     76  C   UNL A   1      41.303  27.051  26.120  1.00  0.00     0.040 A 
ATOM     77  F   UNL A   1      41.871  29.129  27.054  1.00  0.00    -0.206 F 
ATOM     78  C   UNL A   1      40.666  25.816  26.216  1.00  0.00     0.006 A 
ENDBRANCH  50  71
BRANCH  62  79
ATOM     79  C   UNL A   1      44.226  28.401  34.187  1.00  0.00     0.057 A 
ATOM     80  C   UNL A   1      45.560  28.761  33.952  1.00  0.00     0.134 A 
ATOM     81  C   UNL A   1      43.991  27.294  35.011  1.00  0.00     0.134 A 
ATOM     82  F   UNL A   1      45.854  29.804  33.161  1.00  0.00    -0.206 F 
ATOM     83  C   UNL A   1      46.618  28.028  34.492  1.00  0.00     0.040 A 
ATOM     84  C   UNL A   1      45.040  26.573  35.583  1.00  0.00     0.040 A 
ATOM     85  F   UNL A   1      42.738  26.902  35.287  1.00  0.00    -0.206 F 
ATOM     86  C   UNL A   1      46.359  26.935  35.316  1.00  0.00     0.006 A 
ENDBRANCH  62  79
ENDBRANCH  36  37
ENDBRANCH  28  31
ENDBRANCH  26  27
ENDBRANCH  25  26
ENDBRANCH  24  25
ENDBRANCH   1  24
TORSDOF 16
ENDMDL
MODEL 2
REMARK VINA RESULT:     -11.4      4.142      8.859
REMARK SMILES CC(C)C[C@H](C)NS(=O)(=O)c1cc(C(=O)NCCCCNC(=O)c2ccc(-c3c4nc(c(-c5c(F)cccc5F)c5ccc([nH]5)c(-c5c(F)cccc5F)c5nc(c(-c6c(F)cccc6F)c6ccc3[nH]6)C=C5)C=C4)cc2)ccc1Cl
REMARK SMILES IDX 17 1 16 2 14 3 15 4 13 6 11 7 12 8 80 9 79 10 81 11 78 12
REMARK SMILES IDX 8 13 9 14 10 15 7 16 5 18 6 19 4 20 2 21 1 22 3 23 18 24
REMARK SMILES IDX 19 25 20 26 21 27 22 28 23 30 24 31 25 32 77 33 26 34 76 35
REMARK SMILES IDX 27 36 28 37 29 38 70 39 30 40 75 41 69 42 71 43 31 44 74 45
REMARK SMILES IDX 68 46 67 47 32 49 58 50 41 51 57 52 42 53 45 54 56 55 72 56
REMARK SMILES IDX 43 57 44 58 55 60 73 61 46 62 33 63 34 64 39 65 35 66 36 67
REMARK SMILES IDX 38 68 40 69 37 70 59 71 60 72 65 73 61 74 62 75 64 76 66 77
REMARK SMILES IDX 63 78 47 79 48 80 53 81 49 82 50 83 52 84 54 85 51 86
REMARK H PARENT 16 5 7 17 21 29 71 48 45 59
REMARK Flexibility Score: inf
ROOT
ATOM      1  C   UNL A   1      35.258  21.122  25.514  1.00  0.00     0.116 C 
ENDROOT
BRANCH   1   2
ATOM      2  N   UNL A   1      34.092  21.151  24.664  1.00  0.00    -0.352 N 
ATOM      3  C   UNL A   1      33.308  22.149  24.161  1.00  0.00     0.251 C 
ATOM      4  O   UNL A   1      32.367  21.785  23.451  1.00  0.00    -0.269 OA
ATOM      5  H   UNL A   1      33.798  20.254  24.385  1.00  0.00     0.163 HD
BRANCH   3   6
ATOM      6  C   UNL A   1      33.502  23.615  24.392  1.00  0.00     0.041 A 
ATOM      7  C   UNL A   1      33.566  25.832  23.316  1.00  0.00     0.101 A 
ATOM      8  C   UNL A   1      33.428  24.432  23.248  1.00  0.00     0.037 A 
ATOM      9  C   UNL A   1      33.810  26.436  24.546  1.00  0.00     0.061 A 
ATOM     10  C   UNL A   1      33.899  25.634  25.686  1.00  0.00     0.023 A 
ATOM     11  Cl  UNL A   1      34.008  28.119  24.830  1.00  0.00    -0.083 Cl
ATOM     12  C   UNL A   1      33.716  24.249  25.614  1.00  0.00     0.015 A 
BRANCH   7  13
ATOM     13  S   UNL A   1      33.176  26.740  21.849  1.00  0.00     0.242 S 
ATOM     14  O   UNL A   1      33.235  25.871  20.701  1.00  0.00    -0.207 OA
ATOM     15  O   UNL A   1      34.002  27.933  21.863  1.00  0.00    -0.207 OA
BRANCH  13  16
ATOM     16  N   UNL A   1      31.611  27.354  21.973  1.00  0.00    -0.208 NA
ATOM     17  H   UNL A   1      31.360  27.656  21.031  1.00  0.00     0.141 HD
BRANCH  16  18
ATOM     18  C   UNL A   1      31.218  28.459  22.861  1.00  0.00     0.067 C 
ATOM     19  C   UNL A   1      30.270  29.382  22.084  1.00  0.00     0.025 C 
BRANCH  18  20
ATOM     20  C   UNL A   1      30.565  27.964  24.169  1.00  0.00     0.022 C 
BRANCH  20  21
ATOM     21  C   UNL A   1      29.989  26.529  24.252  1.00  0.00    -0.016 C 
ATOM     22  C   UNL A   1      30.140  25.891  25.635  1.00  0.00     0.007 C 
ATOM     23  C   UNL A   1      28.490  26.575  23.920  1.00  0.00     0.007 C 
ENDBRANCH  20  21
ENDBRANCH  18  20
ENDBRANCH  16  18
ENDBRANCH  13  16
ENDBRANCH   7  13
ENDBRANCH   3   6
ENDBRANCH   1   2
BRANCH   1  24
ATOM     24  C   UNL A   1      36.304  20.144  24.976  1.00  0.00     0.023 C 
BRANCH  24  25
ATOM     25  C   UNL A   1      37.627  20.819  24.599  1.00  0.00     0.023 C 
BRANCH  25  26
ATOM     26  C   UNL A   1      38.661  20.865  25.721  1.00  0.00     0.116 C 
BRANCH  26  27
ATOM     27  N   UNL A   1      39.600  19.753  25.682  1.00  0.00    -0.352 N 
ATOM     28  C   UNL A   1      40.932  19.761  26.015  1.00  0.00     0.251 C 
ATOM     29  H   UNL A   1      39.236  18.889  25.381  1.00  0.00     0.163 HD
ATOM     30  O   UNL A   1      41.636  18.777  25.820  1.00  0.00    -0.269 OA
BRANCH  28  31
ATOM     31  C   UNL A   1      41.505  20.997  26.575  1.00  0.00     0.039 A 
ATOM     32  C   UNL A   1      42.044  21.944  25.706  1.00  0.00     0.014 A 
ATOM     33  C   UNL A   1      41.436  21.241  27.949  1.00  0.00     0.014 A 
ATOM     34  C   UNL A   1      42.467  23.171  26.214  1.00  0.00     0.010 A 
ATOM     35  C   UNL A   1      41.773  22.495  28.439  1.00  0.00     0.010 A 
ATOM     36  C   UNL A   1      42.302  23.468  27.578  1.00  0.00    -0.014 A 
BRANCH  36  37
ATOM     37  C   UNL A   1      42.691  24.793  28.117  1.00  0.00     0.031 A 
ATOM     38  C   UNL A   1      41.649  25.858  28.320  1.00  0.00     0.074 A 
ATOM     39  C   UNL A   1      43.987  25.049  28.384  1.00  0.00     0.049 A 
ATOM     40  N   UNL A   1      41.792  27.078  28.771  1.00  0.00    -0.248 NA
ATOM     41  C   UNL A   1      40.268  25.518  27.941  1.00  0.00     0.031 C 
ATOM     42  C   UNL A   1      45.095  24.115  28.173  1.00  0.00     0.029 A 
ATOM     43  N   UNL A   1      44.589  26.169  28.894  1.00  0.00    -0.354 N 
ATOM     44  C   UNL A   1      40.527  27.647  28.723  1.00  0.00     0.074 A 
ATOM     45  C   UNL A   1      39.642  26.668  28.134  1.00  0.00     0.031 C 
ATOM     46  C   UNL A   1      46.236  24.689  28.586  1.00  0.00     0.029 A 
ATOM     47  C   UNL A   1      45.948  26.041  29.054  1.00  0.00     0.049 A 
ATOM     48  H   UNL A   1      44.096  26.990  29.125  1.00  0.00     0.167 HD
ATOM     49  C   UNL A   1      40.131  28.866  29.161  1.00  0.00     0.037 A 
ATOM     50  C   UNL A   1      46.857  26.915  29.523  1.00  0.00     0.037 A 
ATOM     51  C   UNL A   1      41.015  29.830  29.763  1.00  0.00     0.049 A 
ATOM     52  C   UNL A   1      46.394  28.268  29.988  1.00  0.00     0.074 A 
ATOM     53  C   UNL A   1      40.704  31.069  30.291  1.00  0.00     0.029 A 
ATOM     54  N   UNL A   1      42.384  29.663  29.907  1.00  0.00    -0.354 N 
ATOM     55  N   UNL A   1      45.179  28.764  30.016  1.00  0.00    -0.248 NA
ATOM     56  C   UNL A   1      47.426  29.182  30.496  1.00  0.00     0.031 C 
ATOM     57  C   UNL A   1      41.893  31.678  30.703  1.00  0.00     0.029 A 
ATOM     58  C   UNL A   1      42.938  30.792  30.489  1.00  0.00     0.049 A 
ATOM     59  H   UNL A   1      42.887  28.862  29.636  1.00  0.00     0.167 HD
ATOM     60  C   UNL A   1      45.298  30.034  30.567  1.00  0.00     0.074 A 
ATOM     61  C   UNL A   1      46.700  30.222  30.879  1.00  0.00     0.031 C 
ATOM     62  C   UNL A   1      44.336  30.962  30.794  1.00  0.00     0.037 A 
BRANCH  49  63
ATOM     63  C   UNL A   1      38.679  29.219  29.006  1.00  0.00     0.057 A 
ATOM     64  C   UNL A   1      38.143  29.627  27.777  1.00  0.00     0.134 A 
ATOM     65  C   UNL A   1      37.800  29.124  30.092  1.00  0.00     0.134 A 
ATOM     66  F   UNL A   1      38.933  29.752  26.698  1.00  0.00    -0.206 F 
ATOM     67  C   UNL A   1      36.794  29.957  27.640  1.00  0.00     0.040 A 
ATOM     68  C   UNL A   1      36.442  29.420  29.960  1.00  0.00     0.040 A 
ATOM     69  F   UNL A   1      38.244  28.737  31.298  1.00  0.00    -0.206 F 
ATOM     70  C   UNL A   1      35.938  29.846  28.733  1.00  0.00     0.006 A 
ENDBRANCH  49  63
BRANCH  50  71
ATOM     71  C   UNL A   1      48.291  26.535  29.599  1.00  0.00     0.057 A 
ATOM     72  C   UNL A   1      48.801  25.849  30.708  1.00  0.00     0.134 A 
ATOM     73  C   UNL A   1      49.189  26.862  28.577  1.00  0.00     0.134 A 
ATOM     74  F   UNL A   1      47.994  25.521  31.728  1.00  0.00    -0.206 F 
ATOM     75  C   UNL A   1      50.155  25.524  30.809  1.00  0.00     0.040 A 
ATOM     76  C   UNL A   1      50.541  26.518  28.651  1.00  0.00     0.040 A 
ATOM     77  F   UNL A   1      48.764  27.511  27.482  1.00  0.00    -0.206 F 
ATOM     78  C   UNL A   1      51.028  25.856  29.776  1.00  0.00     0.006 A 
ENDBRANCH  50  71
BRANCH  62  79
ATOM     79  C   UNL A   1      44.762  32.251  31.436  1.00  0.00     0.057 A 
ATOM     80  C   UNL A   1      44.802  32.409  32.828  1.00  0.00     0.134 A 
ATOM     81  C   UNL A   1      45.170  33.336  30.650  1.00  0.00     0.134 A 
ATOM     82  F   UNL A   1      44.413  31.413  33.637  1.00  0.00    -0.206 F 
ATOM     83  C   UNL A   1      45.202  33.612  33.413  1.00  0.00     0.040 A 
ATOM     84  C   UNL A   1      45.603  34.532  31.223  1.00  0.00     0.040 A 
ATOM     85  F   UNL A   1      45.167  33.248  29.312  1.00  0.00    -0.206 F 
ATOM     86  C   UNL A   1      45.612  34.675  32.610  1.00  0.00     0.006 A 
ENDBRANCH  62  79
ENDBRANCH  36  37
ENDBRANCH  28  31
ENDBRANCH  26  27
ENDBRANCH  25  26
ENDBRANCH  24  25
ENDBRANCH   1  24
TORSDOF 16
ENDMDL
MODEL 3
REMARK VINA RESULT:     -10.4      2.672      7.800
REMARK SMILES CC(C)C[C@H](C)NS(=O)(=O)c1cc(C(=O)NCCCCNC(=O)c2ccc(-c3c4nc(c(-c5c(F)cccc5F)c5ccc([nH]5)c(-c5c(F)cccc5F)c5nc(c(-c6c(F)cccc6F)c6ccc3[nH]6)C=C5)C=C4)cc2)ccc1Cl
REMARK SMILES IDX 17 1 16 2 14 3 15 4 13 6 11 7 12 8 80 9 79 10 81 11 78 12
REMARK SMILES IDX 8 13 9 14 10 15 7 16 5 18 6 19 4 20 2 21 1 22 3 23 18 24
REMARK SMILES IDX 19 25 20 26 21 27 22 28 23 30 24 31 25 32 77 33 26 34 76 35
REMARK SMILES IDX 27 36 28 37 29 38 70 39 30 40 75 41 69 42 71 43 31 44 74 45
REMARK SMILES IDX 68 46 67 47 32 49 58 50 41 51 57 52 42 53 45 54 56 55 72 56
REMARK SMILES IDX 43 57 44 58 55 60 73 61 46 62 33 63 34 64 39 65 35 66 36 67
REMARK SMILES IDX 38 68 40 69 37 70 59 71 60 72 65 73 61 74 62 75 64 76 66 77
REMARK SMILES IDX 63 78 47 79 48 80 53 81 49 82 50 83 52 84 54 85 51 86
REMARK H PARENT 16 5 7 17 21 29 71 48 45 59
REMARK Flexibility Score: inf
ROOT
ATOM      1  C   UNL A   1      37.988  21.890  25.799  1.00  0.00     0.116 C 
ENDROOT
BRANCH   1   2
ATOM      2  N   UNL A   1      37.661  22.261  24.444  1.00  0.00    -0.352 N 
ATOM      3  C   UNL A   1      36.575  22.842  23.854  1.00  0.00     0.251 C 
ATOM      4  O   UNL A   1      36.654  23.009  22.634  1.00  0.00    -0.269 OA
ATOM      5  H   UNL A   1      38.379  22.051  23.805  1.00  0.00     0.163 HD
BRANCH   3   6
ATOM      6  C   UNL A   1      35.331  23.288  24.557  1.00  0.00     0.041 A 
ATOM      7  C   UNL A   1      33.511  24.951  24.569  1.00  0.00     0.101 A 
ATOM      8  C   UNL A   1      34.703  24.430  24.027  1.00  0.00     0.037 A 
ATOM      9  C   UNL A   1      32.942  24.337  25.682  1.00  0.00     0.061 A 
ATOM     10  C   UNL A   1      33.564  23.211  26.224  1.00  0.00     0.023 A 
ATOM     11  Cl  UNL A   1      31.500  24.822  26.482  1.00  0.00    -0.083 Cl
ATOM     12  C   UNL A   1      34.723  22.676  25.651  1.00  0.00     0.015 A 
BRANCH   7  13
ATOM     13  S   UNL A   1      32.698  26.212  23.634  1.00  0.00     0.242 S 
ATOM     14  O   UNL A   1      31.333  25.828  23.371  1.00  0.00    -0.207 OA
ATOM     15  O   UNL A   1      33.562  26.524  22.511  1.00  0.00    -0.207 OA
BRANCH  13  16
ATOM     16  N   UNL A   1      32.687  27.645  24.521  1.00  0.00    -0.208 NA
ATOM     17  H   UNL A   1      33.396  27.524  25.245  1.00  0.00     0.141 HD
BRANCH  16  18
ATOM     18  C   UNL A   1      31.507  28.189  25.211  1.00  0.00     0.067 C 
ATOM     19  C   UNL A   1      31.841  28.314  26.703  1.00  0.00     0.025 C 
BRANCH  18  20
ATOM     20  C   UNL A   1      31.051  29.543  24.626  1.00  0.00     0.022 C 
BRANCH  20  21
ATOM     21  C   UNL A   1      29.814  29.607  23.698  1.00  0.00    -0.016 C 
ATOM     22  C   UNL A   1      29.192  31.002  23.608  1.00  0.00     0.007 C 
ATOM     23  C   UNL A   1      30.234  29.190  22.280  1.00  0.00     0.007 C 
ENDBRANCH  20  21
ENDBRANCH  18  20
ENDBRANCH  16  18
ENDBRANCH  13  16
ENDBRANCH   7  13
ENDBRANCH   3   6
ENDBRANCH   1   2
BRANCH   1  24
ATOM     24  C   UNL A   1      39.035  22.835  26.390  1.00  0.00     0.023 C 
BRANCH  24  25
ATOM     25  C   UNL A   1      40.285  22.111  26.904  1.00  0.00     0.023 C 
BRANCH  25  26
ATOM     26  C   UNL A   1      41.488  23.016  27.148  1.00  0.00     0.116 C 
BRANCH  26  27
ATOM     27  N   UNL A   1      41.845  23.823  25.990  1.00  0.00    -0.352 N 
ATOM     28  C   UNL A   1      41.947  25.190  25.912  1.00  0.00     0.251 C 
ATOM     29  H   UNL A   1      42.038  23.328  25.161  1.00  0.00     0.163 HD
ATOM     30  O   UNL A   1      42.140  25.748  24.838  1.00  0.00    -0.269 OA
BRANCH  28  31
ATOM     31  C   UNL A   1      41.776  25.975  27.147  1.00  0.00     0.039 A 
ATOM     32  C   UNL A   1      42.736  26.931  27.476  1.00  0.00     0.014 A 
ATOM     33  C   UNL A   1      40.629  25.812  27.928  1.00  0.00     0.014 A 
ATOM     34  C   UNL A   1      42.517  27.768  28.568  1.00  0.00     0.010 A 
ATOM     35  C   UNL A   1      40.371  26.705  28.959  1.00  0.00     0.010 A 
ATOM     36  C   UNL A   1      41.317  27.684  29.296  1.00  0.00    -0.014 A 
BRANCH  36  37
ATOM     37  C   UNL A   1      41.047  28.611  30.421  1.00  0.00     0.031 A 
ATOM     38  C   UNL A   1      41.863  28.523  31.680  1.00  0.00     0.074 A 
ATOM     39  C   UNL A   1      40.042  29.504  30.322  1.00  0.00     0.049 A 
ATOM     40  N   UNL A   1      41.775  29.237  32.773  1.00  0.00    -0.248 NA
ATOM     41  C   UNL A   1      42.898  27.476  31.730  1.00  0.00     0.031 C 
ATOM     42  C   UNL A   1      39.144  29.644  29.173  1.00  0.00     0.029 A 
ATOM     43  N   UNL A   1      39.610  30.463  31.201  1.00  0.00    -0.354 N 
ATOM     44  C   UNL A   1      42.734  28.722  33.636  1.00  0.00     0.074 A 
ATOM     45  C   UNL A   1      43.342  27.593  32.971  1.00  0.00     0.031 C 
ATOM     46  C   UNL A   1      38.293  30.656  29.404  1.00  0.00     0.029 A 
ATOM     47  C   UNL A   1      38.558  31.210  30.728  1.00  0.00     0.049 A 
ATOM     48  H   UNL A   1      40.014  30.603  32.088  1.00  0.00     0.167 HD
ATOM     49  C   UNL A   1      43.096  29.171  34.861  1.00  0.00     0.037 A 
ATOM     50  C   UNL A   1      37.885  32.225  31.299  1.00  0.00     0.037 A 
ATOM     51  C   UNL A   1      42.496  30.307  35.511  1.00  0.00     0.049 A 
ATOM     52  C   UNL A   1      38.296  32.695  32.667  1.00  0.00     0.074 A 
ATOM     53  C   UNL A   1      42.828  30.877  36.725  1.00  0.00     0.029 A 
ATOM     54  N   UNL A   1      41.434  31.038  35.000  1.00  0.00    -0.354 N 
ATOM     55  N   UNL A   1      39.262  32.253  33.439  1.00  0.00    -0.248 NA
ATOM     56  C   UNL A   1      37.531  33.809  33.242  1.00  0.00     0.031 C 
ATOM     57  C   UNL A   1      41.930  31.919  36.978  1.00  0.00     0.029 A 
ATOM     58  C   UNL A   1      41.078  32.037  35.891  1.00  0.00     0.049 A 
ATOM     59  H   UNL A   1      40.998  30.872  34.133  1.00  0.00     0.167 HD
ATOM     60  C   UNL A   1      39.236  33.052  34.576  1.00  0.00     0.074 A 
ATOM     61  C   UNL A   1      38.174  34.019  34.381  1.00  0.00     0.031 C 
ATOM     62  C   UNL A   1      40.019  32.992  35.681  1.00  0.00     0.037 A 
BRANCH  49  63
ATOM     63  C   UNL A   1      44.192  28.431  35.573  1.00  0.00     0.057 A 
ATOM     64  C   UNL A   1      45.543  28.769  35.408  1.00  0.00     0.134 A 
ATOM     65  C   UNL A   1      43.894  27.385  36.455  1.00  0.00     0.134 A 
ATOM     66  F   UNL A   1      45.900  29.753  34.567  1.00  0.00    -0.206 F 
ATOM     67  C   UNL A   1      46.557  28.075  36.070  1.00  0.00     0.040 A 
ATOM     68  C   UNL A   1      44.897  26.705  37.147  1.00  0.00     0.040 A 
ATOM     69  F   UNL A   1      42.622  27.010  36.664  1.00  0.00    -0.206 F 
ATOM     70  C   UNL A   1      46.234  27.045  36.949  1.00  0.00     0.006 A 
ENDBRANCH  49  63
BRANCH  50  71
ATOM     71  C   UNL A   1      36.768  32.883  30.574  1.00  0.00     0.057 A 
ATOM     72  C   UNL A   1      35.434  32.551  30.843  1.00  0.00     0.134 A 
ATOM     73  C   UNL A   1      37.004  33.845  29.584  1.00  0.00     0.134 A 
ATOM     74  F   UNL A   1      35.142  31.625  31.768  1.00  0.00    -0.206 F 
ATOM     75  C   UNL A   1      34.378  33.132  30.137  1.00  0.00     0.040 A 
ATOM     76  C   UNL A   1      35.956  34.455  28.892  1.00  0.00     0.040 A 
ATOM     77  F   UNL A   1      38.258  34.215  29.285  1.00  0.00    -0.206 F 
ATOM     78  C   UNL A   1      34.639  34.091  29.161  1.00  0.00     0.006 A 
ENDBRANCH  50  71
BRANCH  62  79
ATOM     79  C   UNL A   1      39.775  34.017  36.751  1.00  0.00     0.057 A 
ATOM     80  C   UNL A   1      40.317  35.307  36.681  1.00  0.00     0.134 A 
ATOM     81  C   UNL A   1      38.961  33.718  37.851  1.00  0.00     0.134 A 
ATOM     82  F   UNL A   1      41.116  35.655  35.660  1.00  0.00    -0.206 F 
ATOM     83  C   UNL A   1      40.082  36.252  37.681  1.00  0.00     0.040 A 
ATOM     84  C   UNL A   1      38.692  34.664  38.840  1.00  0.00     0.040 A 
ATOM     85  F   UNL A   1      38.401  32.505  37.975  1.00  0.00    -0.206 F 
ATOM     86  C   UNL A   1      39.261  35.934  38.760  1.00  0.00     0.006 A 
ENDBRANCH  62  79
ENDBRANCH  36  37
ENDBRANCH  28  31
ENDBRANCH  26  27
ENDBRANCH  25  26
ENDBRANCH  24  25
ENDBRANCH   1  24
TORSDOF 16
ENDMDL
