MODEL 1
REMARK VINA RESULT:     -11.4      0.000      0.000
REMARK SMILES CNC(=O)[C@H](C)S(=O)(=O)c1cc(C(=O)NCCCCNC(=O)c2ccc(-c3c4nc(c(-c5c(F)cccc5F)c5ccc([nH]5)c(-c5c(F)cccc5F)c5nc(c(-c6c(F)cccc6F)c6ccc3[nH]6)C=C5)C=C4)cc2)c(C)cc1C
REMARK SMILES IDX 17 1 16 2 15 3 13 4 14 5 12 7 10 8 11 9 80 10 79 11 81 12
REMARK SMILES IDX 77 13 78 14 7 15 8 16 9 17 5 18 6 19 3 20 1 21 2 22 4 24
REMARK SMILES IDX 18 25 19 26 20 27 21 28 22 30 23 31 24 32 76 33 25 34 75 35
REMARK SMILES IDX 26 36 27 37 28 38 69 39 29 40 74 41 68 42 70 43 30 44 73 45
REMARK SMILES IDX 67 46 66 47 31 49 57 50 40 51 56 52 41 53 44 54 55 55 71 56
REMARK SMILES IDX 42 57 43 58 54 60 72 61 45 62 32 63 33 64 38 65 34 66 35 67
REMARK SMILES IDX 37 68 39 69 36 70 58 71 59 72 64 73 60 74 61 75 63 76 65 77
REMARK SMILES IDX 62 78 46 79 47 80 52 81 48 82 49 83 51 84 53 85 50 86
REMARK H PARENT 15 6 2 23 20 29 70 48 44 59
REMARK Flexibility Score: inf
ROOT
ATOM      1  C   UNL A   1      39.062  22.763  26.284  1.00  0.00     0.023 C 
ENDROOT
BRANCH   1   2
ATOM      2  C   UNL A   1      37.823  23.633  26.038  1.00  0.00     0.116 C 
BRANCH   2   3
ATOM      3  N   UNL A   1      37.494  23.585  24.633  1.00  0.00    -0.352 N 
ATOM      4  C   UNL A   1      36.344  23.283  23.952  1.00  0.00     0.251 C 
ATOM      5  O   UNL A   1      36.467  23.110  22.737  1.00  0.00    -0.269 OA
ATOM      6  H   UNL A   1      38.250  23.815  24.045  1.00  0.00     0.163 HD
BRANCH   4   7
ATOM      7  C   UNL A   1      34.962  23.281  24.534  1.00  0.00     0.044 A 
ATOM      8  C   UNL A   1      33.037  24.774  24.963  1.00  0.00     0.071 A 
ATOM      9  C   UNL A   1      34.339  24.546  24.479  1.00  0.00     0.034 A 
ATOM     10  C   UNL A   1      32.383  23.767  25.675  1.00  0.00    -0.032 A 
ATOM     11  C   UNL A   1      32.963  22.491  25.654  1.00  0.00     0.009 A 
ATOM     12  C   UNL A   1      31.091  23.879  26.428  1.00  0.00     0.046 C 
ATOM     13  C   UNL A   1      34.189  22.214  25.013  1.00  0.00    -0.038 A 
ATOM     14  C   UNL A   1      34.483  20.759  24.838  1.00  0.00     0.045 C 
BRANCH   8  15
ATOM     15  S   UNL A   1      32.314  26.372  24.611  1.00  0.00     0.190 S 
ATOM     16  O   UNL A   1      33.309  27.133  23.870  1.00  0.00    -0.223 OA
ATOM     17  O   UNL A   1      31.849  26.925  25.867  1.00  0.00    -0.223 OA
BRANCH  15  18
ATOM     18  C   UNL A   1      30.950  26.127  23.488  1.00  0.00     0.199 C 
ATOM     19  C   UNL A   1      29.604  26.429  24.154  1.00  0.00     0.036 C 
BRANCH  18  20
ATOM     20  C   UNL A   1      31.094  26.938  22.226  1.00  0.00     0.238 C 
ATOM     21  C   UNL A   1      32.675  25.316  21.071  1.00  0.00     0.142 C 
ATOM     22  N   UNL A   1      31.825  26.482  21.171  1.00  0.00    -0.358 N 
ATOM     23  H   UNL A   1      31.766  27.028  20.353  1.00  0.00     0.163 HD
ATOM     24  O   UNL A   1      30.511  28.015  22.079  1.00  0.00    -0.274 OA
ENDBRANCH  18  20
ENDBRANCH  15  18
ENDBRANCH   8  15
ENDBRANCH   4   7
ENDBRANCH   2   3
ENDBRANCH   1   2
BRANCH   1  25
ATOM     25  C   UNL A   1      39.026  21.379  25.654  1.00  0.00     0.023 C 
BRANCH  25  26
ATOM     26  C   UNL A   1      39.559  20.278  26.552  1.00  0.00     0.116 C 
BRANCH  26  27
ATOM     27  N   UNL A   1      40.615  19.478  25.943  1.00  0.00    -0.352 N 
ATOM     28  C   UNL A   1      41.951  19.783  25.822  1.00  0.00     0.251 C 
ATOM     29  H   UNL A   1      40.337  18.610  25.570  1.00  0.00     0.163 HD
ATOM     30  O   UNL A   1      42.717  19.043  25.226  1.00  0.00    -0.269 OA
BRANCH  28  31
ATOM     31  C   UNL A   1      42.426  21.062  26.386  1.00  0.00     0.039 A 
ATOM     32  C   UNL A   1      42.737  22.107  25.516  1.00  0.00     0.014 A 
ATOM     33  C   UNL A   1      42.452  21.249  27.770  1.00  0.00     0.014 A 
ATOM     34  C   UNL A   1      42.997  23.374  26.039  1.00  0.00     0.010 A 
ATOM     35  C   UNL A   1      42.616  22.527  28.280  1.00  0.00     0.010 A 
ATOM     36  C   UNL A   1      42.894  23.601  27.421  1.00  0.00    -0.014 A 
BRANCH  36  37
ATOM     37  C   UNL A   1      43.094  24.950  28.001  1.00  0.00     0.031 A 
ATOM     38  C   UNL A   1      44.464  25.362  28.461  1.00  0.00     0.074 A 
ATOM     39  C   UNL A   1      42.038  25.764  28.187  1.00  0.00     0.049 A 
ATOM     40  N   UNL A   1      44.835  26.451  29.080  1.00  0.00    -0.248 NA
ATOM     41  C   UNL A   1      45.555  24.400  28.227  1.00  0.00     0.031 C 
ATOM     42  C   UNL A   1      40.650  25.452  27.840  1.00  0.00     0.029 A 
ATOM     43  N   UNL A   1      41.968  27.023  28.727  1.00  0.00    -0.354 N 
ATOM     44  C   UNL A   1      46.192  26.293  29.332  1.00  0.00     0.074 A 
ATOM     45  C   UNL A   1      46.566  24.982  28.853  1.00  0.00     0.031 C 
ATOM     46  C   UNL A   1      39.871  26.501  28.151  1.00  0.00     0.029 A 
ATOM     47  C   UNL A   1      40.698  27.546  28.749  1.00  0.00     0.049 A 
ATOM     48  H   UNL A   1      42.755  27.508  29.068  1.00  0.00     0.167 HD
ATOM     49  C   UNL A   1      47.056  27.176  29.886  1.00  0.00     0.037 A 
ATOM     50  C   UNL A   1      40.254  28.733  29.201  1.00  0.00     0.037 A 
ATOM     51  C   UNL A   1      46.689  28.497  30.317  1.00  0.00     0.049 A 
ATOM     52  C   UNL A   1      41.239  29.709  29.783  1.00  0.00     0.074 A 
ATOM     53  C   UNL A   1      47.502  29.495  30.824  1.00  0.00     0.029 A 
ATOM     54  N   UNL A   1      45.400  29.007  30.280  1.00  0.00    -0.354 N 
ATOM     55  N   UNL A   1      42.532  29.575  29.951  1.00  0.00    -0.248 NA
ATOM     56  C   UNL A   1      40.705  31.002  30.230  1.00  0.00     0.031 C 
ATOM     57  C   UNL A   1      46.698  30.599  31.123  1.00  0.00     0.029 A 
ATOM     58  C   UNL A   1      45.392  30.301  30.767  1.00  0.00     0.049 A 
ATOM     59  H   UNL A   1      44.608  28.519  29.957  1.00  0.00     0.167 HD
ATOM     60  C   UNL A   1      42.971  30.774  30.497  1.00  0.00     0.074 A 
ATOM     61  C   UNL A   1      41.807  31.629  30.619  1.00  0.00     0.031 C 
ATOM     62  C   UNL A   1      44.223  31.137  30.865  1.00  0.00     0.037 A 
BRANCH  49  63
ATOM     63  C   UNL A   1      48.482  26.739  30.038  1.00  0.00     0.057 A 
ATOM     64  C   UNL A   1      49.439  26.985  29.044  1.00  0.00     0.134 A 
ATOM     65  C   UNL A   1      48.909  26.077  31.196  1.00  0.00     0.134 A 
ATOM     66  F   UNL A   1      49.090  27.599  27.903  1.00  0.00    -0.206 F 
ATOM     67  C   UNL A   1      50.762  26.566  29.184  1.00  0.00     0.040 A 
ATOM     68  C   UNL A   1      50.236  25.677  31.359  1.00  0.00     0.040 A 
ATOM     69  F   UNL A   1      48.045  25.811  32.187  1.00  0.00    -0.206 F 
ATOM     70  C   UNL A   1      51.165  25.915  30.348  1.00  0.00     0.006 A 
ENDBRANCH  49  63
BRANCH  50  71
ATOM     71  C   UNL A   1      38.816  29.085  29.089  1.00  0.00     0.057 A 
ATOM     72  C   UNL A   1      38.278  29.532  27.877  1.00  0.00     0.134 A 
ATOM     73  C   UNL A   1      37.951  28.996  30.186  1.00  0.00     0.134 A 
ATOM     74  F   UNL A   1      39.061  29.654  26.796  1.00  0.00    -0.206 F 
ATOM     75  C   UNL A   1      36.936  29.900  27.763  1.00  0.00     0.040 A 
ATOM     76  C   UNL A   1      36.601  29.339  30.080  1.00  0.00     0.040 A 
ATOM     77  F   UNL A   1      38.404  28.567  31.372  1.00  0.00    -0.206 F 
ATOM     78  C   UNL A   1      36.092  29.799  28.868  1.00  0.00     0.006 A 
ENDBRANCH  50  71
BRANCH  62  79
ATOM     79  C   UNL A   1      44.405  32.526  31.398  1.00  0.00     0.057 A 
ATOM     80  C   UNL A   1      44.340  32.805  32.767  1.00  0.00     0.134 A 
ATOM     81  C   UNL A   1      44.696  33.587  30.531  1.00  0.00     0.134 A 
ATOM     82  F   UNL A   1      44.053  31.832  33.646  1.00  0.00    -0.206 F 
ATOM     83  C   UNL A   1      44.540  34.096  33.257  1.00  0.00     0.040 A 
ATOM     84  C   UNL A   1      44.920  34.878  31.010  1.00  0.00     0.040 A 
ATOM     85  F   UNL A   1      44.780  33.383  29.207  1.00  0.00    -0.206 F 
ATOM     86  C   UNL A   1      44.838  35.136  32.377  1.00  0.00     0.006 A 
ENDBRANCH  62  79
ENDBRANCH  36  37
ENDBRANCH  28  31
ENDBRANCH  26  27
ENDBRANCH  25  26
ENDBRANCH   1  25
TORSDOF 14
ENDMDL
MODEL 2
REMARK VINA RESULT:     -11.2      3.281      8.635
REMARK SMILES CNC(=O)[C@H](C)S(=O)(=O)c1cc(C(=O)NCCCCNC(=O)c2ccc(-c3c4nc(c(-c5c(F)cccc5F)c5ccc([nH]5)c(-c5c(F)cccc5F)c5nc(c(-c6c(F)cccc6F)c6ccc3[nH]6)C=C5)C=C4)cc2)c(C)cc1C
REMARK SMILES IDX 17 1 16 2 15 3 13 4 14 5 12 7 10 8 11 9 80 10 79 11 81 12
REMARK SMILES IDX 77 13 78 14 7 15 8 16 9 17 5 18 6 19 3 20 1 21 2 22 4 24
REMARK SMILES IDX 18 25 19 26 20 27 21 28 22 30 23 31 24 32 76 33 25 34 75 35
REMARK SMILES IDX 26 36 27 37 28 38 69 39 29 40 74 41 68 42 70 43 30 44 73 45
REMARK SMILES IDX 67 46 66 47 31 49 57 50 40 51 56 52 41 53 44 54 55 55 71 56
REMARK SMILES IDX 42 57 43 58 54 60 72 61 45 62 32 63 33 64 38 65 34 66 35 67
REMARK SMILES IDX 37 68 39 69 36 70 58 71 59 72 64 73 60 74 61 75 63 76 65 77
REMARK SMILES IDX 62 78 46 79 47 80 52 81 48 82 49 83 51 84 53 85 50 86
REMARK H PARENT 15 6 2 23 20 29 70 48 44 59
REMARK Flexibility Score: inf
ROOT
ATOM      1  C   UNL A   1      32.080  29.804  26.660  1.00  0.00     0.023 C 
ENDROOT
BRANCH   1   2
ATOM      2  C   UNL A   1      33.541  29.454  26.358  1.00  0.00     0.116 C 
BRANCH   2   3
ATOM      3  N   UNL A   1      33.735  29.470  24.928  1.00  0.00    -0.352 N 
ATOM      4  C   UNL A   1      33.659  28.500  23.963  1.00  0.00     0.251 C 
ATOM      5  O   UNL A   1      34.114  28.803  22.857  1.00  0.00    -0.269 OA
ATOM      6  H   UNL A   1      33.970  30.358  24.573  1.00  0.00     0.163 HD
BRANCH   4   7
ATOM      7  C   UNL A   1      32.959  27.181  24.107  1.00  0.00     0.044 A 
ATOM      8  C   UNL A   1      33.369  24.830  24.758  1.00  0.00     0.071 A 
ATOM      9  C   UNL A   1      33.815  26.149  24.548  1.00  0.00     0.034 A 
ATOM     10  C   UNL A   1      32.079  24.470  24.364  1.00  0.00    -0.032 A 
ATOM     11  C   UNL A   1      31.207  25.510  24.010  1.00  0.00     0.009 A 
ATOM     12  C   UNL A   1      31.493  23.091  24.325  1.00  0.00     0.046 C 
ATOM     13  C   UNL A   1      31.601  26.864  23.970  1.00  0.00    -0.038 A 
ATOM     14  C   UNL A   1      30.469  27.836  23.873  1.00  0.00     0.045 C 
BRANCH   8  15
ATOM     15  S   UNL A   1      34.522  23.703  25.533  1.00  0.00     0.190 S 
ATOM     16  O   UNL A   1      33.824  23.083  26.649  1.00  0.00    -0.223 OA
ATOM     17  O   UNL A   1      35.727  24.452  25.832  1.00  0.00    -0.223 OA
BRANCH  15  18
ATOM     18  C   UNL A   1      34.869  22.387  24.380  1.00  0.00     0.199 C 
ATOM     19  C   UNL A   1      35.819  22.841  23.268  1.00  0.00     0.036 C 
BRANCH  18  20
ATOM     20  C   UNL A   1      35.420  21.161  25.061  1.00  0.00     0.238 C 
ATOM     21  C   UNL A   1      33.189  19.952  25.233  1.00  0.00     0.142 C 
ATOM     22  N   UNL A   1      34.624  20.093  25.350  1.00  0.00    -0.358 N 
ATOM     23  H   UNL A   1      35.097  19.298  25.689  1.00  0.00     0.163 HD
ATOM     24  O   UNL A   1      36.619  21.053  25.330  1.00  0.00    -0.274 OA
ENDBRANCH  18  20
ENDBRANCH  15  18
ENDBRANCH   8  15
ENDBRANCH   4   7
ENDBRANCH   2   3
ENDBRANCH   1   2
BRANCH   1  25
ATOM     25  C   UNL A   1      31.760  31.291  26.713  1.00  0.00     0.023 C 
BRANCH  25  26
ATOM     26  C   UNL A   1      32.910  32.154  27.196  1.00  0.00     0.116 C 
BRANCH  26  27
ATOM     27  N   UNL A   1      32.507  33.487  27.627  1.00  0.00    -0.352 N 
ATOM     28  C   UNL A   1      33.170  34.344  28.475  1.00  0.00     0.251 C 
ATOM     29  H   UNL A   1      31.652  33.816  27.266  1.00  0.00     0.163 HD
ATOM     30  O   UNL A   1      32.680  35.414  28.803  1.00  0.00    -0.269 OA
BRANCH  28  31
ATOM     31  C   UNL A   1      34.469  33.910  29.026  1.00  0.00     0.039 A 
ATOM     32  C   UNL A   1      34.485  33.159  30.201  1.00  0.00     0.014 A 
ATOM     33  C   UNL A   1      35.646  34.156  28.315  1.00  0.00     0.014 A 
ATOM     34  C   UNL A   1      35.682  32.581  30.623  1.00  0.00     0.010 A 
ATOM     35  C   UNL A   1      36.811  33.502  28.683  1.00  0.00     0.010 A 
ATOM     36  C   UNL A   1      36.842  32.712  29.842  1.00  0.00    -0.014 A 
BRANCH  36  37
ATOM     37  C   UNL A   1      38.112  32.050  30.225  1.00  0.00     0.031 A 
ATOM     38  C   UNL A   1      39.051  32.743  31.171  1.00  0.00     0.074 A 
ATOM     39  C   UNL A   1      38.453  30.875  29.663  1.00  0.00     0.049 A 
ATOM     40  N   UNL A   1      40.248  32.387  31.558  1.00  0.00    -0.248 NA
ATOM     41  C   UNL A   1      38.598  34.030  31.726  1.00  0.00     0.031 C 
ATOM     42  C   UNL A   1      37.654  30.135  28.684  1.00  0.00     0.029 A 
ATOM     43  N   UNL A   1      39.573  30.100  29.829  1.00  0.00    -0.354 N 
ATOM     44  C   UNL A   1      40.698  33.415  32.376  1.00  0.00     0.074 A 
ATOM     45  C   UNL A   1      39.674  34.434  32.384  1.00  0.00     0.031 C 
ATOM     46  C   UNL A   1      38.297  29.002  28.357  1.00  0.00     0.029 A 
ATOM     47  C   UNL A   1      39.565  28.950  29.078  1.00  0.00     0.049 A 
ATOM     48  H   UNL A   1      40.312  30.344  30.432  1.00  0.00     0.167 HD
ATOM     49  C   UNL A   1      41.850  33.489  33.083  1.00  0.00     0.037 A 
ATOM     50  C   UNL A   1      40.481  27.968  28.982  1.00  0.00     0.037 A 
ATOM     51  C   UNL A   1      42.844  32.451  33.110  1.00  0.00     0.049 A 
ATOM     52  C   UNL A   1      41.738  28.058  29.802  1.00  0.00     0.074 A 
ATOM     53  C   UNL A   1      44.012  32.395  33.848  1.00  0.00     0.029 A 
ATOM     54  N   UNL A   1      42.779  31.280  32.369  1.00  0.00    -0.354 N 
ATOM     55  N   UNL A   1      42.121  29.004  30.626  1.00  0.00    -0.248 NA
ATOM     56  C   UNL A   1      42.687  26.943  29.684  1.00  0.00     0.031 C 
ATOM     57  C   UNL A   1      44.669  31.203  33.531  1.00  0.00     0.029 A 
ATOM     58  C   UNL A   1      43.892  30.500  32.624  1.00  0.00     0.049 A 
ATOM     59  H   UNL A   1      42.050  31.041  31.753  1.00  0.00     0.167 HD
ATOM     60  C   UNL A   1      43.338  28.585  31.146  1.00  0.00     0.074 A 
ATOM     61  C   UNL A   1      43.625  27.295  30.553  1.00  0.00     0.031 C 
ATOM     62  C   UNL A   1      44.148  29.212  32.033  1.00  0.00     0.037 A 
BRANCH  49  63
ATOM     63  C   UNL A   1      42.081  34.728  33.894  1.00  0.00     0.057 A 
ATOM     64  C   UNL A   1      41.686  34.816  35.236  1.00  0.00     0.134 A 
ATOM     65  C   UNL A   1      42.718  35.842  33.333  1.00  0.00     0.134 A 
ATOM     66  F   UNL A   1      41.055  33.790  35.826  1.00  0.00    -0.206 F 
ATOM     67  C   UNL A   1      41.892  35.976  35.983  1.00  0.00     0.040 A 
ATOM     68  C   UNL A   1      42.953  36.999  34.080  1.00  0.00     0.040 A 
ATOM     69  F   UNL A   1      43.123  35.825  32.054  1.00  0.00    -0.206 F 
ATOM     70  C   UNL A   1      42.533  37.070  35.406  1.00  0.00     0.006 A 
ENDBRANCH  49  63
BRANCH  50  71
ATOM     71  C   UNL A   1      40.230  26.796  28.107  1.00  0.00     0.057 A 
ATOM     72  C   UNL A   1      40.791  26.721  26.827  1.00  0.00     0.134 A 
ATOM     73  C   UNL A   1      39.417  25.733  28.519  1.00  0.00     0.134 A 
ATOM     74  F   UNL A   1      41.564  27.718  26.371  1.00  0.00    -0.206 F 
ATOM     75  C   UNL A   1      40.537  25.643  25.978  1.00  0.00     0.040 A 
ATOM     76  C   UNL A   1      39.174  24.637  27.688  1.00  0.00     0.040 A 
ATOM     77  F   UNL A   1      38.858  25.741  29.737  1.00  0.00    -0.206 F 
ATOM     78  C   UNL A   1      39.728  24.594  26.411  1.00  0.00     0.006 A 
ENDBRANCH  50  71
BRANCH  62  79
ATOM     79  C   UNL A   1      45.399  28.496  32.444  1.00  0.00     0.057 A 
ATOM     80  C   UNL A   1      46.615  28.694  31.780  1.00  0.00     0.134 A 
ATOM     81  C   UNL A   1      45.394  27.633  33.547  1.00  0.00     0.134 A 
ATOM     82  F   UNL A   1      46.680  29.498  30.707  1.00  0.00    -0.206 F 
ATOM     83  C   UNL A   1      47.780  28.045  32.187  1.00  0.00     0.040 A 
ATOM     84  C   UNL A   1      46.557  26.996  33.979  1.00  0.00     0.040 A 
ATOM     85  F   UNL A   1      44.261  27.408  34.231  1.00  0.00    -0.206 F 
ATOM     86  C   UNL A   1      47.755  27.198  33.295  1.00  0.00     0.006 A 
ENDBRANCH  62  79
ENDBRANCH  36  37
ENDBRANCH  28  31
ENDBRANCH  26  27
ENDBRANCH  25  26
ENDBRANCH   1  25
TORSDOF 14
ENDMDL
MODEL 3
REMARK VINA RESULT:     -11.2      3.334      8.665
REMARK SMILES CNC(=O)[C@H](C)S(=O)(=O)c1cc(C(=O)NCCCCNC(=O)c2ccc(-c3c4nc(c(-c5c(F)cccc5F)c5ccc([nH]5)c(-c5c(F)cccc5F)c5nc(c(-c6c(F)cccc6F)c6ccc3[nH]6)C=C5)C=C4)cc2)c(C)cc1C
REMARK SMILES IDX 17 1 16 2 15 3 13 4 14 5 12 7 10 8 11 9 80 10 79 11 81 12
REMARK SMILES IDX 77 13 78 14 7 15 8 16 9 17 5 18 6 19 3 20 1 21 2 22 4 24
REMARK SMILES IDX 18 25 19 26 20 27 21 28 22 30 23 31 24 32 76 33 25 34 75 35
REMARK SMILES IDX 26 36 27 37 28 38 69 39 29 40 74 41 68 42 70 43 30 44 73 45
REMARK SMILES IDX 67 46 66 47 31 49 57 50 40 51 56 52 41 53 44 54 55 55 71 56
REMARK SMILES IDX 42 57 43 58 54 60 72 61 45 62 32 63 33 64 38 65 34 66 35 67
REMARK SMILES IDX 37 68 39 69 36 70 58 71 59 72 64 73 60 74 61 75 63 76 65 77
REMARK SMILES IDX 62 78 46 79 47 80 52 81 48 82 49 83 51 84 53 85 50 86
REMARK H PARENT 15 6 2 23 20 29 70 48 44 59
REMARK Flexibility Score: inf
ROOT
ATOM      1  C   UNL A   1      32.454  29.457  27.012  1.00  0.00     0.023 C 
ENDROOT
BRANCH   1   2
ATOM      2  C   UNL A   1      33.878  29.074  26.591  1.00  0.00     0.116 C 
BRANCH   2   3
ATOM      3  N   UNL A   1      33.950  29.074  25.149  1.00  0.00    -0.352 N 
ATOM      4  C   UNL A   1      33.847  28.083  24.209  1.00  0.00     0.251 C 
ATOM      5  O   UNL A   1      34.190  28.389  23.064  1.00  0.00    -0.269 OA
ATOM      6  H   UNL A   1      34.105  29.967  24.763  1.00  0.00     0.163 HD
BRANCH   4   7
ATOM      7  C   UNL A   1      33.236  26.731  24.430  1.00  0.00     0.044 A 
ATOM      8  C   UNL A   1      33.838  24.402  25.007  1.00  0.00     0.071 A 
ATOM      9  C   UNL A   1      34.189  25.742  24.752  1.00  0.00     0.034 A 
ATOM     10  C   UNL A   1      32.528  23.981  24.777  1.00  0.00    -0.032 A 
ATOM     11  C   UNL A   1      31.568  24.976  24.543  1.00  0.00     0.009 A 
ATOM     12  C   UNL A   1      32.008  22.574  24.801  1.00  0.00     0.046 C 
ATOM     13  C   UNL A   1      31.888  26.348  24.464  1.00  0.00    -0.038 A 
ATOM     14  C   UNL A   1      30.707  27.264  24.518  1.00  0.00     0.045 C 
BRANCH   8  15
ATOM     15  S   UNL A   1      35.133  23.333  25.621  1.00  0.00     0.190 S 
ATOM     16  O   UNL A   1      34.556  22.546  26.701  1.00  0.00    -0.223 OA
ATOM     17  O   UNL A   1      36.274  24.169  25.939  1.00  0.00    -0.223 OA
BRANCH  15  18
ATOM     18  C   UNL A   1      35.546  22.169  24.335  1.00  0.00     0.199 C 
ATOM     19  C   UNL A   1      36.484  22.783  23.291  1.00  0.00     0.036 C 
BRANCH  18  20
ATOM     20  C   UNL A   1      36.145  20.899  24.882  1.00  0.00     0.238 C 
ATOM     21  C   UNL A   1      33.983  19.561  24.823  1.00  0.00     0.142 C 
ATOM     22  N   UNL A   1      35.403  19.763  25.010  1.00  0.00    -0.358 N 
ATOM     23  H   UNL A   1      35.910  18.959  25.267  1.00  0.00     0.163 HD
ATOM     24  O   UNL A   1      37.340  20.823  25.181  1.00  0.00    -0.274 OA
ENDBRANCH  18  20
ENDBRANCH  15  18
ENDBRANCH   8  15
ENDBRANCH   4   7
ENDBRANCH   2   3
ENDBRANCH   1   2
BRANCH   1  25
ATOM     25  C   UNL A   1      32.083  30.919  26.815  1.00  0.00     0.023 C 
BRANCH  25  26
ATOM     26  C   UNL A   1      33.151  31.895  27.273  1.00  0.00     0.116 C 
BRANCH  26  27
ATOM     27  N   UNL A   1      32.631  33.201  27.660  1.00  0.00    -0.352 N 
ATOM     28  C   UNL A   1      33.196  34.125  28.508  1.00  0.00     0.251 C 
ATOM     29  H   UNL A   1      31.765  33.454  27.264  1.00  0.00     0.163 HD
ATOM     30  O   UNL A   1      32.613  35.159  28.795  1.00  0.00    -0.269 OA
BRANCH  28  31
ATOM     31  C   UNL A   1      34.505  33.807  29.110  1.00  0.00     0.039 A 
ATOM     32  C   UNL A   1      34.543  33.028  30.267  1.00  0.00     0.014 A 
ATOM     33  C   UNL A   1      35.683  34.188  28.464  1.00  0.00     0.014 A 
ATOM     34  C   UNL A   1      35.771  32.559  30.732  1.00  0.00     0.010 A 
ATOM     35  C   UNL A   1      36.890  33.642  28.872  1.00  0.00     0.010 A 
ATOM     36  C   UNL A   1      36.947  32.827  30.012  1.00  0.00    -0.014 A 
BRANCH  36  37
ATOM     37  C   UNL A   1      38.257  32.283  30.440  1.00  0.00     0.031 A 
ATOM     38  C   UNL A   1      38.750  30.992  29.852  1.00  0.00     0.074 A 
ATOM     39  C   UNL A   1      38.958  32.904  31.409  1.00  0.00     0.049 A 
ATOM     40  N   UNL A   1      39.815  30.297  30.157  1.00  0.00    -0.248 NA
ATOM     41  C   UNL A   1      37.911  30.379  28.808  1.00  0.00     0.031 C 
ATOM     42  C   UNL A   1      38.553  34.130  32.100  1.00  0.00     0.029 A 
ATOM     43  N   UNL A   1      40.158  32.579  31.987  1.00  0.00    -0.354 N 
ATOM     44  C   UNL A   1      39.758  29.158  29.364  1.00  0.00     0.074 A 
ATOM     45  C   UNL A   1      38.527  29.224  28.609  1.00  0.00     0.031 C 
ATOM     46  C   UNL A   1      39.501  34.467  32.990  1.00  0.00     0.029 A 
ATOM     47  C   UNL A   1      40.564  33.465  32.955  1.00  0.00     0.049 A 
ATOM     48  H   UNL A   1      40.681  31.784  31.733  1.00  0.00     0.167 HD
ATOM     49  C   UNL A   1      40.665  28.160  29.253  1.00  0.00     0.037 A 
ATOM     50  C   UNL A   1      41.667  33.467  33.725  1.00  0.00     0.037 A 
ATOM     51  C   UNL A   1      41.910  28.123  29.970  1.00  0.00     0.049 A 
ATOM     52  C   UNL A   1      42.676  32.364  33.560  1.00  0.00     0.074 A 
ATOM     53  C   UNL A   1      42.932  27.196  29.876  1.00  0.00     0.029 A 
ATOM     54  N   UNL A   1      42.305  29.064  30.909  1.00  0.00    -0.354 N 
ATOM     55  N   UNL A   1      42.643  31.329  32.756  1.00  0.00    -0.248 NA
ATOM     56  C   UNL A   1      43.877  32.433  34.403  1.00  0.00     0.031 C 
ATOM     57  C   UNL A   1      43.933  27.559  30.782  1.00  0.00     0.029 A 
ATOM     58  C   UNL A   1      43.551  28.733  31.412  1.00  0.00     0.049 A 
ATOM     59  H   UNL A   1      41.777  29.850  31.179  1.00  0.00     0.167 HD
ATOM     60  C   UNL A   1      43.829  30.640  32.974  1.00  0.00     0.074 A 
ATOM     61  C   UNL A   1      44.565  31.382  33.978  1.00  0.00     0.031 C 
ATOM     62  C   UNL A   1      44.270  29.496  32.399  1.00  0.00     0.037 A 
BRANCH  49  63
ATOM     63  C   UNL A   1      40.345  27.041  28.308  1.00  0.00     0.057 A 
ATOM     64  C   UNL A   1      40.890  26.987  27.018  1.00  0.00     0.134 A 
ATOM     65  C   UNL A   1      39.494  25.999  28.695  1.00  0.00     0.134 A 
ATOM     66  F   UNL A   1      41.698  27.964  26.580  1.00  0.00    -0.206 F 
ATOM     67  C   UNL A   1      40.580  25.950  26.137  1.00  0.00     0.040 A 
ATOM     68  C   UNL A   1      39.198  24.942  27.832  1.00  0.00     0.040 A 
ATOM     69  F   UNL A   1      38.940  25.988  29.916  1.00  0.00    -0.206 F 
ATOM     70  C   UNL A   1      39.736  24.920  26.547  1.00  0.00     0.006 A 
ENDBRANCH  49  63
BRANCH  50  71
ATOM     71  C   UNL A   1      41.898  34.566  34.697  1.00  0.00     0.057 A 
ATOM     72  C   UNL A   1      41.465  34.455  36.022  1.00  0.00     0.134 A 
ATOM     73  C   UNL A   1      42.542  35.752  34.324  1.00  0.00     0.134 A 
ATOM     74  F   UNL A   1      40.827  33.350  36.434  1.00  0.00    -0.206 F 
ATOM     75  C   UNL A   1      41.643  35.493  36.940  1.00  0.00     0.040 A 
ATOM     76  C   UNL A   1      42.747  36.788  35.237  1.00  0.00     0.040 A 
ATOM     77  F   UNL A   1      42.988  35.914  33.070  1.00  0.00    -0.206 F 
ATOM     78  C   UNL A   1      42.291  36.663  36.547  1.00  0.00     0.006 A 
ENDBRANCH  50  71
BRANCH  62  79
ATOM     79  C   UNL A   1      45.622  28.999  32.811  1.00  0.00     0.057 A 
ATOM     80  C   UNL A   1      45.786  28.093  33.866  1.00  0.00     0.134 A 
ATOM     81  C   UNL A   1      46.770  29.396  32.112  1.00  0.00     0.134 A 
ATOM     82  F   UNL A   1      44.726  27.685  34.581  1.00  0.00    -0.206 F 
ATOM     83  C   UNL A   1      47.045  27.613  34.224  1.00  0.00     0.040 A 
ATOM     84  C   UNL A   1      48.032  28.906  32.445  1.00  0.00     0.040 A 
ATOM     85  F   UNL A   1      46.678  30.256  31.086  1.00  0.00    -0.206 F 
ATOM     86  C   UNL A   1      48.173  28.014  33.508  1.00  0.00     0.006 A 
ENDBRANCH  62  79
ENDBRANCH  36  37
ENDBRANCH  28  31
ENDBRANCH  26  27
ENDBRANCH  25  26
ENDBRANCH   1  25
TORSDOF 14
ENDMDL
