MODEL 1
REMARK VINA RESULT:     -11.0      0.000      0.000
REMARK SMILES COC(=O)C[C@H](NC(=O)N[C@H]1CCCC1(C)C)C(=O)NCCCCNC(=O)c1ccc(-c2c3nc(c(-c4c(F)cccc4F)c4ccc([nH]4)c(-c4c(F)cccc4F)c4nc(c(-c5c(F)cccc5F)c5ccc2[nH]5)C=C4)C=C3)cc1
REMARK SMILES IDX 22 1 21 2 20 3 18 4 19 5 6 7 5 8 3 9 4 10 2 11 1 12 7 13
REMARK SMILES IDX 8 14 9 16 10 17 11 19 12 20 15 21 13 22 14 23 16 24 17 25
REMARK SMILES IDX 23 26 24 27 25 28 26 29 27 31 28 32 29 33 81 34 30 35 80 36
REMARK SMILES IDX 31 37 32 38 33 39 74 40 34 41 79 42 73 43 75 44 35 45 78 46
REMARK SMILES IDX 72 47 71 48 36 50 62 51 45 52 61 53 46 54 49 55 60 56 76 57
REMARK SMILES IDX 47 58 48 59 59 61 77 62 50 63 37 64 38 65 43 66 39 67 40 68
REMARK SMILES IDX 42 69 44 70 41 71 63 72 64 73 69 74 65 75 66 76 68 77 70 78
REMARK SMILES IDX 67 79 51 80 52 81 57 82 53 83 54 84 56 85 58 86 55 87
REMARK H PARENT 20 6 7 15 10 18 25 30 75 49 49 60
REMARK Flexibility Score: inf
ROOT
ATOM      1  C   UNL A   1      31.771  30.642  26.047  1.00  0.00     0.023 C 
ENDROOT
BRANCH   1   2
ATOM      2  C   UNL A   1      33.155  30.052  26.255  1.00  0.00     0.116 C 
BRANCH   2   3
ATOM      3  N   UNL A   1      33.647  29.312  25.117  1.00  0.00    -0.354 N 
ATOM      4  C   UNL A   1      33.159  28.160  24.578  1.00  0.00     0.243 C 
ATOM      5  O   UNL A   1      33.382  27.983  23.376  1.00  0.00    -0.273 OA
ATOM      6  H   UNL A   1      34.440  29.690  24.672  1.00  0.00     0.163 HD
BRANCH   4   7
ATOM      7  C   UNL A   1      32.200  27.247  25.367  1.00  0.00     0.184 C 
BRANCH   7   8
ATOM      8  C   UNL A   1      33.107  26.369  26.245  1.00  0.00     0.157 C 
BRANCH   8   9
ATOM      9  C   UNL A   1      32.619  24.953  26.316  1.00  0.00     0.308 C 
ATOM     10  O   UNL A   1      31.694  24.598  27.022  1.00  0.00    -0.252 OA
BRANCH   9  11
ATOM     11  O   UNL A   1      33.342  24.152  25.490  1.00  0.00    -0.469 OA
ATOM     12  C   UNL A   1      34.680  24.599  25.276  1.00  0.00     0.282 C 
ENDBRANCH   9  11
ENDBRANCH   8   9
ENDBRANCH   7   8
BRANCH   7  13
ATOM     13  N   UNL A   1      31.270  26.489  24.518  1.00  0.00    -0.326 N 
ATOM     14  C   UNL A   1      30.295  26.670  23.645  1.00  0.00     0.315 C 
ATOM     15  H   UNL A   1      31.426  25.525  24.640  1.00  0.00     0.166 HD
ATOM     16  O   UNL A   1      29.913  25.619  23.107  1.00  0.00    -0.249 OA
ATOM     17  N   UNL A   1      29.666  27.749  23.218  1.00  0.00    -0.335 N 
ATOM     18  H   UNL A   1      29.192  27.472  22.402  1.00  0.00     0.165 HD
BRANCH  17  19
ATOM     19  C   UNL A   1      29.340  29.187  23.396  1.00  0.00     0.089 C 
ATOM     20  C   UNL A   1      30.315  30.089  22.655  1.00  0.00     0.025 C 
ATOM     21  C   UNL A   1      27.951  29.728  23.013  1.00  0.00    -0.015 C 
ATOM     22  C   UNL A   1      29.644  30.310  21.311  1.00  0.00     0.003 C 
ATOM     23  C   UNL A   1      28.136  30.104  21.539  1.00  0.00     0.008 C 
ATOM     24  C   UNL A   1      26.842  28.732  23.359  1.00  0.00     0.013 C 
ATOM     25  C   UNL A   1      27.587  31.059  23.720  1.00  0.00     0.013 C 
ENDBRANCH  17  19
ENDBRANCH   7  13
ENDBRANCH   4   7
ENDBRANCH   2   3
ENDBRANCH   1   2
BRANCH   1  26
ATOM     26  C   UNL A   1      31.459  31.882  26.877  1.00  0.00     0.023 C 
BRANCH  26  27
ATOM     27  C   UNL A   1      32.663  32.717  27.288  1.00  0.00     0.116 C 
BRANCH  27  28
ATOM     28  N   UNL A   1      32.338  34.101  27.604  1.00  0.00    -0.352 N 
ATOM     29  C   UNL A   1      32.967  34.957  28.472  1.00  0.00     0.251 C 
ATOM     30  H   UNL A   1      31.559  34.473  27.130  1.00  0.00     0.163 HD
ATOM     31  O   UNL A   1      32.542  36.090  28.659  1.00  0.00    -0.269 OA
BRANCH  29  32
ATOM     32  C   UNL A   1      34.134  34.462  29.220  1.00  0.00     0.039 A 
ATOM     33  C   UNL A   1      33.912  33.762  30.407  1.00  0.00     0.014 A 
ATOM     34  C   UNL A   1      35.419  34.600  28.693  1.00  0.00     0.014 A 
ATOM     35  C   UNL A   1      34.982  33.127  31.032  1.00  0.00     0.010 A 
ATOM     36  C   UNL A   1      36.466  33.896  29.271  1.00  0.00     0.010 A 
ATOM     37  C   UNL A   1      36.256  33.152  30.444  1.00  0.00    -0.014 A 
BRANCH  37  38
ATOM     38  C   UNL A   1      37.393  32.407  31.034  1.00  0.00     0.031 A 
ATOM     39  C   UNL A   1      38.015  32.894  32.308  1.00  0.00     0.074 A 
ATOM     40  C   UNL A   1      37.921  31.358  30.373  1.00  0.00     0.049 A 
ATOM     41  N   UNL A   1      39.088  32.466  32.922  1.00  0.00    -0.248 NA
ATOM     42  C   UNL A   1      37.364  34.041  32.962  1.00  0.00     0.031 C 
ATOM     43  C   UNL A   1      37.432  30.824  29.101  1.00  0.00     0.029 A 
ATOM     44  N   UNL A   1      39.002  30.568  30.673  1.00  0.00    -0.354 N 
ATOM     45  C   UNL A   1      39.253  33.306  34.016  1.00  0.00     0.074 A 
ATOM     46  C   UNL A   1      38.204  34.300  33.951  1.00  0.00     0.031 C 
ATOM     47  C   UNL A   1      38.207  29.792  28.731  1.00  0.00     0.029 A 
ATOM     48  C   UNL A   1      39.272  29.620  29.714  1.00  0.00     0.049 A 
ATOM     49  H   UNL A   1      39.534  30.671  31.494  1.00  0.00     0.167 HD
ATOM     50  C   UNL A   1      40.184  33.240  34.996  1.00  0.00     0.037 A 
ATOM     51  C   UNL A   1      40.278  28.730  29.628  1.00  0.00     0.037 A 
ATOM     52  C   UNL A   1      41.210  32.234  35.061  1.00  0.00     0.049 A 
ATOM     53  C   UNL A   1      41.306  28.676  30.723  1.00  0.00     0.074 A 
ATOM     54  C   UNL A   1      42.155  32.031  36.049  1.00  0.00     0.029 A 
ATOM     55  N   UNL A   1      41.430  31.268  34.090  1.00  0.00    -0.354 N 
ATOM     56  N   UNL A   1      41.406  29.423  31.797  1.00  0.00    -0.248 NA
ATOM     57  C   UNL A   1      42.357  27.658  30.602  1.00  0.00     0.031 C 
ATOM     58  C   UNL A   1      42.985  30.981  35.648  1.00  0.00     0.029 A 
ATOM     59  C   UNL A   1      42.518  30.486  34.440  1.00  0.00     0.049 A 
ATOM     60  H   UNL A   1      40.893  31.154  33.273  1.00  0.00     0.167 HD
ATOM     61  C   UNL A   1      42.511  28.948  32.491  1.00  0.00     0.074 A 
ATOM     62  C   UNL A   1      43.044  27.844  31.721  1.00  0.00     0.031 C 
ATOM     63  C   UNL A   1      43.033  29.385  33.664  1.00  0.00     0.037 A 
BRANCH  50  64
ATOM     64  C   UNL A   1      40.139  34.297  36.061  1.00  0.00     0.057 A 
ATOM     65  C   UNL A   1      39.366  34.154  37.221  1.00  0.00     0.134 A 
ATOM     66  C   UNL A   1      40.889  35.473  35.928  1.00  0.00     0.134 A 
ATOM     67  F   UNL A   1      38.614  33.058  37.407  1.00  0.00    -0.206 F 
ATOM     68  C   UNL A   1      39.306  35.159  38.188  1.00  0.00     0.040 A 
ATOM     69  C   UNL A   1      40.864  36.470  36.905  1.00  0.00     0.040 A 
ATOM     70  F   UNL A   1      41.657  35.674  34.847  1.00  0.00    -0.206 F 
ATOM     71  C   UNL A   1      40.062  36.319  38.034  1.00  0.00     0.006 A 
ENDBRANCH  50  64
BRANCH  51  72
ATOM     72  C   UNL A   1      40.354  27.817  28.458  1.00  0.00     0.057 A 
ATOM     73  C   UNL A   1      41.059  28.173  27.303  1.00  0.00     0.134 A 
ATOM     74  C   UNL A   1      39.741  26.558  28.477  1.00  0.00     0.134 A 
ATOM     75  F   UNL A   1      41.653  29.372  27.219  1.00  0.00    -0.206 F 
ATOM     76  C   UNL A   1      41.142  27.317  26.204  1.00  0.00     0.040 A 
ATOM     77  C   UNL A   1      39.838  25.680  27.395  1.00  0.00     0.040 A 
ATOM     78  F   UNL A   1      39.059  26.152  29.558  1.00  0.00    -0.206 F 
ATOM     79  C   UNL A   1      40.536  26.062  26.252  1.00  0.00     0.006 A 
ENDBRANCH  51  72
BRANCH  63  80
ATOM     80  C   UNL A   1      44.220  28.651  34.213  1.00  0.00     0.057 A 
ATOM     81  C   UNL A   1      45.533  29.071  33.965  1.00  0.00     0.134 A 
ATOM     82  C   UNL A   1      44.042  27.555  35.066  1.00  0.00     0.134 A 
ATOM     83  F   UNL A   1      45.772  30.108  33.147  1.00  0.00    -0.206 F 
ATOM     84  C   UNL A   1      46.626  28.422  34.539  1.00  0.00     0.040 A 
ATOM     85  C   UNL A   1      45.126  26.914  35.668  1.00  0.00     0.040 A 
ATOM     86  F   UNL A   1      42.810  27.106  35.352  1.00  0.00    -0.206 F 
ATOM     87  C   UNL A   1      46.423  27.347  35.403  1.00  0.00     0.006 A 
ENDBRANCH  63  80
ENDBRANCH  37  38
ENDBRANCH  29  32
ENDBRANCH  27  28
ENDBRANCH  26  27
ENDBRANCH   1  26
TORSDOF 16
ENDMDL
MODEL 2
REMARK VINA RESULT:     -10.9      1.224      6.950
REMARK SMILES COC(=O)C[C@H](NC(=O)N[C@H]1CCCC1(C)C)C(=O)NCCCCNC(=O)c1ccc(-c2c3nc(c(-c4c(F)cccc4F)c4ccc([nH]4)c(-c4c(F)cccc4F)c4nc(c(-c5c(F)cccc5F)c5ccc2[nH]5)C=C4)C=C3)cc1
REMARK SMILES IDX 22 1 21 2 20 3 18 4 19 5 6 7 5 8 3 9 4 10 2 11 1 12 7 13
REMARK SMILES IDX 8 14 9 16 10 17 11 19 12 20 15 21 13 22 14 23 16 24 17 25
REMARK SMILES IDX 23 26 24 27 25 28 26 29 27 31 28 32 29 33 81 34 30 35 80 36
REMARK SMILES IDX 31 37 32 38 33 39 74 40 34 41 79 42 73 43 75 44 35 45 78 46
REMARK SMILES IDX 72 47 71 48 36 50 62 51 45 52 61 53 46 54 49 55 60 56 76 57
REMARK SMILES IDX 47 58 48 59 59 61 77 62 50 63 37 64 38 65 43 66 39 67 40 68
REMARK SMILES IDX 42 69 44 70 41 71 63 72 64 73 69 74 65 75 66 76 68 77 70 78
REMARK SMILES IDX 67 79 51 80 52 81 57 82 53 83 54 84 56 85 58 86 55 87
REMARK H PARENT 20 6 7 15 10 18 25 30 75 49 49 60
REMARK Flexibility Score: inf
ROOT
ATOM      1  C   UNL A   1      31.831  30.484  26.687  1.00  0.00     0.023 C 
ENDROOT
BRANCH   1   2
ATOM      2  C   UNL A   1      31.536  29.874  25.328  1.00  0.00     0.116 C 
BRANCH   2   3
ATOM      3  N   UNL A   1      32.711  29.685  24.510  1.00  0.00    -0.354 N 
ATOM      4  C   UNL A   1      32.998  28.659  23.662  1.00  0.00     0.243 C 
ATOM      5  O   UNL A   1      33.756  28.923  22.722  1.00  0.00    -0.273 OA
ATOM      6  H   UNL A   1      33.394  30.392  24.572  1.00  0.00     0.163 HD
BRANCH   4   7
ATOM      7  C   UNL A   1      32.248  27.315  23.743  1.00  0.00     0.184 C 
BRANCH   7   8
ATOM      8  C   UNL A   1      31.355  27.273  22.491  1.00  0.00     0.157 C 
BRANCH   8   9
ATOM      9  C   UNL A   1      30.032  27.936  22.724  1.00  0.00     0.308 C 
ATOM     10  O   UNL A   1      29.193  27.505  23.493  1.00  0.00    -0.252 OA
BRANCH   9  11
ATOM     11  O   UNL A   1      29.917  29.062  21.972  1.00  0.00    -0.469 OA
ATOM     12  C   UNL A   1      28.743  29.824  22.248  1.00  0.00     0.282 C 
ENDBRANCH   9  11
ENDBRANCH   8   9
ENDBRANCH   7   8
BRANCH   7  13
ATOM     13  N   UNL A   1      31.521  27.117  25.005  1.00  0.00    -0.326 N 
ATOM     14  C   UNL A   1      31.351  26.222  25.963  1.00  0.00     0.315 C 
ATOM     15  H   UNL A   1      30.981  27.915  25.202  1.00  0.00     0.166 HD
ATOM     16  O   UNL A   1      30.678  26.644  26.916  1.00  0.00    -0.249 OA
ATOM     17  N   UNL A   1      31.774  24.982  26.114  1.00  0.00    -0.335 N 
ATOM     18  H   UNL A   1      31.633  24.769  27.064  1.00  0.00     0.165 HD
BRANCH  17  19
ATOM     19  C   UNL A   1      32.366  23.756  25.518  1.00  0.00     0.089 C 
ATOM     20  C   UNL A   1      31.397  23.055  24.577  1.00  0.00     0.025 C 
ATOM     21  C   UNL A   1      33.684  23.828  24.727  1.00  0.00    -0.015 C 
ATOM     22  C   UNL A   1      31.738  23.638  23.217  1.00  0.00     0.003 C 
ATOM     23  C   UNL A   1      33.200  24.111  23.300  1.00  0.00     0.008 C 
ATOM     24  C   UNL A   1      34.665  24.821  25.354  1.00  0.00     0.013 C 
ATOM     25  C   UNL A   1      34.427  22.470  24.633  1.00  0.00     0.013 C 
ENDBRANCH  17  19
ENDBRANCH   7  13
ENDBRANCH   4   7
ENDBRANCH   2   3
ENDBRANCH   1   2
BRANCH   1  26
ATOM     26  C   UNL A   1      31.415  31.942  26.853  1.00  0.00     0.023 C 
BRANCH  26  27
ATOM     27  C   UNL A   1      32.543  32.960  26.767  1.00  0.00     0.116 C 
BRANCH  27  28
ATOM     28  N   UNL A   1      32.328  34.144  27.589  1.00  0.00    -0.352 N 
ATOM     29  C   UNL A   1      33.079  34.612  28.636  1.00  0.00     0.251 C 
ATOM     30  H   UNL A   1      31.535  34.680  27.361  1.00  0.00     0.163 HD
ATOM     31  O   UNL A   1      32.740  35.611  29.258  1.00  0.00    -0.269 OA
BRANCH  29  32
ATOM     32  C   UNL A   1      34.276  33.853  29.035  1.00  0.00     0.039 A 
ATOM     33  C   UNL A   1      35.530  34.384  28.733  1.00  0.00     0.014 A 
ATOM     34  C   UNL A   1      34.149  32.686  29.791  1.00  0.00     0.014 A 
ATOM     35  C   UNL A   1      36.669  33.781  29.260  1.00  0.00     0.010 A 
ATOM     36  C   UNL A   1      35.278  32.139  30.384  1.00  0.00     0.010 A 
ATOM     37  C   UNL A   1      36.547  32.683  30.126  1.00  0.00    -0.014 A 
BRANCH  37  38
ATOM     38  C   UNL A   1      37.733  32.080  30.778  1.00  0.00     0.031 A 
ATOM     39  C   UNL A   1      38.501  31.004  30.069  1.00  0.00     0.074 A 
ATOM     40  C   UNL A   1      38.054  32.430  32.039  1.00  0.00     0.049 A 
ATOM     41  N   UNL A   1      39.485  30.263  30.508  1.00  0.00    -0.248 NA
ATOM     42  C   UNL A   1      38.082  30.696  28.692  1.00  0.00     0.031 C 
ATOM     43  C   UNL A   1      37.351  33.428  32.847  1.00  0.00     0.029 A 
ATOM     44  N   UNL A   1      39.044  31.967  32.869  1.00  0.00    -0.354 N 
ATOM     45  C   UNL A   1      39.783  29.387  29.472  1.00  0.00     0.074 A 
ATOM     46  C   UNL A   1      38.842  29.651  28.407  1.00  0.00     0.031 C 
ATOM     47  C   UNL A   1      37.933  33.505  34.054  1.00  0.00     0.029 A 
ATOM     48  C   UNL A   1      39.020  32.533  34.121  1.00  0.00     0.049 A 
ATOM     49  H   UNL A   1      39.706  31.293  32.594  1.00  0.00     0.167 HD
ATOM     50  C   UNL A   1      40.767  28.459  29.411  1.00  0.00     0.037 A 
ATOM     51  C   UNL A   1      39.775  32.280  35.207  1.00  0.00     0.037 A 
ATOM     52  C   UNL A   1      41.711  28.220  30.469  1.00  0.00     0.049 A 
ATOM     53  C   UNL A   1      40.858  31.241  35.120  1.00  0.00     0.074 A 
ATOM     54  C   UNL A   1      42.792  27.359  30.481  1.00  0.00     0.029 A 
ATOM     55  N   UNL A   1      41.677  28.838  31.711  1.00  0.00    -0.354 N 
ATOM     56  N   UNL A   1      41.186  30.474  34.108  1.00  0.00    -0.248 NA
ATOM     57  C   UNL A   1      41.681  31.035  36.319  1.00  0.00     0.031 C 
ATOM     58  C   UNL A   1      43.377  27.410  31.748  1.00  0.00     0.029 A 
ATOM     59  C   UNL A   1      42.700  28.352  32.508  1.00  0.00     0.049 A 
ATOM     60  H   UNL A   1      41.024  29.522  31.985  1.00  0.00     0.167 HD
ATOM     61  C   UNL A   1      42.266  29.714  34.538  1.00  0.00     0.074 A 
ATOM     62  C   UNL A   1      42.544  30.120  35.900  1.00  0.00     0.031 C 
ATOM     63  C   UNL A   1      42.968  28.771  33.862  1.00  0.00     0.037 A 
BRANCH  50  64
ATOM     64  C   UNL A   1      40.853  27.628  28.164  1.00  0.00     0.057 A 
ATOM     65  C   UNL A   1      40.190  26.399  28.040  1.00  0.00     0.134 A 
ATOM     66  C   UNL A   1      41.603  28.069  27.066  1.00  0.00     0.134 A 
ATOM     67  F   UNL A   1      39.465  25.911  29.057  1.00  0.00    -0.206 F 
ATOM     68  C   UNL A   1      40.305  25.621  26.887  1.00  0.00     0.040 A 
ATOM     69  C   UNL A   1      41.697  27.315  25.895  1.00  0.00     0.040 A 
ATOM     70  F   UNL A   1      42.257  29.239  27.112  1.00  0.00    -0.206 F 
ATOM     71  C   UNL A   1      41.056  26.081  25.807  1.00  0.00     0.006 A 
ENDBRANCH  50  64
BRANCH  51  72
ATOM     72  C   UNL A   1      39.527  33.029  36.466  1.00  0.00     0.057 A 
ATOM     73  C   UNL A   1      38.621  32.561  37.423  1.00  0.00     0.134 A 
ATOM     74  C   UNL A   1      40.209  34.219  36.750  1.00  0.00     0.134 A 
ATOM     75  F   UNL A   1      37.925  31.437  37.200  1.00  0.00    -0.206 F 
ATOM     76  C   UNL A   1      38.390  33.254  38.612  1.00  0.00     0.040 A 
ATOM     77  C   UNL A   1      40.009  34.909  37.947  1.00  0.00     0.040 A 
ATOM     78  F   UNL A   1      41.100  34.714  35.879  1.00  0.00    -0.206 F 
ATOM     79  C   UNL A   1      39.091  34.429  38.880  1.00  0.00     0.006 A 
ENDBRANCH  51  72
BRANCH  63  80
ATOM     80  C   UNL A   1      44.129  28.132  34.564  1.00  0.00     0.057 A 
ATOM     81  C   UNL A   1      44.002  26.923  35.259  1.00  0.00     0.134 A 
ATOM     82  C   UNL A   1      45.408  28.697  34.475  1.00  0.00     0.134 A 
ATOM     83  F   UNL A   1      42.802  26.336  35.390  1.00  0.00    -0.206 F 
ATOM     84  C   UNL A   1      45.105  26.303  35.847  1.00  0.00     0.040 A 
ATOM     85  C   UNL A   1      46.522  28.072  35.036  1.00  0.00     0.040 A 
ATOM     86  F   UNL A   1      45.600  29.850  33.817  1.00  0.00    -0.206 F 
ATOM     87  C   UNL A   1      46.372  26.872  35.727  1.00  0.00     0.006 A 
ENDBRANCH  63  80
ENDBRANCH  37  38
ENDBRANCH  29  32
ENDBRANCH  27  28
ENDBRANCH  26  27
ENDBRANCH   1  26
TORSDOF 16
ENDMDL
MODEL 3
REMARK VINA RESULT:     -10.9      1.155      3.249
REMARK SMILES COC(=O)C[C@H](NC(=O)N[C@H]1CCCC1(C)C)C(=O)NCCCCNC(=O)c1ccc(-c2c3nc(c(-c4c(F)cccc4F)c4ccc([nH]4)c(-c4c(F)cccc4F)c4nc(c(-c5c(F)cccc5F)c5ccc2[nH]5)C=C4)C=C3)cc1
REMARK SMILES IDX 22 1 21 2 20 3 18 4 19 5 6 7 5 8 3 9 4 10 2 11 1 12 7 13
REMARK SMILES IDX 8 14 9 16 10 17 11 19 12 20 15 21 13 22 14 23 16 24 17 25
REMARK SMILES IDX 23 26 24 27 25 28 26 29 27 31 28 32 29 33 81 34 30 35 80 36
REMARK SMILES IDX 31 37 32 38 33 39 74 40 34 41 79 42 73 43 75 44 35 45 78 46
REMARK SMILES IDX 72 47 71 48 36 50 62 51 45 52 61 53 46 54 49 55 60 56 76 57
REMARK SMILES IDX 47 58 48 59 59 61 77 62 50 63 37 64 38 65 43 66 39 67 40 68
REMARK SMILES IDX 42 69 44 70 41 71 63 72 64 73 69 74 65 75 66 76 68 77 70 78
REMARK SMILES IDX 67 79 51 80 52 81 57 82 53 83 54 84 56 85 58 86 55 87
REMARK H PARENT 20 6 7 15 10 18 25 30 75 49 49 60
REMARK Flexibility Score: inf
ROOT
ATOM      1  C   UNL A   1      31.740  30.546  26.528  1.00  0.00     0.023 C 
ENDROOT
BRANCH   1   2
ATOM      2  C   UNL A   1      33.117  30.105  26.064  1.00  0.00     0.116 C 
BRANCH   2   3
ATOM      3  N   UNL A   1      33.429  28.735  26.394  1.00  0.00    -0.354 N 
ATOM      4  C   UNL A   1      33.282  27.622  25.623  1.00  0.00     0.243 C 
ATOM      5  O   UNL A   1      34.043  26.681  25.872  1.00  0.00    -0.273 OA
ATOM      6  H   UNL A   1      33.797  28.585  27.295  1.00  0.00     0.163 HD
BRANCH   4   7
ATOM      7  C   UNL A   1      32.376  27.622  24.376  1.00  0.00     0.184 C 
BRANCH   7   8
ATOM      8  C   UNL A   1      31.034  27.039  24.850  1.00  0.00     0.157 C 
BRANCH   8   9
ATOM      9  C   UNL A   1      30.029  26.969  23.741  1.00  0.00     0.308 C 
ATOM     10  O   UNL A   1      29.113  26.168  23.716  1.00  0.00    -0.252 OA
BRANCH   9  11
ATOM     11  O   UNL A   1      30.283  27.915  22.799  1.00  0.00    -0.469 OA
ATOM     12  C   UNL A   1      29.311  28.957  22.749  1.00  0.00     0.282 C 
ENDBRANCH   9  11
ENDBRANCH   8   9
ENDBRANCH   7   8
BRANCH   7  13
ATOM     13  N   UNL A   1      32.957  26.924  23.220  1.00  0.00    -0.326 N 
ATOM     14  C   UNL A   1      33.288  25.711  22.813  1.00  0.00     0.315 C 
ATOM     15  H   UNL A   1      33.172  27.577  22.516  1.00  0.00     0.166 HD
ATOM     16  O   UNL A   1      33.653  25.673  21.627  1.00  0.00    -0.249 OA
ATOM     17  N   UNL A   1      33.284  24.535  23.409  1.00  0.00    -0.335 N 
ATOM     18  H   UNL A   1      33.362  23.872  22.687  1.00  0.00     0.165 HD
BRANCH  17  19
ATOM     19  C   UNL A   1      33.215  23.744  24.665  1.00  0.00     0.089 C 
ATOM     20  C   UNL A   1      32.136  22.672  24.606  1.00  0.00     0.025 C 
ATOM     21  C   UNL A   1      34.458  23.008  25.196  1.00  0.00    -0.015 C 
ATOM     22  C   UNL A   1      32.882  21.445  24.112  1.00  0.00     0.003 C 
ATOM     23  C   UNL A   1      34.355  21.644  24.505  1.00  0.00     0.008 C 
ATOM     24  C   UNL A   1      35.734  23.823  24.974  1.00  0.00     0.013 C 
ATOM     25  C   UNL A   1      34.391  22.691  26.712  1.00  0.00     0.013 C 
ENDBRANCH  17  19
ENDBRANCH   7  13
ENDBRANCH   4   7
ENDBRANCH   2   3
ENDBRANCH   1   2
BRANCH   1  26
ATOM     26  C   UNL A   1      31.541  32.055  26.640  1.00  0.00     0.023 C 
BRANCH  26  27
ATOM     27  C   UNL A   1      32.684  32.820  27.291  1.00  0.00     0.116 C 
BRANCH  27  28
ATOM     28  N   UNL A   1      32.348  34.196  27.633  1.00  0.00    -0.352 N 
ATOM     29  C   UNL A   1      32.950  35.029  28.541  1.00  0.00     0.251 C 
ATOM     30  H   UNL A   1      31.583  34.580  27.146  1.00  0.00     0.163 HD
ATOM     31  O   UNL A   1      32.520  36.157  28.745  1.00  0.00    -0.269 OA
BRANCH  29  32
ATOM     32  C   UNL A   1      34.095  34.515  29.310  1.00  0.00     0.039 A 
ATOM     33  C   UNL A   1      33.847  33.904  30.540  1.00  0.00     0.014 A 
ATOM     34  C   UNL A   1      35.380  34.544  28.765  1.00  0.00     0.014 A 
ATOM     35  C   UNL A   1      34.886  33.248  31.196  1.00  0.00     0.010 A 
ATOM     36  C   UNL A   1      36.391  33.818  29.379  1.00  0.00     0.010 A 
ATOM     37  C   UNL A   1      36.153  33.162  30.597  1.00  0.00    -0.014 A 
BRANCH  37  38
ATOM     38  C   UNL A   1      37.251  32.390  31.224  1.00  0.00     0.031 A 
ATOM     39  C   UNL A   1      37.822  32.846  32.534  1.00  0.00     0.074 A 
ATOM     40  C   UNL A   1      37.793  31.345  30.570  1.00  0.00     0.049 A 
ATOM     41  N   UNL A   1      38.860  32.392  33.188  1.00  0.00    -0.248 NA
ATOM     42  C   UNL A   1      37.157  33.991  33.178  1.00  0.00     0.031 C 
ATOM     43  C   UNL A   1      37.355  30.841  29.267  1.00  0.00     0.029 A 
ATOM     44  N   UNL A   1      38.849  30.534  30.903  1.00  0.00    -0.354 N 
ATOM     45  C   UNL A   1      38.987  33.210  34.303  1.00  0.00     0.074 A 
ATOM     46  C   UNL A   1      37.956  34.220  34.209  1.00  0.00     0.031 C 
ATOM     47  C   UNL A   1      38.132  29.804  28.914  1.00  0.00     0.029 A 
ATOM     48  C   UNL A   1      39.148  29.600  29.941  1.00  0.00     0.049 A 
ATOM     49  H   UNL A   1      39.345  30.615  31.749  1.00  0.00     0.167 HD
ATOM     50  C   UNL A   1      39.872  33.114  35.322  1.00  0.00     0.037 A 
ATOM     51  C   UNL A   1      40.145  28.696  29.884  1.00  0.00     0.037 A 
ATOM     52  C   UNL A   1      40.879  32.092  35.415  1.00  0.00     0.049 A 
ATOM     53  C   UNL A   1      41.122  28.609  31.023  1.00  0.00     0.074 A 
ATOM     54  C   UNL A   1      41.776  31.858  36.441  1.00  0.00     0.029 A 
ATOM     55  N   UNL A   1      41.130  31.140  34.438  1.00  0.00    -0.354 N 
ATOM     56  N   UNL A   1      41.184  29.335  32.113  1.00  0.00    -0.248 NA
ATOM     57  C   UNL A   1      42.163  27.577  30.931  1.00  0.00     0.031 C 
ATOM     58  C   UNL A   1      42.609  30.803  36.059  1.00  0.00     0.029 A 
ATOM     59  C   UNL A   1      42.190  30.337  34.822  1.00  0.00     0.049 A 
ATOM     60  H   UNL A   1      40.628  31.048  33.596  1.00  0.00     0.167 HD
ATOM     61  C   UNL A   1      42.250  28.832  32.848  1.00  0.00     0.074 A 
ATOM     62  C   UNL A   1      42.802  27.733  32.082  1.00  0.00     0.031 C 
ATOM     63  C   UNL A   1      42.724  29.242  34.051  1.00  0.00     0.037 A 
BRANCH  50  64
ATOM     64  C   UNL A   1      39.794  34.153  36.402  1.00  0.00     0.057 A 
ATOM     65  C   UNL A   1      39.041  33.960  37.569  1.00  0.00     0.134 A 
ATOM     66  C   UNL A   1      40.489  35.363  36.278  1.00  0.00     0.134 A 
ATOM     67  F   UNL A   1      38.341  32.830  37.748  1.00  0.00    -0.206 F 
ATOM     68  C   UNL A   1      38.950  34.948  38.552  1.00  0.00     0.040 A 
ATOM     69  C   UNL A   1      40.433  36.344  37.269  1.00  0.00     0.040 A 
ATOM     70  F   UNL A   1      41.235  35.612  35.191  1.00  0.00    -0.206 F 
ATOM     71  C   UNL A   1      39.652  36.142  38.406  1.00  0.00     0.006 A 
ENDBRANCH  50  64
BRANCH  51  72
ATOM     72  C   UNL A   1      40.261  27.803  28.702  1.00  0.00     0.057 A 
ATOM     73  C   UNL A   1      41.018  28.170  27.585  1.00  0.00     0.134 A 
ATOM     74  C   UNL A   1      39.635  26.550  28.673  1.00  0.00     0.134 A 
ATOM     75  F   UNL A   1      41.628  29.364  27.547  1.00  0.00    -0.206 F 
ATOM     76  C   UNL A   1      41.139  27.332  26.476  1.00  0.00     0.040 A 
ATOM     77  C   UNL A   1      39.768  25.690  27.582  1.00  0.00     0.040 A 
ATOM     78  F   UNL A   1      38.903  26.134  29.717  1.00  0.00    -0.206 F 
ATOM     79  C   UNL A   1      40.518  26.084  26.475  1.00  0.00     0.006 A 
ENDBRANCH  51  72
BRANCH  63  80
ATOM     80  C   UNL A   1      43.875  28.481  34.639  1.00  0.00     0.057 A 
ATOM     81  C   UNL A   1      45.203  28.883  34.454  1.00  0.00     0.134 A 
ATOM     82  C   UNL A   1      43.643  27.375  35.468  1.00  0.00     0.134 A 
ATOM     83  F   UNL A   1      45.494  29.928  33.662  1.00  0.00    -0.206 F 
ATOM     84  C   UNL A   1      46.261  28.208  35.065  1.00  0.00     0.040 A 
ATOM     85  C   UNL A   1      44.690  26.709  36.106  1.00  0.00     0.040 A 
ATOM     86  F   UNL A   1      42.393  26.942  35.693  1.00  0.00    -0.206 F 
ATOM     87  C   UNL A   1      46.004  27.124  35.904  1.00  0.00     0.006 A 
ENDBRANCH  63  80
ENDBRANCH  37  38
ENDBRANCH  29  32
ENDBRANCH  27  28
ENDBRANCH  26  27
ENDBRANCH   1  26
TORSDOF 16
ENDMDL
