MODEL 1
REMARK VINA RESULT:     -11.5      0.000      0.000
REMARK SMILES CC(C)(C)c1csc(C[C@H](C(=O)NCCCCNC(=O)c2ccc(-c3c4nc(c(-c5c(F)cccc5F)c5ccc([nH]5)c(-c5c(F)cccc5F)c5nc(c(-c6c(F)cccc6F)c6ccc3[nH]6)C=C5)C=C4)cc2)c2ccccc2Cl)n1
REMARK SMILES IDX 15 1 14 2 13 3 11 4 12 5 10 7 9 8 8 9 5 10 6 11 82 12 7 13
REMARK SMILES IDX 2 14 1 15 3 16 4 17 75 18 76 19 80 20 77 21 79 22 81 23
REMARK SMILES IDX 78 24 16 25 17 26 18 27 19 28 20 30 21 31 22 32 74 33 23 34
REMARK SMILES IDX 73 35 24 36 25 37 26 38 67 39 27 40 72 41 66 42 68 43 28 44
REMARK SMILES IDX 71 45 65 46 64 47 29 49 55 50 38 51 54 52 39 53 42 54 53 55
REMARK SMILES IDX 69 56 40 57 41 58 52 60 70 61 43 62 30 63 31 64 36 65 32 66
REMARK SMILES IDX 33 67 35 68 37 69 34 70 56 71 57 72 62 73 58 74 59 75 61 76
REMARK SMILES IDX 63 77 60 78 44 79 45 80 50 81 46 82 47 83 49 84 51 85 48 86
REMARK H PARENT 13 6 18 29 68 48 42 59
REMARK Flexibility Score: inf
ROOT
ATOM      1  C   UNL A   1      38.882  22.531  26.177  1.00  0.00     0.023 C 
ENDROOT
BRANCH   1   2
ATOM      2  C   UNL A   1      37.637  23.313  25.757  1.00  0.00     0.116 C 
BRANCH   2   3
ATOM      3  N   UNL A   1      37.509  23.358  24.313  1.00  0.00    -0.356 N 
ATOM      4  C   UNL A   1      36.467  23.012  23.500  1.00  0.00     0.228 C 
ATOM      5  O   UNL A   1      36.689  22.953  22.290  1.00  0.00    -0.274 OA
ATOM      6  H   UNL A   1      38.304  23.693  23.840  1.00  0.00     0.163 HD
BRANCH   4   7
ATOM      7  C   UNL A   1      35.077  22.800  24.098  1.00  0.00     0.117 C 
BRANCH   7   8
ATOM      8  C   UNL A   1      35.191  21.684  25.190  1.00  0.00     0.086 C 
BRANCH   8   9
ATOM      9  C   UNL A   1      34.329  20.459  25.007  1.00  0.00     0.094 A 
ATOM     10  C   UNL A   1      33.717  18.353  24.624  1.00  0.00     0.057 A 
ATOM     11  C   UNL A   1      32.468  18.942  24.727  1.00  0.00     0.091 A 
ATOM     12  N   UNL A   1      34.779  19.239  24.798  1.00  0.00    -0.246 NA
ATOM     13  S   UNL A   1      32.614  20.581  25.175  1.00  0.00    -0.127 S 
BRANCH  10  14
ATOM     14  C   UNL A   1      33.982  16.871  24.392  1.00  0.00     0.005 C 
ATOM     15  C   UNL A   1      35.254  16.398  25.122  1.00  0.00     0.017 C 
ATOM     16  C   UNL A   1      34.155  16.573  22.890  1.00  0.00     0.017 C 
ATOM     17  C   UNL A   1      32.788  16.053  24.928  1.00  0.00     0.017 C 
ENDBRANCH  10  14
ENDBRANCH   8   9
ENDBRANCH   7   8
BRANCH   7  18
ATOM     18  C   UNL A   1      34.289  24.090  24.404  1.00  0.00    -0.016 A 
ATOM     19  C   UNL A   1      34.232  24.568  25.733  1.00  0.00     0.006 A 
ATOM     20  C   UNL A   1      33.430  24.733  23.479  1.00  0.00     0.045 A 
ATOM     21  C   UNL A   1      33.422  25.649  26.106  1.00  0.00     0.000 A 
ATOM     22  C   UNL A   1      32.638  25.830  23.855  1.00  0.00     0.021 A 
ATOM     23  Cl  UNL A   1      33.156  24.206  21.853  1.00  0.00    -0.084 Cl
ATOM     24  C   UNL A   1      32.633  26.290  25.164  1.00  0.00     0.002 A 
ENDBRANCH   7  18
ENDBRANCH   4   7
ENDBRANCH   2   3
ENDBRANCH   1   2
BRANCH   1  25
ATOM     25  C   UNL A   1      39.036  21.175  25.478  1.00  0.00     0.023 C 
BRANCH  25  26
ATOM     26  C   UNL A   1      39.414  20.026  26.404  1.00  0.00     0.116 C 
BRANCH  26  27
ATOM     27  N   UNL A   1      40.587  19.302  25.938  1.00  0.00    -0.352 N 
ATOM     28  C   UNL A   1      41.884  19.736  25.833  1.00  0.00     0.251 C 
ATOM     29  H   UNL A   1      40.428  18.371  25.658  1.00  0.00     0.163 HD
ATOM     30  O   UNL A   1      42.723  19.050  25.256  1.00  0.00    -0.269 OA
BRANCH  28  31
ATOM     31  C   UNL A   1      42.262  21.048  26.397  1.00  0.00     0.039 A 
ATOM     32  C   UNL A   1      42.627  22.079  25.528  1.00  0.00     0.014 A 
ATOM     33  C   UNL A   1      42.242  21.260  27.778  1.00  0.00     0.014 A 
ATOM     34  C   UNL A   1      42.914  23.345  26.042  1.00  0.00     0.010 A 
ATOM     35  C   UNL A   1      42.453  22.539  28.280  1.00  0.00     0.010 A 
ATOM     36  C   UNL A   1      42.795  23.594  27.419  1.00  0.00    -0.014 A 
BRANCH  36  37
ATOM     37  C   UNL A   1      43.033  24.945  27.986  1.00  0.00     0.031 A 
ATOM     38  C   UNL A   1      44.409  25.331  28.454  1.00  0.00     0.074 A 
ATOM     39  C   UNL A   1      42.000  25.793  28.152  1.00  0.00     0.049 A 
ATOM     40  N   UNL A   1      44.800  26.416  29.072  1.00  0.00    -0.248 NA
ATOM     41  C   UNL A   1      45.483  24.351  28.221  1.00  0.00     0.031 C 
ATOM     42  C   UNL A   1      40.612  25.524  27.771  1.00  0.00     0.029 A 
ATOM     43  N   UNL A   1      41.956  27.052  28.697  1.00  0.00    -0.354 N 
ATOM     44  C   UNL A   1      46.156  26.243  29.316  1.00  0.00     0.074 A 
ATOM     45  C   UNL A   1      46.510  24.927  28.829  1.00  0.00     0.031 C 
ATOM     46  C   UNL A   1      39.857  26.590  28.079  1.00  0.00     0.029 A 
ATOM     47  C   UNL A   1      40.696  27.599  28.719  1.00  0.00     0.049 A 
ATOM     48  H   UNL A   1      42.752  27.518  29.039  1.00  0.00     0.167 HD
ATOM     49  C   UNL A   1      47.033  27.111  29.873  1.00  0.00     0.037 A 
ATOM     50  C   UNL A   1      40.263  28.773  29.215  1.00  0.00     0.037 A 
ATOM     51  C   UNL A   1      46.680  28.426  30.341  1.00  0.00     0.049 A 
ATOM     52  C   UNL A   1      41.251  29.710  29.854  1.00  0.00     0.074 A 
ATOM     53  C   UNL A   1      47.504  29.401  30.875  1.00  0.00     0.029 A 
ATOM     54  N   UNL A   1      45.396  28.949  30.333  1.00  0.00    -0.354 N 
ATOM     55  N   UNL A   1      42.543  29.560  30.024  1.00  0.00    -0.248 NA
ATOM     56  C   UNL A   1      40.723  30.982  30.367  1.00  0.00     0.031 C 
ATOM     57  C   UNL A   1      46.710  30.492  31.240  1.00  0.00     0.029 A 
ATOM     58  C   UNL A   1      45.401  30.223  30.876  1.00  0.00     0.049 A 
ATOM     59  H   UNL A   1      44.598  28.483  29.993  1.00  0.00     0.167 HD
ATOM     60  C   UNL A   1      42.986  30.730  30.629  1.00  0.00     0.074 A 
ATOM     61  C   UNL A   1      41.827  31.583  30.788  1.00  0.00     0.031 C 
ATOM     62  C   UNL A   1      44.241  31.067  31.016  1.00  0.00     0.037 A 
BRANCH  49  63
ATOM     63  C   UNL A   1      48.459  26.661  30.013  1.00  0.00     0.057 A 
ATOM     64  C   UNL A   1      49.429  26.959  29.046  1.00  0.00     0.134 A 
ATOM     65  C   UNL A   1      48.876  25.945  31.142  1.00  0.00     0.134 A 
ATOM     66  F   UNL A   1      49.095  27.631  27.934  1.00  0.00    -0.206 F 
ATOM     67  C   UNL A   1      50.753  26.536  29.182  1.00  0.00     0.040 A 
ATOM     68  C   UNL A   1      50.204  25.544  31.305  1.00  0.00     0.040 A 
ATOM     69  F   UNL A   1      48.004  25.631  32.111  1.00  0.00    -0.206 F 
ATOM     70  C   UNL A   1      51.144  25.832  30.318  1.00  0.00     0.006 A 
ENDBRANCH  49  63
BRANCH  50  71
ATOM     71  C   UNL A   1      38.827  29.141  29.114  1.00  0.00     0.057 A 
ATOM     72  C   UNL A   1      37.979  29.052  30.224  1.00  0.00     0.134 A 
ATOM     73  C   UNL A   1      38.265  29.577  27.908  1.00  0.00     0.134 A 
ATOM     74  F   UNL A   1      38.453  28.623  31.403  1.00  0.00    -0.206 F 
ATOM     75  C   UNL A   1      36.620  29.361  30.135  1.00  0.00     0.040 A 
ATOM     76  C   UNL A   1      36.914  29.916  27.811  1.00  0.00     0.040 A 
ATOM     77  F   UNL A   1      39.025  29.692  26.808  1.00  0.00    -0.206 F 
ATOM     78  C   UNL A   1      36.086  29.799  28.925  1.00  0.00     0.006 A 
ENDBRANCH  50  71
BRANCH  62  79
ATOM     79  C   UNL A   1      44.438  32.436  31.601  1.00  0.00     0.057 A 
ATOM     80  C   UNL A   1      44.363  32.676  32.978  1.00  0.00     0.134 A 
ATOM     81  C   UNL A   1      44.753  33.522  30.772  1.00  0.00     0.134 A 
ATOM     82  F   UNL A   1      44.053  31.683  33.826  1.00  0.00    -0.206 F 
ATOM     83  C   UNL A   1      44.571  33.951  33.509  1.00  0.00     0.040 A 
ATOM     84  C   UNL A   1      44.993  34.793  31.294  1.00  0.00     0.040 A 
ATOM     85  F   UNL A   1      44.852  33.360  29.444  1.00  0.00    -0.206 F 
ATOM     86  C   UNL A   1      44.895  35.012  32.666  1.00  0.00     0.006 A 
ENDBRANCH  62  79
ENDBRANCH  36  37
ENDBRANCH  28  31
ENDBRANCH  26  27
ENDBRANCH  25  26
ENDBRANCH   1  25
TORSDOF 15
ENDMDL
MODEL 2
REMARK VINA RESULT:     -11.4      4.652      8.792
REMARK SMILES CC(C)(C)c1csc(C[C@H](C(=O)NCCCCNC(=O)c2ccc(-c3c4nc(c(-c5c(F)cccc5F)c5ccc([nH]5)c(-c5c(F)cccc5F)c5nc(c(-c6c(F)cccc6F)c6ccc3[nH]6)C=C5)C=C4)cc2)c2ccccc2Cl)n1
REMARK SMILES IDX 15 1 14 2 13 3 11 4 12 5 10 7 9 8 8 9 5 10 6 11 82 12 7 13
REMARK SMILES IDX 2 14 1 15 3 16 4 17 75 18 76 19 80 20 77 21 79 22 81 23
REMARK SMILES IDX 78 24 16 25 17 26 18 27 19 28 20 30 21 31 22 32 74 33 23 34
REMARK SMILES IDX 73 35 24 36 25 37 26 38 67 39 27 40 72 41 66 42 68 43 28 44
REMARK SMILES IDX 71 45 65 46 64 47 29 49 55 50 38 51 54 52 39 53 42 54 53 55
REMARK SMILES IDX 69 56 40 57 41 58 52 60 70 61 43 62 30 63 31 64 36 65 32 66
REMARK SMILES IDX 33 67 35 68 37 69 34 70 56 71 57 72 62 73 58 74 59 75 61 76
REMARK SMILES IDX 63 77 60 78 44 79 45 80 50 81 46 82 47 83 49 84 51 85 48 86
REMARK H PARENT 13 6 18 29 68 48 42 59
REMARK Flexibility Score: inf
ROOT
ATOM      1  C   UNL A   1      31.084  30.683  25.385  1.00  0.00     0.023 C 
ENDROOT
BRANCH   1   2
ATOM      2  C   UNL A   1      32.264  29.721  25.536  1.00  0.00     0.116 C 
BRANCH   2   3
ATOM      3  N   UNL A   1      33.083  29.704  24.339  1.00  0.00    -0.356 N 
ATOM      4  C   UNL A   1      33.165  28.788  23.329  1.00  0.00     0.228 C 
ATOM      5  O   UNL A   1      34.093  28.911  22.528  1.00  0.00    -0.274 OA
ATOM      6  H   UNL A   1      33.678  30.482  24.237  1.00  0.00     0.163 HD
BRANCH   4   7
ATOM      7  C   UNL A   1      32.082  27.721  23.182  1.00  0.00     0.117 C 
BRANCH   7   8
ATOM      8  C   UNL A   1      32.259  26.696  24.352  1.00  0.00     0.086 C 
BRANCH   8   9
ATOM      9  C   UNL A   1      32.898  25.373  24.009  1.00  0.00     0.094 A 
ATOM     10  C   UNL A   1      34.377  23.711  23.912  1.00  0.00     0.057 A 
ATOM     11  C   UNL A   1      33.415  23.216  23.048  1.00  0.00     0.091 A 
ATOM     12  N   UNL A   1      34.060  24.951  24.464  1.00  0.00    -0.246 NA
ATOM     13  S   UNL A   1      32.047  24.234  23.027  1.00  0.00    -0.127 S 
BRANCH  10  14
ATOM     14  C   UNL A   1      35.666  23.001  24.306  1.00  0.00     0.005 C 
ATOM     15  C   UNL A   1      36.368  23.704  25.483  1.00  0.00     0.017 C 
ATOM     16  C   UNL A   1      36.651  22.955  23.121  1.00  0.00     0.017 C 
ATOM     17  C   UNL A   1      35.336  21.556  24.736  1.00  0.00     0.017 C 
ENDBRANCH  10  14
ENDBRANCH   8   9
ENDBRANCH   7   8
BRANCH   7  18
ATOM     18  C   UNL A   1      30.675  28.255  22.842  1.00  0.00    -0.016 A 
ATOM     19  C   UNL A   1      30.547  29.474  22.138  1.00  0.00     0.006 A 
ATOM     20  C   UNL A   1      29.474  27.716  23.366  1.00  0.00     0.045 A 
ATOM     21  C   UNL A   1      29.307  30.086  21.920  1.00  0.00     0.000 A 
ATOM     22  C   UNL A   1      28.232  28.324  23.124  1.00  0.00     0.021 A 
ATOM     23  Cl  UNL A   1      29.384  26.358  24.436  1.00  0.00    -0.084 Cl
ATOM     24  C   UNL A   1      28.145  29.505  22.402  1.00  0.00     0.002 A 
ENDBRANCH   7  18
ENDBRANCH   4   7
ENDBRANCH   2   3
ENDBRANCH   1   2
BRANCH   1  25
ATOM     25  C   UNL A   1      31.037  31.788  26.447  1.00  0.00     0.023 C 
BRANCH  25  26
ATOM     26  C   UNL A   1      32.389  32.409  26.774  1.00  0.00     0.116 C 
BRANCH  26  27
ATOM     27  N   UNL A   1      32.265  33.758  27.306  1.00  0.00    -0.352 N 
ATOM     28  C   UNL A   1      32.988  34.362  28.303  1.00  0.00     0.251 C 
ATOM     29  H   UNL A   1      31.565  34.314  26.894  1.00  0.00     0.163 HD
ATOM     30  O   UNL A   1      32.640  35.451  28.749  1.00  0.00    -0.269 OA
BRANCH  28  31
ATOM     31  C   UNL A   1      34.178  33.682  28.856  1.00  0.00     0.039 A 
ATOM     32  C   UNL A   1      35.443  34.218  28.602  1.00  0.00     0.014 A 
ATOM     33  C   UNL A   1      34.041  32.528  29.631  1.00  0.00     0.014 A 
ATOM     34  C   UNL A   1      36.569  33.629  29.180  1.00  0.00     0.010 A 
ATOM     35  C   UNL A   1      35.153  31.990  30.268  1.00  0.00     0.010 A 
ATOM     36  C   UNL A   1      36.430  32.532  30.045  1.00  0.00    -0.014 A 
BRANCH  36  37
ATOM     37  C   UNL A   1      37.602  31.924  30.723  1.00  0.00     0.031 A 
ATOM     38  C   UNL A   1      38.401  30.856  30.028  1.00  0.00     0.074 A 
ATOM     39  C   UNL A   1      37.901  32.276  31.988  1.00  0.00     0.049 A 
ATOM     40  N   UNL A   1      39.389  30.131  30.486  1.00  0.00    -0.248 NA
ATOM     41  C   UNL A   1      38.018  30.544  28.641  1.00  0.00     0.031 C 
ATOM     42  C   UNL A   1      37.182  33.273  32.783  1.00  0.00     0.029 A 
ATOM     43  N   UNL A   1      38.883  31.823  32.833  1.00  0.00    -0.354 N 
ATOM     44  C   UNL A   1      39.733  29.267  29.453  1.00  0.00     0.074 A 
ATOM     45  C   UNL A   1      38.813  29.521  28.365  1.00  0.00     0.031 C 
ATOM     46  C   UNL A   1      37.756  33.367  33.993  1.00  0.00     0.029 A 
ATOM     47  C   UNL A   1      38.853  32.408  34.076  1.00  0.00     0.049 A 
ATOM     48  H   UNL A   1      39.545  31.143  32.574  1.00  0.00     0.167 HD
ATOM     49  C   UNL A   1      40.737  28.361  29.407  1.00  0.00     0.037 A 
ATOM     50  C   UNL A   1      39.613  32.184  35.165  1.00  0.00     0.037 A 
ATOM     51  C   UNL A   1      41.660  28.124  30.485  1.00  0.00     0.049 A 
ATOM     52  C   UNL A   1      40.706  31.153  35.098  1.00  0.00     0.074 A 
ATOM     53  C   UNL A   1      42.744  27.263  30.520  1.00  0.00     0.029 A 
ATOM     54  N   UNL A   1      41.605  28.747  31.724  1.00  0.00    -0.354 N 
ATOM     55  N   UNL A   1      41.060  30.385  34.095  1.00  0.00    -0.248 NA
ATOM     56  C   UNL A   1      41.510  30.960  36.313  1.00  0.00     0.031 C 
ATOM     57  C   UNL A   1      43.312  27.326  31.796  1.00  0.00     0.029 A 
ATOM     58  C   UNL A   1      42.622  28.271  32.537  1.00  0.00     0.049 A 
ATOM     59  H   UNL A   1      40.943  29.426  31.986  1.00  0.00     0.167 HD
ATOM     60  C   UNL A   1      42.147  29.646  34.545  1.00  0.00     0.074 A 
ATOM     61  C   UNL A   1      42.400  30.064  35.908  1.00  0.00     0.031 C 
ATOM     62  C   UNL A   1      42.870  28.707  33.888  1.00  0.00     0.037 A 
BRANCH  49  63
ATOM     63  C   UNL A   1      40.886  27.554  28.148  1.00  0.00     0.057 A 
ATOM     64  C   UNL A   1      40.243  26.321  27.978  1.00  0.00     0.134 A 
ATOM     65  C   UNL A   1      41.658  28.031  27.081  1.00  0.00     0.134 A 
ATOM     66  F   UNL A   1      39.497  25.801  28.964  1.00  0.00    -0.206 F 
ATOM     67  C   UNL A   1      40.387  25.577  26.805  1.00  0.00     0.040 A 
ATOM     68  C   UNL A   1      41.784  27.310  25.892  1.00  0.00     0.040 A 
ATOM     69  F   UNL A   1      42.296  29.207  27.172  1.00  0.00    -0.206 F 
ATOM     70  C   UNL A   1      41.155  26.076  25.755  1.00  0.00     0.006 A 
ENDBRANCH  49  63
BRANCH  50  71
ATOM     71  C   UNL A   1      39.380  32.960  36.409  1.00  0.00     0.057 A 
ATOM     72  C   UNL A   1      38.468  32.519  37.376  1.00  0.00     0.134 A 
ATOM     73  C   UNL A   1      40.050  34.164  36.658  1.00  0.00     0.134 A 
ATOM     74  F   UNL A   1      37.780  31.383  37.187  1.00  0.00    -0.206 F 
ATOM     75  C   UNL A   1      38.213  33.257  38.533  1.00  0.00     0.040 A 
ATOM     76  C   UNL A   1      39.825  34.898  37.825  1.00  0.00     0.040 A 
ATOM     77  F   UNL A   1      40.942  34.638  35.777  1.00  0.00    -0.206 F 
ATOM     78  C   UNL A   1      38.897  34.450  38.762  1.00  0.00     0.006 A 
ENDBRANCH  50  71
BRANCH  62  79
ATOM     79  C   UNL A   1      44.039  28.104  34.613  1.00  0.00     0.057 A 
ATOM     80  C   UNL A   1      43.928  26.915  35.346  1.00  0.00     0.134 A 
ATOM     81  C   UNL A   1      45.305  28.701  34.537  1.00  0.00     0.134 A 
ATOM     82  F   UNL A   1      42.743  26.300  35.470  1.00  0.00    -0.206 F 
ATOM     83  C   UNL A   1      45.030  26.356  35.997  1.00  0.00     0.040 A 
ATOM     84  C   UNL A   1      46.418  28.133  35.157  1.00  0.00     0.040 A 
ATOM     85  F   UNL A   1      45.483  29.834  33.842  1.00  0.00    -0.206 F 
ATOM     86  C   UNL A   1      46.281  26.960  35.896  1.00  0.00     0.006 A 
ENDBRANCH  62  79
ENDBRANCH  36  37
ENDBRANCH  28  31
ENDBRANCH  26  27
ENDBRANCH  25  26
ENDBRANCH   1  25
TORSDOF 15
ENDMDL
MODEL 3
REMARK VINA RESULT:     -11.3      1.905      7.293
REMARK SMILES CC(C)(C)c1csc(C[C@H](C(=O)NCCCCNC(=O)c2ccc(-c3c4nc(c(-c5c(F)cccc5F)c5ccc([nH]5)c(-c5c(F)cccc5F)c5nc(c(-c6c(F)cccc6F)c6ccc3[nH]6)C=C5)C=C4)cc2)c2ccccc2Cl)n1
REMARK SMILES IDX 15 1 14 2 13 3 11 4 12 5 10 7 9 8 8 9 5 10 6 11 82 12 7 13
REMARK SMILES IDX 2 14 1 15 3 16 4 17 75 18 76 19 80 20 77 21 79 22 81 23
REMARK SMILES IDX 78 24 16 25 17 26 18 27 19 28 20 30 21 31 22 32 74 33 23 34
REMARK SMILES IDX 73 35 24 36 25 37 26 38 67 39 27 40 72 41 66 42 68 43 28 44
REMARK SMILES IDX 71 45 65 46 64 47 29 49 55 50 38 51 54 52 39 53 42 54 53 55
REMARK SMILES IDX 69 56 40 57 41 58 52 60 70 61 43 62 30 63 31 64 36 65 32 66
REMARK SMILES IDX 33 67 35 68 37 69 34 70 56 71 57 72 62 73 58 74 59 75 61 76
REMARK SMILES IDX 63 77 60 78 44 79 45 80 50 81 46 82 47 83 49 84 51 85 48 86
REMARK H PARENT 13 6 18 29 68 48 42 59
REMARK Flexibility Score: inf
ROOT
ATOM      1  C   UNL A   1      36.346  20.371  25.004  1.00  0.00     0.023 C 
ENDROOT
BRANCH   1   2
ATOM      2  C   UNL A   1      35.990  21.825  25.320  1.00  0.00     0.116 C 
BRANCH   2   3
ATOM      3  N   UNL A   1      35.618  22.546  24.118  1.00  0.00    -0.356 N 
ATOM      4  C   UNL A   1      34.406  22.692  23.507  1.00  0.00     0.228 C 
ATOM      5  O   UNL A   1      34.396  23.189  22.379  1.00  0.00    -0.274 OA
ATOM      6  H   UNL A   1      36.363  23.007  23.667  1.00  0.00     0.163 HD
BRANCH   4   7
ATOM      7  C   UNL A   1      33.127  22.325  24.258  1.00  0.00     0.117 C 
BRANCH   7   8
ATOM      8  C   UNL A   1      32.035  23.384  23.890  1.00  0.00     0.086 C 
BRANCH   8   9
ATOM      9  C   UNL A   1      32.010  24.651  24.708  1.00  0.00     0.094 A 
ATOM     10  C   UNL A   1      32.443  26.726  25.392  1.00  0.00     0.057 A 
ATOM     11  C   UNL A   1      31.645  26.298  26.440  1.00  0.00     0.091 A 
ATOM     12  N   UNL A   1      32.636  25.767  24.398  1.00  0.00    -0.246 NA
ATOM     13  S   UNL A   1      31.021  24.743  26.122  1.00  0.00    -0.127 S 
BRANCH  10  14
ATOM     14  C   UNL A   1      33.050  28.116  25.248  1.00  0.00     0.005 C 
ATOM     15  C   UNL A   1      33.818  28.269  23.921  1.00  0.00     0.017 C 
ATOM     16  C   UNL A   1      34.028  28.410  26.403  1.00  0.00     0.017 C 
ATOM     17  C   UNL A   1      31.919  29.166  25.274  1.00  0.00     0.017 C 
ENDBRANCH  10  14
ENDBRANCH   8   9
ENDBRANCH   7   8
BRANCH   7  18
ATOM     18  C   UNL A   1      32.769  20.824  24.251  1.00  0.00    -0.016 A 
ATOM     19  C   UNL A   1      33.069  20.034  25.384  1.00  0.00     0.006 A 
ATOM     20  C   UNL A   1      32.341  20.116  23.100  1.00  0.00     0.045 A 
ATOM     21  C   UNL A   1      32.901  18.643  25.393  1.00  0.00     0.000 A 
ATOM     22  C   UNL A   1      32.154  18.725  23.124  1.00  0.00     0.021 A 
ATOM     23  Cl  UNL A   1      32.115  20.820  21.535  1.00  0.00    -0.084 Cl
ATOM     24  C   UNL A   1      32.431  17.988  24.266  1.00  0.00     0.002 A 
ENDBRANCH   7  18
ENDBRANCH   4   7
ENDBRANCH   2   3
ENDBRANCH   1   2
BRANCH   1  25
ATOM     25  C   UNL A   1      37.811  20.156  24.607  1.00  0.00     0.023 C 
BRANCH  25  26
ATOM     26  C   UNL A   1      38.805  20.309  25.751  1.00  0.00     0.116 C 
BRANCH  26  27
ATOM     27  N   UNL A   1      39.785  19.233  25.780  1.00  0.00    -0.352 N 
ATOM     28  C   UNL A   1      41.141  19.306  25.972  1.00  0.00     0.251 C 
ATOM     29  H   UNL A   1      39.425  18.327  25.642  1.00  0.00     0.163 HD
ATOM     30  O   UNL A   1      41.847  18.317  25.795  1.00  0.00    -0.269 OA
BRANCH  28  31
ATOM     31  C   UNL A   1      41.753  20.590  26.370  1.00  0.00     0.039 A 
ATOM     32  C   UNL A   1      42.162  21.482  25.377  1.00  0.00     0.014 A 
ATOM     33  C   UNL A   1      41.910  20.914  27.721  1.00  0.00     0.014 A 
ATOM     34  C   UNL A   1      42.673  22.730  25.739  1.00  0.00     0.010 A 
ATOM     35  C   UNL A   1      42.347  22.185  28.077  1.00  0.00     0.010 A 
ATOM     36  C   UNL A   1      42.737  23.104  27.090  1.00  0.00    -0.014 A 
BRANCH  36  37
ATOM     37  C   UNL A   1      43.217  24.448  27.501  1.00  0.00     0.031 A 
ATOM     38  C   UNL A   1      42.229  25.502  27.919  1.00  0.00     0.074 A 
ATOM     39  C   UNL A   1      44.529  24.743  27.426  1.00  0.00     0.049 A 
ATOM     40  N   UNL A   1      42.435  26.761  28.210  1.00  0.00    -0.248 NA
ATOM     41  C   UNL A   1      40.817  25.091  27.990  1.00  0.00     0.031 C 
ATOM     42  C   UNL A   1      45.583  23.819  27.003  1.00  0.00     0.029 A 
ATOM     43  N   UNL A   1      45.199  25.911  27.691  1.00  0.00    -0.354 N 
ATOM     44  C   UNL A   1      41.181  27.295  28.481  1.00  0.00     0.074 A 
ATOM     45  C   UNL A   1      40.216  26.238  28.267  1.00  0.00     0.031 C 
ATOM     46  C   UNL A   1      46.767  24.450  27.052  1.00  0.00     0.029 A 
ATOM     47  C   UNL A   1      46.552  25.834  27.466  1.00  0.00     0.049 A 
ATOM     48  H   UNL A   1      44.752  26.727  28.012  1.00  0.00     0.167 HD
ATOM     49  C   UNL A   1      40.865  28.545  28.894  1.00  0.00     0.037 A 
ATOM     50  C   UNL A   1      47.509  26.776  27.566  1.00  0.00     0.037 A 
ATOM     51  C   UNL A   1      41.831  29.587  29.123  1.00  0.00     0.049 A 
ATOM     52  C   UNL A   1      47.129  28.165  28.000  1.00  0.00     0.074 A 
ATOM     53  C   UNL A   1      41.618  30.873  29.590  1.00  0.00     0.029 A 
ATOM     54  N   UNL A   1      43.194  29.465  28.897  1.00  0.00    -0.354 N 
ATOM     55  N   UNL A   1      45.948  28.641  28.312  1.00  0.00    -0.248 NA
ATOM     56  C   UNL A   1      48.217  29.148  28.102  1.00  0.00     0.031 C 
ATOM     57  C   UNL A   1      42.843  31.545  29.595  1.00  0.00     0.029 A 
ATOM     58  C   UNL A   1      43.830  30.660  29.192  1.00  0.00     0.049 A 
ATOM     59  H   UNL A   1      43.643  28.651  28.574  1.00  0.00     0.167 HD
ATOM     60  C   UNL A   1      46.155  29.964  28.680  1.00  0.00     0.074 A 
ATOM     61  C   UNL A   1      47.576  30.213  28.561  1.00  0.00     0.031 C 
ATOM     62  C   UNL A   1      45.249  30.889  29.082  1.00  0.00     0.037 A 
BRANCH  49  63
ATOM     63  C   UNL A   1      39.413  28.853  29.119  1.00  0.00     0.057 A 
ATOM     64  C   UNL A   1      38.799  28.664  30.365  1.00  0.00     0.134 A 
ATOM     65  C   UNL A   1      38.623  29.374  28.085  1.00  0.00     0.134 A 
ATOM     66  F   UNL A   1      39.493  28.158  31.395  1.00  0.00    -0.206 F 
ATOM     67  C   UNL A   1      37.447  28.952  30.566  1.00  0.00     0.040 A 
ATOM     68  C   UNL A   1      37.279  29.695  28.283  1.00  0.00     0.040 A 
ATOM     69  F   UNL A   1      39.147  29.587  26.869  1.00  0.00    -0.206 F 
ATOM     70  C   UNL A   1      36.685  29.476  29.524  1.00  0.00     0.006 A 
ENDBRANCH  49  63
BRANCH  50  71
ATOM     71  C   UNL A   1      48.923  26.437  27.264  1.00  0.00     0.057 A 
ATOM     72  C   UNL A   1      49.799  26.025  28.275  1.00  0.00     0.134 A 
ATOM     73  C   UNL A   1      49.437  26.526  25.964  1.00  0.00     0.134 A 
ATOM     74  F   UNL A   1      49.372  25.937  29.544  1.00  0.00    -0.206 F 
ATOM     75  C   UNL A   1      51.140  25.737  28.011  1.00  0.00     0.040 A 
ATOM     76  C   UNL A   1      50.768  26.215  25.681  1.00  0.00     0.040 A 
ATOM     77  F   UNL A   1      48.649  26.907  24.948  1.00  0.00    -0.206 F 
ATOM     78  C   UNL A   1      51.626  25.827  26.709  1.00  0.00     0.006 A 
ENDBRANCH  50  71
BRANCH  62  79
ATOM     79  C   UNL A   1      45.771  32.242  29.475  1.00  0.00     0.057 A 
ATOM     80  C   UNL A   1      45.854  33.302  28.563  1.00  0.00     0.134 A 
ATOM     81  C   UNL A   1      46.154  32.496  30.798  1.00  0.00     0.134 A 
ATOM     82  F   UNL A   1      45.516  33.121  27.277  1.00  0.00    -0.206 F 
ATOM     83  C   UNL A   1      46.322  34.560  28.948  1.00  0.00     0.040 A 
ATOM     84  C   UNL A   1      46.592  33.758  31.202  1.00  0.00     0.040 A 
ATOM     85  F   UNL A   1      46.089  31.529  31.725  1.00  0.00    -0.206 F 
ATOM     86  C   UNL A   1      46.684  34.792  30.274  1.00  0.00     0.006 A 
ENDBRANCH  62  79
ENDBRANCH  36  37
ENDBRANCH  28  31
ENDBRANCH  26  27
ENDBRANCH  25  26
ENDBRANCH   1  25
TORSDOF 15
ENDMDL
