MODEL 1
REMARK VINA RESULT:     -11.4      0.000      0.000
REMARK SMILES O=C(NCCCCNC(=O)C1(O)CCC(F)(F)CC1)c1ccc(-c2c3nc(c(-c4c(F)cccc4F)c4ccc([nH]4)c(-c4c(F)cccc4F)c4nc(c(-c5c(F)cccc5F)c5ccc2[nH]5)C=C4)C=C3)cc1
REMARK SMILES IDX 5 1 4 2 3 3 1 4 2 5 20 7 21 8 73 9 22 10 72 11 23 12 24 13
REMARK SMILES IDX 25 14 66 15 26 16 71 17 65 18 67 19 27 20 70 21 64 22 63 23
REMARK SMILES IDX 28 25 54 26 37 27 53 28 38 29 41 30 52 31 68 32 39 33 40 34
REMARK SMILES IDX 51 36 69 37 42 38 29 39 30 40 35 41 31 42 32 43 34 44 36 45
REMARK SMILES IDX 33 46 55 47 56 48 61 49 57 50 58 51 60 52 62 53 59 54 43 55
REMARK SMILES IDX 44 56 49 57 45 58 46 59 48 60 50 61 47 62 6 63 7 64 8 65
REMARK SMILES IDX 9 66 10 68 11 69 13 70 19 71 14 72 18 73 15 74 16 75 17 76
REMARK SMILES IDX 12 77
REMARK H PARENT 3 6 67 24 41 35 8 67 12 78
REMARK Flexibility Score: inf
ROOT
ATOM      1  C   UNL A   1      37.930  19.856  25.003  1.00  0.00     0.023 C 
ENDROOT
BRANCH   1   2
ATOM      2  C   UNL A   1      39.140  20.203  25.846  1.00  0.00     0.116 C 
BRANCH   2   3
ATOM      3  N   UNL A   1      40.146  19.151  25.875  1.00  0.00    -0.352 N 
ATOM      4  O   UNL A   1      42.256  18.330  26.010  1.00  0.00    -0.269 OA
ATOM      5  C   UNL A   1      41.495  19.286  26.108  1.00  0.00     0.251 C 
ATOM      6  H   UNL A   1      39.823  18.237  25.709  1.00  0.00     0.163 HD
BRANCH   5   7
ATOM      7  C   UNL A   1      42.006  20.625  26.448  1.00  0.00     0.039 A 
ATOM      8  C   UNL A   1      42.121  20.992  27.792  1.00  0.00     0.014 A 
ATOM      9  C   UNL A   1      42.279  21.537  25.429  1.00  0.00     0.014 A 
ATOM     10  C   UNL A   1      42.361  22.316  28.115  1.00  0.00     0.010 A 
ATOM     11  C   UNL A   1      42.630  22.847  25.761  1.00  0.00     0.010 A 
ATOM     12  C   UNL A   1      42.653  23.247  27.105  1.00  0.00    -0.014 A 
BRANCH  12  13
ATOM     13  C   UNL A   1      43.105  24.599  27.505  1.00  0.00     0.031 A 
ATOM     14  C   UNL A   1      44.545  25.006  27.428  1.00  0.00     0.074 A 
ATOM     15  C   UNL A   1      42.159  25.466  27.920  1.00  0.00     0.049 A 
ATOM     16  N   UNL A   1      45.086  26.153  27.753  1.00  0.00    -0.248 NA
ATOM     17  C   UNL A   1      45.505  24.008  26.934  1.00  0.00     0.031 C 
ATOM     18  C   UNL A   1      40.731  25.154  28.044  1.00  0.00     0.029 A 
ATOM     19  N   UNL A   1      42.244  26.781  28.288  1.00  0.00    -0.354 N 
ATOM     20  C   UNL A   1      46.449  26.007  27.535  1.00  0.00     0.074 A 
ATOM     21  C   UNL A   1      46.657  24.659  27.050  1.00  0.00     0.031 C 
ATOM     22  C   UNL A   1      40.068  26.260  28.404  1.00  0.00     0.029 A 
ATOM     23  C   UNL A   1      41.029  27.332  28.615  1.00  0.00     0.049 A 
ATOM     24  H   UNL A   1      43.090  27.282  28.314  1.00  0.00     0.167 HD
ATOM     25  C   UNL A   1      47.430  26.921  27.728  1.00  0.00     0.037 A 
ATOM     26  C   UNL A   1      40.723  28.558  29.071  1.00  0.00     0.037 A 
ATOM     27  C   UNL A   1      47.198  28.268  28.183  1.00  0.00     0.049 A 
ATOM     28  C   UNL A   1      41.833  29.541  29.276  1.00  0.00     0.074 A 
ATOM     29  C   UNL A   1      48.117  29.289  28.357  1.00  0.00     0.029 A 
ATOM     30  N   UNL A   1      45.959  28.782  28.538  1.00  0.00    -0.354 N 
ATOM     31  N   UNL A   1      43.114  29.396  29.041  1.00  0.00    -0.248 NA
ATOM     32  C   UNL A   1      41.461  30.850  29.825  1.00  0.00     0.031 C 
ATOM     33  C   UNL A   1      47.440  30.407  28.856  1.00  0.00     0.029 A 
ATOM     34  C   UNL A   1      46.094  30.096  28.957  1.00  0.00     0.049 A 
ATOM     35  H   UNL A   1      45.110  28.286  28.499  1.00  0.00     0.167 HD
ATOM     36  C   UNL A   1      43.705  30.591  29.419  1.00  0.00     0.074 A 
ATOM     37  C   UNL A   1      42.635  31.463  29.865  1.00  0.00     0.031 C 
ATOM     38  C   UNL A   1      45.015  30.935  29.409  1.00  0.00     0.037 A 
BRANCH  25  39
ATOM     39  C   UNL A   1      48.847  26.504  27.473  1.00  0.00     0.057 A 
ATOM     40  C   UNL A   1      49.640  25.925  28.472  1.00  0.00     0.134 A 
ATOM     41  C   UNL A   1      49.394  26.601  26.188  1.00  0.00     0.134 A 
ATOM     42  F   UNL A   1      49.179  25.810  29.725  1.00  0.00    -0.206 F 
ATOM     43  C   UNL A   1      50.928  25.459  28.199  1.00  0.00     0.040 A 
ATOM     44  C   UNL A   1      50.674  26.124  25.898  1.00  0.00     0.040 A 
ATOM     45  F   UNL A   1      48.684  27.141  25.185  1.00  0.00    -0.206 F 
ATOM     46  C   UNL A   1      51.445  25.549  26.907  1.00  0.00     0.006 A 
ENDBRANCH  25  39
BRANCH  26  47
ATOM     47  C   UNL A   1      39.317  28.893  29.399  1.00  0.00     0.057 A 
ATOM     48  C   UNL A   1      38.455  29.425  28.435  1.00  0.00     0.134 A 
ATOM     49  C   UNL A   1      38.796  28.662  30.678  1.00  0.00     0.134 A 
ATOM     50  F   UNL A   1      38.900  29.680  27.196  1.00  0.00    -0.206 F 
ATOM     51  C   UNL A   1      37.125  29.728  28.736  1.00  0.00     0.040 A 
ATOM     52  C   UNL A   1      37.463  28.932  30.985  1.00  0.00     0.040 A 
ATOM     53  F   UNL A   1      39.571  28.141  31.642  1.00  0.00    -0.206 F 
ATOM     54  C   UNL A   1      36.625  29.474  30.012  1.00  0.00     0.006 A 
ENDBRANCH  26  47
BRANCH  38  55
ATOM     55  C   UNL A   1      45.347  32.309  29.901  1.00  0.00     0.057 A 
ATOM     56  C   UNL A   1      45.345  33.411  29.038  1.00  0.00     0.134 A 
ATOM     57  C   UNL A   1      45.667  32.531  31.244  1.00  0.00     0.134 A 
ATOM     58  F   UNL A   1      45.065  33.255  27.735  1.00  0.00    -0.206 F 
ATOM     59  C   UNL A   1      45.673  34.688  29.492  1.00  0.00     0.040 A 
ATOM     60  C   UNL A   1      45.975  33.807  31.715  1.00  0.00     0.040 A 
ATOM     61  F   UNL A   1      45.682  31.514  32.119  1.00  0.00    -0.206 F 
ATOM     62  C   UNL A   1      45.986  34.890  30.836  1.00  0.00     0.006 A 
ENDBRANCH  38  55
ENDBRANCH  12  13
ENDBRANCH   5   7
ENDBRANCH   2   3
ENDBRANCH   1   2
BRANCH   1  63
ATOM     63  C   UNL A   1      37.059  21.052  24.632  1.00  0.00     0.023 C 
BRANCH  63  64
ATOM     64  C   UNL A   1      35.704  21.101  25.338  1.00  0.00     0.116 C 
BRANCH  64  65
ATOM     65  N   UNL A   1      34.649  21.426  24.405  1.00  0.00    -0.354 N 
ATOM     66  C   UNL A   1      33.494  20.808  24.063  1.00  0.00     0.251 C 
ATOM     67  H   UNL A   1      34.803  22.267  23.918  1.00  0.00     0.163 HD
ATOM     68  O   UNL A   1      32.834  21.398  23.196  1.00  0.00    -0.272 OA
BRANCH  66  69
ATOM     69  C   UNL A   1      32.900  19.528  24.748  1.00  0.00     0.143 C 
ATOM     70  C   UNL A   1      32.000  18.795  23.716  1.00  0.00     0.051 C 
ATOM     71  C   UNL A   1      33.827  18.472  25.365  1.00  0.00     0.051 C 
ATOM     72  C   UNL A   1      32.830  18.084  22.643  1.00  0.00     0.080 C 
ATOM     73  C   UNL A   1      34.661  17.719  24.338  1.00  0.00     0.080 C 
ATOM     74  C   UNL A   1      33.801  17.092  23.261  1.00  0.00     0.248 C 
ATOM     75  F   UNL A   1      34.604  16.578  22.298  1.00  0.00    -0.207 F 
ATOM     76  F   UNL A   1      33.111  16.053  23.791  1.00  0.00    -0.207 F 
BRANCH  69  77
ATOM     77  O   UNL A   1      32.056  20.004  25.807  1.00  0.00    -0.380 OA
ATOM     78  H   UNL A   1      31.185  20.234  25.448  1.00  0.00     0.212 HD
ENDBRANCH  69  77
ENDBRANCH  66  69
ENDBRANCH  64  65
ENDBRANCH  63  64
ENDBRANCH   1  63
TORSDOF 12
ENDMDL
MODEL 2
REMARK VINA RESULT:     -11.3      0.323      6.585
REMARK SMILES O=C(NCCCCNC(=O)C1(O)CCC(F)(F)CC1)c1ccc(-c2c3nc(c(-c4c(F)cccc4F)c4ccc([nH]4)c(-c4c(F)cccc4F)c4nc(c(-c5c(F)cccc5F)c5ccc2[nH]5)C=C4)C=C3)cc1
REMARK SMILES IDX 5 1 4 2 3 3 1 4 2 5 20 7 21 8 73 9 22 10 72 11 23 12 24 13
REMARK SMILES IDX 25 14 66 15 26 16 71 17 65 18 67 19 27 20 70 21 64 22 63 23
REMARK SMILES IDX 28 25 54 26 37 27 53 28 38 29 41 30 52 31 68 32 39 33 40 34
REMARK SMILES IDX 51 36 69 37 42 38 29 39 30 40 35 41 31 42 32 43 34 44 36 45
REMARK SMILES IDX 33 46 55 47 56 48 61 49 57 50 58 51 60 52 62 53 59 54 43 55
REMARK SMILES IDX 44 56 49 57 45 58 46 59 48 60 50 61 47 62 6 63 7 64 8 65
REMARK SMILES IDX 9 66 10 68 11 69 13 70 19 71 14 72 18 73 15 74 16 75 17 76
REMARK SMILES IDX 12 77
REMARK H PARENT 3 6 67 24 41 35 8 67 12 78
REMARK Flexibility Score: inf
ROOT
ATOM      1  C   UNL A   1      37.975  19.771  24.996  1.00  0.00     0.023 C 
ENDROOT
BRANCH   1   2
ATOM      2  C   UNL A   1      39.138  20.075  25.918  1.00  0.00     0.116 C 
BRANCH   2   3
ATOM      3  N   UNL A   1      40.166  19.044  25.914  1.00  0.00    -0.352 N 
ATOM      4  O   UNL A   1      42.295  18.266  25.984  1.00  0.00    -0.269 OA
ATOM      5  C   UNL A   1      41.517  19.206  26.108  1.00  0.00     0.251 C 
ATOM      6  H   UNL A   1      39.857  18.124  25.753  1.00  0.00     0.163 HD
BRANCH   5   7
ATOM      7  C   UNL A   1      42.010  20.554  26.440  1.00  0.00     0.039 A 
ATOM      8  C   UNL A   1      42.109  20.936  27.780  1.00  0.00     0.014 A 
ATOM      9  C   UNL A   1      42.284  21.459  25.413  1.00  0.00     0.014 A 
ATOM     10  C   UNL A   1      42.331  22.265  28.092  1.00  0.00     0.010 A 
ATOM     11  C   UNL A   1      42.616  22.776  25.735  1.00  0.00     0.010 A 
ATOM     12  C   UNL A   1      42.622  23.190  27.075  1.00  0.00    -0.014 A 
BRANCH  12  13
ATOM     13  C   UNL A   1      43.055  24.550  27.466  1.00  0.00     0.031 A 
ATOM     14  C   UNL A   1      42.082  25.582  27.949  1.00  0.00     0.074 A 
ATOM     15  C   UNL A   1      44.374  24.820  27.396  1.00  0.00     0.049 A 
ATOM     16  N   UNL A   1      42.317  26.816  28.318  1.00  0.00    -0.248 NA
ATOM     17  C   UNL A   1      40.666  25.193  28.026  1.00  0.00     0.031 C 
ATOM     18  C   UNL A   1      45.399  23.883  26.921  1.00  0.00     0.029 A 
ATOM     19  N   UNL A   1      45.084  25.937  27.741  1.00  0.00    -0.354 N 
ATOM     20  C   UNL A   1      41.080  27.361  28.637  1.00  0.00     0.074 A 
ATOM     21  C   UNL A   1      40.094  26.325  28.420  1.00  0.00     0.031 C 
ATOM     22  C   UNL A   1      46.607  24.443  27.057  1.00  0.00     0.029 A 
ATOM     23  C   UNL A   1      46.437  25.802  27.549  1.00  0.00     0.049 A 
ATOM     24  H   UNL A   1      44.666  26.756  28.093  1.00  0.00     0.167 HD
ATOM     25  C   UNL A   1      40.806  28.614  29.069  1.00  0.00     0.037 A 
ATOM     26  C   UNL A   1      47.433  26.688  27.717  1.00  0.00     0.037 A 
ATOM     27  C   UNL A   1      41.808  29.622  29.309  1.00  0.00     0.049 A 
ATOM     28  C   UNL A   1      47.093  28.065  28.192  1.00  0.00     0.074 A 
ATOM     29  C   UNL A   1      41.638  30.905  29.801  1.00  0.00     0.029 A 
ATOM     30  N   UNL A   1      43.165  29.462  29.071  1.00  0.00    -0.354 N 
ATOM     31  N   UNL A   1      45.921  28.558  28.515  1.00  0.00    -0.248 NA
ATOM     32  C   UNL A   1      48.204  29.016  28.311  1.00  0.00     0.031 C 
ATOM     33  C   UNL A   1      42.888  31.535  29.822  1.00  0.00     0.029 A 
ATOM     34  C   UNL A   1      43.841  30.632  29.380  1.00  0.00     0.049 A 
ATOM     35  H   UNL A   1      43.586  28.639  28.733  1.00  0.00     0.167 HD
ATOM     36  C   UNL A   1      46.151  29.877  28.869  1.00  0.00     0.074 A 
ATOM     37  C   UNL A   1      47.580  30.098  28.755  1.00  0.00     0.031 C 
ATOM     38  C   UNL A   1      45.261  30.827  29.243  1.00  0.00     0.037 A 
BRANCH  25  39
ATOM     39  C   UNL A   1      39.371  28.987  29.295  1.00  0.00     0.057 A 
ATOM     40  C   UNL A   1      38.554  29.452  28.257  1.00  0.00     0.134 A 
ATOM     41  C   UNL A   1      38.778  28.794  30.549  1.00  0.00     0.134 A 
ATOM     42  F   UNL A   1      39.062  29.667  27.036  1.00  0.00    -0.206 F 
ATOM     43  C   UNL A   1      37.197  29.711  28.461  1.00  0.00     0.040 A 
ATOM     44  C   UNL A   1      37.419  29.033  30.761  1.00  0.00     0.040 A 
ATOM     45  F   UNL A   1      39.505  28.346  31.584  1.00  0.00    -0.206 F 
ATOM     46  C   UNL A   1      36.624  29.493  29.712  1.00  0.00     0.006 A 
ENDBRANCH  25  39
BRANCH  26  47
ATOM     47  C   UNL A   1      48.826  26.301  27.390  1.00  0.00     0.057 A 
ATOM     48  C   UNL A   1      49.332  26.438  26.094  1.00  0.00     0.134 A 
ATOM     49  C   UNL A   1      49.691  25.809  28.375  1.00  0.00     0.134 A 
ATOM     50  F   UNL A   1      48.547  26.892  25.106  1.00  0.00    -0.206 F 
ATOM     51  C   UNL A   1      50.649  26.089  25.786  1.00  0.00     0.040 A 
ATOM     52  C   UNL A   1      51.017  25.483  28.088  1.00  0.00     0.040 A 
ATOM     53  F   UNL A   1      49.268  25.667  29.640  1.00  0.00    -0.206 F 
ATOM     54  C   UNL A   1      51.496  25.617  26.787  1.00  0.00     0.006 A 
ENDBRANCH  26  47
BRANCH  38  55
ATOM     55  C   UNL A   1      45.820  32.181  29.549  1.00  0.00     0.057 A 
ATOM     56  C   UNL A   1      46.278  32.507  30.831  1.00  0.00     0.134 A 
ATOM     57  C   UNL A   1      45.903  33.163  28.556  1.00  0.00     0.134 A 
ATOM     58  F   UNL A   1      46.205  31.613  31.828  1.00  0.00    -0.206 F 
ATOM     59  C   UNL A   1      46.782  33.775  31.120  1.00  0.00     0.040 A 
ATOM     60  C   UNL A   1      46.425  34.427  28.827  1.00  0.00     0.040 A 
ATOM     61  F   UNL A   1      45.482  32.908  27.308  1.00  0.00    -0.206 F 
ATOM     62  C   UNL A   1      46.860  34.739  30.115  1.00  0.00     0.006 A 
ENDBRANCH  38  55
ENDBRANCH  12  13
ENDBRANCH   5   7
ENDBRANCH   2   3
ENDBRANCH   1   2
BRANCH   1  63
ATOM     63  C   UNL A   1      37.122  20.983  24.640  1.00  0.00     0.023 C 
BRANCH  63  64
ATOM     64  C   UNL A   1      35.774  21.053  25.359  1.00  0.00     0.116 C 
BRANCH  64  65
ATOM     65  N   UNL A   1      34.713  21.377  24.432  1.00  0.00    -0.354 N 
ATOM     66  C   UNL A   1      33.557  20.758  24.097  1.00  0.00     0.251 C 
ATOM     67  H   UNL A   1      34.862  22.220  23.946  1.00  0.00     0.163 HD
ATOM     68  O   UNL A   1      32.891  21.348  23.235  1.00  0.00    -0.272 OA
BRANCH  66  69
ATOM     69  C   UNL A   1      32.970  19.476  24.783  1.00  0.00     0.143 C 
ATOM     70  C   UNL A   1      32.057  18.747  23.759  1.00  0.00     0.051 C 
ATOM     71  C   UNL A   1      33.903  18.416  25.385  1.00  0.00     0.051 C 
ATOM     72  C   UNL A   1      32.875  18.040  22.673  1.00  0.00     0.080 C 
ATOM     73  C   UNL A   1      34.724  17.667  24.346  1.00  0.00     0.080 C 
ATOM     74  C   UNL A   1      33.852  17.045  23.276  1.00  0.00     0.248 C 
ATOM     75  F   UNL A   1      34.643  16.534  22.301  1.00  0.00    -0.207 F 
ATOM     76  F   UNL A   1      33.167  16.004  23.809  1.00  0.00    -0.207 F 
BRANCH  69  77
ATOM     77  O   UNL A   1      32.139  19.948  25.854  1.00  0.00    -0.380 OA
ATOM     78  H   UNL A   1      31.227  19.647  25.711  1.00  0.00     0.212 HD
ENDBRANCH  69  77
ENDBRANCH  66  69
ENDBRANCH  64  65
ENDBRANCH  63  64
ENDBRANCH   1  63
TORSDOF 12
ENDMDL
MODEL 3
REMARK VINA RESULT:     -11.2      1.927      6.833
REMARK SMILES O=C(NCCCCNC(=O)C1(O)CCC(F)(F)CC1)c1ccc(-c2c3nc(c(-c4c(F)cccc4F)c4ccc([nH]4)c(-c4c(F)cccc4F)c4nc(c(-c5c(F)cccc5F)c5ccc2[nH]5)C=C4)C=C3)cc1
REMARK SMILES IDX 5 1 4 2 3 3 1 4 2 5 20 7 21 8 73 9 22 10 72 11 23 12 24 13
REMARK SMILES IDX 25 14 66 15 26 16 71 17 65 18 67 19 27 20 70 21 64 22 63 23
REMARK SMILES IDX 28 25 54 26 37 27 53 28 38 29 41 30 52 31 68 32 39 33 40 34
REMARK SMILES IDX 51 36 69 37 42 38 29 39 30 40 35 41 31 42 32 43 34 44 36 45
REMARK SMILES IDX 33 46 55 47 56 48 61 49 57 50 58 51 60 52 62 53 59 54 43 55
REMARK SMILES IDX 44 56 49 57 45 58 46 59 48 60 50 61 47 62 6 63 7 64 8 65
REMARK SMILES IDX 9 66 10 68 11 69 13 70 19 71 14 72 18 73 15 74 16 75 17 76
REMARK SMILES IDX 12 77
REMARK H PARENT 3 6 67 24 41 35 8 67 12 78
REMARK Flexibility Score: inf
ROOT
ATOM      1  C   UNL A   1      38.113  19.761  24.964  1.00  0.00     0.023 C 
ENDROOT
BRANCH   1   2
ATOM      2  C   UNL A   1      39.257  20.095  25.900  1.00  0.00     0.116 C 
BRANCH   2   3
ATOM      3  N   UNL A   1      40.371  19.163  25.808  1.00  0.00    -0.352 N 
ATOM      4  O   UNL A   1      42.559  18.567  25.846  1.00  0.00    -0.269 OA
ATOM      5  C   UNL A   1      41.700  19.417  26.052  1.00  0.00     0.251 C 
ATOM      6  H   UNL A   1      40.147  18.242  25.541  1.00  0.00     0.163 HD
BRANCH   5   7
ATOM      7  C   UNL A   1      42.067  20.758  26.540  1.00  0.00     0.039 A 
ATOM      8  C   UNL A   1      41.999  21.030  27.909  1.00  0.00     0.014 A 
ATOM      9  C   UNL A   1      42.389  21.760  25.624  1.00  0.00     0.014 A 
ATOM     10  C   UNL A   1      42.101  22.338  28.347  1.00  0.00     0.010 A 
ATOM     11  C   UNL A   1      42.600  23.061  26.083  1.00  0.00     0.010 A 
ATOM     12  C   UNL A   1      42.438  23.360  27.444  1.00  0.00    -0.014 A 
BRANCH  12  13
ATOM     13  C   UNL A   1      42.739  24.705  27.985  1.00  0.00     0.031 A 
ATOM     14  C   UNL A   1      41.661  25.712  28.245  1.00  0.00     0.074 A 
ATOM     15  C   UNL A   1      44.029  24.981  28.264  1.00  0.00     0.049 A 
ATOM     16  N   UNL A   1      41.777  26.931  28.709  1.00  0.00    -0.248 NA
ATOM     17  C   UNL A   1      40.277  25.316  27.942  1.00  0.00     0.031 C 
ATOM     18  C   UNL A   1      45.153  24.068  28.029  1.00  0.00     0.029 A 
ATOM     19  N   UNL A   1      44.612  26.086  28.822  1.00  0.00    -0.354 N 
ATOM     20  C   UNL A   1      40.493  27.458  28.724  1.00  0.00     0.074 A 
ATOM     21  C   UNL A   1      39.608  26.429  28.222  1.00  0.00     0.031 C 
ATOM     22  C   UNL A   1      46.279  24.626  28.491  1.00  0.00     0.029 A 
ATOM     23  C   UNL A   1      45.971  25.963  28.976  1.00  0.00     0.049 A 
ATOM     24  H   UNL A   1      44.107  26.888  29.088  1.00  0.00     0.167 HD
ATOM     25  C   UNL A   1      40.101  28.691  29.121  1.00  0.00     0.037 A 
ATOM     26  C   UNL A   1      46.880  26.844  29.426  1.00  0.00     0.037 A 
ATOM     27  C   UNL A   1      40.995  29.692  29.647  1.00  0.00     0.049 A 
ATOM     28  C   UNL A   1      46.410  28.199  29.853  1.00  0.00     0.074 A 
ATOM     29  C   UNL A   1      40.688  30.953  30.129  1.00  0.00     0.029 A 
ATOM     30  N   UNL A   1      42.370  29.546  29.757  1.00  0.00    -0.354 N 
ATOM     31  N   UNL A   1      45.189  28.674  29.886  1.00  0.00    -0.248 NA
ATOM     32  C   UNL A   1      47.442  29.148  30.288  1.00  0.00     0.031 C 
ATOM     33  C   UNL A   1      41.883  31.585  30.493  1.00  0.00     0.029 A 
ATOM     34  C   UNL A   1      42.930  30.704  30.273  1.00  0.00     0.049 A 
ATOM     35  H   UNL A   1      42.874  28.739  29.505  1.00  0.00     0.167 HD
ATOM     36  C   UNL A   1      45.304  29.979  30.338  1.00  0.00     0.074 A 
ATOM     37  C   UNL A   1      46.711  30.208  30.601  1.00  0.00     0.031 C 
ATOM     38  C   UNL A   1      44.334  30.909  30.510  1.00  0.00     0.037 A 
BRANCH  25  39
ATOM     39  C   UNL A   1      38.651  29.051  28.988  1.00  0.00     0.057 A 
ATOM     40  C   UNL A   1      37.769  28.986  30.074  1.00  0.00     0.134 A 
ATOM     41  C   UNL A   1      38.154  29.554  27.780  1.00  0.00     0.134 A 
ATOM     42  F   UNL A   1      38.180  28.505  31.256  1.00  0.00    -0.206 F 
ATOM     43  C   UNL A   1      36.443  29.408  29.960  1.00  0.00     0.040 A 
ATOM     44  C   UNL A   1      36.834  29.995  27.658  1.00  0.00     0.040 A 
ATOM     45  F   UNL A   1      38.949  29.648  26.703  1.00  0.00    -0.206 F 
ATOM     46  C   UNL A   1      35.975  29.923  28.753  1.00  0.00     0.006 A 
ENDBRANCH  25  39
BRANCH  26  47
ATOM     47  C   UNL A   1      48.315  26.475  29.450  1.00  0.00     0.057 A 
ATOM     48  C   UNL A   1      48.878  25.821  30.551  1.00  0.00     0.134 A 
ATOM     49  C   UNL A   1      49.150  26.745  28.359  1.00  0.00     0.134 A 
ATOM     50  F   UNL A   1      48.130  25.547  31.630  1.00  0.00    -0.206 F 
ATOM     51  C   UNL A   1      50.226  25.458  30.570  1.00  0.00     0.040 A 
ATOM     52  C   UNL A   1      50.492  26.362  28.353  1.00  0.00     0.040 A 
ATOM     53  F   UNL A   1      48.665  27.358  27.269  1.00  0.00    -0.206 F 
ATOM     54  C   UNL A   1      51.034  25.723  29.465  1.00  0.00     0.006 A 
ENDBRANCH  26  47
BRANCH  38  55
ATOM     55  C   UNL A   1      44.779  32.251  31.002  1.00  0.00     0.057 A 
ATOM     56  C   UNL A   1      45.107  33.281  30.111  1.00  0.00     0.134 A 
ATOM     57  C   UNL A   1      44.876  32.516  32.371  1.00  0.00     0.134 A 
ATOM     58  F   UNL A   1      45.052  33.078  28.786  1.00  0.00    -0.206 F 
ATOM     59  C   UNL A   1      45.539  34.525  30.569  1.00  0.00     0.040 A 
ATOM     60  C   UNL A   1      45.286  33.764  32.842  1.00  0.00     0.040 A 
ATOM     61  F   UNL A   1      44.572  31.570  33.273  1.00  0.00    -0.206 F 
ATOM     62  C   UNL A   1      45.626  34.770  31.939  1.00  0.00     0.006 A 
ENDBRANCH  38  55
ENDBRANCH  12  13
ENDBRANCH   5   7
ENDBRANCH   2   3
ENDBRANCH   1   2
BRANCH   1  63
ATOM     63  C   UNL A   1      37.049  20.849  24.857  1.00  0.00     0.023 C 
BRANCH  63  64
ATOM     64  C   UNL A   1      35.608  20.349  24.967  1.00  0.00     0.116 C 
BRANCH  64  65
ATOM     65  N   UNL A   1      34.930  20.978  26.077  1.00  0.00    -0.354 N 
ATOM     66  C   UNL A   1      33.649  21.367  26.278  1.00  0.00     0.251 C 
ATOM     67  H   UNL A   1      35.519  21.161  26.844  1.00  0.00     0.163 HD
ATOM     68  O   UNL A   1      33.439  21.892  27.381  1.00  0.00    -0.272 OA
BRANCH  66  69
ATOM     69  C   UNL A   1      32.445  21.097  25.310  1.00  0.00     0.143 C 
ATOM     70  C   UNL A   1      31.283  22.054  25.694  1.00  0.00     0.051 C 
ATOM     71  C   UNL A   1      32.628  21.201  23.790  1.00  0.00     0.051 C 
ATOM     72  C   UNL A   1      31.570  23.495  25.264  1.00  0.00     0.080 C 
ATOM     73  C   UNL A   1      32.893  22.619  23.305  1.00  0.00     0.080 C 
ATOM     74  C   UNL A   1      31.825  23.586  23.769  1.00  0.00     0.248 C 
ATOM     75  F   UNL A   1      32.199  24.848  23.445  1.00  0.00    -0.207 F 
ATOM     76  F   UNL A   1      30.675  23.334  23.097  1.00  0.00    -0.207 F 
BRANCH  69  77
ATOM     77  O   UNL A   1      32.016  19.754  25.581  1.00  0.00    -0.380 OA
ATOM     78  H   UNL A   1      32.364  19.471  26.441  1.00  0.00     0.212 HD
ENDBRANCH  69  77
ENDBRANCH  66  69
ENDBRANCH  64  65
ENDBRANCH  63  64
ENDBRANCH   1  63
TORSDOF 12
ENDMDL
