MODEL 1
REMARK VINA RESULT:     -11.4      0.000      0.000
REMARK SMILES C[N@H+]1CCO[C@@H](CN2C[C@H](C(=O)NCCCCNC(=O)c3ccc(-c4c5nc(c(-c6c(F)cccc6F)c6ccc([nH]6)c(-c6c(F)cccc6F)c6nc(c(-c7c(F)cccc7F)c7ccc4[nH]7)C=C6)C=C5)cc3)CC2=O)C1
REMARK SMILES IDX 15 1 14 2 13 3 11 4 12 5 10 7 8 8 9 9 76 10 75 11 77 12 7 13
REMARK SMILES IDX 6 14 1 15 2 16 3 17 78 18 4 20 5 21 16 22 17 23 18 24 19 25
REMARK SMILES IDX 20 27 21 28 22 29 74 30 23 31 73 32 24 33 25 34 26 35 67 36
REMARK SMILES IDX 27 37 72 38 66 39 68 40 28 41 71 42 65 43 64 44 29 46 55 47
REMARK SMILES IDX 38 48 54 49 39 50 42 51 53 52 69 53 40 54 41 55 52 57 70 58
REMARK SMILES IDX 43 59 30 60 31 61 36 62 32 63 33 64 35 65 37 66 34 67 56 68
REMARK SMILES IDX 57 69 62 70 58 71 59 72 61 73 63 74 60 75 44 76 45 77 50 78
REMARK SMILES IDX 46 79 47 80 49 81 51 82 48 83
REMARK H PARENT 13 6 2 19 18 26 68 45 42 56
REMARK Flexibility Score: inf
ROOT
ATOM      1  C   UNL A   1      37.165  21.310  24.746  1.00  0.00     0.023 C 
ENDROOT
BRANCH   1   2
ATOM      2  C   UNL A   1      36.049  21.521  25.764  1.00  0.00     0.116 C 
BRANCH   2   3
ATOM      3  N   UNL A   1      34.732  21.425  25.169  1.00  0.00    -0.356 N 
ATOM      4  C   UNL A   1      33.584  22.115  25.389  1.00  0.00     0.225 C 
ATOM      5  O   UNL A   1      32.618  21.820  24.678  1.00  0.00    -0.275 OA
ATOM      6  H   UNL A   1      34.655  20.732  24.474  1.00  0.00     0.163 HD
BRANCH   4   7
ATOM      7  C   UNL A   1      33.409  23.154  26.486  1.00  0.00     0.107 C 
ATOM      8  N   UNL A   1      32.678  25.295  25.897  1.00  0.00    -0.339 N 
ATOM      9  C   UNL A   1      33.884  24.524  26.049  1.00  0.00     0.133 C 
ATOM     10  C   UNL A   1      31.586  24.710  26.513  1.00  0.00     0.223 C 
ATOM     11  C   UNL A   1      32.004  23.357  27.042  1.00  0.00     0.115 C 
ATOM     12  O   UNL A   1      30.463  25.173  26.580  1.00  0.00    -0.275 OA
BRANCH   8  13
ATOM     13  C   UNL A   1      32.623  26.526  25.118  1.00  0.00     0.157 C 
BRANCH  13  14
ATOM     14  C   UNL A   1      33.426  27.706  25.681  1.00  0.00     0.192 C 
ATOM     15  C   UNL A   1      30.971  29.426  24.354  1.00  0.00     0.332 C 
ATOM     16  N   UNL A   1      32.154  29.866  25.077  1.00  0.00    -0.333 N 
ATOM     17  C   UNL A   1      31.913  29.996  26.524  1.00  0.00     0.290 C 
ATOM     18  C   UNL A   1      33.340  29.016  24.863  1.00  0.00     0.296 C 
ATOM     19  H   UNL A   1      32.354  30.785  24.682  1.00  0.00     0.348 HD
ATOM     20  C   UNL A   1      31.886  28.653  27.265  1.00  0.00     0.222 C 
ATOM     21  O   UNL A   1      33.100  27.919  27.072  1.00  0.00    -0.365 OA
ENDBRANCH  13  14
ENDBRANCH   8  13
ENDBRANCH   4   7
ENDBRANCH   2   3
ENDBRANCH   1   2
BRANCH   1  22
ATOM     22  C   UNL A   1      38.011  20.067  24.996  1.00  0.00     0.023 C 
BRANCH  22  23
ATOM     23  C   UNL A   1      39.286  20.317  25.790  1.00  0.00     0.116 C 
BRANCH  23  24
ATOM     24  N   UNL A   1      40.178  19.166  25.856  1.00  0.00    -0.352 N 
ATOM     25  C   UNL A   1      41.526  19.163  26.135  1.00  0.00     0.251 C 
ATOM     26  H   UNL A   1      39.769  18.287  25.678  1.00  0.00     0.163 HD
ATOM     27  O   UNL A   1      42.191  18.138  26.057  1.00  0.00    -0.269 OA
BRANCH  25  28
ATOM     28  C   UNL A   1      42.162  20.446  26.487  1.00  0.00     0.039 A 
ATOM     29  C   UNL A   1      42.612  21.282  25.465  1.00  0.00     0.014 A 
ATOM     30  C   UNL A   1      42.200  20.859  27.821  1.00  0.00     0.014 A 
ATOM     31  C   UNL A   1      43.030  22.574  25.779  1.00  0.00     0.010 A 
ATOM     32  C   UNL A   1      42.523  22.175  28.118  1.00  0.00     0.010 A 
ATOM     33  C   UNL A   1      42.943  23.046  27.101  1.00  0.00    -0.014 A 
BRANCH  33  34
ATOM     34  C   UNL A   1      43.289  24.447  27.442  1.00  0.00     0.031 A 
ATOM     35  C   UNL A   1      44.726  24.887  27.426  1.00  0.00     0.074 A 
ATOM     36  C   UNL A   1      42.321  25.301  27.828  1.00  0.00     0.049 A 
ATOM     37  N   UNL A   1      45.239  26.047  27.750  1.00  0.00    -0.248 NA
ATOM     38  C   UNL A   1      45.723  23.882  27.025  1.00  0.00     0.031 C 
ATOM     39  C   UNL A   1      40.896  24.977  27.937  1.00  0.00     0.029 A 
ATOM     40  N   UNL A   1      42.390  26.618  28.207  1.00  0.00    -0.354 N 
ATOM     41  C   UNL A   1      46.612  25.905  27.603  1.00  0.00     0.074 A 
ATOM     42  C   UNL A   1      46.860  24.530  27.229  1.00  0.00     0.031 C 
ATOM     43  C   UNL A   1      40.225  26.073  28.323  1.00  0.00     0.029 A 
ATOM     44  C   UNL A   1      41.171  27.164  28.530  1.00  0.00     0.049 A 
ATOM     45  H   UNL A   1      43.234  27.124  28.246  1.00  0.00     0.167 HD
ATOM     46  C   UNL A   1      47.579  26.842  27.738  1.00  0.00     0.037 A 
ATOM     47  C   UNL A   1      40.854  28.403  28.950  1.00  0.00     0.037 A 
ATOM     48  C   UNL A   1      47.325  28.214  28.090  1.00  0.00     0.049 A 
ATOM     49  C   UNL A   1      41.949  29.424  29.107  1.00  0.00     0.074 A 
ATOM     50  C   UNL A   1      48.228  29.257  28.194  1.00  0.00     0.029 A 
ATOM     51  N   UNL A   1      46.076  28.732  28.398  1.00  0.00    -0.354 N 
ATOM     52  N   UNL A   1      43.236  29.297  28.891  1.00  0.00    -0.248 NA
ATOM     53  C   UNL A   1      41.546  30.763  29.558  1.00  0.00     0.031 C 
ATOM     54  C   UNL A   1      47.533  30.393  28.620  1.00  0.00     0.029 A 
ATOM     55  C   UNL A   1      46.188  30.074  28.719  1.00  0.00     0.049 A 
ATOM     56  H   UNL A   1      45.234  28.221  28.389  1.00  0.00     0.167 HD
ATOM     57  C   UNL A   1      43.791  30.543  29.151  1.00  0.00     0.074 A 
ATOM     58  C   UNL A   1      42.698  31.416  29.524  1.00  0.00     0.031 C 
ATOM     59  C   UNL A   1      45.089  30.931  29.083  1.00  0.00     0.037 A 
BRANCH  46  60
ATOM     60  C   UNL A   1      48.998  26.412  27.504  1.00  0.00     0.057 A 
ATOM     61  C   UNL A   1      49.581  26.441  26.229  1.00  0.00     0.134 A 
ATOM     62  C   UNL A   1      49.802  25.988  28.570  1.00  0.00     0.134 A 
ATOM     63  F   UNL A   1      48.863  26.823  25.162  1.00  0.00    -0.206 F 
ATOM     64  C   UNL A   1      50.900  26.037  26.018  1.00  0.00     0.040 A 
ATOM     65  C   UNL A   1      51.133  25.612  28.376  1.00  0.00     0.040 A 
ATOM     66  F   UNL A   1      49.311  25.939  29.817  1.00  0.00    -0.206 F 
ATOM     67  C   UNL A   1      51.683  25.628  27.097  1.00  0.00     0.006 A 
ENDBRANCH  46  60
BRANCH  47  68
ATOM     68  C   UNL A   1      39.439  28.759  29.230  1.00  0.00     0.057 A 
ATOM     69  C   UNL A   1      38.884  28.573  30.502  1.00  0.00     0.134 A 
ATOM     70  C   UNL A   1      38.604  29.282  28.234  1.00  0.00     0.134 A 
ATOM     71  F   UNL A   1      39.627  28.060  31.493  1.00  0.00    -0.206 F 
ATOM     72  C   UNL A   1      37.546  28.869  30.768  1.00  0.00     0.040 A 
ATOM     73  C   UNL A   1      37.272  29.609  28.494  1.00  0.00     0.040 A 
ATOM     74  F   UNL A   1      39.075  29.494  26.997  1.00  0.00    -0.206 F 
ATOM     75  C   UNL A   1      36.737  29.394  29.762  1.00  0.00     0.006 A 
ENDBRANCH  47  68
BRANCH  59  76
ATOM     76  C   UNL A   1      45.394  32.371  29.382  1.00  0.00     0.057 A 
ATOM     77  C   UNL A   1      45.346  33.361  28.393  1.00  0.00     0.134 A 
ATOM     78  C   UNL A   1      45.698  32.776  30.688  1.00  0.00     0.134 A 
ATOM     79  F   UNL A   1      45.073  33.040  27.119  1.00  0.00    -0.206 F 
ATOM     80  C   UNL A   1      45.615  34.700  28.688  1.00  0.00     0.040 A 
ATOM     81  C   UNL A   1      45.937  34.114  31.001  1.00  0.00     0.040 A 
ATOM     82  F   UNL A   1      45.750  31.879  31.686  1.00  0.00    -0.206 F 
ATOM     83  C   UNL A   1      45.903  35.079  29.998  1.00  0.00     0.006 A 
ENDBRANCH  59  76
ENDBRANCH  33  34
ENDBRANCH  25  28
ENDBRANCH  23  24
ENDBRANCH  22  23
ENDBRANCH   1  22
TORSDOF 13
ENDMDL
MODEL 2
REMARK VINA RESULT:     -11.4      5.080     10.318
REMARK SMILES C[N@H+]1CCO[C@@H](CN2C[C@H](C(=O)NCCCCNC(=O)c3ccc(-c4c5nc(c(-c6c(F)cccc6F)c6ccc([nH]6)c(-c6c(F)cccc6F)c6nc(c(-c7c(F)cccc7F)c7ccc4[nH]7)C=C6)C=C5)cc3)CC2=O)C1
REMARK SMILES IDX 15 1 14 2 13 3 11 4 12 5 10 7 8 8 9 9 76 10 75 11 77 12 7 13
REMARK SMILES IDX 6 14 1 15 2 16 3 17 78 18 4 20 5 21 16 22 17 23 18 24 19 25
REMARK SMILES IDX 20 27 21 28 22 29 74 30 23 31 73 32 24 33 25 34 26 35 67 36
REMARK SMILES IDX 27 37 72 38 66 39 68 40 28 41 71 42 65 43 64 44 29 46 55 47
REMARK SMILES IDX 38 48 54 49 39 50 42 51 53 52 69 53 40 54 41 55 52 57 70 58
REMARK SMILES IDX 43 59 30 60 31 61 36 62 32 63 33 64 35 65 37 66 34 67 56 68
REMARK SMILES IDX 57 69 62 70 58 71 59 72 61 73 63 74 60 75 44 76 45 77 50 78
REMARK SMILES IDX 46 79 47 80 49 81 51 82 48 83
REMARK H PARENT 13 6 2 19 18 26 68 45 42 56
REMARK Flexibility Score: inf
ROOT
ATOM      1  C   UNL A   1      31.876  30.479  26.820  1.00  0.00     0.023 C 
ENDROOT
BRANCH   1   2
ATOM      2  C   UNL A   1      32.624  29.961  25.595  1.00  0.00     0.116 C 
BRANCH   2   3
ATOM      3  N   UNL A   1      31.731  29.424  24.588  1.00  0.00    -0.356 N 
ATOM      4  C   UNL A   1      31.904  28.474  23.636  1.00  0.00     0.225 C 
ATOM      5  O   UNL A   1      30.920  28.204  22.940  1.00  0.00    -0.275 OA
ATOM      6  H   UNL A   1      30.830  29.822  24.598  1.00  0.00     0.163 HD
BRANCH   4   7
ATOM      7  C   UNL A   1      33.233  27.795  23.339  1.00  0.00     0.107 C 
ATOM      8  N   UNL A   1      33.435  25.501  23.744  1.00  0.00    -0.339 N 
ATOM      9  C   UNL A   1      33.596  26.775  24.397  1.00  0.00     0.133 C 
ATOM     10  C   UNL A   1      33.377  25.609  22.365  1.00  0.00     0.223 C 
ATOM     11  C   UNL A   1      33.368  27.076  22.001  1.00  0.00     0.115 C 
ATOM     12  O   UNL A   1      33.294  24.689  21.574  1.00  0.00    -0.275 OA
BRANCH   8  13
ATOM     13  C   UNL A   1      33.287  24.252  24.479  1.00  0.00     0.157 C 
BRANCH  13  14
ATOM     14  C   UNL A   1      31.915  23.574  24.369  1.00  0.00     0.192 C 
ATOM     15  C   UNL A   1      32.664  22.580  27.402  1.00  0.00     0.332 C 
ATOM     16  N   UNL A   1      31.490  22.321  26.582  1.00  0.00    -0.333 N 
ATOM     17  C   UNL A   1      30.420  23.308  26.806  1.00  0.00     0.290 C 
ATOM     18  C   UNL A   1      31.773  22.239  25.137  1.00  0.00     0.296 C 
ATOM     19  H   UNL A   1      31.174  21.402  26.892  1.00  0.00     0.348 HD
ATOM     20  C   UNL A   1      30.675  24.657  26.121  1.00  0.00     0.222 C 
ATOM     21  O   UNL A   1      30.864  24.504  24.710  1.00  0.00    -0.365 OA
ENDBRANCH  13  14
ENDBRANCH   8  13
ENDBRANCH   4   7
ENDBRANCH   2   3
ENDBRANCH   1   2
BRANCH   1  22
ATOM     22  C   UNL A   1      31.621  31.982  26.805  1.00  0.00     0.023 C 
BRANCH  22  23
ATOM     23  C   UNL A   1      32.784  32.828  27.306  1.00  0.00     0.116 C 
BRANCH  23  24
ATOM     24  N   UNL A   1      32.422  34.204  27.624  1.00  0.00    -0.352 N 
ATOM     25  C   UNL A   1      32.991  35.023  28.573  1.00  0.00     0.251 C 
ATOM     26  H   UNL A   1      31.683  34.592  27.101  1.00  0.00     0.163 HD
ATOM     27  O   UNL A   1      32.527  36.129  28.819  1.00  0.00    -0.269 OA
BRANCH  25  28
ATOM     28  C   UNL A   1      34.152  34.512  29.323  1.00  0.00     0.039 A 
ATOM     29  C   UNL A   1      33.942  33.879  30.548  1.00  0.00     0.014 A 
ATOM     30  C   UNL A   1      35.425  34.561  28.749  1.00  0.00     0.014 A 
ATOM     31  C   UNL A   1      35.005  33.221  31.164  1.00  0.00     0.010 A 
ATOM     32  C   UNL A   1      36.456  33.824  29.314  1.00  0.00     0.010 A 
ATOM     33  C   UNL A   1      36.258  33.147  30.528  1.00  0.00    -0.014 A 
BRANCH  33  34
ATOM     34  C   UNL A   1      37.376  32.370  31.117  1.00  0.00     0.031 A 
ATOM     35  C   UNL A   1      37.882  32.713  32.490  1.00  0.00     0.074 A 
ATOM     36  C   UNL A   1      37.974  31.405  30.392  1.00  0.00     0.049 A 
ATOM     37  N   UNL A   1      38.884  32.195  33.154  1.00  0.00    -0.248 NA
ATOM     38  C   UNL A   1      37.192  33.803  33.199  1.00  0.00     0.031 C 
ATOM     39  C   UNL A   1      37.610  31.018  29.027  1.00  0.00     0.029 A 
ATOM     40  N   UNL A   1      39.023  30.576  30.702  1.00  0.00    -0.354 N 
ATOM     41  C   UNL A   1      38.949  32.902  34.346  1.00  0.00     0.074 A 
ATOM     42  C   UNL A   1      37.935  33.930  34.288  1.00  0.00     0.031 C 
ATOM     43  C   UNL A   1      38.400  30.007  28.632  1.00  0.00     0.029 A 
ATOM     44  C   UNL A   1      39.353  29.702  29.694  1.00  0.00     0.049 A 
ATOM     45  H   UNL A   1      39.496  30.605  31.565  1.00  0.00     0.167 HD
ATOM     46  C   UNL A   1      39.763  32.697  35.409  1.00  0.00     0.037 A 
ATOM     47  C   UNL A   1      40.317  28.765  29.633  1.00  0.00     0.037 A 
ATOM     48  C   UNL A   1      40.758  31.659  35.470  1.00  0.00     0.049 A 
ATOM     49  C   UNL A   1      41.219  28.566  30.821  1.00  0.00     0.074 A 
ATOM     50  C   UNL A   1      41.592  31.328  36.524  1.00  0.00     0.029 A 
ATOM     51  N   UNL A   1      41.054  30.787  34.434  1.00  0.00    -0.354 N 
ATOM     52  N   UNL A   1      41.221  29.192  31.972  1.00  0.00    -0.248 NA
ATOM     53  C   UNL A   1      42.248  27.523  30.703  1.00  0.00     0.031 C 
ATOM     54  C   UNL A   1      42.431  30.292  36.103  1.00  0.00     0.029 A 
ATOM     55  C   UNL A   1      42.078  29.935  34.812  1.00  0.00     0.049 A 
ATOM     56  H   UNL A   1      40.602  30.775  33.558  1.00  0.00     0.167 HD
ATOM     57  C   UNL A   1      42.227  28.601  32.726  1.00  0.00     0.074 A 
ATOM     58  C   UNL A   1      42.802  27.556  31.906  1.00  0.00     0.031 C 
ATOM     59  C   UNL A   1      42.636  28.895  33.985  1.00  0.00     0.037 A 
BRANCH  46  60
ATOM     60  C   UNL A   1      39.608  33.614  36.587  1.00  0.00     0.057 A 
ATOM     61  C   UNL A   1      40.289  34.838  36.670  1.00  0.00     0.134 A 
ATOM     62  C   UNL A   1      38.749  33.284  37.642  1.00  0.00     0.134 A 
ATOM     63  F   UNL A   1      41.139  35.209  35.700  1.00  0.00    -0.206 F 
ATOM     64  C   UNL A   1      40.143  35.684  37.769  1.00  0.00     0.040 A 
ATOM     65  C   UNL A   1      38.569  34.138  38.733  1.00  0.00     0.040 A 
ATOM     66  F   UNL A   1      38.062  32.131  37.628  1.00  0.00    -0.206 F 
ATOM     67  C   UNL A   1      39.273  35.337  38.802  1.00  0.00     0.006 A 
ENDBRANCH  46  60
BRANCH  47  68
ATOM     68  C   UNL A   1      40.469  27.927  28.415  1.00  0.00     0.057 A 
ATOM     69  C   UNL A   1      39.852  26.674  28.318  1.00  0.00     0.134 A 
ATOM     70  C   UNL A   1      41.243  28.350  27.327  1.00  0.00     0.134 A 
ATOM     71  F   UNL A   1      39.113  26.205  29.333  1.00  0.00    -0.206 F 
ATOM     72  C   UNL A   1      40.017  25.861  27.195  1.00  0.00     0.040 A 
ATOM     73  C   UNL A   1      41.393  27.559  26.186  1.00  0.00     0.040 A 
ATOM     74  F   UNL A   1      41.853  29.543  27.351  1.00  0.00    -0.206 F 
ATOM     75  C   UNL A   1      40.786  26.307  26.122  1.00  0.00     0.006 A 
ENDBRANCH  47  68
BRANCH  59  76
ATOM     76  C   UNL A   1      43.732  28.051  34.569  1.00  0.00     0.057 A 
ATOM     77  C   UNL A   1      45.079  28.425  34.490  1.00  0.00     0.134 A 
ATOM     78  C   UNL A   1      43.428  26.869  35.256  1.00  0.00     0.134 A 
ATOM     79  F   UNL A   1      45.440  29.539  33.836  1.00  0.00    -0.206 F 
ATOM     80  C   UNL A   1      46.088  27.639  35.053  1.00  0.00     0.040 A 
ATOM     81  C   UNL A   1      44.424  26.092  35.850  1.00  0.00     0.040 A 
ATOM     82  F   UNL A   1      42.156  26.458  35.378  1.00  0.00    -0.206 F 
ATOM     83  C   UNL A   1      45.759  26.474  35.743  1.00  0.00     0.006 A 
ENDBRANCH  59  76
ENDBRANCH  33  34
ENDBRANCH  25  28
ENDBRANCH  23  24
ENDBRANCH  22  23
ENDBRANCH   1  22
TORSDOF 13
ENDMDL
MODEL 3
REMARK VINA RESULT:     -11.3      4.612     10.170
REMARK SMILES C[N@H+]1CCO[C@@H](CN2C[C@H](C(=O)NCCCCNC(=O)c3ccc(-c4c5nc(c(-c6c(F)cccc6F)c6ccc([nH]6)c(-c6c(F)cccc6F)c6nc(c(-c7c(F)cccc7F)c7ccc4[nH]7)C=C6)C=C5)cc3)CC2=O)C1
REMARK SMILES IDX 15 1 14 2 13 3 11 4 12 5 10 7 8 8 9 9 76 10 75 11 77 12 7 13
REMARK SMILES IDX 6 14 1 15 2 16 3 17 78 18 4 20 5 21 16 22 17 23 18 24 19 25
REMARK SMILES IDX 20 27 21 28 22 29 74 30 23 31 73 32 24 33 25 34 26 35 67 36
REMARK SMILES IDX 27 37 72 38 66 39 68 40 28 41 71 42 65 43 64 44 29 46 55 47
REMARK SMILES IDX 38 48 54 49 39 50 42 51 53 52 69 53 40 54 41 55 52 57 70 58
REMARK SMILES IDX 43 59 30 60 31 61 36 62 32 63 33 64 35 65 37 66 34 67 56 68
REMARK SMILES IDX 57 69 62 70 58 71 59 72 61 73 63 74 60 75 44 76 45 77 50 78
REMARK SMILES IDX 46 79 47 80 49 81 51 82 48 83
REMARK H PARENT 13 6 2 19 18 26 68 45 42 56
REMARK Flexibility Score: inf
ROOT
ATOM      1  C   UNL A   1      31.912  30.344  26.675  1.00  0.00     0.023 C 
ENDROOT
BRANCH   1   2
ATOM      2  C   UNL A   1      31.730  29.694  25.306  1.00  0.00     0.116 C 
BRANCH   2   3
ATOM      3  N   UNL A   1      32.844  28.843  24.945  1.00  0.00    -0.356 N 
ATOM      4  C   UNL A   1      32.910  27.532  24.600  1.00  0.00     0.225 C 
ATOM      5  O   UNL A   1      34.027  27.095  24.303  1.00  0.00    -0.275 OA
ATOM      6  H   UNL A   1      33.716  29.301  24.949  1.00  0.00     0.163 HD
BRANCH   4   7
ATOM      7  C   UNL A   1      31.725  26.580  24.632  1.00  0.00     0.107 C 
ATOM      8  N   UNL A   1      32.112  24.320  25.088  1.00  0.00    -0.339 N 
ATOM      9  C   UNL A   1      32.051  25.248  23.990  1.00  0.00     0.133 C 
ATOM     10  C   UNL A   1      31.528  24.815  26.241  1.00  0.00     0.223 C 
ATOM     11  C   UNL A   1      31.126  26.251  25.995  1.00  0.00     0.115 C 
ATOM     12  O   UNL A   1      31.400  24.221  27.295  1.00  0.00    -0.275 OA
BRANCH   8  13
ATOM     13  C   UNL A   1      32.781  23.029  24.992  1.00  0.00     0.157 C 
BRANCH  13  14
ATOM     14  C   UNL A   1      34.039  22.865  25.856  1.00  0.00     0.192 C 
ATOM     15  C   UNL A   1      33.818  19.772  24.795  1.00  0.00     0.332 C 
ATOM     16  N   UNL A   1      34.780  20.402  25.687  1.00  0.00    -0.333 N 
ATOM     17  C   UNL A   1      35.956  20.921  24.969  1.00  0.00     0.290 C 
ATOM     18  C   UNL A   1      34.212  21.479  26.519  1.00  0.00     0.296 C 
ATOM     19  H   UNL A   1      35.068  19.646  26.309  1.00  0.00     0.348 HD
ATOM     20  C   UNL A   1      35.691  22.237  24.227  1.00  0.00     0.222 C 
ATOM     21  O   UNL A   1      35.215  23.256  25.113  1.00  0.00    -0.365 OA
ENDBRANCH  13  14
ENDBRANCH   8  13
ENDBRANCH   4   7
ENDBRANCH   2   3
ENDBRANCH   1   2
BRANCH   1  22
ATOM     22  C   UNL A   1      31.643  31.844  26.694  1.00  0.00     0.023 C 
BRANCH  22  23
ATOM     23  C   UNL A   1      32.747  32.678  27.331  1.00  0.00     0.116 C 
BRANCH  23  24
ATOM     24  N   UNL A   1      32.370  34.062  27.590  1.00  0.00    -0.352 N 
ATOM     25  C   UNL A   1      32.953  34.939  28.477  1.00  0.00     0.251 C 
ATOM     26  H   UNL A   1      31.609  34.410  27.071  1.00  0.00     0.163 HD
ATOM     27  O   UNL A   1      32.477  36.048  28.681  1.00  0.00    -0.269 OA
BRANCH  25  28
ATOM     28  C   UNL A   1      34.146  34.486  29.215  1.00  0.00     0.039 A 
ATOM     29  C   UNL A   1      33.978  33.793  30.414  1.00  0.00     0.014 A 
ATOM     30  C   UNL A   1      35.414  34.650  28.652  1.00  0.00     0.014 A 
ATOM     31  C   UNL A   1      35.085  33.192  31.012  1.00  0.00     0.010 A 
ATOM     32  C   UNL A   1      36.494  33.970  29.196  1.00  0.00     0.010 A 
ATOM     33  C   UNL A   1      36.342  33.235  30.383  1.00  0.00    -0.014 A 
BRANCH  33  34
ATOM     34  C   UNL A   1      37.511  32.521  30.949  1.00  0.00     0.031 A 
ATOM     35  C   UNL A   1      38.134  33.004  32.229  1.00  0.00     0.074 A 
ATOM     36  C   UNL A   1      38.050  31.483  30.280  1.00  0.00     0.049 A 
ATOM     37  N   UNL A   1      39.193  32.556  32.853  1.00  0.00    -0.248 NA
ATOM     38  C   UNL A   1      37.502  34.165  32.877  1.00  0.00     0.031 C 
ATOM     39  C   UNL A   1      37.571  30.956  29.001  1.00  0.00     0.029 A 
ATOM     40  N   UNL A   1      39.127  30.689  30.583  1.00  0.00    -0.354 N 
ATOM     41  C   UNL A   1      39.358  33.385  33.955  1.00  0.00     0.074 A 
ATOM     42  C   UNL A   1      38.336  34.404  33.878  1.00  0.00     0.031 C 
ATOM     43  C   UNL A   1      38.328  29.907  28.646  1.00  0.00     0.029 A 
ATOM     44  C   UNL A   1      39.373  29.712  29.647  1.00  0.00     0.049 A 
ATOM     45  H   UNL A   1      39.673  30.806  31.393  1.00  0.00     0.167 HD
ATOM     46  C   UNL A   1      40.263  33.290  34.957  1.00  0.00     0.037 A 
ATOM     47  C   UNL A   1      40.334  28.771  29.600  1.00  0.00     0.037 A 
ATOM     48  C   UNL A   1      41.266  32.261  35.040  1.00  0.00     0.049 A 
ATOM     49  C   UNL A   1      41.337  28.695  30.718  1.00  0.00     0.074 A 
ATOM     50  C   UNL A   1      42.191  32.040  36.045  1.00  0.00     0.029 A 
ATOM     51  N   UNL A   1      41.475  31.284  34.079  1.00  0.00    -0.354 N 
ATOM     52  N   UNL A   1      41.436  29.438  31.793  1.00  0.00    -0.248 NA
ATOM     53  C   UNL A   1      42.358  27.642  30.621  1.00  0.00     0.031 C 
ATOM     54  C   UNL A   1      42.997  30.963  35.664  1.00  0.00     0.029 A 
ATOM     55  C   UNL A   1      42.534  30.473  34.453  1.00  0.00     0.049 A 
ATOM     56  H   UNL A   1      40.949  31.181  33.252  1.00  0.00     0.167 HD
ATOM     57  C   UNL A   1      42.507  28.927  32.514  1.00  0.00     0.074 A 
ATOM     58  C   UNL A   1      43.016  27.800  31.761  1.00  0.00     0.031 C 
ATOM     59  C   UNL A   1      43.023  29.350  33.694  1.00  0.00     0.037 A 
BRANCH  46  60
ATOM     60  C   UNL A   1      40.206  34.326  36.042  1.00  0.00     0.057 A 
ATOM     61  C   UNL A   1      40.927  35.527  35.959  1.00  0.00     0.134 A 
ATOM     62  C   UNL A   1      39.402  34.135  37.172  1.00  0.00     0.134 A 
ATOM     63  F   UNL A   1      41.727  35.768  34.910  1.00  0.00    -0.206 F 
ATOM     64  C   UNL A   1      40.872  36.484  36.972  1.00  0.00     0.040 A 
ATOM     65  C   UNL A   1      39.314  35.100  38.178  1.00  0.00     0.040 A 
ATOM     66  F   UNL A   1      38.683  33.012  37.316  1.00  0.00    -0.206 F 
ATOM     67  C   UNL A   1      40.056  36.275  38.083  1.00  0.00     0.006 A 
ENDBRANCH  46  60
BRANCH  47  68
ATOM     68  C   UNL A   1      40.384  27.809  28.469  1.00  0.00     0.057 A 
ATOM     69  C   UNL A   1      39.742  26.567  28.546  1.00  0.00     0.134 A 
ATOM     70  C   UNL A   1      41.082  28.100  27.290  1.00  0.00     0.134 A 
ATOM     71  F   UNL A   1      39.072  26.222  29.654  1.00  0.00    -0.206 F 
ATOM     72  C   UNL A   1      39.812  25.640  27.505  1.00  0.00     0.040 A 
ATOM     73  C   UNL A   1      41.137  27.193  26.229  1.00  0.00     0.040 A 
ATOM     74  F   UNL A   1      41.711  29.275  27.147  1.00  0.00    -0.206 F 
ATOM     75  C   UNL A   1      40.508  25.955  26.339  1.00  0.00     0.006 A 
ENDBRANCH  47  68
BRANCH  59  76
ATOM     76  C   UNL A   1      44.172  28.569  34.265  1.00  0.00     0.057 A 
ATOM     77  C   UNL A   1      45.504  28.941  34.049  1.00  0.00     0.134 A 
ATOM     78  C   UNL A   1      43.936  27.452  35.077  1.00  0.00     0.134 A 
ATOM     79  F   UNL A   1      45.800  29.994  33.271  1.00  0.00    -0.206 F 
ATOM     80  C   UNL A   1      46.563  28.216  34.601  1.00  0.00     0.040 A 
ATOM     81  C   UNL A   1      44.984  26.738  35.660  1.00  0.00     0.040 A 
ATOM     82  F   UNL A   1      42.682  27.047  35.333  1.00  0.00    -0.206 F 
ATOM     83  C   UNL A   1      46.302  27.116  35.416  1.00  0.00     0.006 A 
ENDBRANCH  59  76
ENDBRANCH  33  34
ENDBRANCH  25  28
ENDBRANCH  23  24
ENDBRANCH  22  23
ENDBRANCH   1  22
TORSDOF 13
ENDMDL
