MODEL 1
REMARK VINA RESULT:     -11.1      0.000      0.000
REMARK SMILES CC[C@@H](C)[C@H](C(=O)NCCCCNC(=O)c1ccc(-c2c3nc(c(-c4c(F)cccc4F)c4ccc([nH]4)c(-c4c(F)cccc4F)c4nc(c(-c5c(F)cccc5F)c5ccc2[nH]5)C=C4)C=C3)cc1)S(=O)(=O)c1cccc(OC)c1
REMARK SMILES IDX 10 1 9 2 8 3 6 4 7 5 5 7 3 8 4 9 2 10 1 11 70 12 71 13 72 14
REMARK SMILES IDX 73 15 74 16 80 17 75 18 77 19 76 20 78 21 79 22 11 23 12 24
REMARK SMILES IDX 13 25 14 26 15 28 16 29 17 30 69 31 18 32 68 33 19 34 20 35
REMARK SMILES IDX 21 36 62 37 22 38 67 39 61 40 63 41 23 42 66 43 60 44 59 45
REMARK SMILES IDX 24 47 50 48 33 49 49 50 34 51 37 52 48 53 64 54 35 55 36 56
REMARK SMILES IDX 47 58 65 59 38 60 25 61 26 62 31 63 27 64 28 65 30 66 32 67
REMARK SMILES IDX 29 68 51 69 52 70 57 71 53 72 54 73 56 74 58 75 55 76 39 77
REMARK SMILES IDX 40 78 45 79 41 80 42 81 44 82 46 83 43 84
REMARK H PARENT 8 6 13 27 63 46 37 57
REMARK Flexibility Score: inf
ROOT
ATOM      1  C   UNL A   1      32.104  29.910  26.404  1.00  0.00     0.023 C 
ENDROOT
BRANCH   1   2
ATOM      2  C   UNL A   1      32.869  29.572  25.125  1.00  0.00     0.116 C 
BRANCH   2   3
ATOM      3  N   UNL A   1      32.020  29.600  23.958  1.00  0.00    -0.355 N 
ATOM      4  C   UNL A   1      31.356  28.627  23.287  1.00  0.00     0.239 C 
ATOM      5  O   UNL A   1      30.643  29.041  22.363  1.00  0.00    -0.274 OA
ATOM      6  H   UNL A   1      31.899  30.499  23.577  1.00  0.00     0.163 HD
BRANCH   4   7
ATOM      7  C   UNL A   1      31.465  27.135  23.550  1.00  0.00     0.205 C 
BRANCH   7   8
ATOM      8  C   UNL A   1      30.313  26.316  24.204  1.00  0.00     0.014 C 
ATOM      9  C   UNL A   1      28.870  26.704  23.876  1.00  0.00     0.009 C 
BRANCH   8  10
ATOM     10  C   UNL A   1      30.577  26.102  25.718  1.00  0.00     0.002 C 
ATOM     11  C   UNL A   1      31.031  24.708  26.128  1.00  0.00     0.004 C 
ENDBRANCH   8  10
ENDBRANCH   7   8
BRANCH   7  12
ATOM     12  S   UNL A   1      32.504  26.317  22.361  1.00  0.00     0.190 S 
ATOM     13  O   UNL A   1      31.720  25.954  21.195  1.00  0.00    -0.223 OA
ATOM     14  O   UNL A   1      33.675  27.161  22.182  1.00  0.00    -0.223 OA
BRANCH  12  15
ATOM     15  C   UNL A   1      33.105  24.772  23.010  1.00  0.00     0.071 A 
ATOM     16  C   UNL A   1      34.187  24.747  23.890  1.00  0.00     0.020 A 
ATOM     17  C   UNL A   1      32.406  23.592  22.720  1.00  0.00     0.066 A 
ATOM     18  C   UNL A   1      34.661  23.524  24.367  1.00  0.00     0.005 A 
ATOM     19  C   UNL A   1      32.838  22.382  23.263  1.00  0.00     0.120 A 
ATOM     20  C   UNL A   1      33.997  22.342  24.037  1.00  0.00     0.046 A 
BRANCH  19  21
ATOM     21  O   UNL A   1      32.205  21.185  23.066  1.00  0.00    -0.497 OA
ATOM     22  C   UNL A   1      32.529  20.191  24.038  1.00  0.00     0.278 C 
ENDBRANCH  19  21
ENDBRANCH  12  15
ENDBRANCH   7  12
ENDBRANCH   4   7
ENDBRANCH   2   3
ENDBRANCH   1   2
BRANCH   1  23
ATOM     23  C   UNL A   1      31.787  31.395  26.578  1.00  0.00     0.023 C 
BRANCH  23  24
ATOM     24  C   UNL A   1      32.879  32.216  27.251  1.00  0.00     0.116 C 
BRANCH  24  25
ATOM     25  N   UNL A   1      32.518  33.602  27.503  1.00  0.00    -0.352 N 
ATOM     26  C   UNL A   1      33.116  34.467  28.392  1.00  0.00     0.251 C 
ATOM     27  H   UNL A   1      31.763  33.961  26.982  1.00  0.00     0.163 HD
ATOM     28  O   UNL A   1      32.681  35.598  28.570  1.00  0.00    -0.269 OA
BRANCH  26  29
ATOM     29  C   UNL A   1      34.265  33.972  29.172  1.00  0.00     0.039 A 
ATOM     30  C   UNL A   1      34.028  33.121  30.253  1.00  0.00     0.014 A 
ATOM     31  C   UNL A   1      35.569  34.252  28.751  1.00  0.00     0.014 A 
ATOM     32  C   UNL A   1      35.105  32.482  30.866  1.00  0.00     0.010 A 
ATOM     33  C   UNL A   1      36.631  33.558  29.317  1.00  0.00     0.010 A 
ATOM     34  C   UNL A   1      36.408  32.662  30.374  1.00  0.00    -0.014 A 
BRANCH  34  35
ATOM     35  C   UNL A   1      37.552  31.911  30.944  1.00  0.00     0.031 A 
ATOM     36  C   UNL A   1      38.033  32.217  32.333  1.00  0.00     0.074 A 
ATOM     37  C   UNL A   1      38.199  31.004  30.187  1.00  0.00     0.049 A 
ATOM     38  N   UNL A   1      39.048  31.711  32.987  1.00  0.00    -0.248 NA
ATOM     39  C   UNL A   1      37.297  33.254  33.073  1.00  0.00     0.031 C 
ATOM     40  C   UNL A   1      37.871  30.665  28.801  1.00  0.00     0.029 A 
ATOM     41  N   UNL A   1      39.277  30.206  30.476  1.00  0.00    -0.354 N 
ATOM     42  C   UNL A   1      39.081  32.380  34.203  1.00  0.00     0.074 A 
ATOM     43  C   UNL A   1      38.022  33.364  34.177  1.00  0.00     0.031 C 
ATOM     44  C   UNL A   1      38.710  29.709  28.370  1.00  0.00     0.029 A 
ATOM     45  C   UNL A   1      39.650  29.386  29.439  1.00  0.00     0.049 A 
ATOM     46  H   UNL A   1      39.740  30.221  31.345  1.00  0.00     0.167 HD
ATOM     47  C   UNL A   1      39.904  32.175  35.258  1.00  0.00     0.037 A 
ATOM     48  C   UNL A   1      40.635  28.472  29.364  1.00  0.00     0.037 A 
ATOM     49  C   UNL A   1      40.933  31.171  35.298  1.00  0.00     0.049 A 
ATOM     50  C   UNL A   1      41.510  28.235  30.563  1.00  0.00     0.074 A 
ATOM     51  C   UNL A   1      41.776  30.839  36.344  1.00  0.00     0.029 A 
ATOM     52  N   UNL A   1      41.252  30.330  34.243  1.00  0.00    -0.354 N 
ATOM     53  N   UNL A   1      41.487  28.826  31.732  1.00  0.00    -0.248 NA
ATOM     54  C   UNL A   1      42.543  27.197  30.433  1.00  0.00     0.031 C 
ATOM     55  C   UNL A   1      42.625  29.813  35.912  1.00  0.00     0.029 A 
ATOM     56  C   UNL A   1      42.286  29.484  34.609  1.00  0.00     0.049 A 
ATOM     57  H   UNL A   1      40.810  30.332  33.363  1.00  0.00     0.167 HD
ATOM     58  C   UNL A   1      42.480  28.216  32.486  1.00  0.00     0.074 A 
ATOM     59  C   UNL A   1      43.079  27.200  31.646  1.00  0.00     0.031 C 
ATOM     60  C   UNL A   1      42.862  28.473  33.761  1.00  0.00     0.037 A 
BRANCH  47  61
ATOM     61  C   UNL A   1      39.708  33.051  36.459  1.00  0.00     0.057 A 
ATOM     62  C   UNL A   1      40.437  34.235  36.631  1.00  0.00     0.134 A 
ATOM     63  C   UNL A   1      38.776  32.715  37.448  1.00  0.00     0.134 A 
ATOM     64  F   UNL A   1      41.358  34.604  35.727  1.00  0.00    -0.206 F 
ATOM     65  C   UNL A   1      40.267  35.039  37.760  1.00  0.00     0.040 A 
ATOM     66  C   UNL A   1      38.580  33.524  38.568  1.00  0.00     0.040 A 
ATOM     67  F   UNL A   1      38.044  31.596  37.342  1.00  0.00    -0.206 F 
ATOM     68  C   UNL A   1      39.331  34.686  38.730  1.00  0.00     0.006 A 
ENDBRANCH  47  61
BRANCH  48  69
ATOM     69  C   UNL A   1      40.818  27.675  28.126  1.00  0.00     0.057 A 
ATOM     70  C   UNL A   1      41.617  28.149  27.079  1.00  0.00     0.134 A 
ATOM     71  C   UNL A   1      40.197  26.433  27.955  1.00  0.00     0.134 A 
ATOM     72  F   UNL A   1      42.224  29.340  27.181  1.00  0.00    -0.206 F 
ATOM     73  C   UNL A   1      41.778  27.424  25.897  1.00  0.00     0.040 A 
ATOM     74  C   UNL A   1      40.365  25.689  26.786  1.00  0.00     0.040 A 
ATOM     75  F   UNL A   1      39.425  25.922  28.926  1.00  0.00    -0.206 F 
ATOM     76  C   UNL A   1      41.153  26.188  25.750  1.00  0.00     0.006 A 
ENDBRANCH  48  69
BRANCH  60  77
ATOM     77  C   UNL A   1      43.957  27.623  34.329  1.00  0.00     0.057 A 
ATOM     78  C   UNL A   1      45.297  28.027  34.296  1.00  0.00     0.134 A 
ATOM     79  C   UNL A   1      43.661  26.400  34.946  1.00  0.00     0.134 A 
ATOM     80  F   UNL A   1      45.644  29.181  33.708  1.00  0.00    -0.206 F 
ATOM     81  C   UNL A   1      46.309  27.235  34.840  1.00  0.00     0.040 A 
ATOM     82  C   UNL A   1      44.662  25.610  35.512  1.00  0.00     0.040 A 
ATOM     83  F   UNL A   1      42.396  25.961  35.015  1.00  0.00    -0.206 F 
ATOM     84  C   UNL A   1      45.991  26.025  35.456  1.00  0.00     0.006 A 
ENDBRANCH  60  77
ENDBRANCH  34  35
ENDBRANCH  26  29
ENDBRANCH  24  25
ENDBRANCH  23  24
ENDBRANCH   1  23
TORSDOF 16
ENDMDL
MODEL 2
REMARK VINA RESULT:     -11.0      4.287      9.272
REMARK SMILES CC[C@@H](C)[C@H](C(=O)NCCCCNC(=O)c1ccc(-c2c3nc(c(-c4c(F)cccc4F)c4ccc([nH]4)c(-c4c(F)cccc4F)c4nc(c(-c5c(F)cccc5F)c5ccc2[nH]5)C=C4)C=C3)cc1)S(=O)(=O)c1cccc(OC)c1
REMARK SMILES IDX 10 1 9 2 8 3 6 4 7 5 5 7 3 8 4 9 2 10 1 11 70 12 71 13 72 14
REMARK SMILES IDX 73 15 74 16 80 17 75 18 77 19 76 20 78 21 79 22 11 23 12 24
REMARK SMILES IDX 13 25 14 26 15 28 16 29 17 30 69 31 18 32 68 33 19 34 20 35
REMARK SMILES IDX 21 36 62 37 22 38 67 39 61 40 63 41 23 42 66 43 60 44 59 45
REMARK SMILES IDX 24 47 50 48 33 49 49 50 34 51 37 52 48 53 64 54 35 55 36 56
REMARK SMILES IDX 47 58 65 59 38 60 25 61 26 62 31 63 27 64 28 65 30 66 32 67
REMARK SMILES IDX 29 68 51 69 52 70 57 71 53 72 54 73 56 74 58 75 55 76 39 77
REMARK SMILES IDX 40 78 45 79 41 80 42 81 44 82 46 83 43 84
REMARK H PARENT 8 6 13 27 63 46 37 57
REMARK Flexibility Score: inf
ROOT
ATOM      1  C   UNL A   1      36.973  22.129  24.577  1.00  0.00     0.023 C 
ENDROOT
BRANCH   1   2
ATOM      2  C   UNL A   1      36.233  22.763  25.753  1.00  0.00     0.116 C 
BRANCH   2   3
ATOM      3  N   UNL A   1      35.303  21.846  26.369  1.00  0.00    -0.355 N 
ATOM      4  C   UNL A   1      33.973  21.642  26.203  1.00  0.00     0.239 C 
ATOM      5  O   UNL A   1      33.517  20.693  26.854  1.00  0.00    -0.274 OA
ATOM      6  H   UNL A   1      35.714  21.254  27.039  1.00  0.00     0.163 HD
BRANCH   4   7
ATOM      7  C   UNL A   1      33.045  22.491  25.350  1.00  0.00     0.205 C 
BRANCH   7   8
ATOM      8  C   UNL A   1      32.776  22.182  23.848  1.00  0.00     0.014 C 
ATOM      9  C   UNL A   1      32.485  20.736  23.445  1.00  0.00     0.009 C 
BRANCH   8  10
ATOM     10  C   UNL A   1      33.819  22.889  22.942  1.00  0.00     0.002 C 
ATOM     11  C   UNL A   1      33.795  24.411  22.953  1.00  0.00     0.004 C 
ENDBRANCH   8  10
ENDBRANCH   7   8
BRANCH   7  12
ATOM     12  S   UNL A   1      31.732  23.216  26.306  1.00  0.00     0.190 S 
ATOM     13  O   UNL A   1      30.502  22.481  26.084  1.00  0.00    -0.223 OA
ATOM     14  O   UNL A   1      32.233  23.351  27.665  1.00  0.00    -0.223 OA
BRANCH  12  15
ATOM     15  C   UNL A   1      31.387  24.870  25.743  1.00  0.00     0.071 A 
ATOM     16  C   UNL A   1      30.482  25.089  24.703  1.00  0.00     0.020 A 
ATOM     17  C   UNL A   1      31.942  25.956  26.433  1.00  0.00     0.066 A 
ATOM     18  C   UNL A   1      30.244  26.390  24.258  1.00  0.00     0.005 A 
ATOM     19  C   UNL A   1      31.639  27.257  26.032  1.00  0.00     0.120 A 
ATOM     20  C   UNL A   1      30.838  27.470  24.911  1.00  0.00     0.046 A 
BRANCH  19  21
ATOM     21  O   UNL A   1      32.104  28.380  26.661  1.00  0.00    -0.497 OA
ATOM     22  C   UNL A   1      32.986  29.169  25.862  1.00  0.00     0.278 C 
ENDBRANCH  19  21
ENDBRANCH  12  15
ENDBRANCH   7  12
ENDBRANCH   4   7
ENDBRANCH   2   3
ENDBRANCH   1   2
BRANCH   1  23
ATOM     23  C   UNL A   1      37.635  20.788  24.894  1.00  0.00     0.023 C 
BRANCH  23  24
ATOM     24  C   UNL A   1      38.846  20.865  25.815  1.00  0.00     0.116 C 
BRANCH  24  25
ATOM     25  N   UNL A   1      39.766  19.745  25.690  1.00  0.00    -0.352 N 
ATOM     26  C   UNL A   1      41.103  19.730  26.017  1.00  0.00     0.251 C 
ATOM     27  H   UNL A   1      39.392  18.907  25.333  1.00  0.00     0.163 HD
ATOM     28  O   UNL A   1      41.799  18.744  25.805  1.00  0.00    -0.269 OA
BRANCH  26  29
ATOM     29  C   UNL A   1      41.693  20.960  26.578  1.00  0.00     0.039 A 
ATOM     30  C   UNL A   1      42.149  21.947  25.704  1.00  0.00     0.014 A 
ATOM     31  C   UNL A   1      41.673  21.177  27.959  1.00  0.00     0.014 A 
ATOM     32  C   UNL A   1      42.513  23.193  26.212  1.00  0.00     0.010 A 
ATOM     33  C   UNL A   1      41.967  22.442  28.454  1.00  0.00     0.010 A 
ATOM     34  C   UNL A   1      42.382  23.463  27.585  1.00  0.00    -0.014 A 
BRANCH  34  35
ATOM     35  C   UNL A   1      42.663  24.813  28.130  1.00  0.00     0.031 A 
ATOM     36  C   UNL A   1      44.057  25.174  28.557  1.00  0.00     0.074 A 
ATOM     37  C   UNL A   1      41.653  25.686  28.303  1.00  0.00     0.049 A 
ATOM     38  N   UNL A   1      44.492  26.279  29.107  1.00  0.00    -0.248 NA
ATOM     39  C   UNL A   1      45.091  24.143  28.375  1.00  0.00     0.031 C 
ATOM     40  C   UNL A   1      40.245  25.430  27.990  1.00  0.00     0.029 A 
ATOM     41  N   UNL A   1      41.654  26.967  28.796  1.00  0.00    -0.354 N 
ATOM     42  C   UNL A   1      45.842  26.069  29.351  1.00  0.00     0.074 A 
ATOM     43  C   UNL A   1      46.144  24.715  28.941  1.00  0.00     0.031 C 
ATOM     44  C   UNL A   1      39.525  26.529  28.270  1.00  0.00     0.029 A 
ATOM     45  C   UNL A   1      40.414  27.555  28.806  1.00  0.00     0.049 A 
ATOM     46  H   UNL A   1      42.468  27.420  29.113  1.00  0.00     0.167 HD
ATOM     47  C   UNL A   1      46.756  26.936  29.847  1.00  0.00     0.037 A 
ATOM     48  C   UNL A   1      40.038  28.788  29.197  1.00  0.00     0.037 A 
ATOM     49  C   UNL A   1      46.464  28.294  30.219  1.00  0.00     0.049 A 
ATOM     50  C   UNL A   1      41.078  29.744  29.707  1.00  0.00     0.074 A 
ATOM     51  C   UNL A   1      47.333  29.272  30.670  1.00  0.00     0.029 A 
ATOM     52  N   UNL A   1      45.203  28.867  30.174  1.00  0.00    -0.354 N 
ATOM     53  N   UNL A   1      42.365  29.556  29.869  1.00  0.00    -0.248 NA
ATOM     54  C   UNL A   1      40.614  31.088  30.082  1.00  0.00     0.031 C 
ATOM     55  C   UNL A   1      46.591  30.431  30.923  1.00  0.00     0.029 A 
ATOM     56  C   UNL A   1      45.267  30.185  30.598  1.00  0.00     0.049 A 
ATOM     57  H   UNL A   1      44.382  28.407  29.884  1.00  0.00     0.167 HD
ATOM     58  C   UNL A   1      42.870  30.762  30.337  1.00  0.00     0.074 A 
ATOM     59  C   UNL A   1      41.751  31.679  30.422  1.00  0.00     0.031 C 
ATOM     60  C   UNL A   1      44.144  31.083  30.667  1.00  0.00     0.037 A 
BRANCH  47  61
ATOM     61  C   UNL A   1      48.161  26.434  30.001  1.00  0.00     0.057 A 
ATOM     62  C   UNL A   1      48.599  25.826  31.184  1.00  0.00     0.134 A 
ATOM     63  C   UNL A   1      49.083  26.553  28.954  1.00  0.00     0.134 A 
ATOM     64  F   UNL A   1      47.767  25.699  32.231  1.00  0.00    -0.206 F 
ATOM     65  C   UNL A   1      49.913  25.378  31.332  1.00  0.00     0.040 A 
ATOM     66  C   UNL A   1      50.392  26.086  29.081  1.00  0.00     0.040 A 
ATOM     67  F   UNL A   1      48.728  27.123  27.794  1.00  0.00    -0.206 F 
ATOM     68  C   UNL A   1      50.812  25.503  30.276  1.00  0.00     0.006 A 
ENDBRANCH  47  61
BRANCH  48  69
ATOM     69  C   UNL A   1      38.620  29.206  29.076  1.00  0.00     0.057 A 
ATOM     70  C   UNL A   1      37.764  29.168  30.181  1.00  0.00     0.134 A 
ATOM     71  C   UNL A   1      38.087  29.646  27.859  1.00  0.00     0.134 A 
ATOM     72  F   UNL A   1      38.216  28.741  31.370  1.00  0.00    -0.206 F 
ATOM     73  C   UNL A   1      36.420  29.534  30.079  1.00  0.00     0.040 A 
ATOM     74  C   UNL A   1      36.750  30.033  27.747  1.00  0.00     0.040 A 
ATOM     75  F   UNL A   1      38.860  29.712  26.765  1.00  0.00    -0.206 F 
ATOM     76  C   UNL A   1      35.912  29.971  28.858  1.00  0.00     0.006 A 
ENDBRANCH  48  69
BRANCH  60  77
ATOM     77  C   UNL A   1      44.399  32.488  31.119  1.00  0.00     0.057 A 
ATOM     78  C   UNL A   1      44.699  33.512  30.212  1.00  0.00     0.134 A 
ATOM     79  C   UNL A   1      44.310  32.826  32.476  1.00  0.00     0.134 A 
ATOM     80  F   UNL A   1      44.810  33.247  28.902  1.00  0.00    -0.206 F 
ATOM     81  C   UNL A   1      44.921  34.821  30.641  1.00  0.00     0.040 A 
ATOM     82  C   UNL A   1      44.508  34.136  32.913  1.00  0.00     0.040 A 
ATOM     83  F   UNL A   1      44.020  31.892  33.392  1.00  0.00    -0.206 F 
ATOM     84  C   UNL A   1      44.820  35.137  31.995  1.00  0.00     0.006 A 
ENDBRANCH  60  77
ENDBRANCH  34  35
ENDBRANCH  26  29
ENDBRANCH  24  25
ENDBRANCH  23  24
ENDBRANCH   1  23
TORSDOF 16
ENDMDL
MODEL 3
REMARK VINA RESULT:     -11.0      0.888      1.342
REMARK SMILES CC[C@@H](C)[C@H](C(=O)NCCCCNC(=O)c1ccc(-c2c3nc(c(-c4c(F)cccc4F)c4ccc([nH]4)c(-c4c(F)cccc4F)c4nc(c(-c5c(F)cccc5F)c5ccc2[nH]5)C=C4)C=C3)cc1)S(=O)(=O)c1cccc(OC)c1
REMARK SMILES IDX 10 1 9 2 8 3 6 4 7 5 5 7 3 8 4 9 2 10 1 11 70 12 71 13 72 14
REMARK SMILES IDX 73 15 74 16 80 17 75 18 77 19 76 20 78 21 79 22 11 23 12 24
REMARK SMILES IDX 13 25 14 26 15 28 16 29 17 30 69 31 18 32 68 33 19 34 20 35
REMARK SMILES IDX 21 36 62 37 22 38 67 39 61 40 63 41 23 42 66 43 60 44 59 45
REMARK SMILES IDX 24 47 50 48 33 49 49 50 34 51 37 52 48 53 64 54 35 55 36 56
REMARK SMILES IDX 47 58 65 59 38 60 25 61 26 62 31 63 27 64 28 65 30 66 32 67
REMARK SMILES IDX 29 68 51 69 52 70 57 71 53 72 54 73 56 74 58 75 55 76 39 77
REMARK SMILES IDX 40 78 45 79 41 80 42 81 44 82 46 83 43 84
REMARK H PARENT 8 6 13 27 63 46 37 57
REMARK Flexibility Score: inf
ROOT
ATOM      1  C   UNL A   1      32.090  30.248  26.827  1.00  0.00     0.023 C 
ENDROOT
BRANCH   1   2
ATOM      2  C   UNL A   1      32.714  29.705  25.542  1.00  0.00     0.116 C 
BRANCH   2   3
ATOM      3  N   UNL A   1      31.792  29.740  24.432  1.00  0.00    -0.355 N 
ATOM      4  C   UNL A   1      31.126  28.767  23.765  1.00  0.00     0.239 C 
ATOM      5  O   UNL A   1      30.340  29.184  22.904  1.00  0.00    -0.274 OA
ATOM      6  H   UNL A   1      31.613  30.647  24.095  1.00  0.00     0.163 HD
BRANCH   4   7
ATOM      7  C   UNL A   1      31.308  27.271  23.962  1.00  0.00     0.205 C 
BRANCH   7   8
ATOM      8  C   UNL A   1      30.128  26.330  24.344  1.00  0.00     0.014 C 
ATOM      9  C   UNL A   1      28.722  26.698  23.867  1.00  0.00     0.009 C 
BRANCH   8  10
ATOM     10  C   UNL A   1      30.199  25.933  25.843  1.00  0.00     0.002 C 
ATOM     11  C   UNL A   1      30.595  24.493  26.137  1.00  0.00     0.004 C 
ENDBRANCH   8  10
ENDBRANCH   7   8
BRANCH   7  12
ATOM     12  S   UNL A   1      32.610  26.614  22.945  1.00  0.00     0.190 S 
ATOM     13  O   UNL A   1      32.043  26.016  21.751  1.00  0.00    -0.223 OA
ATOM     14  O   UNL A   1      33.597  27.673  22.797  1.00  0.00    -0.223 OA
BRANCH  12  15
ATOM     15  C   UNL A   1      33.443  25.278  23.777  1.00  0.00     0.071 A 
ATOM     16  C   UNL A   1      34.295  25.536  24.852  1.00  0.00     0.020 A 
ATOM     17  C   UNL A   1      33.143  23.957  23.418  1.00  0.00     0.066 A 
ATOM     18  C   UNL A   1      34.959  24.478  25.475  1.00  0.00     0.005 A 
ATOM     19  C   UNL A   1      33.751  22.901  24.096  1.00  0.00     0.120 A 
ATOM     20  C   UNL A   1      34.701  23.164  25.082  1.00  0.00     0.046 A 
BRANCH  19  21
ATOM     21  O   UNL A   1      33.499  21.580  23.841  1.00  0.00    -0.497 OA
ATOM     22  C   UNL A   1      32.276  21.105  24.402  1.00  0.00     0.278 C 
ENDBRANCH  19  21
ENDBRANCH  12  15
ENDBRANCH   7  12
ENDBRANCH   4   7
ENDBRANCH   2   3
ENDBRANCH   1   2
BRANCH   1  23
ATOM     23  C   UNL A   1      31.762  31.740  26.789  1.00  0.00     0.023 C 
BRANCH  23  24
ATOM     24  C   UNL A   1      32.846  32.657  27.341  1.00  0.00     0.116 C 
BRANCH  24  25
ATOM     25  N   UNL A   1      32.398  34.010  27.628  1.00  0.00    -0.352 N 
ATOM     26  C   UNL A   1      32.966  34.903  28.510  1.00  0.00     0.251 C 
ATOM     27  H   UNL A   1      31.602  34.322  27.141  1.00  0.00     0.163 HD
ATOM     28  O   UNL A   1      32.460  35.998  28.722  1.00  0.00    -0.269 OA
BRANCH  26  29
ATOM     29  C   UNL A   1      34.175  34.479  29.241  1.00  0.00     0.039 A 
ATOM     30  C   UNL A   1      34.026  33.801  30.451  1.00  0.00     0.014 A 
ATOM     31  C   UNL A   1      35.436  34.645  28.660  1.00  0.00     0.014 A 
ATOM     32  C   UNL A   1      35.143  33.214  31.046  1.00  0.00     0.010 A 
ATOM     33  C   UNL A   1      36.532  33.997  29.217  1.00  0.00     0.010 A 
ATOM     34  C   UNL A   1      36.394  33.271  30.410  1.00  0.00    -0.014 A 
BRANCH  34  35
ATOM     35  C   UNL A   1      37.571  32.564  30.972  1.00  0.00     0.031 A 
ATOM     36  C   UNL A   1      38.198  33.049  32.247  1.00  0.00     0.074 A 
ATOM     37  C   UNL A   1      38.113  31.532  30.299  1.00  0.00     0.049 A 
ATOM     38  N   UNL A   1      39.261  32.602  32.867  1.00  0.00    -0.248 NA
ATOM     39  C   UNL A   1      37.568  34.212  32.892  1.00  0.00     0.031 C 
ATOM     40  C   UNL A   1      37.636  31.009  29.016  1.00  0.00     0.029 A 
ATOM     41  N   UNL A   1      39.194  30.741  30.597  1.00  0.00    -0.354 N 
ATOM     42  C   UNL A   1      39.436  33.439  33.960  1.00  0.00     0.074 A 
ATOM     43  C   UNL A   1      38.405  34.451  33.892  1.00  0.00     0.031 C 
ATOM     44  C   UNL A   1      38.402  29.966  28.653  1.00  0.00     0.029 A 
ATOM     45  C   UNL A   1      39.437  29.764  29.662  1.00  0.00     0.049 A 
ATOM     46  H   UNL A   1      39.743  30.862  31.405  1.00  0.00     0.167 HD
ATOM     47  C   UNL A   1      40.356  33.355  34.950  1.00  0.00     0.037 A 
ATOM     48  C   UNL A   1      40.386  28.809  29.628  1.00  0.00     0.037 A 
ATOM     49  C   UNL A   1      41.357  32.326  35.038  1.00  0.00     0.049 A 
ATOM     50  C   UNL A   1      41.371  28.713  30.758  1.00  0.00     0.074 A 
ATOM     51  C   UNL A   1      42.294  32.116  36.035  1.00  0.00     0.029 A 
ATOM     52  N   UNL A   1      41.545  31.329  34.094  1.00  0.00    -0.354 N 
ATOM     53  N   UNL A   1      41.483  29.469  31.823  1.00  0.00    -0.248 NA
ATOM     54  C   UNL A   1      42.358  27.626  30.685  1.00  0.00     0.031 C 
ATOM     55  C   UNL A   1      43.067  31.004  35.680  1.00  0.00     0.029 A 
ATOM     56  C   UNL A   1      42.588  30.504  34.479  1.00  0.00     0.049 A 
ATOM     57  H   UNL A   1      41.015  31.222  33.271  1.00  0.00     0.167 HD
ATOM     58  C   UNL A   1      42.531  28.934  32.560  1.00  0.00     0.074 A 
ATOM     59  C   UNL A   1      43.015  27.783  31.826  1.00  0.00     0.031 C 
ATOM     60  C   UNL A   1      43.048  29.358  33.739  1.00  0.00     0.037 A 
BRANCH  47  61
ATOM     61  C   UNL A   1      40.306  34.404  36.020  1.00  0.00     0.057 A 
ATOM     62  C   UNL A   1      41.068  35.576  35.937  1.00  0.00     0.134 A 
ATOM     63  C   UNL A   1      39.483  34.246  37.141  1.00  0.00     0.134 A 
ATOM     64  F   UNL A   1      41.891  35.779  34.895  1.00  0.00    -0.206 F 
ATOM     65  C   UNL A   1      41.036  36.541  36.944  1.00  0.00     0.040 A 
ATOM     66  C   UNL A   1      39.423  35.216  38.143  1.00  0.00     0.040 A 
ATOM     67  F   UNL A   1      38.726  33.148  37.282  1.00  0.00    -0.206 F 
ATOM     68  C   UNL A   1      40.206  36.365  38.049  1.00  0.00     0.006 A 
ENDBRANCH  47  61
BRANCH  48  69
ATOM     69  C   UNL A   1      40.420  27.835  28.510  1.00  0.00     0.057 A 
ATOM     70  C   UNL A   1      41.132  28.112  27.338  1.00  0.00     0.134 A 
ATOM     71  C   UNL A   1      39.741  26.613  28.581  1.00  0.00     0.134 A 
ATOM     72  F   UNL A   1      41.789  29.274  27.208  1.00  0.00    -0.206 F 
ATOM     73  C   UNL A   1      41.154  27.218  26.266  1.00  0.00     0.040 A 
ATOM     74  C   UNL A   1      39.770  25.702  27.524  1.00  0.00     0.040 A 
ATOM     75  F   UNL A   1      39.046  26.287  29.681  1.00  0.00    -0.206 F 
ATOM     76  C   UNL A   1      40.473  26.007  26.360  1.00  0.00     0.006 A 
ENDBRANCH  48  69
BRANCH  60  77
ATOM     77  C   UNL A   1      44.173  28.555  34.318  1.00  0.00     0.057 A 
ATOM     78  C   UNL A   1      43.939  27.454  35.152  1.00  0.00     0.134 A 
ATOM     79  C   UNL A   1      45.503  28.868  34.011  1.00  0.00     0.134 A 
ATOM     80  F   UNL A   1      42.687  27.113  35.493  1.00  0.00    -0.206 F 
ATOM     81  C   UNL A   1      44.992  26.704  35.677  1.00  0.00     0.040 A 
ATOM     82  C   UNL A   1      46.562  28.111  34.512  1.00  0.00     0.040 A 
ATOM     83  F   UNL A   1      45.792  29.906  33.213  1.00  0.00    -0.206 F 
ATOM     84  C   UNL A   1      46.309  27.029  35.352  1.00  0.00     0.006 A 
ENDBRANCH  60  77
ENDBRANCH  34  35
ENDBRANCH  26  29
ENDBRANCH  24  25
ENDBRANCH  23  24
ENDBRANCH   1  23
TORSDOF 16
ENDMDL
