MODEL 1
REMARK VINA RESULT:     -11.5      0.000      0.000
REMARK SMILES C[NH2+][C@@]1(C(=O)NCCCCNC(=O)c2ccc(-c3c4nc(c(-c5c(F)cccc5F)c5ccc([nH]5)c(-c5c(F)cccc5F)c5nc(c(-c6c(F)cccc6F)c6ccc3[nH]6)C=C5)C=C4)cc2)CC[C@H](Sc2ccc(C)c(C)c2)C1
REMARK SMILES IDX 8 1 7 2 6 3 4 4 5 5 3 7 68 8 80 9 69 10 70 11 2 12 1 13
REMARK SMILES IDX 71 16 72 17 73 18 79 19 74 20 77 21 75 22 78 23 76 24 9 25
REMARK SMILES IDX 10 26 11 27 12 28 13 30 14 31 15 32 67 33 16 34 66 35 17 36
REMARK SMILES IDX 18 37 19 38 60 39 20 40 65 41 59 42 61 43 21 44 64 45 58 46
REMARK SMILES IDX 57 47 22 49 48 50 31 51 47 52 32 53 35 54 46 55 62 56 33 57
REMARK SMILES IDX 34 58 45 60 63 61 36 62 23 63 24 64 29 65 25 66 26 67 28 68
REMARK SMILES IDX 30 69 27 70 49 71 50 72 55 73 51 74 52 75 54 76 56 77 53 78
REMARK SMILES IDX 37 79 38 80 43 81 39 82 40 83 42 84 44 85 41 86
REMARK H PARENT 6 6 2 14 2 15 11 29 61 48 35 59
REMARK Flexibility Score: inf
ROOT
ATOM      1  C   UNL A   1      31.776  27.582  26.801  1.00  0.00     0.023 C 
ENDROOT
BRANCH   1   2
ATOM      2  C   UNL A   1      32.089  26.187  26.289  1.00  0.00     0.116 C 
BRANCH   2   3
ATOM      3  N   UNL A   1      31.299  25.162  26.910  1.00  0.00    -0.351 N 
ATOM      4  C   UNL A   1      31.373  23.803  26.827  1.00  0.00     0.281 C 
ATOM      5  O   UNL A   1      30.461  23.220  27.427  1.00  0.00    -0.268 OA
ATOM      6  H   UNL A   1      30.582  25.497  27.495  1.00  0.00     0.163 HD
BRANCH   4   7
ATOM      7  C   UNL A   1      32.526  23.029  26.038  1.00  0.00     0.176 C 
ATOM      8  C   UNL A   1      33.936  23.636  26.201  1.00  0.00     0.080 C 
ATOM      9  C   UNL A   1      32.255  23.041  24.512  1.00  0.00     0.094 C 
ATOM     10  C   UNL A   1      34.315  24.331  24.894  1.00  0.00     0.022 C 
ATOM     11  C   UNL A   1      33.499  23.636  23.812  1.00  0.00     0.058 C 
BRANCH   7  12
ATOM     12  N   UNL A   1      32.523  21.603  26.485  1.00  0.00    -0.336 N 
ATOM     13  C   UNL A   1      33.805  21.090  26.962  1.00  0.00     0.331 C 
ATOM     14  H   UNL A   1      31.846  21.513  27.242  1.00  0.00     0.346 HD
ATOM     15  H   UNL A   1      32.292  21.052  25.658  1.00  0.00     0.346 HD
ENDBRANCH   7  12
BRANCH  11  16
ATOM     16  S   UNL A   1      32.967  24.512  22.266  1.00  0.00    -0.122 SA
BRANCH  16  17
ATOM     17  C   UNL A   1      32.108  26.019  22.698  1.00  0.00     0.008 A 
ATOM     18  C   UNL A   1      32.639  27.290  22.524  1.00  0.00     0.015 A 
ATOM     19  C   UNL A   1      30.760  25.915  23.091  1.00  0.00     0.018 A 
ATOM     20  C   UNL A   1      31.856  28.426  22.763  1.00  0.00     0.005 A 
ATOM     21  C   UNL A   1      29.958  27.047  23.353  1.00  0.00    -0.047 A 
ATOM     22  C   UNL A   1      30.512  28.323  23.164  1.00  0.00    -0.048 A 
ATOM     23  C   UNL A   1      28.525  26.843  23.770  1.00  0.00     0.044 C 
ATOM     24  C   UNL A   1      29.725  29.600  23.309  1.00  0.00     0.044 C 
ENDBRANCH  16  17
ENDBRANCH  11  16
ENDBRANCH   4   7
ENDBRANCH   2   3
ENDBRANCH   1   2
BRANCH   1  25
ATOM     25  C   UNL A   1      32.716  28.675  26.331  1.00  0.00     0.023 C 
BRANCH  25  26
ATOM     26  C   UNL A   1      33.914  28.946  27.227  1.00  0.00     0.116 C 
BRANCH  26  27
ATOM     27  N   UNL A   1      33.863  30.186  27.996  1.00  0.00    -0.352 N 
ATOM     28  C   UNL A   1      34.912  30.844  28.605  1.00  0.00     0.251 C 
ATOM     29  H   UNL A   1      32.976  30.602  28.091  1.00  0.00     0.163 HD
ATOM     30  O   UNL A   1      34.799  31.944  29.110  1.00  0.00    -0.269 OA
BRANCH  28  31
ATOM     31  C   UNL A   1      36.200  30.144  28.681  1.00  0.00     0.039 A 
ATOM     32  C   UNL A   1      37.061  30.211  27.584  1.00  0.00     0.014 A 
ATOM     33  C   UNL A   1      36.586  29.554  29.882  1.00  0.00     0.014 A 
ATOM     34  C   UNL A   1      38.364  29.741  27.719  1.00  0.00     0.010 A 
ATOM     35  C   UNL A   1      37.908  29.178  30.042  1.00  0.00     0.010 A 
ATOM     36  C   UNL A   1      38.804  29.261  28.960  1.00  0.00    -0.014 A 
BRANCH  36  37
ATOM     37  C   UNL A   1      40.186  28.778  29.167  1.00  0.00     0.031 A 
ATOM     38  C   UNL A   1      41.202  29.739  29.712  1.00  0.00     0.074 A 
ATOM     39  C   UNL A   1      40.544  27.545  28.764  1.00  0.00     0.049 A 
ATOM     40  N   UNL A   1      42.502  29.626  29.772  1.00  0.00    -0.248 NA
ATOM     41  C   UNL A   1      40.684  31.027  30.207  1.00  0.00     0.031 C 
ATOM     42  C   UNL A   1      39.647  26.542  28.185  1.00  0.00     0.029 A 
ATOM     43  N   UNL A   1      41.772  26.935  28.759  1.00  0.00    -0.354 N 
ATOM     44  C   UNL A   1      42.957  30.843  30.262  1.00  0.00     0.074 A 
ATOM     45  C   UNL A   1      41.803  31.695  30.437  1.00  0.00     0.031 C 
ATOM     46  C   UNL A   1      40.355  25.439  27.890  1.00  0.00     0.029 A 
ATOM     47  C   UNL A   1      41.757  25.673  28.216  1.00  0.00     0.049 A 
ATOM     48  H   UNL A   1      42.587  27.361  29.110  1.00  0.00     0.167 HD
ATOM     49  C   UNL A   1      44.225  31.208  30.556  1.00  0.00     0.037 A 
ATOM     50  C   UNL A   1      42.770  24.816  27.992  1.00  0.00     0.037 A 
ATOM     51  C   UNL A   1      45.355  30.328  30.433  1.00  0.00     0.049 A 
ATOM     52  C   UNL A   1      44.167  25.229  28.369  1.00  0.00     0.074 A 
ATOM     53  C   UNL A   1      46.673  30.565  30.775  1.00  0.00     0.029 A 
ATOM     54  N   UNL A   1      45.290  29.034  29.939  1.00  0.00    -0.354 N 
ATOM     55  N   UNL A   1      44.585  26.367  28.870  1.00  0.00    -0.248 NA
ATOM     56  C   UNL A   1      45.231  24.240  28.153  1.00  0.00     0.031 C 
ATOM     57  C   UNL A   1      47.414  29.420  30.460  1.00  0.00     0.029 A 
ATOM     58  C   UNL A   1      46.549  28.459  29.960  1.00  0.00     0.049 A 
ATOM     59  H   UNL A   1      44.472  28.590  29.620  1.00  0.00     0.167 HD
ATOM     60  C   UNL A   1      45.954  26.222  29.054  1.00  0.00     0.074 A 
ATOM     61  C   UNL A   1      46.293  24.882  28.620  1.00  0.00     0.031 C 
ATOM     62  C   UNL A   1      46.852  27.116  29.534  1.00  0.00     0.037 A 
BRANCH  49  63
ATOM     63  C   UNL A   1      44.444  32.610  31.040  1.00  0.00     0.057 A 
ATOM     64  C   UNL A   1      44.407  32.938  32.402  1.00  0.00     0.134 A 
ATOM     65  C   UNL A   1      44.699  33.646  30.133  1.00  0.00     0.134 A 
ATOM     66  F   UNL A   1      44.148  31.997  33.322  1.00  0.00    -0.206 F 
ATOM     67  C   UNL A   1      44.586  34.251  32.842  1.00  0.00     0.040 A 
ATOM     68  C   UNL A   1      44.908  34.957  30.563  1.00  0.00     0.040 A 
ATOM     69  F   UNL A   1      44.747  33.401  28.815  1.00  0.00    -0.206 F 
ATOM     70  C   UNL A   1      44.843  35.264  31.921  1.00  0.00     0.006 A 
ENDBRANCH  49  63
BRANCH  50  71
ATOM     71  C   UNL A   1      42.500  23.480  27.403  1.00  0.00     0.057 A 
ATOM     72  C   UNL A   1      42.124  22.402  28.212  1.00  0.00     0.134 A 
ATOM     73  C   UNL A   1      42.607  23.248  26.027  1.00  0.00     0.134 A 
ATOM     74  F   UNL A   1      42.022  22.559  29.540  1.00  0.00    -0.206 F 
ATOM     75  C   UNL A   1      41.881  21.136  27.677  1.00  0.00     0.040 A 
ATOM     76  C   UNL A   1      42.345  21.992  25.476  1.00  0.00     0.040 A 
ATOM     77  F   UNL A   1      42.955  24.243  25.197  1.00  0.00    -0.206 F 
ATOM     78  C   UNL A   1      41.987  20.930  26.303  1.00  0.00     0.006 A 
ENDBRANCH  50  71
BRANCH  62  79
ATOM     79  C   UNL A   1      48.275  26.660  29.653  1.00  0.00     0.057 A 
ATOM     80  C   UNL A   1      48.738  25.973  30.780  1.00  0.00     0.134 A 
ATOM     81  C   UNL A   1      49.177  26.871  28.602  1.00  0.00     0.134 A 
ATOM     82  F   UNL A   1      47.924  25.753  31.825  1.00  0.00    -0.206 F 
ATOM     83  C   UNL A   1      50.056  25.524  30.866  1.00  0.00     0.040 A 
ATOM     84  C   UNL A   1      50.489  26.404  28.666  1.00  0.00     0.040 A 
ATOM     85  F   UNL A   1      48.791  27.515  27.490  1.00  0.00    -0.206 F 
ATOM     86  C   UNL A   1      50.933  25.733  29.803  1.00  0.00     0.006 A 
ENDBRANCH  62  79
ENDBRANCH  36  37
ENDBRANCH  28  31
ENDBRANCH  26  27
ENDBRANCH  25  26
ENDBRANCH   1  25
TORSDOF 14
ENDMDL
MODEL 2
REMARK VINA RESULT:     -11.5      3.488      7.011
REMARK SMILES C[NH2+][C@@]1(C(=O)NCCCCNC(=O)c2ccc(-c3c4nc(c(-c5c(F)cccc5F)c5ccc([nH]5)c(-c5c(F)cccc5F)c5nc(c(-c6c(F)cccc6F)c6ccc3[nH]6)C=C5)C=C4)cc2)CC[C@H](Sc2ccc(C)c(C)c2)C1
REMARK SMILES IDX 8 1 7 2 6 3 4 4 5 5 3 7 68 8 80 9 69 10 70 11 2 12 1 13
REMARK SMILES IDX 71 16 72 17 73 18 79 19 74 20 77 21 75 22 78 23 76 24 9 25
REMARK SMILES IDX 10 26 11 27 12 28 13 30 14 31 15 32 67 33 16 34 66 35 17 36
REMARK SMILES IDX 18 37 19 38 60 39 20 40 65 41 59 42 61 43 21 44 64 45 58 46
REMARK SMILES IDX 57 47 22 49 48 50 31 51 47 52 32 53 35 54 46 55 62 56 33 57
REMARK SMILES IDX 34 58 45 60 63 61 36 62 23 63 24 64 29 65 25 66 26 67 28 68
REMARK SMILES IDX 30 69 27 70 49 71 50 72 55 73 51 74 52 75 54 76 56 77 53 78
REMARK SMILES IDX 37 79 38 80 43 81 39 82 40 83 42 84 44 85 41 86
REMARK H PARENT 6 6 2 14 2 15 11 29 61 48 35 59
REMARK Flexibility Score: inf
ROOT
ATOM      1  C   UNL A   1      32.469  27.748  27.088  1.00  0.00     0.023 C 
ENDROOT
BRANCH   1   2
ATOM      2  C   UNL A   1      32.233  26.520  26.225  1.00  0.00     0.116 C 
BRANCH   2   3
ATOM      3  N   UNL A   1      31.427  25.521  26.868  1.00  0.00    -0.351 N 
ATOM      4  C   UNL A   1      31.454  24.160  26.783  1.00  0.00     0.281 C 
ATOM      5  O   UNL A   1      30.540  23.607  27.407  1.00  0.00    -0.268 OA
ATOM      6  H   UNL A   1      30.737  25.878  27.471  1.00  0.00     0.163 HD
BRANCH   4   7
ATOM      7  C   UNL A   1      32.560  23.350  25.962  1.00  0.00     0.176 C 
ATOM      8  C   UNL A   1      33.998  23.889  26.117  1.00  0.00     0.080 C 
ATOM      9  C   UNL A   1      32.269  23.403  24.441  1.00  0.00     0.094 C 
ATOM     10  C   UNL A   1      34.391  24.591  24.818  1.00  0.00     0.022 C 
ATOM     11  C   UNL A   1      33.529  23.954  23.734  1.00  0.00     0.058 C 
BRANCH   7  12
ATOM     12  N   UNL A   1      32.498  21.918  26.383  1.00  0.00    -0.336 N 
ATOM     13  C   UNL A   1      33.604  21.078  25.927  1.00  0.00     0.331 C 
ATOM     14  H   UNL A   1      32.482  21.890  27.402  1.00  0.00     0.346 HD
ATOM     15  H   UNL A   1      31.659  21.535  25.948  1.00  0.00     0.346 HD
ENDBRANCH   7  12
BRANCH  11  16
ATOM     16  S   UNL A   1      33.017  24.883  22.213  1.00  0.00    -0.122 SA
BRANCH  16  17
ATOM     17  C   UNL A   1      32.149  26.372  22.685  1.00  0.00     0.008 A 
ATOM     18  C   UNL A   1      32.700  27.645  22.615  1.00  0.00     0.015 A 
ATOM     19  C   UNL A   1      30.780  26.262  22.996  1.00  0.00     0.018 A 
ATOM     20  C   UNL A   1      31.915  28.774  22.877  1.00  0.00     0.005 A 
ATOM     21  C   UNL A   1      29.976  27.386  23.280  1.00  0.00    -0.047 A 
ATOM     22  C   UNL A   1      30.550  28.665  23.197  1.00  0.00    -0.048 A 
ATOM     23  C   UNL A   1      28.519  27.176  23.604  1.00  0.00     0.044 C 
ATOM     24  C   UNL A   1      29.768  29.940  23.373  1.00  0.00     0.044 C 
ENDBRANCH  16  17
ENDBRANCH  11  16
ENDBRANCH   4   7
ENDBRANCH   2   3
ENDBRANCH   1   2
BRANCH   1  25
ATOM     25  C   UNL A   1      31.710  28.993  26.670  1.00  0.00     0.023 C 
BRANCH  25  26
ATOM     26  C   UNL A   1      32.565  30.171  26.231  1.00  0.00     0.116 C 
BRANCH  26  27
ATOM     27  N   UNL A   1      32.121  31.483  26.691  1.00  0.00    -0.352 N 
ATOM     28  C   UNL A   1      32.860  32.437  27.361  1.00  0.00     0.251 C 
ATOM     29  H   UNL A   1      31.183  31.716  26.502  1.00  0.00     0.163 HD
ATOM     30  O   UNL A   1      32.446  33.557  27.586  1.00  0.00    -0.269 OA
BRANCH  28  31
ATOM     31  C   UNL A   1      34.183  32.042  27.861  1.00  0.00     0.039 A 
ATOM     32  C   UNL A   1      35.176  33.019  27.959  1.00  0.00     0.014 A 
ATOM     33  C   UNL A   1      34.371  30.751  28.349  1.00  0.00     0.014 A 
ATOM     34  C   UNL A   1      36.358  32.714  28.628  1.00  0.00     0.010 A 
ATOM     35  C   UNL A   1      35.505  30.484  29.096  1.00  0.00     0.010 A 
ATOM     36  C   UNL A   1      36.509  31.459  29.235  1.00  0.00    -0.014 A 
BRANCH  36  37
ATOM     37  C   UNL A   1      37.731  31.095  29.984  1.00  0.00     0.031 A 
ATOM     38  C   UNL A   1      38.717  30.170  29.332  1.00  0.00     0.074 A 
ATOM     39  C   UNL A   1      37.891  31.491  31.260  1.00  0.00     0.049 A 
ATOM     40  N   UNL A   1      39.733  29.538  29.857  1.00  0.00    -0.248 NA
ATOM     41  C   UNL A   1      38.493  29.875  27.906  1.00  0.00     0.031 C 
ATOM     42  C   UNL A   1      36.976  32.359  32.005  1.00  0.00     0.029 A 
ATOM     43  N   UNL A   1      38.875  31.190  32.166  1.00  0.00    -0.354 N 
ATOM     44  C   UNL A   1      40.234  28.736  28.840  1.00  0.00     0.074 A 
ATOM     45  C   UNL A   1      39.385  28.923  27.685  1.00  0.00     0.031 C 
ATOM     46  C   UNL A   1      37.448  32.527  33.251  1.00  0.00     0.029 A 
ATOM     47  C   UNL A   1      38.670  31.745  33.406  1.00  0.00     0.049 A 
ATOM     48  H   UNL A   1      39.654  30.629  31.948  1.00  0.00     0.167 HD
ATOM     49  C   UNL A   1      41.319  27.929  28.865  1.00  0.00     0.037 A 
ATOM     50  C   UNL A   1      39.383  31.617  34.539  1.00  0.00     0.037 A 
ATOM     51  C   UNL A   1      42.188  27.800  30.002  1.00  0.00     0.049 A 
ATOM     52  C   UNL A   1      40.611  30.748  34.530  1.00  0.00     0.074 A 
ATOM     53  C   UNL A   1      43.357  27.072  30.115  1.00  0.00     0.029 A 
ATOM     54  N   UNL A   1      41.983  28.429  31.221  1.00  0.00    -0.354 N 
ATOM     55  N   UNL A   1      41.103  30.024  33.552  1.00  0.00    -0.248 NA
ATOM     56  C   UNL A   1      41.385  30.680  35.777  1.00  0.00     0.031 C 
ATOM     57  C   UNL A   1      43.847  27.239  31.415  1.00  0.00     0.029 A 
ATOM     58  C   UNL A   1      43.003  28.101  32.097  1.00  0.00     0.049 A 
ATOM     59  H   UNL A   1      41.225  29.020  31.432  1.00  0.00     0.167 HD
ATOM     60  C   UNL A   1      42.255  29.436  34.056  1.00  0.00     0.074 A 
ATOM     61  C   UNL A   1      42.394  29.897  35.423  1.00  0.00     0.031 C 
ATOM     62  C   UNL A   1      43.120  28.588  33.448  1.00  0.00     0.037 A 
BRANCH  49  63
ATOM     63  C   UNL A   1      41.618  27.137  27.627  1.00  0.00     0.057 A 
ATOM     64  C   UNL A   1      41.137  25.834  27.446  1.00  0.00     0.134 A 
ATOM     65  C   UNL A   1      42.394  27.687  26.599  1.00  0.00     0.134 A 
ATOM     66  F   UNL A   1      40.404  25.240  28.401  1.00  0.00    -0.206 F 
ATOM     67  C   UNL A   1      41.443  25.094  26.302  1.00  0.00     0.040 A 
ATOM     68  C   UNL A   1      42.682  26.968  25.439  1.00  0.00     0.040 A 
ATOM     69  F   UNL A   1      42.886  28.930  26.708  1.00  0.00    -0.206 F 
ATOM     70  C   UNL A   1      42.213  25.665  25.291  1.00  0.00     0.006 A 
ENDBRANCH  49  63
BRANCH  50  71
ATOM     71  C   UNL A   1      38.968  32.341  35.767  1.00  0.00     0.057 A 
ATOM     72  C   UNL A   1      38.188  31.709  36.743  1.00  0.00     0.134 A 
ATOM     73  C   UNL A   1      39.339  33.670  35.998  1.00  0.00     0.134 A 
ATOM     74  F   UNL A   1      37.788  30.441  36.570  1.00  0.00    -0.206 F 
ATOM     75  C   UNL A   1      37.777  32.379  37.897  1.00  0.00     0.040 A 
ATOM     76  C   UNL A   1      38.953  34.345  37.158  1.00  0.00     0.040 A 
ATOM     77  F   UNL A   1      40.093  34.328  35.106  1.00  0.00    -0.206 F 
ATOM     78  C   UNL A   1      38.163  33.701  38.109  1.00  0.00     0.006 A 
ENDBRANCH  50  71
BRANCH  62  79
ATOM     79  C   UNL A   1      44.311  28.139  34.241  1.00  0.00     0.057 A 
ATOM     80  C   UNL A   1      45.502  28.872  34.261  1.00  0.00     0.134 A 
ATOM     81  C   UNL A   1      44.242  26.985  35.031  1.00  0.00     0.134 A 
ATOM     82  F   UNL A   1      45.633  29.980  33.515  1.00  0.00    -0.206 F 
ATOM     83  C   UNL A   1      46.593  28.463  35.029  1.00  0.00     0.040 A 
ATOM     84  C   UNL A   1      45.316  26.581  35.822  1.00  0.00     0.040 A 
ATOM     85  F   UNL A   1      43.123  26.245  35.062  1.00  0.00    -0.206 F 
ATOM     86  C   UNL A   1      46.498  27.318  35.818  1.00  0.00     0.006 A 
ENDBRANCH  62  79
ENDBRANCH  36  37
ENDBRANCH  28  31
ENDBRANCH  26  27
ENDBRANCH  25  26
ENDBRANCH   1  25
TORSDOF 14
ENDMDL
MODEL 3
REMARK VINA RESULT:     -11.5      2.837      7.106
REMARK SMILES C[NH2+][C@@]1(C(=O)NCCCCNC(=O)c2ccc(-c3c4nc(c(-c5c(F)cccc5F)c5ccc([nH]5)c(-c5c(F)cccc5F)c5nc(c(-c6c(F)cccc6F)c6ccc3[nH]6)C=C5)C=C4)cc2)CC[C@H](Sc2ccc(C)c(C)c2)C1
REMARK SMILES IDX 8 1 7 2 6 3 4 4 5 5 3 7 68 8 80 9 69 10 70 11 2 12 1 13
REMARK SMILES IDX 71 16 72 17 73 18 79 19 74 20 77 21 75 22 78 23 76 24 9 25
REMARK SMILES IDX 10 26 11 27 12 28 13 30 14 31 15 32 67 33 16 34 66 35 17 36
REMARK SMILES IDX 18 37 19 38 60 39 20 40 65 41 59 42 61 43 21 44 64 45 58 46
REMARK SMILES IDX 57 47 22 49 48 50 31 51 47 52 32 53 35 54 46 55 62 56 33 57
REMARK SMILES IDX 34 58 45 60 63 61 36 62 23 63 24 64 29 65 25 66 26 67 28 68
REMARK SMILES IDX 30 69 27 70 49 71 50 72 55 73 51 74 52 75 54 76 56 77 53 78
REMARK SMILES IDX 37 79 38 80 43 81 39 82 40 83 42 84 44 85 41 86
REMARK H PARENT 6 6 2 14 2 15 11 29 61 48 35 59
REMARK Flexibility Score: inf
ROOT
ATOM      1  C   UNL A   1      37.382  20.873  24.889  1.00  0.00     0.023 C 
ENDROOT
BRANCH   1   2
ATOM      2  C   UNL A   1      35.905  20.700  25.203  1.00  0.00     0.116 C 
BRANCH   2   3
ATOM      3  N   UNL A   1      35.370  21.755  26.016  1.00  0.00    -0.351 N 
ATOM      4  C   UNL A   1      34.133  22.327  26.036  1.00  0.00     0.281 C 
ATOM      5  O   UNL A   1      34.045  23.290  26.809  1.00  0.00    -0.268 OA
ATOM      6  H   UNL A   1      36.004  22.129  26.669  1.00  0.00     0.163 HD
BRANCH   4   7
ATOM      7  C   UNL A   1      32.906  21.809  25.153  1.00  0.00     0.176 C 
ATOM      8  C   UNL A   1      33.227  21.625  23.655  1.00  0.00     0.080 C 
ATOM      9  C   UNL A   1      31.730  22.817  25.195  1.00  0.00     0.094 C 
ATOM     10  C   UNL A   1      32.552  22.753  22.875  1.00  0.00     0.022 C 
ATOM     11  C   UNL A   1      31.376  23.195  23.737  1.00  0.00     0.058 C 
BRANCH   7  12
ATOM     12  N   UNL A   1      32.419  20.524  25.738  1.00  0.00    -0.336 N 
ATOM     13  C   UNL A   1      32.533  19.353  24.872  1.00  0.00     0.331 C 
ATOM     14  H   UNL A   1      32.955  20.341  26.586  1.00  0.00     0.346 HD
ATOM     15  H   UNL A   1      31.420  20.653  25.903  1.00  0.00     0.346 HD
ENDBRANCH   7  12
BRANCH  11  16
ATOM     16  S   UNL A   1      30.727  24.933  23.699  1.00  0.00    -0.122 SA
BRANCH  16  17
ATOM     17  C   UNL A   1      31.827  26.002  24.615  1.00  0.00     0.008 A 
ATOM     18  C   UNL A   1      33.120  26.311  24.214  1.00  0.00     0.015 A 
ATOM     19  C   UNL A   1      31.298  26.691  25.723  1.00  0.00     0.018 A 
ATOM     20  C   UNL A   1      33.874  27.260  24.916  1.00  0.00     0.005 A 
ATOM     21  C   UNL A   1      32.047  27.638  26.454  1.00  0.00    -0.047 A 
ATOM     22  C   UNL A   1      33.349  27.942  26.028  1.00  0.00    -0.048 A 
ATOM     23  C   UNL A   1      31.401  28.328  27.628  1.00  0.00     0.044 C 
ATOM     24  C   UNL A   1      34.204  29.009  26.661  1.00  0.00     0.044 C 
ENDBRANCH  16  17
ENDBRANCH  11  16
ENDBRANCH   4   7
ENDBRANCH   2   3
ENDBRANCH   1   2
BRANCH   1  25
ATOM     25  C   UNL A   1      38.219  19.612  24.980  1.00  0.00     0.023 C 
BRANCH  25  26
ATOM     26  C   UNL A   1      39.295  19.610  26.055  1.00  0.00     0.116 C 
BRANCH  26  27
ATOM     27  N   UNL A   1      40.494  18.836  25.749  1.00  0.00    -0.352 N 
ATOM     28  C   UNL A   1      41.807  19.189  25.983  1.00  0.00     0.251 C 
ATOM     29  H   UNL A   1      40.350  17.958  25.326  1.00  0.00     0.163 HD
ATOM     30  O   UNL A   1      42.738  18.423  25.819  1.00  0.00    -0.269 OA
BRANCH  28  31
ATOM     31  C   UNL A   1      42.075  20.572  26.397  1.00  0.00     0.039 A 
ATOM     32  C   UNL A   1      42.262  20.836  27.754  1.00  0.00     0.014 A 
ATOM     33  C   UNL A   1      42.272  21.549  25.424  1.00  0.00     0.014 A 
ATOM     34  C   UNL A   1      42.728  22.091  28.140  1.00  0.00     0.010 A 
ATOM     35  C   UNL A   1      42.826  22.759  25.802  1.00  0.00     0.010 A 
ATOM     36  C   UNL A   1      43.050  23.042  27.162  1.00  0.00    -0.014 A 
BRANCH  36  37
ATOM     37  C   UNL A   1      43.578  24.377  27.514  1.00  0.00     0.031 A 
ATOM     38  C   UNL A   1      42.608  25.429  27.970  1.00  0.00     0.074 A 
ATOM     39  C   UNL A   1      44.877  24.670  27.318  1.00  0.00     0.049 A 
ATOM     40  N   UNL A   1      42.789  26.714  28.119  1.00  0.00    -0.248 NA
ATOM     41  C   UNL A   1      41.233  24.976  28.240  1.00  0.00     0.031 C 
ATOM     42  C   UNL A   1      45.900  23.736  26.843  1.00  0.00     0.029 A 
ATOM     43  N   UNL A   1      45.553  25.853  27.471  1.00  0.00    -0.354 N 
ATOM     44  C   UNL A   1      41.541  27.226  28.449  1.00  0.00     0.074 A 
ATOM     45  C   UNL A   1      40.605  26.125  28.432  1.00  0.00     0.031 C 
ATOM     46  C   UNL A   1      47.075  24.381  26.752  1.00  0.00     0.029 A 
ATOM     47  C   UNL A   1      46.878  25.779  27.119  1.00  0.00     0.049 A 
ATOM     48  H   UNL A   1      45.128  26.677  27.802  1.00  0.00     0.167 HD
ATOM     49  C   UNL A   1      41.212  28.501  28.758  1.00  0.00     0.037 A 
ATOM     50  C   UNL A   1      47.818  26.741  27.082  1.00  0.00     0.037 A 
ATOM     51  C   UNL A   1      42.166  29.574  28.830  1.00  0.00     0.049 A 
ATOM     52  C   UNL A   1      47.437  28.143  27.472  1.00  0.00     0.074 A 
ATOM     53  C   UNL A   1      41.960  30.887  29.207  1.00  0.00     0.029 A 
ATOM     54  N   UNL A   1      43.514  29.445  28.528  1.00  0.00    -0.354 N 
ATOM     55  N   UNL A   1      46.264  28.613  27.824  1.00  0.00    -0.248 NA
ATOM     56  C   UNL A   1      48.510  29.148  27.463  1.00  0.00     0.031 C 
ATOM     57  C   UNL A   1      43.180  31.563  29.106  1.00  0.00     0.029 A 
ATOM     58  C   UNL A   1      44.153  30.660  28.704  1.00  0.00     0.049 A 
ATOM     59  H   UNL A   1      43.951  28.615  28.232  1.00  0.00     0.167 HD
ATOM     60  C   UNL A   1      46.460  29.959  28.103  1.00  0.00     0.074 A 
ATOM     61  C   UNL A   1      47.869  30.227  27.891  1.00  0.00     0.031 C 
ATOM     62  C   UNL A   1      45.560  30.892  28.497  1.00  0.00     0.037 A 
BRANCH  49  63
ATOM     63  C   UNL A   1      39.769  28.790  29.043  1.00  0.00     0.057 A 
ATOM     64  C   UNL A   1      39.226  28.658  30.328  1.00  0.00     0.134 A 
ATOM     65  C   UNL A   1      38.910  29.211  28.020  1.00  0.00     0.134 A 
ATOM     66  F   UNL A   1      39.989  28.240  31.350  1.00  0.00    -0.206 F 
ATOM     67  C   UNL A   1      37.874  28.904  30.579  1.00  0.00     0.040 A 
ATOM     68  C   UNL A   1      37.565  29.488  28.265  1.00  0.00     0.040 A 
ATOM     69  F   UNL A   1      39.365  29.358  26.766  1.00  0.00    -0.206 F 
ATOM     70  C   UNL A   1      37.042  29.326  29.545  1.00  0.00     0.006 A 
ENDBRANCH  49  63
BRANCH  50  71
ATOM     71  C   UNL A   1      49.209  26.410  26.680  1.00  0.00     0.057 A 
ATOM     72  C   UNL A   1      49.641  26.606  25.363  1.00  0.00     0.134 A 
ATOM     73  C   UNL A   1      50.136  25.896  27.593  1.00  0.00     0.134 A 
ATOM     74  F   UNL A   1      48.793  27.080  24.439  1.00  0.00    -0.206 F 
ATOM     75  C   UNL A   1      50.940  26.287  24.964  1.00  0.00     0.040 A 
ATOM     76  C   UNL A   1      51.445  25.593  27.213  1.00  0.00     0.040 A 
ATOM     77  F   UNL A   1      49.786  25.693  28.872  1.00  0.00    -0.206 F 
ATOM     78  C   UNL A   1      51.848  25.782  25.893  1.00  0.00     0.006 A 
ENDBRANCH  50  71
BRANCH  62  79
ATOM     79  C   UNL A   1      46.077  32.274  28.762  1.00  0.00     0.057 A 
ATOM     80  C   UNL A   1      46.565  32.651  30.017  1.00  0.00     0.134 A 
ATOM     81  C   UNL A   1      46.130  33.220  27.730  1.00  0.00     0.134 A 
ATOM     82  F   UNL A   1      46.529  31.791  31.048  1.00  0.00    -0.206 F 
ATOM     83  C   UNL A   1      47.075  33.929  30.244  1.00  0.00     0.040 A 
ATOM     84  C   UNL A   1      46.661  34.492  27.938  1.00  0.00     0.040 A 
ATOM     85  F   UNL A   1      45.686  32.915  26.502  1.00  0.00    -0.206 F 
ATOM     86  C   UNL A   1      47.130  34.852  29.200  1.00  0.00     0.006 A 
ENDBRANCH  62  79
ENDBRANCH  36  37
ENDBRANCH  28  31
ENDBRANCH  26  27
ENDBRANCH  25  26
ENDBRANCH   1  25
TORSDOF 14
ENDMDL
