MODEL 1
REMARK VINA RESULT:     -11.8      0.000      0.000
REMARK SMILES COc1ccc(/C=C(/Sc2nc(C)n[nH]2)C(=O)NCCCCNC(=O)c2ccc(-c3c4nc(c(-c5c(F)cccc5F)c5ccc([nH]5)c(-c5c(F)cccc5F)c5nc(c(-c6c(F)cccc6F)c6ccc3[nH]6)C=C5)C=C4)cc2)cc1OC
REMARK SMILES IDX 20 1 19 2 18 3 16 4 17 5 8 7 7 8 6 9 3 10 4 11 81 12 5 13
REMARK SMILES IDX 80 14 2 15 1 16 82 17 83 18 9 19 10 20 11 21 15 22 12 23
REMARK SMILES IDX 14 24 13 26 21 27 22 28 23 29 24 30 25 32 26 33 27 34 79 35
REMARK SMILES IDX 28 36 78 37 29 38 30 39 31 40 72 41 32 42 77 43 71 44 73 45
REMARK SMILES IDX 33 46 76 47 70 48 69 49 34 51 60 52 43 53 59 54 44 55 47 56
REMARK SMILES IDX 58 57 74 58 45 59 46 60 57 62 75 63 48 64 35 65 36 66 41 67
REMARK SMILES IDX 37 68 38 69 40 70 42 71 39 72 61 73 62 74 67 75 63 76 64 77
REMARK SMILES IDX 66 78 68 79 65 80 49 81 50 82 55 83 51 84 52 85 54 86 56 87
REMARK SMILES IDX 53 88
REMARK H PARENT 18 6 15 25 23 31 73 50 47 61
REMARK Flexibility Score: inf
ROOT
ATOM      1  C   UNL A   1      32.036  29.481  26.241  1.00  0.00     0.023 C 
ENDROOT
BRANCH   1   2
ATOM      2  C   UNL A   1      31.129  30.210  25.251  1.00  0.00     0.116 C 
BRANCH   2   3
ATOM      3  N   UNL A   1      31.285  29.843  23.845  1.00  0.00    -0.352 N 
ATOM      4  C   UNL A   1      30.543  29.098  22.963  1.00  0.00     0.258 C 
ATOM      5  O   UNL A   1      30.701  29.376  21.771  1.00  0.00    -0.269 OA
ATOM      6  H   UNL A   1      32.104  30.213  23.441  1.00  0.00     0.163 HD
BRANCH   4   7
ATOM      7  C   UNL A   1      29.593  27.986  23.371  1.00  0.00     0.081 C 
ATOM      8  C   UNL A   1      30.026  26.726  23.626  1.00  0.00     0.029 C 
BRANCH   8   9
ATOM      9  C   UNL A   1      31.352  26.036  23.546  1.00  0.00    -0.020 A 
ATOM     10  C   UNL A   1      33.856  24.728  23.111  1.00  0.00     0.160 A 
ATOM     11  C   UNL A   1      33.428  25.073  24.400  1.00  0.00     0.051 A 
ATOM     12  C   UNL A   1      33.027  25.004  22.024  1.00  0.00     0.161 A 
ATOM     13  C   UNL A   1      32.184  25.698  24.614  1.00  0.00     0.012 A 
ATOM     14  C   UNL A   1      31.802  25.665  22.259  1.00  0.00     0.058 A 
BRANCH  10  15
ATOM     15  O   UNL A   1      34.996  23.976  23.005  1.00  0.00    -0.493 OA
ATOM     16  C   UNL A   1      34.934  22.758  23.746  1.00  0.00     0.278 C 
ENDBRANCH  10  15
BRANCH  12  17
ATOM     17  O   UNL A   1      33.206  24.696  20.702  1.00  0.00    -0.493 OA
ATOM     18  C   UNL A   1      32.496  25.423  19.713  1.00  0.00     0.278 C 
ENDBRANCH  12  17
ENDBRANCH   8   9
BRANCH   7  19
ATOM     19  S   UNL A   1      27.909  28.399  23.152  1.00  0.00    -0.045 SA
BRANCH  19  20
ATOM     20  C   UNL A   1      27.775  30.055  22.730  1.00  0.00     0.188 A 
ATOM     21  N   UNL A   1      28.093  31.066  23.506  1.00  0.00    -0.206 NA
ATOM     22  N   UNL A   1      27.794  30.460  21.430  1.00  0.00    -0.254 N 
ATOM     23  C   UNL A   1      28.339  32.080  22.612  1.00  0.00     0.148 A 
ATOM     24  N   UNL A   1      28.127  31.759  21.328  1.00  0.00    -0.158 NA
ATOM     25  H   UNL A   1      27.591  29.878  20.664  1.00  0.00     0.192 HD
ATOM     26  C   UNL A   1      28.939  33.367  23.026  1.00  0.00     0.092 C 
ENDBRANCH  19  20
ENDBRANCH   7  19
ENDBRANCH   4   7
ENDBRANCH   2   3
ENDBRANCH   1   2
BRANCH   1  27
ATOM     27  C   UNL A   1      33.550  29.588  26.023  1.00  0.00     0.023 C 
BRANCH  27  28
ATOM     28  C   UNL A   1      34.392  29.753  27.281  1.00  0.00     0.116 C 
BRANCH  28  29
ATOM     29  N   UNL A   1      34.269  31.065  27.925  1.00  0.00    -0.352 N 
ATOM     30  C   UNL A   1      34.937  31.512  29.051  1.00  0.00     0.251 C 
ATOM     31  H   UNL A   1      33.640  31.698  27.508  1.00  0.00     0.163 HD
ATOM     32  O   UNL A   1      34.498  32.441  29.730  1.00  0.00    -0.269 OA
BRANCH  30  33
ATOM     33  C   UNL A   1      36.210  30.871  29.414  1.00  0.00     0.039 A 
ATOM     34  C   UNL A   1      36.279  29.613  30.020  1.00  0.00     0.014 A 
ATOM     35  C   UNL A   1      37.368  31.564  29.080  1.00  0.00     0.014 A 
ATOM     36  C   UNL A   1      37.533  29.034  30.211  1.00  0.00     0.010 A 
ATOM     37  C   UNL A   1      38.571  30.918  29.085  1.00  0.00     0.010 A 
ATOM     38  C   UNL A   1      38.675  29.691  29.723  1.00  0.00    -0.014 A 
BRANCH  38  39
ATOM     39  C   UNL A   1      39.992  29.067  29.746  1.00  0.00     0.031 A 
ATOM     40  C   UNL A   1      40.565  28.927  31.113  1.00  0.00     0.074 A 
ATOM     41  C   UNL A   1      40.515  28.439  28.666  1.00  0.00     0.049 A 
ATOM     42  N   UNL A   1      41.606  29.515  31.598  1.00  0.00    -0.248 NA
ATOM     43  C   UNL A   1      39.797  28.160  32.112  1.00  0.00     0.031 C 
ATOM     44  C   UNL A   1      39.898  28.205  27.353  1.00  0.00     0.029 A 
ATOM     45  N   UNL A   1      41.694  27.772  28.553  1.00  0.00    -0.354 N 
ATOM     46  C   UNL A   1      41.760  29.010  32.887  1.00  0.00     0.074 A 
ATOM     47  C   UNL A   1      40.521  28.356  33.215  1.00  0.00     0.031 C 
ATOM     48  C   UNL A   1      40.593  27.261  26.680  1.00  0.00     0.029 A 
ATOM     49  C   UNL A   1      41.797  26.955  27.425  1.00  0.00     0.049 A 
ATOM     50  H   UNL A   1      42.418  27.858  29.213  1.00  0.00     0.167 HD
ATOM     51  C   UNL A   1      42.992  28.929  33.462  1.00  0.00     0.037 A 
ATOM     52  C   UNL A   1      42.798  26.076  27.161  1.00  0.00     0.037 A 
ATOM     53  C   UNL A   1      43.936  29.786  32.785  1.00  0.00     0.049 A 
ATOM     54  C   UNL A   1      43.945  26.452  28.027  1.00  0.00     0.074 A 
ATOM     55  C   UNL A   1      43.984  31.139  32.502  1.00  0.00     0.029 A 
ATOM     56  N   UNL A   1      44.828  29.200  31.920  1.00  0.00    -0.354 N 
ATOM     57  N   UNL A   1      44.629  27.552  27.884  1.00  0.00    -0.248 NA
ATOM     58  C   UNL A   1      44.004  25.839  29.345  1.00  0.00     0.031 C 
ATOM     59  C   UNL A   1      44.479  31.215  31.166  1.00  0.00     0.029 A 
ATOM     60  C   UNL A   1      44.794  29.920  30.752  1.00  0.00     0.049 A 
ATOM     61  H   UNL A   1      45.387  28.410  32.103  1.00  0.00     0.167 HD
ATOM     62  C   UNL A   1      44.838  28.004  29.178  1.00  0.00     0.074 A 
ATOM     63  C   UNL A   1      44.479  26.877  30.039  1.00  0.00     0.031 C 
ATOM     64  C   UNL A   1      44.989  29.334  29.447  1.00  0.00     0.037 A 
BRANCH  51  65
ATOM     65  C   UNL A   1      43.429  27.795  34.360  1.00  0.00     0.057 A 
ATOM     66  C   UNL A   1      43.871  28.083  35.664  1.00  0.00     0.134 A 
ATOM     67  C   UNL A   1      43.708  26.485  33.913  1.00  0.00     0.134 A 
ATOM     68  F   UNL A   1      43.687  29.299  36.200  1.00  0.00    -0.206 F 
ATOM     69  C   UNL A   1      44.597  27.163  36.432  1.00  0.00     0.040 A 
ATOM     70  C   UNL A   1      44.384  25.544  34.692  1.00  0.00     0.040 A 
ATOM     71  F   UNL A   1      43.440  26.073  32.668  1.00  0.00    -0.206 F 
ATOM     72  C   UNL A   1      44.860  25.890  35.945  1.00  0.00     0.006 A 
ENDBRANCH  51  65
BRANCH  52  73
ATOM     73  C   UNL A   1      42.749  24.756  26.487  1.00  0.00     0.057 A 
ATOM     74  C   UNL A   1      43.555  24.491  25.368  1.00  0.00     0.134 A 
ATOM     75  C   UNL A   1      42.168  23.636  27.103  1.00  0.00     0.134 A 
ATOM     76  F   UNL A   1      44.181  25.491  24.729  1.00  0.00    -0.206 F 
ATOM     77  C   UNL A   1      43.808  23.188  24.919  1.00  0.00     0.040 A 
ATOM     78  C   UNL A   1      42.409  22.328  26.661  1.00  0.00     0.040 A 
ATOM     79  F   UNL A   1      41.426  23.763  28.213  1.00  0.00    -0.206 F 
ATOM     80  C   UNL A   1      43.247  22.099  25.578  1.00  0.00     0.006 A 
ENDBRANCH  52  73
BRANCH  64  81
ATOM     81  C   UNL A   1      45.150  30.281  28.286  1.00  0.00     0.057 A 
ATOM     82  C   UNL A   1      44.091  30.914  27.617  1.00  0.00     0.134 A 
ATOM     83  C   UNL A   1      46.443  30.674  27.925  1.00  0.00     0.134 A 
ATOM     84  F   UNL A   1      42.817  30.682  27.955  1.00  0.00    -0.206 F 
ATOM     85  C   UNL A   1      44.311  31.860  26.609  1.00  0.00     0.040 A 
ATOM     86  C   UNL A   1      46.677  31.641  26.944  1.00  0.00     0.040 A 
ATOM     87  F   UNL A   1      47.507  30.153  28.555  1.00  0.00    -0.206 F 
ATOM     88  C   UNL A   1      45.609  32.231  26.273  1.00  0.00     0.006 A 
ENDBRANCH  64  81
ENDBRANCH  38  39
ENDBRANCH  30  33
ENDBRANCH  28  29
ENDBRANCH  27  28
ENDBRANCH   1  27
TORSDOF 16
ENDMDL
MODEL 2
REMARK VINA RESULT:     -11.7      4.119      8.484
REMARK SMILES COc1ccc(/C=C(/Sc2nc(C)n[nH]2)C(=O)NCCCCNC(=O)c2ccc(-c3c4nc(c(-c5c(F)cccc5F)c5ccc([nH]5)c(-c5c(F)cccc5F)c5nc(c(-c6c(F)cccc6F)c6ccc3[nH]6)C=C5)C=C4)cc2)cc1OC
REMARK SMILES IDX 20 1 19 2 18 3 16 4 17 5 8 7 7 8 6 9 3 10 4 11 81 12 5 13
REMARK SMILES IDX 80 14 2 15 1 16 82 17 83 18 9 19 10 20 11 21 15 22 12 23
REMARK SMILES IDX 14 24 13 26 21 27 22 28 23 29 24 30 25 32 26 33 27 34 79 35
REMARK SMILES IDX 28 36 78 37 29 38 30 39 31 40 72 41 32 42 77 43 71 44 73 45
REMARK SMILES IDX 33 46 76 47 70 48 69 49 34 51 60 52 43 53 59 54 44 55 47 56
REMARK SMILES IDX 58 57 74 58 45 59 46 60 57 62 75 63 48 64 35 65 36 66 41 67
REMARK SMILES IDX 37 68 38 69 40 70 42 71 39 72 61 73 62 74 67 75 63 76 64 77
REMARK SMILES IDX 66 78 68 79 65 80 49 81 50 82 55 83 51 84 52 85 54 86 56 87
REMARK SMILES IDX 53 88
REMARK H PARENT 18 6 15 25 23 31 73 50 47 61
REMARK Flexibility Score: inf
ROOT
ATOM      1  C   UNL A   1      36.858  20.843  24.641  1.00  0.00     0.023 C 
ENDROOT
BRANCH   1   2
ATOM      2  C   UNL A   1      36.427  21.786  25.762  1.00  0.00     0.116 C 
BRANCH   2   3
ATOM      3  N   UNL A   1      35.187  21.441  26.454  1.00  0.00    -0.352 N 
ATOM      4  C   UNL A   1      33.948  21.015  26.042  1.00  0.00     0.258 C 
ATOM      5  O   UNL A   1      33.304  20.375  26.879  1.00  0.00    -0.269 OA
ATOM      6  H   UNL A   1      35.255  21.534  27.432  1.00  0.00     0.163 HD
BRANCH   4   7
ATOM      7  C   UNL A   1      33.358  21.299  24.673  1.00  0.00     0.081 C 
ATOM      8  C   UNL A   1      33.136  22.563  24.232  1.00  0.00     0.029 C 
BRANCH   8   9
ATOM      9  C   UNL A   1      33.283  23.925  24.835  1.00  0.00    -0.020 A 
ATOM     10  C   UNL A   1      33.302  26.490  26.094  1.00  0.00     0.160 A 
ATOM     11  C   UNL A   1      34.427  26.003  25.417  1.00  0.00     0.051 A 
ATOM     12  C   UNL A   1      32.141  25.718  26.128  1.00  0.00     0.161 A 
ATOM     13  C   UNL A   1      34.408  24.747  24.778  1.00  0.00     0.012 A 
ATOM     14  C   UNL A   1      32.158  24.447  25.513  1.00  0.00     0.058 A 
BRANCH  10  15
ATOM     15  O   UNL A   1      33.346  27.784  26.542  1.00  0.00    -0.493 OA
ATOM     16  C   UNL A   1      32.934  28.732  25.557  1.00  0.00     0.278 C 
ENDBRANCH  10  15
BRANCH  12  17
ATOM     17  O   UNL A   1      30.918  26.020  26.662  1.00  0.00    -0.493 OA
ATOM     18  C   UNL A   1      29.743  25.734  25.922  1.00  0.00     0.278 C 
ENDBRANCH  12  17
ENDBRANCH   8   9
BRANCH   7  19
ATOM     19  S   UNL A   1      32.702  19.879  23.894  1.00  0.00    -0.045 SA
BRANCH  19  20
ATOM     20  C   UNL A   1      33.096  18.487  24.814  1.00  0.00     0.188 A 
ATOM     21  N   UNL A   1      32.242  17.571  25.212  1.00  0.00    -0.206 NA
ATOM     22  N   UNL A   1      34.350  17.959  24.801  1.00  0.00    -0.254 N 
ATOM     23  C   UNL A   1      33.034  16.465  25.399  1.00  0.00     0.148 A 
ATOM     24  N   UNL A   1      34.343  16.673  25.196  1.00  0.00    -0.158 NA
ATOM     25  H   UNL A   1      35.158  18.453  24.538  1.00  0.00     0.192 HD
ATOM     26  C   UNL A   1      32.467  15.122  25.648  1.00  0.00     0.092 C 
ENDBRANCH  19  20
ENDBRANCH   7  19
ENDBRANCH   4   7
ENDBRANCH   2   3
ENDBRANCH   1   2
BRANCH   1  27
ATOM     27  C   UNL A   1      37.886  19.759  24.986  1.00  0.00     0.023 C 
BRANCH  27  28
ATOM     28  C   UNL A   1      39.123  20.232  25.739  1.00  0.00     0.116 C 
BRANCH  28  29
ATOM     29  N   UNL A   1      40.201  19.241  25.815  1.00  0.00    -0.352 N 
ATOM     30  C   UNL A   1      41.556  19.486  25.948  1.00  0.00     0.251 C 
ATOM     31  H   UNL A   1      39.930  18.296  25.765  1.00  0.00     0.163 HD
ATOM     32  O   UNL A   1      42.395  18.648  25.616  1.00  0.00    -0.269 OA
BRANCH  30  33
ATOM     33  C   UNL A   1      41.985  20.769  26.527  1.00  0.00     0.039 A 
ATOM     34  C   UNL A   1      42.425  21.843  25.747  1.00  0.00     0.014 A 
ATOM     35  C   UNL A   1      41.889  20.886  27.909  1.00  0.00     0.014 A 
ATOM     36  C   UNL A   1      42.690  23.058  26.377  1.00  0.00     0.010 A 
ATOM     37  C   UNL A   1      41.956  22.119  28.492  1.00  0.00     0.010 A 
ATOM     38  C   UNL A   1      42.436  23.190  27.752  1.00  0.00    -0.014 A 
BRANCH  38  39
ATOM     39  C   UNL A   1      42.538  24.473  28.435  1.00  0.00     0.031 A 
ATOM     40  C   UNL A   1      41.379  25.375  28.191  1.00  0.00     0.074 A 
ATOM     41  C   UNL A   1      43.456  24.708  29.402  1.00  0.00     0.049 A 
ATOM     42  N   UNL A   1      41.372  26.502  27.562  1.00  0.00    -0.248 NA
ATOM     43  C   UNL A   1      40.034  24.891  28.553  1.00  0.00     0.031 C 
ATOM     44  C   UNL A   1      44.436  23.780  29.982  1.00  0.00     0.029 A 
ATOM     45  N   UNL A   1      43.635  25.824  30.158  1.00  0.00    -0.354 N 
ATOM     46  C   UNL A   1      40.069  26.981  27.656  1.00  0.00     0.074 A 
ATOM     47  C   UNL A   1      39.260  25.870  28.082  1.00  0.00     0.031 C 
ATOM     48  C   UNL A   1      44.924  24.287  31.136  1.00  0.00     0.029 A 
ATOM     49  C   UNL A   1      44.435  25.642  31.288  1.00  0.00     0.049 A 
ATOM     50  H   UNL A   1      43.233  26.692  29.928  1.00  0.00     0.167 HD
ATOM     51  C   UNL A   1      39.814  28.319  27.648  1.00  0.00     0.037 A 
ATOM     52  C   UNL A   1      44.642  26.549  32.278  1.00  0.00     0.037 A 
ATOM     53  C   UNL A   1      40.935  29.055  27.114  1.00  0.00     0.049 A 
ATOM     54  C   UNL A   1      44.246  27.875  31.740  1.00  0.00     0.074 A 
ATOM     55  C   UNL A   1      41.635  29.022  25.921  1.00  0.00     0.029 A 
ATOM     56  N   UNL A   1      41.760  29.702  28.003  1.00  0.00    -0.354 N 
ATOM     57  N   UNL A   1      44.891  28.494  30.793  1.00  0.00    -0.248 NA
ATOM     58  C   UNL A   1      42.857  28.271  31.920  1.00  0.00     0.031 C 
ATOM     59  C   UNL A   1      43.004  29.161  26.297  1.00  0.00     0.029 A 
ATOM     60  C   UNL A   1      43.050  29.368  27.676  1.00  0.00     0.049 A 
ATOM     61  H   UNL A   1      41.477  30.293  28.737  1.00  0.00     0.167 HD
ATOM     62  C   UNL A   1      43.898  29.022  29.981  1.00  0.00     0.074 A 
ATOM     63  C   UNL A   1      42.664  28.901  30.758  1.00  0.00     0.031 C 
ATOM     64  C   UNL A   1      44.109  29.229  28.648  1.00  0.00     0.037 A 
BRANCH  51  65
ATOM     65  C   UNL A   1      38.738  28.977  28.480  1.00  0.00     0.057 A 
ATOM     66  C   UNL A   1      38.673  28.704  29.859  1.00  0.00     0.134 A 
ATOM     67  C   UNL A   1      37.602  29.624  27.948  1.00  0.00     0.134 A 
ATOM     68  F   UNL A   1      39.679  28.073  30.483  1.00  0.00    -0.206 F 
ATOM     69  C   UNL A   1      37.539  28.989  30.629  1.00  0.00     0.040 A 
ATOM     70  C   UNL A   1      36.488  29.961  28.719  1.00  0.00     0.040 A 
ATOM     71  F   UNL A   1      37.458  29.874  26.642  1.00  0.00    -0.206 F 
ATOM     72  C   UNL A   1      36.438  29.615  30.059  1.00  0.00     0.006 A 
ENDBRANCH  51  65
BRANCH  52  73
ATOM     73  C   UNL A   1      44.831  26.338  33.734  1.00  0.00     0.057 A 
ATOM     74  C   UNL A   1      45.999  26.779  34.377  1.00  0.00     0.134 A 
ATOM     75  C   UNL A   1      43.757  26.001  34.574  1.00  0.00     0.134 A 
ATOM     76  F   UNL A   1      47.068  27.156  33.661  1.00  0.00    -0.206 F 
ATOM     77  C   UNL A   1      46.077  26.923  35.769  1.00  0.00     0.040 A 
ATOM     78  C   UNL A   1      43.824  26.136  35.967  1.00  0.00     0.040 A 
ATOM     79  F   UNL A   1      42.574  25.623  34.067  1.00  0.00    -0.206 F 
ATOM     80  C   UNL A   1      44.980  26.618  36.568  1.00  0.00     0.006 A 
ENDBRANCH  52  73
BRANCH  64  81
ATOM     81  C   UNL A   1      45.512  29.084  28.119  1.00  0.00     0.057 A 
ATOM     82  C   UNL A   1      46.067  27.887  27.637  1.00  0.00     0.134 A 
ATOM     83  C   UNL A   1      46.285  30.240  27.963  1.00  0.00     0.134 A 
ATOM     84  F   UNL A   1      45.371  26.744  27.650  1.00  0.00    -0.206 F 
ATOM     85  C   UNL A   1      47.344  27.839  27.067  1.00  0.00     0.040 A 
ATOM     86  C   UNL A   1      47.547  30.212  27.365  1.00  0.00     0.040 A 
ATOM     87  F   UNL A   1      45.803  31.431  28.351  1.00  0.00    -0.206 F 
ATOM     88  C   UNL A   1      48.087  29.006  26.924  1.00  0.00     0.006 A 
ENDBRANCH  64  81
ENDBRANCH  38  39
ENDBRANCH  30  33
ENDBRANCH  28  29
ENDBRANCH  27  28
ENDBRANCH   1  27
TORSDOF 16
ENDMDL
MODEL 3
REMARK VINA RESULT:     -11.5      3.846      8.652
REMARK SMILES COc1ccc(/C=C(/Sc2nc(C)n[nH]2)C(=O)NCCCCNC(=O)c2ccc(-c3c4nc(c(-c5c(F)cccc5F)c5ccc([nH]5)c(-c5c(F)cccc5F)c5nc(c(-c6c(F)cccc6F)c6ccc3[nH]6)C=C5)C=C4)cc2)cc1OC
REMARK SMILES IDX 20 1 19 2 18 3 16 4 17 5 8 7 7 8 6 9 3 10 4 11 81 12 5 13
REMARK SMILES IDX 80 14 2 15 1 16 82 17 83 18 9 19 10 20 11 21 15 22 12 23
REMARK SMILES IDX 14 24 13 26 21 27 22 28 23 29 24 30 25 32 26 33 27 34 79 35
REMARK SMILES IDX 28 36 78 37 29 38 30 39 31 40 72 41 32 42 77 43 71 44 73 45
REMARK SMILES IDX 33 46 76 47 70 48 69 49 34 51 60 52 43 53 59 54 44 55 47 56
REMARK SMILES IDX 58 57 74 58 45 59 46 60 57 62 75 63 48 64 35 65 36 66 41 67
REMARK SMILES IDX 37 68 38 69 40 70 42 71 39 72 61 73 62 74 67 75 63 76 64 77
REMARK SMILES IDX 66 78 68 79 65 80 49 81 50 82 55 83 51 84 52 85 54 86 56 87
REMARK SMILES IDX 53 88
REMARK H PARENT 18 6 15 25 23 31 73 50 47 61
REMARK Flexibility Score: inf
ROOT
ATOM      1  C   UNL A   1      38.446  23.004  26.675  1.00  0.00     0.023 C 
ENDROOT
BRANCH   1   2
ATOM      2  C   UNL A   1      37.485  23.751  25.752  1.00  0.00     0.116 C 
BRANCH   2   3
ATOM      3  N   UNL A   1      37.395  23.257  24.380  1.00  0.00    -0.352 N 
ATOM      4  C   UNL A   1      36.374  22.764  23.605  1.00  0.00     0.258 C 
ATOM      5  O   UNL A   1      36.529  22.886  22.387  1.00  0.00    -0.269 OA
ATOM      6  H   UNL A   1      38.258  23.283  23.906  1.00  0.00     0.163 HD
BRANCH   4   7
ATOM      7  C   UNL A   1      35.129  22.092  24.157  1.00  0.00     0.081 C 
ATOM      8  C   UNL A   1      33.914  22.694  24.130  1.00  0.00     0.029 C 
BRANCH   8   9
ATOM      9  C   UNL A   1      33.418  24.039  23.699  1.00  0.00    -0.020 A 
ATOM     10  C   UNL A   1      32.494  26.686  23.147  1.00  0.00     0.160 A 
ATOM     11  C   UNL A   1      32.699  25.757  22.119  1.00  0.00     0.051 A 
ATOM     12  C   UNL A   1      32.718  26.298  24.468  1.00  0.00     0.161 A 
ATOM     13  C   UNL A   1      33.134  24.446  22.395  1.00  0.00     0.012 A 
ATOM     14  C   UNL A   1      33.189  24.991  24.717  1.00  0.00     0.058 A 
BRANCH  10  15
ATOM     15  O   UNL A   1      31.912  27.880  22.812  1.00  0.00    -0.493 OA
ATOM     16  C   UNL A   1      32.840  28.965  22.779  1.00  0.00     0.278 C 
ENDBRANCH  10  15
BRANCH  12  17
ATOM     17  O   UNL A   1      32.516  27.006  25.622  1.00  0.00    -0.493 OA
ATOM     18  C   UNL A   1      33.629  27.553  26.310  1.00  0.00     0.278 C 
ENDBRANCH  12  17
ENDBRANCH   8   9
BRANCH   7  19
ATOM     19  S   UNL A   1      35.476  20.665  25.103  1.00  0.00    -0.045 SA
BRANCH  19  20
ATOM     20  C   UNL A   1      34.184  19.548  24.950  1.00  0.00     0.188 A 
ATOM     21  N   UNL A   1      34.240  18.402  24.309  1.00  0.00    -0.206 NA
ATOM     22  N   UNL A   1      33.168  19.509  25.854  1.00  0.00    -0.254 N 
ATOM     23  C   UNL A   1      33.240  17.667  24.896  1.00  0.00     0.148 A 
ATOM     24  N   UNL A   1      32.530  18.325  25.823  1.00  0.00    -0.158 NA
ATOM     25  H   UNL A   1      32.929  20.252  26.454  1.00  0.00     0.192 HD
ATOM     26  C   UNL A   1      33.068  16.220  24.636  1.00  0.00     0.092 C 
ENDBRANCH  19  20
ENDBRANCH   7  19
ENDBRANCH   4   7
ENDBRANCH   2   3
ENDBRANCH   1   2
BRANCH   1  27
ATOM     27  C   UNL A   1      39.284  21.877  26.059  1.00  0.00     0.023 C 
BRANCH  27  28
ATOM     28  C   UNL A   1      40.600  21.567  26.761  1.00  0.00     0.116 C 
BRANCH  28  29
ATOM     29  N   UNL A   1      41.795  21.854  25.961  1.00  0.00    -0.352 N 
ATOM     30  C   UNL A   1      42.362  23.093  25.717  1.00  0.00     0.251 C 
ATOM     31  H   UNL A   1      42.242  21.079  25.552  1.00  0.00     0.163 HD
ATOM     32  O   UNL A   1      43.100  23.280  24.749  1.00  0.00    -0.269 OA
BRANCH  30  33
ATOM     33  C   UNL A   1      42.090  24.188  26.660  1.00  0.00     0.039 A 
ATOM     34  C   UNL A   1      42.679  24.263  27.925  1.00  0.00     0.014 A 
ATOM     35  C   UNL A   1      41.237  25.192  26.212  1.00  0.00     0.014 A 
ATOM     36  C   UNL A   1      42.457  25.403  28.697  1.00  0.00     0.010 A 
ATOM     37  C   UNL A   1      41.182  26.383  26.878  1.00  0.00     0.010 A 
ATOM     38  C   UNL A   1      41.717  26.467  28.155  1.00  0.00    -0.014 A 
BRANCH  38  39
ATOM     39  C   UNL A   1      41.586  27.745  28.844  1.00  0.00     0.031 A 
ATOM     40  C   UNL A   1      42.643  28.729  28.485  1.00  0.00     0.074 A 
ATOM     41  C   UNL A   1      40.469  28.088  29.527  1.00  0.00     0.049 A 
ATOM     42  N   UNL A   1      43.569  29.209  29.246  1.00  0.00    -0.248 NA
ATOM     43  C   UNL A   1      42.786  29.109  27.067  1.00  0.00     0.031 C 
ATOM     44  C   UNL A   1      39.212  27.340  29.665  1.00  0.00     0.029 A 
ATOM     45  N   UNL A   1      40.182  29.252  30.168  1.00  0.00    -0.354 N 
ATOM     46  C   UNL A   1      44.263  30.129  28.465  1.00  0.00     0.074 A 
ATOM     47  C   UNL A   1      43.880  29.872  27.102  1.00  0.00     0.031 C 
ATOM     48  C   UNL A   1      38.239  28.157  30.126  1.00  0.00     0.029 A 
ATOM     49  C   UNL A   1      38.834  29.428  30.487  1.00  0.00     0.049 A 
ATOM     50  H   UNL A   1      40.870  29.920  30.389  1.00  0.00     0.167 HD
ATOM     51  C   UNL A   1      44.875  31.205  29.032  1.00  0.00     0.037 A 
ATOM     52  C   UNL A   1      38.269  30.557  30.985  1.00  0.00     0.037 A 
ATOM     53  C   UNL A   1      45.066  31.004  30.448  1.00  0.00     0.049 A 
ATOM     54  C   UNL A   1      39.371  31.388  31.533  1.00  0.00     0.074 A 
ATOM     55  C   UNL A   1      45.702  30.042  31.212  1.00  0.00     0.029 A 
ATOM     56  N   UNL A   1      44.205  31.643  31.308  1.00  0.00    -0.354 N 
ATOM     57  N   UNL A   1      40.072  31.061  32.581  1.00  0.00    -0.248 NA
ATOM     58  C   UNL A   1      40.004  32.328  30.620  1.00  0.00     0.031 C 
ATOM     59  C   UNL A   1      44.823  29.809  32.312  1.00  0.00     0.029 A 
ATOM     60  C   UNL A   1      43.759  30.705  32.207  1.00  0.00     0.049 A 
ATOM     61  H   UNL A   1      43.955  32.594  31.285  1.00  0.00     0.167 HD
ATOM     62  C   UNL A   1      41.376  31.392  32.248  1.00  0.00     0.074 A 
ATOM     63  C   UNL A   1      41.264  32.223  31.048  1.00  0.00     0.031 C 
ATOM     64  C   UNL A   1      42.437  30.722  32.786  1.00  0.00     0.037 A 
BRANCH  51  65
ATOM     65  C   UNL A   1      44.932  32.574  28.395  1.00  0.00     0.057 A 
ATOM     66  C   UNL A   1      46.180  33.109  28.028  1.00  0.00     0.134 A 
ATOM     67  C   UNL A   1      43.865  33.498  28.393  1.00  0.00     0.134 A 
ATOM     68  F   UNL A   1      47.279  32.341  28.010  1.00  0.00    -0.206 F 
ATOM     69  C   UNL A   1      46.362  34.470  27.752  1.00  0.00     0.040 A 
ATOM     70  C   UNL A   1      44.027  34.846  28.067  1.00  0.00     0.040 A 
ATOM     71  F   UNL A   1      42.632  33.180  28.804  1.00  0.00    -0.206 F 
ATOM     72  C   UNL A   1      45.285  35.345  27.775  1.00  0.00     0.006 A 
ENDBRANCH  51  65
BRANCH  52  73
ATOM     73  C   UNL A   1      36.925  31.134  30.740  1.00  0.00     0.057 A 
ATOM     74  C   UNL A   1      36.095  31.504  31.811  1.00  0.00     0.134 A 
ATOM     75  C   UNL A   1      36.557  31.631  29.478  1.00  0.00     0.134 A 
ATOM     76  F   UNL A   1      36.381  31.107  33.060  1.00  0.00    -0.206 F 
ATOM     77  C   UNL A   1      34.995  32.356  31.646  1.00  0.00     0.040 A 
ATOM     78  C   UNL A   1      35.457  32.480  29.300  1.00  0.00     0.040 A 
ATOM     79  F   UNL A   1      37.307  31.390  28.393  1.00  0.00    -0.206 F 
ATOM     80  C   UNL A   1      34.683  32.862  30.389  1.00  0.00     0.006 A 
ENDBRANCH  52  73
BRANCH  64  81
ATOM     81  C   UNL A   1      42.172  29.767  33.921  1.00  0.00     0.057 A 
ATOM     82  C   UNL A   1      41.877  28.402  33.767  1.00  0.00     0.134 A 
ATOM     83  C   UNL A   1      42.365  30.222  35.230  1.00  0.00     0.134 A 
ATOM     84  F   UNL A   1      41.770  27.847  32.554  1.00  0.00    -0.206 F 
ATOM     85  C   UNL A   1      41.738  27.546  34.864  1.00  0.00     0.040 A 
ATOM     86  C   UNL A   1      42.263  29.370  36.333  1.00  0.00     0.040 A 
ATOM     87  F   UNL A   1      42.701  31.500  35.457  1.00  0.00    -0.206 F 
ATOM     88  C   UNL A   1      41.937  28.028  36.154  1.00  0.00     0.006 A 
ENDBRANCH  64  81
ENDBRANCH  38  39
ENDBRANCH  30  33
ENDBRANCH  28  29
ENDBRANCH  27  28
ENDBRANCH   1  27
TORSDOF 16
ENDMDL
