MODEL 1
REMARK VINA RESULT:     -12.5      0.000      0.000
REMARK SMILES COc1nc2c(cc1C(=O)NCc1ccc(C(=O)NCCCCNC(=O)c3ccc(-c4c5nc(c(-c6c(F)cccc6F)c6ccc([nH]6)c(-c6c(F)cccc6F)c6nc(c(-c7c(F)cccc7F)c7ccc4[nH]7)C=C6)C=C5)cc3)s1)CCC2
REMARK SMILES IDX 20 1 19 2 17 3 18 4 16 6 13 7 14 8 81 9 15 10 12 11 11 12
REMARK SMILES IDX 9 13 10 14 8 16 3 17 4 18 5 19 7 20 6 21 84 22 82 23 83 24
REMARK SMILES IDX 2 25 1 26 21 27 22 28 23 29 24 30 25 31 26 33 27 34 28 35
REMARK SMILES IDX 80 36 29 37 79 38 30 39 31 40 32 41 73 42 33 43 78 44 72 45
REMARK SMILES IDX 74 46 34 47 77 48 71 49 70 50 35 52 61 53 44 54 60 55 45 56
REMARK SMILES IDX 48 57 59 58 75 59 46 60 47 61 58 63 76 64 49 65 36 66 37 67
REMARK SMILES IDX 42 68 38 69 39 70 41 71 43 72 40 73 62 74 63 75 68 76 64 77
REMARK SMILES IDX 65 78 67 79 69 80 66 81 50 82 51 83 56 84 52 85 53 86 55 87
REMARK SMILES IDX 57 88 54 89
REMARK H PARENT 19 5 11 15 24 32 74 51 48 62
REMARK Flexibility Score: inf
ROOT
ATOM      1  C   UNL A   1      35.833  21.210  25.362  1.00  0.00     0.116 C 
ENDROOT
BRANCH   1   2
ATOM      2  N   UNL A   1      35.037  20.057  25.001  1.00  0.00    -0.351 N 
ATOM      3  C   UNL A   1      33.681  19.898  24.835  1.00  0.00     0.261 C 
ATOM      4  O   UNL A   1      33.310  18.725  24.720  1.00  0.00    -0.268 OA
ATOM      5  H   UNL A   1      35.561  19.240  24.845  1.00  0.00     0.163 HD
BRANCH   3   6
ATOM      6  C   UNL A   1      32.766  21.032  24.801  1.00  0.00     0.092 A 
ATOM      7  C   UNL A   1      31.446  22.967  23.917  1.00  0.00     0.025 A 
ATOM      8  C   UNL A   1      31.401  22.878  25.292  1.00  0.00     0.018 A 
ATOM      9  S   UNL A   1      32.341  21.664  23.255  1.00  0.00    -0.133 S 
ATOM     10  C   UNL A   1      32.196  21.804  25.795  1.00  0.00     0.026 A 
BRANCH   7  11
ATOM     11  C   UNL A   1      30.913  24.024  23.006  1.00  0.00     0.163 C 
BRANCH  11  12
ATOM     12  N   UNL A   1      31.966  24.707  22.289  1.00  0.00    -0.347 N 
ATOM     13  C   UNL A   1      32.694  25.854  22.409  1.00  0.00     0.257 C 
ATOM     14  O   UNL A   1      33.652  25.911  21.624  1.00  0.00    -0.269 OA
ATOM     15  H   UNL A   1      32.232  24.202  21.487  1.00  0.00     0.164 HD
BRANCH  13  16
ATOM     16  C   UNL A   1      32.471  27.039  23.290  1.00  0.00     0.102 A 
ATOM     17  C   UNL A   1      31.563  28.096  23.170  1.00  0.00     0.226 A 
ATOM     18  N   UNL A   1      31.497  29.172  24.011  1.00  0.00    -0.218 NA
ATOM     19  C   UNL A   1      32.335  29.163  25.052  1.00  0.00     0.048 A 
ATOM     20  C   UNL A   1      33.298  27.075  24.439  1.00  0.00     0.025 A 
ATOM     21  C   UNL A   1      33.221  28.139  25.320  1.00  0.00    -0.025 A 
ATOM     22  C   UNL A   1      32.395  30.221  26.118  1.00  0.00     0.057 C 
ATOM     23  C   UNL A   1      33.932  28.358  26.612  1.00  0.00     0.038 C 
ATOM     24  C   UNL A   1      33.718  29.866  26.815  1.00  0.00     0.011 C 
BRANCH  17  25
ATOM     25  O   UNL A   1      30.650  28.152  22.159  1.00  0.00    -0.480 OA
ATOM     26  C   UNL A   1      29.627  29.092  22.487  1.00  0.00     0.280 C 
ENDBRANCH  17  25
ENDBRANCH  13  16
ENDBRANCH  11  12
ENDBRANCH   7  11
ENDBRANCH   3   6
ENDBRANCH   1   2
BRANCH   1  27
ATOM     27  C   UNL A   1      37.201  21.198  24.687  1.00  0.00     0.023 C 
BRANCH  27  28
ATOM     28  C   UNL A   1      38.045  19.954  24.980  1.00  0.00     0.023 C 
BRANCH  28  29
ATOM     29  C   UNL A   1      39.277  20.188  25.848  1.00  0.00     0.116 C 
BRANCH  29  30
ATOM     30  N   UNL A   1      40.255  19.112  25.784  1.00  0.00    -0.352 N 
ATOM     31  C   UNL A   1      41.606  19.195  26.030  1.00  0.00     0.251 C 
ATOM     32  H   UNL A   1      39.911  18.223  25.539  1.00  0.00     0.163 HD
ATOM     33  O   UNL A   1      42.339  18.224  25.914  1.00  0.00    -0.269 OA
BRANCH  31  34
ATOM     34  C   UNL A   1      42.154  20.511  26.396  1.00  0.00     0.039 A 
ATOM     35  C   UNL A   1      42.510  21.394  25.376  1.00  0.00     0.014 A 
ATOM     36  C   UNL A   1      42.198  20.896  27.739  1.00  0.00     0.014 A 
ATOM     37  C   UNL A   1      42.860  22.702  25.702  1.00  0.00     0.010 A 
ATOM     38  C   UNL A   1      42.503  22.213  28.057  1.00  0.00     0.010 A 
ATOM     39  C   UNL A   1      42.833  23.124  27.041  1.00  0.00    -0.014 A 
BRANCH  39  40
ATOM     40  C   UNL A   1      43.176  24.518  27.399  1.00  0.00     0.031 A 
ATOM     41  C   UNL A   1      44.610  24.953  27.370  1.00  0.00     0.074 A 
ATOM     42  C   UNL A   1      42.208  25.368  27.786  1.00  0.00     0.049 A 
ATOM     43  N   UNL A   1      45.127  26.118  27.664  1.00  0.00    -0.248 NA
ATOM     44  C   UNL A   1      45.597  23.935  26.973  1.00  0.00     0.031 C 
ATOM     45  C   UNL A   1      40.784  25.044  27.890  1.00  0.00     0.029 A 
ATOM     46  N   UNL A   1      42.281  26.681  28.173  1.00  0.00    -0.354 N 
ATOM     47  C   UNL A   1      46.495  25.974  27.487  1.00  0.00     0.074 A 
ATOM     48  C   UNL A   1      46.735  24.596  27.117  1.00  0.00     0.031 C 
ATOM     49  C   UNL A   1      40.115  26.137  28.297  1.00  0.00     0.029 A 
ATOM     50  C   UNL A   1      41.063  27.227  28.499  1.00  0.00     0.049 A 
ATOM     51  H   UNL A   1      43.125  27.185  28.212  1.00  0.00     0.167 HD
ATOM     52  C   UNL A   1      47.463  26.913  27.596  1.00  0.00     0.037 A 
ATOM     53  C   UNL A   1      40.756  28.471  28.911  1.00  0.00     0.037 A 
ATOM     54  C   UNL A   1      47.221  28.283  27.957  1.00  0.00     0.049 A 
ATOM     55  C   UNL A   1      41.853  29.488  29.049  1.00  0.00     0.074 A 
ATOM     56  C   UNL A   1      48.126  29.325  28.058  1.00  0.00     0.029 A 
ATOM     57  N   UNL A   1      45.976  28.801  28.280  1.00  0.00    -0.354 N 
ATOM     58  N   UNL A   1      43.137  29.359  28.815  1.00  0.00    -0.248 NA
ATOM     59  C   UNL A   1      41.456  30.829  29.502  1.00  0.00     0.031 C 
ATOM     60  C   UNL A   1      47.431  30.468  28.469  1.00  0.00     0.029 A 
ATOM     61  C   UNL A   1      46.090  30.144  28.595  1.00  0.00     0.049 A 
ATOM     62  H   UNL A   1      45.135  28.288  28.284  1.00  0.00     0.167 HD
ATOM     63  C   UNL A   1      43.697  30.606  29.066  1.00  0.00     0.074 A 
ATOM     64  C   UNL A   1      42.610  31.480  29.459  1.00  0.00     0.031 C 
ATOM     65  C   UNL A   1      44.991  30.994  28.978  1.00  0.00     0.037 A 
BRANCH  52  66
ATOM     66  C   UNL A   1      48.866  26.473  27.308  1.00  0.00     0.057 A 
ATOM     67  C   UNL A   1      49.701  26.015  28.333  1.00  0.00     0.134 A 
ATOM     68  C   UNL A   1      49.383  26.486  26.006  1.00  0.00     0.134 A 
ATOM     69  F   UNL A   1      49.265  25.975  29.601  1.00  0.00    -0.206 F 
ATOM     70  C   UNL A   1      51.001  25.577  28.071  1.00  0.00     0.040 A 
ATOM     71  C   UNL A   1      50.672  26.030  25.728  1.00  0.00     0.040 A 
ATOM     72  F   UNL A   1      48.624  26.894  24.977  1.00  0.00    -0.206 F 
ATOM     73  C   UNL A   1      51.486  25.575  26.765  1.00  0.00     0.006 A 
ENDBRANCH  52  66
BRANCH  53  74
ATOM     74  C   UNL A   1      39.348  28.841  29.191  1.00  0.00     0.057 A 
ATOM     75  C   UNL A   1      38.512  29.349  28.191  1.00  0.00     0.134 A 
ATOM     76  C   UNL A   1      38.798  28.661  30.465  1.00  0.00     0.134 A 
ATOM     77  F   UNL A   1      38.980  29.546  26.950  1.00  0.00    -0.206 F 
ATOM     78  C   UNL A   1      37.176  29.662  28.448  1.00  0.00     0.040 A 
ATOM     79  C   UNL A   1      37.459  28.952  30.732  1.00  0.00     0.040 A 
ATOM     80  F   UNL A   1      39.548  28.159  31.458  1.00  0.00    -0.206 F 
ATOM     81  C   UNL A   1      36.645  29.456  29.720  1.00  0.00     0.006 A 
ENDBRANCH  53  74
BRANCH  65  82
ATOM     82  C   UNL A   1      45.290  32.430  29.285  1.00  0.00     0.057 A 
ATOM     83  C   UNL A   1      45.234  33.400  28.277  1.00  0.00     0.134 A 
ATOM     84  C   UNL A   1      45.652  32.847  30.571  1.00  0.00     0.134 A 
ATOM     85  F   UNL A   1      44.898  33.061  27.022  1.00  0.00    -0.206 F 
ATOM     86  C   UNL A   1      45.528  34.738  28.539  1.00  0.00     0.040 A 
ATOM     87  C   UNL A   1      45.926  34.186  30.850  1.00  0.00     0.040 A 
ATOM     88  F   UNL A   1      45.706  31.966  31.582  1.00  0.00    -0.206 F 
ATOM     89  C   UNL A   1      45.870  35.135  29.831  1.00  0.00     0.006 A 
ENDBRANCH  65  82
ENDBRANCH  39  40
ENDBRANCH  31  34
ENDBRANCH  29  30
ENDBRANCH  28  29
ENDBRANCH  27  28
ENDBRANCH   1  27
TORSDOF 15
ENDMDL
MODEL 2
REMARK VINA RESULT:     -12.4      0.740      1.758
REMARK SMILES COc1nc2c(cc1C(=O)NCc1ccc(C(=O)NCCCCNC(=O)c3ccc(-c4c5nc(c(-c6c(F)cccc6F)c6ccc([nH]6)c(-c6c(F)cccc6F)c6nc(c(-c7c(F)cccc7F)c7ccc4[nH]7)C=C6)C=C5)cc3)s1)CCC2
REMARK SMILES IDX 20 1 19 2 17 3 18 4 16 6 13 7 14 8 81 9 15 10 12 11 11 12
REMARK SMILES IDX 9 13 10 14 8 16 3 17 4 18 5 19 7 20 6 21 84 22 82 23 83 24
REMARK SMILES IDX 2 25 1 26 21 27 22 28 23 29 24 30 25 31 26 33 27 34 28 35
REMARK SMILES IDX 80 36 29 37 79 38 30 39 31 40 32 41 73 42 33 43 78 44 72 45
REMARK SMILES IDX 74 46 34 47 77 48 71 49 70 50 35 52 61 53 44 54 60 55 45 56
REMARK SMILES IDX 48 57 59 58 75 59 46 60 47 61 58 63 76 64 49 65 36 66 37 67
REMARK SMILES IDX 42 68 38 69 39 70 41 71 43 72 40 73 62 74 63 75 68 76 64 77
REMARK SMILES IDX 65 78 67 79 69 80 66 81 50 82 51 83 56 84 52 85 53 86 55 87
REMARK SMILES IDX 57 88 54 89
REMARK H PARENT 19 5 11 15 24 32 74 51 48 62
REMARK Flexibility Score: inf
ROOT
ATOM      1  C   UNL A   1      36.739  22.280  25.491  1.00  0.00     0.116 C 
ENDROOT
BRANCH   1   2
ATOM      2  N   UNL A   1      35.817  21.784  26.488  1.00  0.00    -0.351 N 
ATOM      3  C   UNL A   1      34.443  21.703  26.504  1.00  0.00     0.261 C 
ATOM      4  O   UNL A   1      33.956  21.409  27.601  1.00  0.00    -0.268 OA
ATOM      5  H   UNL A   1      36.250  21.441  27.302  1.00  0.00     0.163 HD
BRANCH   3   6
ATOM      6  C   UNL A   1      33.639  21.949  25.313  1.00  0.00     0.092 A 
ATOM      7  C   UNL A   1      32.239  23.155  23.625  1.00  0.00     0.025 A 
ATOM      8  C   UNL A   1      32.266  21.794  23.416  1.00  0.00     0.018 A 
ATOM      9  S   UNL A   1      33.246  23.585  24.944  1.00  0.00    -0.133 S 
ATOM     10  C   UNL A   1      33.023  21.104  24.410  1.00  0.00     0.026 A 
BRANCH   7  11
ATOM     11  C   UNL A   1      31.440  24.216  22.941  1.00  0.00     0.163 C 
BRANCH  11  12
ATOM     12  N   UNL A   1      32.272  25.119  22.179  1.00  0.00    -0.347 N 
ATOM     13  C   UNL A   1      32.819  26.360  22.326  1.00  0.00     0.257 C 
ATOM     14  O   UNL A   1      33.650  26.638  21.448  1.00  0.00    -0.269 OA
ATOM     15  H   UNL A   1      32.513  24.729  21.307  1.00  0.00     0.164 HD
BRANCH  13  16
ATOM     16  C   UNL A   1      32.524  27.421  23.335  1.00  0.00     0.102 A 
ATOM     17  C   UNL A   1      31.466  28.331  23.406  1.00  0.00     0.226 A 
ATOM     18  N   UNL A   1      31.336  29.312  24.350  1.00  0.00    -0.218 NA
ATOM     19  C   UNL A   1      32.275  29.346  25.301  1.00  0.00     0.048 A 
ATOM     20  C   UNL A   1      33.456  27.488  24.399  1.00  0.00     0.025 A 
ATOM     21  C   UNL A   1      33.322  28.451  25.383  1.00  0.00    -0.025 A 
ATOM     22  C   UNL A   1      32.296  30.309  26.455  1.00  0.00     0.057 C 
ATOM     23  C   UNL A   1      34.130  28.670  26.617  1.00  0.00     0.038 C 
ATOM     24  C   UNL A   1      33.724  30.105  26.985  1.00  0.00     0.011 C 
BRANCH  17  25
ATOM     25  O   UNL A   1      30.450  28.330  22.495  1.00  0.00    -0.480 OA
ATOM     26  C   UNL A   1      29.240  27.909  23.126  1.00  0.00     0.280 C 
ENDBRANCH  17  25
ENDBRANCH  13  16
ENDBRANCH  11  12
ENDBRANCH   7  11
ENDBRANCH   3   6
ENDBRANCH   1   2
BRANCH   1  27
ATOM     27  C   UNL A   1      37.095  21.217  24.456  1.00  0.00     0.023 C 
BRANCH  27  28
ATOM     28  C   UNL A   1      37.790  19.979  25.029  1.00  0.00     0.023 C 
BRANCH  28  29
ATOM     29  C   UNL A   1      39.076  20.249  25.803  1.00  0.00     0.116 C 
BRANCH  29  30
ATOM     30  N   UNL A   1      40.034  19.154  25.755  1.00  0.00    -0.352 N 
ATOM     31  C   UNL A   1      41.382  19.211  26.020  1.00  0.00     0.251 C 
ATOM     32  H   UNL A   1      39.676  18.272  25.505  1.00  0.00     0.163 HD
ATOM     33  O   UNL A   1      42.098  18.225  25.916  1.00  0.00    -0.269 OA
BRANCH  31  34
ATOM     34  C   UNL A   1      41.950  20.516  26.393  1.00  0.00     0.039 A 
ATOM     35  C   UNL A   1      42.335  21.392  25.377  1.00  0.00     0.014 A 
ATOM     36  C   UNL A   1      41.987  20.900  27.737  1.00  0.00     0.014 A 
ATOM     37  C   UNL A   1      42.706  22.693  25.708  1.00  0.00     0.010 A 
ATOM     38  C   UNL A   1      42.313  22.211  28.059  1.00  0.00     0.010 A 
ATOM     39  C   UNL A   1      42.671  23.116  27.047  1.00  0.00    -0.014 A 
BRANCH  39  40
ATOM     40  C   UNL A   1      43.036  24.502  27.410  1.00  0.00     0.031 A 
ATOM     41  C   UNL A   1      44.477  24.916  27.377  1.00  0.00     0.074 A 
ATOM     42  C   UNL A   1      42.083  25.365  27.805  1.00  0.00     0.049 A 
ATOM     43  N   UNL A   1      45.012  26.072  27.674  1.00  0.00    -0.248 NA
ATOM     44  C   UNL A   1      45.447  23.886  26.972  1.00  0.00     0.031 C 
ATOM     45  C   UNL A   1      40.655  25.062  27.913  1.00  0.00     0.029 A 
ATOM     46  N   UNL A   1      42.177  26.675  28.197  1.00  0.00    -0.354 N 
ATOM     47  C   UNL A   1      46.377  25.909  27.491  1.00  0.00     0.074 A 
ATOM     48  C   UNL A   1      46.595  24.529  27.114  1.00  0.00     0.031 C 
ATOM     49  C   UNL A   1      40.003  26.162  28.327  1.00  0.00     0.029 A 
ATOM     50  C   UNL A   1      40.969  27.237  28.530  1.00  0.00     0.049 A 
ATOM     51  H   UNL A   1      43.029  27.167  28.235  1.00  0.00     0.167 HD
ATOM     52  C   UNL A   1      47.359  26.833  27.600  1.00  0.00     0.037 A 
ATOM     53  C   UNL A   1      40.681  28.484  28.949  1.00  0.00     0.037 A 
ATOM     54  C   UNL A   1      47.140  28.205  27.967  1.00  0.00     0.049 A 
ATOM     55  C   UNL A   1      41.795  29.485  29.087  1.00  0.00     0.074 A 
ATOM     56  C   UNL A   1      48.060  29.232  28.070  1.00  0.00     0.029 A 
ATOM     57  N   UNL A   1      45.904  28.739  28.298  1.00  0.00    -0.354 N 
ATOM     58  N   UNL A   1      43.075  29.337  28.847  1.00  0.00    -0.248 NA
ATOM     59  C   UNL A   1      41.419  30.829  29.547  1.00  0.00     0.031 C 
ATOM     60  C   UNL A   1      47.383  30.384  28.489  1.00  0.00     0.029 A 
ATOM     61  C   UNL A   1      46.038  30.080  28.618  1.00  0.00     0.049 A 
ATOM     62  H   UNL A   1      45.055  28.239  28.304  1.00  0.00     0.167 HD
ATOM     63  C   UNL A   1      43.654  30.574  29.101  1.00  0.00     0.074 A 
ATOM     64  C   UNL A   1      42.582  31.463  29.502  1.00  0.00     0.031 C 
ATOM     65  C   UNL A   1      44.954  30.943  29.009  1.00  0.00     0.037 A 
BRANCH  52  66
ATOM     66  C   UNL A   1      48.754  26.373  27.304  1.00  0.00     0.057 A 
ATOM     67  C   UNL A   1      49.263  26.411  26.002  1.00  0.00     0.134 A 
ATOM     68  C   UNL A   1      49.602  25.911  28.320  1.00  0.00     0.134 A 
ATOM     69  F   UNL A   1      48.504  26.846  24.985  1.00  0.00    -0.206 F 
ATOM     70  C   UNL A   1      50.571  26.011  25.720  1.00  0.00     0.040 A 
ATOM     71  C   UNL A   1      50.918  25.530  28.055  1.00  0.00     0.040 A 
ATOM     72  F   UNL A   1      49.179  25.872  29.593  1.00  0.00    -0.206 F 
ATOM     73  C   UNL A   1      51.405  25.578  26.750  1.00  0.00     0.006 A 
ENDBRANCH  52  66
BRANCH  53  74
ATOM     74  C   UNL A   1      39.280  28.874  29.236  1.00  0.00     0.057 A 
ATOM     75  C   UNL A   1      38.712  28.684  30.500  1.00  0.00     0.134 A 
ATOM     76  C   UNL A   1      38.488  29.478  28.253  1.00  0.00     0.134 A 
ATOM     77  F   UNL A   1      39.420  28.108  31.483  1.00  0.00    -0.206 F 
ATOM     78  C   UNL A   1      37.404  29.085  30.778  1.00  0.00     0.040 A 
ATOM     79  C   UNL A   1      37.185  29.901  28.523  1.00  0.00     0.040 A 
ATOM     80  F   UNL A   1      38.987  29.702  27.029  1.00  0.00    -0.206 F 
ATOM     81  C   UNL A   1      36.640  29.703  29.789  1.00  0.00     0.006 A 
ENDBRANCH  53  74
BRANCH  65  82
ATOM     82  C   UNL A   1      45.276  32.374  29.321  1.00  0.00     0.057 A 
ATOM     83  C   UNL A   1      45.632  32.756  30.620  1.00  0.00     0.134 A 
ATOM     84  C   UNL A   1      45.212  33.372  28.342  1.00  0.00     0.134 A 
ATOM     85  F   UNL A   1      45.705  31.846  31.603  1.00  0.00    -0.206 F 
ATOM     86  C   UNL A   1      45.916  34.086  30.934  1.00  0.00     0.040 A 
ATOM     87  C   UNL A   1      45.516  34.701  28.639  1.00  0.00     0.040 A 
ATOM     88  F   UNL A   1      44.894  33.064  27.076  1.00  0.00    -0.206 F 
ATOM     89  C   UNL A   1      45.863  35.062  29.939  1.00  0.00     0.006 A 
ENDBRANCH  65  82
ENDBRANCH  39  40
ENDBRANCH  31  34
ENDBRANCH  29  30
ENDBRANCH  28  29
ENDBRANCH  27  28
ENDBRANCH   1  27
TORSDOF 15
ENDMDL
MODEL 3
REMARK VINA RESULT:     -12.4      4.464     10.027
REMARK SMILES COc1nc2c(cc1C(=O)NCc1ccc(C(=O)NCCCCNC(=O)c3ccc(-c4c5nc(c(-c6c(F)cccc6F)c6ccc([nH]6)c(-c6c(F)cccc6F)c6nc(c(-c7c(F)cccc7F)c7ccc4[nH]7)C=C6)C=C5)cc3)s1)CCC2
REMARK SMILES IDX 20 1 19 2 17 3 18 4 16 6 13 7 14 8 81 9 15 10 12 11 11 12
REMARK SMILES IDX 9 13 10 14 8 16 3 17 4 18 5 19 7 20 6 21 84 22 82 23 83 24
REMARK SMILES IDX 2 25 1 26 21 27 22 28 23 29 24 30 25 31 26 33 27 34 28 35
REMARK SMILES IDX 80 36 29 37 79 38 30 39 31 40 32 41 73 42 33 43 78 44 72 45
REMARK SMILES IDX 74 46 34 47 77 48 71 49 70 50 35 52 61 53 44 54 60 55 45 56
REMARK SMILES IDX 48 57 59 58 75 59 46 60 47 61 58 63 76 64 49 65 36 66 37 67
REMARK SMILES IDX 42 68 38 69 39 70 41 71 43 72 40 73 62 74 63 75 68 76 64 77
REMARK SMILES IDX 65 78 67 79 69 80 66 81 50 82 51 83 56 84 52 85 53 86 55 87
REMARK SMILES IDX 57 88 54 89
REMARK H PARENT 19 5 11 15 24 32 74 51 48 62
REMARK Flexibility Score: inf
ROOT
ATOM      1  C   UNL A   1      33.028  29.533  26.272  1.00  0.00     0.116 C 
ENDROOT
BRANCH   1   2
ATOM      2  N   UNL A   1      33.147  29.685  24.839  1.00  0.00    -0.351 N 
ATOM      3  C   UNL A   1      32.708  28.901  23.796  1.00  0.00     0.261 C 
ATOM      4  O   UNL A   1      33.155  29.219  22.689  1.00  0.00    -0.268 OA
ATOM      5  H   UNL A   1      33.628  30.496  24.558  1.00  0.00     0.163 HD
BRANCH   3   6
ATOM      6  C   UNL A   1      31.790  27.787  23.998  1.00  0.00     0.092 A 
ATOM      7  C   UNL A   1      30.961  25.448  24.327  1.00  0.00     0.025 A 
ATOM      8  C   UNL A   1      29.940  26.345  24.100  1.00  0.00     0.018 A 
ATOM      9  S   UNL A   1      32.474  26.254  24.383  1.00  0.00    -0.133 S 
ATOM     10  C   UNL A   1      30.420  27.669  23.862  1.00  0.00     0.026 A 
BRANCH   7  11
ATOM     11  C   UNL A   1      30.923  23.959  24.446  1.00  0.00     0.163 C 
BRANCH  11  12
ATOM     12  N   UNL A   1      31.160  23.515  25.801  1.00  0.00    -0.347 N 
ATOM     13  C   UNL A   1      32.184  22.987  26.530  1.00  0.00     0.257 C 
ATOM     14  O   UNL A   1      31.955  22.954  27.748  1.00  0.00    -0.269 OA
ATOM     15  H   UNL A   1      30.353  23.625  26.355  1.00  0.00     0.164 HD
BRANCH  13  16
ATOM     16  C   UNL A   1      33.483  22.409  26.072  1.00  0.00     0.102 A 
ATOM     17  C   UNL A   1      33.772  21.153  25.529  1.00  0.00     0.226 A 
ATOM     18  N   UNL A   1      35.024  20.707  25.207  1.00  0.00    -0.218 NA
ATOM     19  C   UNL A   1      36.025  21.576  25.378  1.00  0.00     0.048 A 
ATOM     20  C   UNL A   1      34.586  23.290  26.184  1.00  0.00     0.025 A 
ATOM     21  C   UNL A   1      35.854  22.868  25.830  1.00  0.00    -0.025 A 
ATOM     22  C   UNL A   1      37.465  21.305  25.044  1.00  0.00     0.057 C 
ATOM     23  C   UNL A   1      37.137  23.629  25.801  1.00  0.00     0.038 C 
ATOM     24  C   UNL A   1      38.158  22.482  25.748  1.00  0.00     0.011 C 
BRANCH  17  25
ATOM     25  O   UNL A   1      32.797  20.230  25.287  1.00  0.00    -0.480 OA
ATOM     26  C   UNL A   1      32.527  20.174  23.886  1.00  0.00     0.280 C 
ENDBRANCH  17  25
ENDBRANCH  13  16
ENDBRANCH  11  12
ENDBRANCH   7  11
ENDBRANCH   3   6
ENDBRANCH   1   2
BRANCH   1  27
ATOM     27  C   UNL A   1      31.760  30.186  26.816  1.00  0.00     0.023 C 
BRANCH  27  28
ATOM     28  C   UNL A   1      31.661  31.692  26.562  1.00  0.00     0.023 C 
BRANCH  28  29
ATOM     29  C   UNL A   1      32.787  32.532  27.157  1.00  0.00     0.116 C 
BRANCH  29  30
ATOM     30  N   UNL A   1      32.375  33.871  27.555  1.00  0.00    -0.352 N 
ATOM     31  C   UNL A   1      32.985  34.694  28.474  1.00  0.00     0.251 C 
ATOM     32  H   UNL A   1      31.570  34.228  27.117  1.00  0.00     0.163 HD
ATOM     33  O   UNL A   1      32.528  35.793  28.751  1.00  0.00    -0.269 OA
BRANCH  31  34
ATOM     34  C   UNL A   1      34.189  34.188  29.150  1.00  0.00     0.039 A 
ATOM     35  C   UNL A   1      34.034  33.318  30.230  1.00  0.00     0.014 A 
ATOM     36  C   UNL A   1      35.454  34.488  28.636  1.00  0.00     0.014 A 
ATOM     37  C   UNL A   1      35.158  32.693  30.766  1.00  0.00     0.010 A 
ATOM     38  C   UNL A   1      36.567  33.829  29.142  1.00  0.00     0.010 A 
ATOM     39  C   UNL A   1      36.425  32.925  30.207  1.00  0.00    -0.014 A 
BRANCH  39  40
ATOM     40  C   UNL A   1      37.623  32.247  30.748  1.00  0.00     0.031 A 
ATOM     41  C   UNL A   1      38.248  32.756  32.012  1.00  0.00     0.074 A 
ATOM     42  C   UNL A   1      38.164  31.211  30.083  1.00  0.00     0.049 A 
ATOM     43  N   UNL A   1      39.308  32.322  32.642  1.00  0.00    -0.248 NA
ATOM     44  C   UNL A   1      37.605  33.922  32.639  1.00  0.00     0.031 C 
ATOM     45  C   UNL A   1      37.664  30.655  28.824  1.00  0.00     0.029 A 
ATOM     46  N   UNL A   1      39.263  30.444  30.374  1.00  0.00    -0.354 N 
ATOM     47  C   UNL A   1      39.457  33.157  33.740  1.00  0.00     0.074 A 
ATOM     48  C   UNL A   1      38.417  34.159  33.658  1.00  0.00     0.031 C 
ATOM     49  C   UNL A   1      38.446  29.623  28.460  1.00  0.00     0.029 A 
ATOM     50  C   UNL A   1      39.508  29.460  29.447  1.00  0.00     0.049 A 
ATOM     51  H   UNL A   1      39.822  30.585  31.171  1.00  0.00     0.167 HD
ATOM     52  C   UNL A   1      40.363  33.081  34.741  1.00  0.00     0.037 A 
ATOM     53  C   UNL A   1      40.482  28.532  29.409  1.00  0.00     0.037 A 
ATOM     54  C   UNL A   1      41.392  32.080  34.825  1.00  0.00     0.049 A 
ATOM     55  C   UNL A   1      41.492  28.485  30.521  1.00  0.00     0.074 A 
ATOM     56  C   UNL A   1      42.337  31.890  35.817  1.00  0.00     0.029 A 
ATOM     57  N   UNL A   1      41.611  31.099  33.870  1.00  0.00    -0.354 N 
ATOM     58  N   UNL A   1      41.584  29.240  31.589  1.00  0.00    -0.248 NA
ATOM     59  C   UNL A   1      42.531  27.449  30.424  1.00  0.00     0.031 C 
ATOM     60  C   UNL A   1      43.145  30.808  35.447  1.00  0.00     0.029 A 
ATOM     61  C   UNL A   1      42.685  30.308  34.240  1.00  0.00     0.049 A 
ATOM     62  H   UNL A   1      41.080  30.983  33.048  1.00  0.00     0.167 HD
ATOM     63  C   UNL A   1      42.671  28.754  32.305  1.00  0.00     0.074 A 
ATOM     64  C   UNL A   1      43.200  27.633  31.554  1.00  0.00     0.031 C 
ATOM     65  C   UNL A   1      43.187  29.195  33.478  1.00  0.00     0.037 A 
BRANCH  52  66
ATOM     66  C   UNL A   1      40.261  34.110  35.825  1.00  0.00     0.057 A 
ATOM     67  C   UNL A   1      40.937  35.330  35.725  1.00  0.00     0.134 A 
ATOM     68  C   UNL A   1      39.471  33.896  36.963  1.00  0.00     0.134 A 
ATOM     69  F   UNL A   1      41.708  35.597  34.660  1.00  0.00    -0.206 F 
ATOM     70  C   UNL A   1      40.827  36.307  36.717  1.00  0.00     0.040 A 
ATOM     71  C   UNL A   1      39.334  34.874  37.950  1.00  0.00     0.040 A 
ATOM     72  F   UNL A   1      38.780  32.756  37.106  1.00  0.00    -0.206 F 
ATOM     73  C   UNL A   1      40.016  36.083  37.828  1.00  0.00     0.006 A 
ENDBRANCH  52  66
BRANCH  53  74
ATOM     74  C   UNL A   1      40.535  27.547  28.302  1.00  0.00     0.057 A 
ATOM     75  C   UNL A   1      41.270  27.794  27.137  1.00  0.00     0.134 A 
ATOM     76  C   UNL A   1      39.874  26.318  28.403  1.00  0.00     0.134 A 
ATOM     77  F   UNL A   1      41.924  28.954  26.981  1.00  0.00    -0.206 F 
ATOM     78  C   UNL A   1      41.349  26.850  26.112  1.00  0.00     0.040 A 
ATOM     79  C   UNL A   1      39.960  25.357  27.394  1.00  0.00     0.040 A 
ATOM     80  F   UNL A   1      39.171  26.019  29.505  1.00  0.00    -0.206 F 
ATOM     81  C   UNL A   1      40.698  25.624  26.243  1.00  0.00     0.006 A 
ENDBRANCH  53  74
BRANCH  65  82
ATOM     82  C   UNL A   1      44.360  28.441  34.027  1.00  0.00     0.057 A 
ATOM     83  C   UNL A   1      44.167  27.333  34.861  1.00  0.00     0.134 A 
ATOM     84  C   UNL A   1      45.677  28.824  33.746  1.00  0.00     0.134 A 
ATOM     85  F   UNL A   1      42.929  26.920  35.171  1.00  0.00    -0.206 F 
ATOM     86  C   UNL A   1      45.247  26.631  35.398  1.00  0.00     0.040 A 
ATOM     87  C   UNL A   1      46.764  28.117  34.259  1.00  0.00     0.040 A 
ATOM     88  F   UNL A   1      45.924  29.867  32.939  1.00  0.00    -0.206 F 
ATOM     89  C   UNL A   1      46.550  27.020  35.092  1.00  0.00     0.006 A 
ENDBRANCH  65  82
ENDBRANCH  39  40
ENDBRANCH  31  34
ENDBRANCH  29  30
ENDBRANCH  28  29
ENDBRANCH  27  28
ENDBRANCH   1  27
TORSDOF 15
ENDMDL
