MODEL 1
REMARK VINA RESULT:     -12.1      0.000      0.000
REMARK SMILES O=C(NCCCCNC(=O)c1cc(-c2cncnc2)cc(S(=O)(=O)N2CCCC2)c1)c1ccc(-c2c3nc(c(-c4c(F)cccc4F)c4ccc([nH]4)c(-c4c(F)cccc4F)c4nc(c(-c5c(F)cccc5F)c5ccc2[nH]5)C=C4)C=C3)cc1
REMARK SMILES IDX 5 1 4 2 3 3 1 4 2 5 31 7 32 8 84 9 33 10 83 11 34 12 35 13
REMARK SMILES IDX 36 14 77 15 37 16 82 17 76 18 78 19 38 20 81 21 75 22 74 23
REMARK SMILES IDX 39 25 65 26 48 27 64 28 49 29 52 30 63 31 79 32 50 33 51 34
REMARK SMILES IDX 62 36 80 37 53 38 40 39 41 40 46 41 42 42 43 43 45 44 47 45
REMARK SMILES IDX 44 46 66 47 67 48 72 49 68 50 69 51 71 52 73 53 70 54 54 55
REMARK SMILES IDX 55 56 60 57 56 58 57 59 59 60 61 61 58 62 6 63 7 64 8 65
REMARK SMILES IDX 9 66 10 68 11 69 12 70 30 71 13 72 21 73 20 74 14 75 15 76
REMARK SMILES IDX 19 77 16 78 18 79 17 80 22 81 23 82 24 83 25 84 26 85 29 86
REMARK SMILES IDX 27 87 28 88
REMARK H PARENT 3 6 78 24 52 35 8 67
REMARK Flexibility Score: inf
ROOT
ATOM      1  C   UNL A   1      39.103  20.585  25.349  1.00  0.00     0.023 C 
ENDROOT
BRANCH   1   2
ATOM      2  C   UNL A   1      39.714  19.483  26.207  1.00  0.00     0.116 C 
BRANCH   2   3
ATOM      3  N   UNL A   1      41.038  19.077  25.760  1.00  0.00    -0.352 N 
ATOM      4  O   UNL A   1      43.217  19.301  25.221  1.00  0.00    -0.269 OA
ATOM      5  C   UNL A   1      42.223  19.776  25.762  1.00  0.00     0.251 C 
ATOM      6  H   UNL A   1      41.095  18.161  25.403  1.00  0.00     0.163 HD
BRANCH   5   7
ATOM      7  C   UNL A   1      42.289  21.115  26.383  1.00  0.00     0.039 A 
ATOM      8  C   UNL A   1      42.488  22.252  25.600  1.00  0.00     0.014 A 
ATOM      9  C   UNL A   1      42.171  21.232  27.772  1.00  0.00     0.014 A 
ATOM     10  C   UNL A   1      42.757  23.470  26.212  1.00  0.00     0.010 A 
ATOM     11  C   UNL A   1      42.346  22.478  28.381  1.00  0.00     0.010 A 
ATOM     12  C   UNL A   1      42.690  23.599  27.610  1.00  0.00    -0.014 A 
BRANCH  12  13
ATOM     13  C   UNL A   1      42.958  24.923  28.228  1.00  0.00     0.031 A 
ATOM     14  C   UNL A   1      44.357  25.350  28.580  1.00  0.00     0.074 A 
ATOM     15  C   UNL A   1      41.928  25.770  28.417  1.00  0.00     0.049 A 
ATOM     16  N   UNL A   1      44.770  26.491  29.075  1.00  0.00    -0.248 NA
ATOM     17  C   UNL A   1      45.433  24.372  28.356  1.00  0.00     0.031 C 
ATOM     18  C   UNL A   1      40.526  25.467  28.121  1.00  0.00     0.029 A 
ATOM     19  N   UNL A   1      41.900  27.061  28.874  1.00  0.00    -0.354 N 
ATOM     20  C   UNL A   1      46.143  26.361  29.244  1.00  0.00     0.074 A 
ATOM     21  C   UNL A   1      46.493  25.022  28.819  1.00  0.00     0.031 C 
ATOM     22  C   UNL A   1      39.784  26.562  28.344  1.00  0.00     0.029 A 
ATOM     23  C   UNL A   1      40.646  27.621  28.857  1.00  0.00     0.049 A 
ATOM     24  H   UNL A   1      42.701  27.543  29.184  1.00  0.00     0.167 HD
ATOM     25  C   UNL A   1      47.030  27.276  29.703  1.00  0.00     0.037 A 
ATOM     26  C   UNL A   1      40.230  28.848  29.219  1.00  0.00     0.037 A 
ATOM     27  C   UNL A   1      46.683  28.616  30.104  1.00  0.00     0.049 A 
ATOM     28  C   UNL A   1      41.232  29.835  29.737  1.00  0.00     0.074 A 
ATOM     29  C   UNL A   1      47.518  29.629  30.545  1.00  0.00     0.029 A 
ATOM     30  N   UNL A   1      45.396  29.131  30.111  1.00  0.00    -0.354 N 
ATOM     31  N   UNL A   1      42.530  29.704  29.864  1.00  0.00    -0.248 NA
ATOM     32  C   UNL A   1      40.710  31.138  30.170  1.00  0.00     0.031 C 
ATOM     33  C   UNL A   1      46.730  30.743  30.858  1.00  0.00     0.029 A 
ATOM     34  C   UNL A   1      45.410  30.438  30.571  1.00  0.00     0.049 A 
ATOM     35  H   UNL A   1      44.589  28.639  29.832  1.00  0.00     0.167 HD
ATOM     36  C   UNL A   1      42.983  30.911  30.379  1.00  0.00     0.074 A 
ATOM     37  C   UNL A   1      41.823  31.767  30.520  1.00  0.00     0.031 C 
ATOM     38  C   UNL A   1      44.246  31.275  30.708  1.00  0.00     0.037 A 
BRANCH  25  39
ATOM     39  C   UNL A   1      48.468  26.855  29.818  1.00  0.00     0.057 A 
ATOM     40  C   UNL A   1      48.961  26.203  30.955  1.00  0.00     0.134 A 
ATOM     41  C   UNL A   1      49.358  27.067  28.758  1.00  0.00     0.134 A 
ATOM     42  F   UNL A   1      48.164  25.980  32.011  1.00  0.00    -0.206 F 
ATOM     43  C   UNL A   1      50.294  25.795  31.042  1.00  0.00     0.040 A 
ATOM     44  C   UNL A   1      50.687  26.643  28.824  1.00  0.00     0.040 A 
ATOM     45  F   UNL A   1      48.949  27.678  27.636  1.00  0.00    -0.206 F 
ATOM     46  C   UNL A   1      51.159  26.009  29.971  1.00  0.00     0.006 A 
ENDBRANCH  25  39
BRANCH  26  47
ATOM     47  C   UNL A   1      38.796  29.204  29.096  1.00  0.00     0.057 A 
ATOM     48  C   UNL A   1      38.251  29.586  27.866  1.00  0.00     0.134 A 
ATOM     49  C   UNL A   1      37.935  29.153  30.199  1.00  0.00     0.134 A 
ATOM     50  F   UNL A   1      39.031  29.669  26.778  1.00  0.00    -0.206 F 
ATOM     51  C   UNL A   1      36.900  29.913  27.737  1.00  0.00     0.040 A 
ATOM     52  C   UNL A   1      36.578  29.453  30.080  1.00  0.00     0.040 A 
ATOM     53  F   UNL A   1      38.397  28.785  31.403  1.00  0.00    -0.206 F 
ATOM     54  C   UNL A   1      36.059  29.840  28.847  1.00  0.00     0.006 A 
ENDBRANCH  26  47
BRANCH  38  55
ATOM     55  C   UNL A   1      44.434  32.667  31.231  1.00  0.00     0.057 A 
ATOM     56  C   UNL A   1      44.666  33.752  30.375  1.00  0.00     0.134 A 
ATOM     57  C   UNL A   1      44.371  32.927  32.606  1.00  0.00     0.134 A 
ATOM     58  F   UNL A   1      44.754  33.564  29.049  1.00  0.00    -0.206 F 
ATOM     59  C   UNL A   1      44.854  35.043  30.870  1.00  0.00     0.040 A 
ATOM     60  C   UNL A   1      44.534  34.218  33.111  1.00  0.00     0.040 A 
ATOM     61  F   UNL A   1      44.146  31.933  33.478  1.00  0.00    -0.206 F 
ATOM     62  C   UNL A   1      44.784  35.279  32.243  1.00  0.00     0.006 A 
ENDBRANCH  38  55
ENDBRANCH  12  13
ENDBRANCH   5   7
ENDBRANCH   2   3
ENDBRANCH   1   2
BRANCH   1  63
ATOM     63  C   UNL A   1      38.872  21.917  26.059  1.00  0.00     0.023 C 
BRANCH  63  64
ATOM     64  C   UNL A   1      37.463  22.489  25.941  1.00  0.00     0.116 C 
BRANCH  64  65
ATOM     65  N   UNL A   1      37.136  22.918  24.592  1.00  0.00    -0.352 N 
ATOM     66  C   UNL A   1      36.008  22.676  23.850  1.00  0.00     0.251 C 
ATOM     67  H   UNL A   1      37.824  23.461  24.145  1.00  0.00     0.163 HD
ATOM     68  O   UNL A   1      35.967  23.013  22.671  1.00  0.00    -0.269 OA
BRANCH  66  69
ATOM     69  C   UNL A   1      34.829  22.018  24.456  1.00  0.00     0.041 A 
ATOM     70  C   UNL A   1      34.752  20.622  24.443  1.00  0.00     0.022 A 
ATOM     71  C   UNL A   1      33.768  22.769  24.953  1.00  0.00     0.035 A 
ATOM     72  C   UNL A   1      33.629  19.955  24.964  1.00  0.00    -0.013 A 
ATOM     73  C   UNL A   1      32.650  22.133  25.480  1.00  0.00     0.084 A 
ATOM     74  C   UNL A   1      32.577  20.732  25.485  1.00  0.00     0.030 A 
BRANCH  72  75
ATOM     75  C   UNL A   1      33.563  18.491  24.933  1.00  0.00     0.018 A 
ATOM     76  C   UNL A   1      32.640  17.756  25.659  1.00  0.00     0.123 A 
ATOM     77  C   UNL A   1      34.394  17.712  24.142  1.00  0.00     0.123 A 
ATOM     78  N   UNL A   1      32.526  16.411  25.616  1.00  0.00    -0.244 NA
ATOM     79  N   UNL A   1      34.332  16.366  24.054  1.00  0.00    -0.244 NA
ATOM     80  C   UNL A   1      33.386  15.781  24.801  1.00  0.00     0.221 A 
ENDBRANCH  72  75
BRANCH  73  81
ATOM     81  S   UNL A   1      31.276  23.059  26.144  1.00  0.00     0.243 S 
ATOM     82  O   UNL A   1      30.152  22.143  26.165  1.00  0.00    -0.207 OA
ATOM     83  O   UNL A   1      31.768  23.695  27.342  1.00  0.00    -0.207 OA
BRANCH  81  84
ATOM     84  N   UNL A   1      30.915  24.258  25.028  1.00  0.00    -0.198 NA
ATOM     85  C   UNL A   1      30.632  23.940  23.623  1.00  0.00     0.102 C 
ATOM     86  C   UNL A   1      31.447  25.622  25.164  1.00  0.00     0.102 C 
ATOM     87  C   UNL A   1      31.488  24.922  22.839  1.00  0.00     0.018 C 
ATOM     88  C   UNL A   1      31.572  26.148  23.735  1.00  0.00     0.018 C 
ENDBRANCH  81  84
ENDBRANCH  73  81
ENDBRANCH  66  69
ENDBRANCH  64  65
ENDBRANCH  63  64
ENDBRANCH   1  63
TORSDOF 14
ENDMDL
MODEL 2
REMARK VINA RESULT:     -12.1      4.042      9.657
REMARK SMILES O=C(NCCCCNC(=O)c1cc(-c2cncnc2)cc(S(=O)(=O)N2CCCC2)c1)c1ccc(-c2c3nc(c(-c4c(F)cccc4F)c4ccc([nH]4)c(-c4c(F)cccc4F)c4nc(c(-c5c(F)cccc5F)c5ccc2[nH]5)C=C4)C=C3)cc1
REMARK SMILES IDX 5 1 4 2 3 3 1 4 2 5 31 7 32 8 84 9 33 10 83 11 34 12 35 13
REMARK SMILES IDX 36 14 77 15 37 16 82 17 76 18 78 19 38 20 81 21 75 22 74 23
REMARK SMILES IDX 39 25 65 26 48 27 64 28 49 29 52 30 63 31 79 32 50 33 51 34
REMARK SMILES IDX 62 36 80 37 53 38 40 39 41 40 46 41 42 42 43 43 45 44 47 45
REMARK SMILES IDX 44 46 66 47 67 48 72 49 68 50 69 51 71 52 73 53 70 54 54 55
REMARK SMILES IDX 55 56 60 57 56 58 57 59 59 60 61 61 58 62 6 63 7 64 8 65
REMARK SMILES IDX 9 66 10 68 11 69 12 70 30 71 13 72 21 73 20 74 14 75 15 76
REMARK SMILES IDX 19 77 16 78 18 79 17 80 22 81 23 82 24 83 25 84 26 85 29 86
REMARK SMILES IDX 27 87 28 88
REMARK H PARENT 3 6 78 24 52 35 8 67
REMARK Flexibility Score: inf
ROOT
ATOM      1  C   UNL A   1      33.135  31.545  27.710  1.00  0.00     0.023 C 
ENDROOT
BRANCH   1   2
ATOM      2  C   UNL A   1      33.121  32.837  26.902  1.00  0.00     0.116 C 
BRANCH   2   3
ATOM      3  N   UNL A   1      32.656  33.985  27.667  1.00  0.00    -0.352 N 
ATOM      4  O   UNL A   1      32.575  35.461  29.371  1.00  0.00    -0.269 OA
ATOM      5  C   UNL A   1      33.189  34.569  28.792  1.00  0.00     0.251 C 
ATOM      6  H   UNL A   1      31.835  34.409  27.326  1.00  0.00     0.163 HD
BRANCH   5   7
ATOM      7  C   UNL A   1      34.483  34.097  29.328  1.00  0.00     0.039 A 
ATOM      8  C   UNL A   1      35.678  34.424  28.687  1.00  0.00     0.014 A 
ATOM      9  C   UNL A   1      34.498  33.298  30.475  1.00  0.00     0.014 A 
ATOM     10  C   UNL A   1      36.859  33.805  29.077  1.00  0.00     0.010 A 
ATOM     11  C   UNL A   1      35.704  32.752  30.925  1.00  0.00     0.010 A 
ATOM     12  C   UNL A   1      36.887  32.960  30.200  1.00  0.00    -0.014 A 
BRANCH  12  13
ATOM     13  C   UNL A   1      38.174  32.335  30.602  1.00  0.00     0.031 A 
ATOM     14  C   UNL A   1      38.994  32.896  31.732  1.00  0.00     0.074 A 
ATOM     15  C   UNL A   1      38.572  31.213  29.974  1.00  0.00     0.049 A 
ATOM     16  N   UNL A   1      40.111  32.441  32.243  1.00  0.00    -0.248 NA
ATOM     17  C   UNL A   1      38.505  34.129  32.368  1.00  0.00     0.031 C 
ATOM     18  C   UNL A   1      37.865  30.577  28.859  1.00  0.00     0.029 A 
ATOM     19  N   UNL A   1      39.648  30.393  30.196  1.00  0.00    -0.354 N 
ATOM     20  C   UNL A   1      40.471  33.340  33.240  1.00  0.00     0.074 A 
ATOM     21  C   UNL A   1      39.464  34.380  33.249  1.00  0.00     0.031 C 
ATOM     22  C   UNL A   1      38.490  29.435  28.538  1.00  0.00     0.029 A 
ATOM     23  C   UNL A   1      39.673  29.290  29.378  1.00  0.00     0.049 A 
ATOM     24  H   UNL A   1      40.335  30.576  30.877  1.00  0.00     0.167 HD
ATOM     25  C   UNL A   1      41.536  33.297  34.075  1.00  0.00     0.037 A 
ATOM     26  C   UNL A   1      40.553  28.275  29.305  1.00  0.00     0.037 A 
ATOM     27  C   UNL A   1      42.525  32.248  34.081  1.00  0.00     0.049 A 
ATOM     28  C   UNL A   1      41.730  28.261  30.232  1.00  0.00     0.074 A 
ATOM     29  C   UNL A   1      43.618  32.096  34.916  1.00  0.00     0.029 A 
ATOM     30  N   UNL A   1      42.538  31.170  33.208  1.00  0.00    -0.354 N 
ATOM     31  N   UNL A   1      42.040  29.105  31.186  1.00  0.00    -0.248 NA
ATOM     32  C   UNL A   1      42.686  27.159  30.066  1.00  0.00     0.031 C 
ATOM     33  C   UNL A   1      44.317  30.948  34.522  1.00  0.00     0.029 A 
ATOM     34  C   UNL A   1      43.633  30.362  33.469  1.00  0.00     0.049 A 
ATOM     35  H   UNL A   1      41.868  31.004  32.505  1.00  0.00     0.167 HD
ATOM     36  C   UNL A   1      43.218  28.629  31.745  1.00  0.00     0.074 A 
ATOM     37  C   UNL A   1      43.555  27.411  31.035  1.00  0.00     0.031 C 
ATOM     38  C   UNL A   1      43.955  29.155  32.752  1.00  0.00     0.037 A 
BRANCH  25  39
ATOM     39  C   UNL A   1      41.706  34.431  35.047  1.00  0.00     0.057 A 
ATOM     40  C   UNL A   1      42.432  35.583  34.723  1.00  0.00     0.134 A 
ATOM     41  C   UNL A   1      41.096  34.384  36.307  1.00  0.00     0.134 A 
ATOM     42  F   UNL A   1      43.051  35.686  33.536  1.00  0.00    -0.206 F 
ATOM     43  C   UNL A   1      42.564  36.641  35.625  1.00  0.00     0.040 A 
ATOM     44  C   UNL A   1      41.201  35.445  37.208  1.00  0.00     0.040 A 
ATOM     45  F   UNL A   1      40.378  33.313  36.678  1.00  0.00    -0.206 F 
ATOM     46  C   UNL A   1      41.941  36.576  36.870  1.00  0.00     0.006 A 
ENDBRANCH  25  39
BRANCH  26  47
ATOM     47  C   UNL A   1      40.342  27.189  28.317  1.00  0.00     0.057 A 
ATOM     48  C   UNL A   1      39.530  26.091  28.616  1.00  0.00     0.134 A 
ATOM     49  C   UNL A   1      40.931  27.234  27.048  1.00  0.00     0.134 A 
ATOM     50  F   UNL A   1      38.951  25.986  29.821  1.00  0.00    -0.206 F 
ATOM     51  C   UNL A   1      39.316  25.069  27.689  1.00  0.00     0.040 A 
ATOM     52  C   UNL A   1      40.707  26.233  26.104  1.00  0.00     0.040 A 
ATOM     53  F   UNL A   1      41.714  28.266  26.701  1.00  0.00    -0.206 F 
ATOM     54  C   UNL A   1      39.902  25.143  26.426  1.00  0.00     0.006 A 
ENDBRANCH  26  47
BRANCH  38  55
ATOM     55  C   UNL A   1      45.185  28.400  33.155  1.00  0.00     0.057 A 
ATOM     56  C   UNL A   1      45.143  27.380  34.114  1.00  0.00     0.134 A 
ATOM     57  C   UNL A   1      46.424  28.689  32.570  1.00  0.00     0.134 A 
ATOM     58  F   UNL A   1      43.989  27.067  34.723  1.00  0.00    -0.206 F 
ATOM     59  C   UNL A   1      46.296  26.690  34.495  1.00  0.00     0.040 A 
ATOM     60  C   UNL A   1      47.579  27.991  32.926  1.00  0.00     0.040 A 
ATOM     61  F   UNL A   1      46.532  29.652  31.642  1.00  0.00    -0.206 F 
ATOM     62  C   UNL A   1      47.517  26.993  33.896  1.00  0.00     0.006 A 
ENDBRANCH  38  55
ENDBRANCH  12  13
ENDBRANCH   5   7
ENDBRANCH   2   3
ENDBRANCH   1   2
BRANCH   1  63
ATOM     63  C   UNL A   1      34.398  30.697  27.567  1.00  0.00     0.023 C 
BRANCH  63  64
ATOM     64  C   UNL A   1      34.192  29.306  26.976  1.00  0.00     0.116 C 
BRANCH  64  65
ATOM     65  N   UNL A   1      33.088  28.587  27.590  1.00  0.00    -0.352 N 
ATOM     66  C   UNL A   1      31.935  28.109  27.020  1.00  0.00     0.251 C 
ATOM     67  H   UNL A   1      33.181  28.417  28.554  1.00  0.00     0.163 HD
ATOM     68  O   UNL A   1      31.051  27.638  27.729  1.00  0.00    -0.269 OA
BRANCH  66  69
ATOM     69  C   UNL A   1      31.743  28.146  25.552  1.00  0.00     0.041 A 
ATOM     70  C   UNL A   1      30.911  29.126  25.004  1.00  0.00     0.022 A 
ATOM     71  C   UNL A   1      32.306  27.172  24.733  1.00  0.00     0.035 A 
ATOM     72  C   UNL A   1      30.661  29.170  23.621  1.00  0.00    -0.013 A 
ATOM     73  C   UNL A   1      32.080  27.198  23.362  1.00  0.00     0.084 A 
ATOM     74  C   UNL A   1      31.259  28.191  22.805  1.00  0.00     0.030 A 
BRANCH  72  75
ATOM     75  C   UNL A   1      29.779  30.200  23.065  1.00  0.00     0.018 A 
ATOM     76  C   UNL A   1      29.424  30.257  21.727  1.00  0.00     0.123 A 
ATOM     77  C   UNL A   1      29.185  31.187  23.839  1.00  0.00     0.123 A 
ATOM     78  N   UNL A   1      28.579  31.166  21.196  1.00  0.00    -0.244 NA
ATOM     79  N   UNL A   1      28.333  32.123  23.369  1.00  0.00    -0.244 NA
ATOM     80  C   UNL A   1      28.068  32.058  22.058  1.00  0.00     0.221 A 
ENDBRANCH  72  75
BRANCH  73  81
ATOM     81  S   UNL A   1      32.797  25.978  22.275  1.00  0.00     0.243 S 
ATOM     82  O   UNL A   1      31.753  25.622  21.334  1.00  0.00    -0.207 OA
ATOM     83  O   UNL A   1      34.062  26.524  21.844  1.00  0.00    -0.207 OA
BRANCH  81  84
ATOM     84  N   UNL A   1      33.106  24.618  23.207  1.00  0.00    -0.198 NA
ATOM     85  C   UNL A   1      34.450  24.333  23.728  1.00  0.00     0.102 C 
ATOM     86  C   UNL A   1      32.328  23.381  23.045  1.00  0.00     0.102 C 
ATOM     87  C   UNL A   1      34.679  22.869  23.385  1.00  0.00     0.018 C 
ATOM     88  C   UNL A   1      33.289  22.253  23.420  1.00  0.00     0.018 C 
ENDBRANCH  81  84
ENDBRANCH  73  81
ENDBRANCH  66  69
ENDBRANCH  64  65
ENDBRANCH  63  64
ENDBRANCH   1  63
TORSDOF 14
ENDMDL
MODEL 3
REMARK VINA RESULT:     -12.0      3.918      9.413
REMARK SMILES O=C(NCCCCNC(=O)c1cc(-c2cncnc2)cc(S(=O)(=O)N2CCCC2)c1)c1ccc(-c2c3nc(c(-c4c(F)cccc4F)c4ccc([nH]4)c(-c4c(F)cccc4F)c4nc(c(-c5c(F)cccc5F)c5ccc2[nH]5)C=C4)C=C3)cc1
REMARK SMILES IDX 5 1 4 2 3 3 1 4 2 5 31 7 32 8 84 9 33 10 83 11 34 12 35 13
REMARK SMILES IDX 36 14 77 15 37 16 82 17 76 18 78 19 38 20 81 21 75 22 74 23
REMARK SMILES IDX 39 25 65 26 48 27 64 28 49 29 52 30 63 31 79 32 50 33 51 34
REMARK SMILES IDX 62 36 80 37 53 38 40 39 41 40 46 41 42 42 43 43 45 44 47 45
REMARK SMILES IDX 44 46 66 47 67 48 72 49 68 50 69 51 71 52 73 53 70 54 54 55
REMARK SMILES IDX 55 56 60 57 56 58 57 59 59 60 61 61 58 62 6 63 7 64 8 65
REMARK SMILES IDX 9 66 10 68 11 69 12 70 30 71 13 72 21 73 20 74 14 75 15 76
REMARK SMILES IDX 19 77 16 78 18 79 17 80 22 81 23 82 24 83 25 84 26 85 29 86
REMARK SMILES IDX 27 87 28 88
REMARK H PARENT 3 6 78 24 52 35 8 67
REMARK Flexibility Score: inf
ROOT
ATOM      1  C   UNL A   1      33.138  31.540  27.862  1.00  0.00     0.023 C 
ENDROOT
BRANCH   1   2
ATOM      2  C   UNL A   1      33.048  32.830  27.054  1.00  0.00     0.116 C 
BRANCH   2   3
ATOM      3  N   UNL A   1      32.616  33.972  27.847  1.00  0.00    -0.352 N 
ATOM      4  O   UNL A   1      32.616  35.444  29.557  1.00  0.00    -0.269 OA
ATOM      5  C   UNL A   1      33.204  34.559  28.943  1.00  0.00     0.251 C 
ATOM      6  H   UNL A   1      31.774  34.390  27.553  1.00  0.00     0.163 HD
BRANCH   5   7
ATOM      7  C   UNL A   1      34.530  34.097  29.405  1.00  0.00     0.039 A 
ATOM      8  C   UNL A   1      35.682  34.410  28.683  1.00  0.00     0.014 A 
ATOM      9  C   UNL A   1      34.619  33.324  30.566  1.00  0.00     0.014 A 
ATOM     10  C   UNL A   1      36.886  33.798  29.010  1.00  0.00     0.010 A 
ATOM     11  C   UNL A   1      35.851  32.786  30.950  1.00  0.00     0.010 A 
ATOM     12  C   UNL A   1      36.986  32.978  30.147  1.00  0.00    -0.014 A 
BRANCH  12  13
ATOM     13  C   UNL A   1      38.295  32.360  30.480  1.00  0.00     0.031 A 
ATOM     14  C   UNL A   1      39.200  32.963  31.520  1.00  0.00     0.074 A 
ATOM     15  C   UNL A   1      38.641  31.208  29.874  1.00  0.00     0.049 A 
ATOM     16  N   UNL A   1      40.351  32.522  31.966  1.00  0.00    -0.248 NA
ATOM     17  C   UNL A   1      38.766  34.227  32.135  1.00  0.00     0.031 C 
ATOM     18  C   UNL A   1      37.849  30.530  28.844  1.00  0.00     0.029 A 
ATOM     19  N   UNL A   1      39.726  30.390  30.052  1.00  0.00    -0.354 N 
ATOM     20  C   UNL A   1      40.788  33.461  32.892  1.00  0.00     0.074 A 
ATOM     21  C   UNL A   1      39.790  34.509  32.930  1.00  0.00     0.031 C 
ATOM     22  C   UNL A   1      38.443  29.370  28.528  1.00  0.00     0.029 A 
ATOM     23  C   UNL A   1      39.684  29.252  29.284  1.00  0.00     0.049 A 
ATOM     24  H   UNL A   1      40.463  30.597  30.671  1.00  0.00     0.167 HD
ATOM     25  C   UNL A   1      41.912  33.446  33.647  1.00  0.00     0.037 A 
ATOM     26  C   UNL A   1      40.551  28.228  29.191  1.00  0.00     0.037 A 
ATOM     27  C   UNL A   1      42.893  32.390  33.626  1.00  0.00     0.049 A 
ATOM     28  C   UNL A   1      41.795  28.245  30.028  1.00  0.00     0.074 A 
ATOM     29  C   UNL A   1      44.046  32.266  34.383  1.00  0.00     0.029 A 
ATOM     30  N   UNL A   1      42.836  31.275  32.803  1.00  0.00    -0.354 N 
ATOM     31  N   UNL A   1      42.178  29.127  30.918  1.00  0.00    -0.248 NA
ATOM     32  C   UNL A   1      42.730  27.128  29.841  1.00  0.00     0.031 C 
ATOM     33  C   UNL A   1      44.707  31.097  33.990  1.00  0.00     0.029 A 
ATOM     34  C   UNL A   1      43.944  30.470  33.018  1.00  0.00     0.049 A 
ATOM     35  H   UNL A   1      42.114  31.084  32.161  1.00  0.00     0.167 HD
ATOM     36  C   UNL A   1      43.393  28.666  31.408  1.00  0.00     0.074 A 
ATOM     37  C   UNL A   1      43.670  27.416  30.730  1.00  0.00     0.031 C 
ATOM     38  C   UNL A   1      44.205  29.231  32.334  1.00  0.00     0.037 A 
BRANCH  25  39
ATOM     39  C   UNL A   1      42.159  34.620  34.552  1.00  0.00     0.057 A 
ATOM     40  C   UNL A   1      41.722  34.636  35.882  1.00  0.00     0.134 A 
ATOM     41  C   UNL A   1      42.883  35.730  34.097  1.00  0.00     0.134 A 
ATOM     42  F   UNL A   1      41.013  33.609  36.377  1.00  0.00    -0.206 F 
ATOM     43  C   UNL A   1      41.977  35.723  36.722  1.00  0.00     0.040 A 
ATOM     44  C   UNL A   1      43.164  36.812  34.933  1.00  0.00     0.040 A 
ATOM     45  F   UNL A   1      43.338  35.775  32.836  1.00  0.00    -0.206 F 
ATOM     46  C   UNL A   1      42.706  36.812  36.249  1.00  0.00     0.006 A 
ENDBRANCH  25  39
BRANCH  26  47
ATOM     47  C   UNL A   1      40.263  27.101  28.271  1.00  0.00     0.057 A 
ATOM     48  C   UNL A   1      40.808  27.065  26.983  1.00  0.00     0.134 A 
ATOM     49  C   UNL A   1      39.454  26.028  28.663  1.00  0.00     0.134 A 
ATOM     50  F   UNL A   1      41.578  28.073  26.547  1.00  0.00    -0.206 F 
ATOM     51  C   UNL A   1      40.552  26.004  26.113  1.00  0.00     0.040 A 
ATOM     52  C   UNL A   1      39.210  24.950  27.813  1.00  0.00     0.040 A 
ATOM     53  F   UNL A   1      38.910  26.002  29.888  1.00  0.00    -0.206 F 
ATOM     54  C   UNL A   1      39.755  24.940  26.531  1.00  0.00     0.006 A 
ENDBRANCH  26  47
BRANCH  38  55
ATOM     55  C   UNL A   1      45.459  28.484  32.677  1.00  0.00     0.057 A 
ATOM     56  C   UNL A   1      46.666  28.722  32.009  1.00  0.00     0.134 A 
ATOM     57  C   UNL A   1      45.459  27.522  33.696  1.00  0.00     0.134 A 
ATOM     58  F   UNL A   1      46.725  29.619  31.013  1.00  0.00    -0.206 F 
ATOM     59  C   UNL A   1      47.826  28.011  32.324  1.00  0.00     0.040 A 
ATOM     60  C   UNL A   1      46.618  26.822  34.035  1.00  0.00     0.040 A 
ATOM     61  F   UNL A   1      44.337  27.250  34.377  1.00  0.00    -0.206 F 
ATOM     62  C   UNL A   1      47.803  27.061  33.344  1.00  0.00     0.006 A 
ENDBRANCH  38  55
ENDBRANCH  12  13
ENDBRANCH   5   7
ENDBRANCH   2   3
ENDBRANCH   1   2
BRANCH   1  63
ATOM     63  C   UNL A   1      34.347  30.659  27.555  1.00  0.00     0.023 C 
BRANCH  63  64
ATOM     64  C   UNL A   1      34.054  29.403  26.741  1.00  0.00     0.116 C 
BRANCH  64  65
ATOM     65  N   UNL A   1      33.080  28.530  27.374  1.00  0.00    -0.352 N 
ATOM     66  C   UNL A   1      31.978  27.917  26.834  1.00  0.00     0.251 C 
ATOM     67  H   UNL A   1      33.233  28.353  28.329  1.00  0.00     0.163 HD
ATOM     68  O   UNL A   1      31.192  27.318  27.562  1.00  0.00    -0.269 OA
BRANCH  66  69
ATOM     69  C   UNL A   1      31.724  27.962  25.376  1.00  0.00     0.041 A 
ATOM     70  C   UNL A   1      30.908  28.973  24.863  1.00  0.00     0.022 A 
ATOM     71  C   UNL A   1      32.213  26.966  24.535  1.00  0.00     0.035 A 
ATOM     72  C   UNL A   1      30.600  29.027  23.492  1.00  0.00    -0.013 A 
ATOM     73  C   UNL A   1      31.929  27.002  23.175  1.00  0.00     0.084 A 
ATOM     74  C   UNL A   1      31.124  28.025  22.653  1.00  0.00     0.030 A 
BRANCH  72  75
ATOM     75  C   UNL A   1      29.735  30.090  22.973  1.00  0.00     0.018 A 
ATOM     76  C   UNL A   1      29.280  30.131  21.665  1.00  0.00     0.123 A 
ATOM     77  C   UNL A   1      29.259  31.130  23.758  1.00  0.00     0.123 A 
ATOM     78  N   UNL A   1      28.447  31.072  21.172  1.00  0.00    -0.244 NA
ATOM     79  N   UNL A   1      28.425  32.101  23.326  1.00  0.00    -0.244 NA
ATOM     80  C   UNL A   1      28.055  32.015  22.041  1.00  0.00     0.221 A 
ENDBRANCH  72  75
BRANCH  73  81
ATOM     81  S   UNL A   1      32.551  25.755  22.060  1.00  0.00     0.243 S 
ATOM     82  O   UNL A   1      31.788  25.901  20.835  1.00  0.00    -0.207 OA
ATOM     83  O   UNL A   1      33.988  25.880  22.086  1.00  0.00    -0.207 OA
BRANCH  81  84
ATOM     84  N   UNL A   1      32.145  24.267  22.720  1.00  0.00    -0.198 NA
ATOM     85  C   UNL A   1      30.811  24.011  23.277  1.00  0.00     0.102 C 
ATOM     86  C   UNL A   1      33.155  23.403  23.350  1.00  0.00     0.102 C 
ATOM     87  C   UNL A   1      31.087  23.362  24.624  1.00  0.00     0.018 C 
ATOM     88  C   UNL A   1      32.399  22.619  24.421  1.00  0.00     0.018 C 
ENDBRANCH  81  84
ENDBRANCH  73  81
ENDBRANCH  66  69
ENDBRANCH  64  65
ENDBRANCH  63  64
ENDBRANCH   1  63
TORSDOF 14
ENDMDL
