MODEL 1
REMARK VINA RESULT:     -11.7      0.000      0.000
REMARK SMILES C[C@@H]1OCC[C@@H]1C(=O)Nc1ccc(C(=O)NCCCCNC(=O)c2ccc(-c3c4nc(c(-c5c(F)cccc5F)c5ccc([nH]5)c(-c5c(F)cccc5F)c5nc(c(-c6c(F)cccc6F)c6ccc3[nH]6)C=C5)C=C4)cc2)cc1F
REMARK SMILES IDX 18 1 17 2 16 3 14 4 15 5 13 7 10 8 11 9 79 10 12 11 78 12
REMARK SMILES IDX 80 13 9 14 7 15 8 16 6 18 1 19 2 20 3 21 4 22 5 23 19 24
REMARK SMILES IDX 20 25 21 26 22 27 23 29 24 30 25 31 77 32 26 33 76 34 27 35
REMARK SMILES IDX 28 36 29 37 70 38 30 39 75 40 69 41 71 42 31 43 74 44 68 45
REMARK SMILES IDX 67 46 32 48 58 49 41 50 57 51 42 52 45 53 56 54 72 55 43 56
REMARK SMILES IDX 44 57 55 59 73 60 46 61 33 62 34 63 39 64 35 65 36 66 38 67
REMARK SMILES IDX 40 68 37 69 59 70 60 71 65 72 61 73 62 74 64 75 66 76 63 77
REMARK SMILES IDX 47 78 48 79 53 80 49 81 50 82 52 83 54 84 51 85
REMARK H PARENT 16 6 9 17 21 28 71 47 45 58
REMARK Flexibility Score: inf
ROOT
ATOM      1  C   UNL A   1      32.922  29.608  25.026  1.00  0.00     0.023 C 
ENDROOT
BRANCH   1   2
ATOM      2  C   UNL A   1      31.385  29.537  25.056  1.00  0.00     0.116 C 
BRANCH   2   3
ATOM      3  N   UNL A   1      30.809  29.716  23.728  1.00  0.00    -0.352 N 
ATOM      4  C   UNL A   1      30.500  28.846  22.703  1.00  0.00     0.251 C 
ATOM      5  O   UNL A   1      29.960  29.309  21.699  1.00  0.00    -0.269 OA
ATOM      6  H   UNL A   1      30.597  30.655  23.518  1.00  0.00     0.163 HD
BRANCH   4   7
ATOM      7  C   UNL A   1      30.753  27.378  22.762  1.00  0.00     0.042 A 
ATOM      8  C   UNL A   1      31.322  24.580  22.976  1.00  0.00     0.077 A 
ATOM      9  C   UNL A   1      30.247  25.161  23.671  1.00  0.00     0.030 A 
ATOM     10  C   UNL A   1      32.101  25.452  22.237  1.00  0.00     0.147 A 
ATOM     11  C   UNL A   1      29.986  26.548  23.591  1.00  0.00     0.016 A 
ATOM     12  C   UNL A   1      31.759  26.774  22.042  1.00  0.00     0.055 A 
ATOM     13  F   UNL A   1      33.283  25.143  21.715  1.00  0.00    -0.205 F 
BRANCH   8  14
ATOM     14  N   UNL A   1      31.479  23.179  23.056  1.00  0.00    -0.323 N 
ATOM     15  C   UNL A   1      32.220  22.325  23.832  1.00  0.00     0.230 C 
ATOM     16  O   UNL A   1      32.155  21.124  23.544  1.00  0.00    -0.274 OA
ATOM     17  H   UNL A   1      30.925  22.700  22.397  1.00  0.00     0.170 HD
BRANCH  15  18
ATOM     18  C   UNL A   1      33.053  22.786  25.008  1.00  0.00     0.110 C 
ATOM     19  C   UNL A   1      35.158  22.954  23.501  1.00  0.00     0.039 C 
ATOM     20  C   UNL A   1      34.374  23.500  24.687  1.00  0.00     0.127 C 
ATOM     21  O   UNL A   1      35.205  23.357  25.864  1.00  0.00    -0.378 OA
ATOM     22  C   UNL A   1      34.526  22.488  26.782  1.00  0.00     0.161 C 
ATOM     23  C   UNL A   1      33.544  21.696  25.945  1.00  0.00     0.044 C 
ENDBRANCH  15  18
ENDBRANCH   8  14
ENDBRANCH   4   7
ENDBRANCH   2   3
ENDBRANCH   1   2
BRANCH   1  24
ATOM     24  C   UNL A   1      33.604  28.424  25.704  1.00  0.00     0.023 C 
BRANCH  24  25
ATOM     25  C   UNL A   1      33.746  28.591  27.209  1.00  0.00     0.116 C 
BRANCH  25  26
ATOM     26  N   UNL A   1      33.703  29.979  27.648  1.00  0.00    -0.352 N 
ATOM     27  C   UNL A   1      34.734  30.706  28.210  1.00  0.00     0.251 C 
ATOM     28  H   UNL A   1      32.846  30.449  27.533  1.00  0.00     0.163 HD
ATOM     29  O   UNL A   1      34.559  31.834  28.631  1.00  0.00    -0.269 OA
BRANCH  27  30
ATOM     30  C   UNL A   1      36.056  30.053  28.332  1.00  0.00     0.039 A 
ATOM     31  C   UNL A   1      36.940  30.108  27.252  1.00  0.00     0.014 A 
ATOM     32  C   UNL A   1      36.442  29.466  29.539  1.00  0.00     0.014 A 
ATOM     33  C   UNL A   1      38.245  29.640  27.410  1.00  0.00     0.010 A 
ATOM     34  C   UNL A   1      37.760  29.065  29.716  1.00  0.00     0.010 A 
ATOM     35  C   UNL A   1      38.676  29.153  28.656  1.00  0.00    -0.014 A 
BRANCH  35  36
ATOM     36  C   UNL A   1      40.073  28.710  28.881  1.00  0.00     0.031 A 
ATOM     37  C   UNL A   1      41.071  29.676  29.454  1.00  0.00     0.074 A 
ATOM     38  C   UNL A   1      40.464  27.480  28.494  1.00  0.00     0.049 A 
ATOM     39  N   UNL A   1      42.366  29.546  29.585  1.00  0.00    -0.248 NA
ATOM     40  C   UNL A   1      40.546  30.972  29.913  1.00  0.00     0.031 C 
ATOM     41  C   UNL A   1      39.596  26.462  27.900  1.00  0.00     0.029 A 
ATOM     42  N   UNL A   1      41.700  26.884  28.527  1.00  0.00    -0.354 N 
ATOM     43  C   UNL A   1      42.811  30.749  30.116  1.00  0.00     0.074 A 
ATOM     44  C   UNL A   1      41.657  31.612  30.246  1.00  0.00     0.031 C 
ATOM     45  C   UNL A   1      40.323  25.361  27.644  1.00  0.00     0.029 A 
ATOM     46  C   UNL A   1      41.713  25.610  28.013  1.00  0.00     0.049 A 
ATOM     47  H   UNL A   1      42.502  27.328  28.886  1.00  0.00     0.167 HD
ATOM     48  C   UNL A   1      44.067  31.095  30.480  1.00  0.00     0.037 A 
ATOM     49  C   UNL A   1      42.734  24.746  27.849  1.00  0.00     0.037 A 
ATOM     50  C   UNL A   1      45.204  30.219  30.392  1.00  0.00     0.049 A 
ATOM     51  C   UNL A   1      44.120  25.154  28.264  1.00  0.00     0.074 A 
ATOM     52  C   UNL A   1      46.509  30.464  30.781  1.00  0.00     0.029 A 
ATOM     53  N   UNL A   1      45.167  28.927  29.893  1.00  0.00    -0.354 N 
ATOM     54  N   UNL A   1      44.522  26.286  28.789  1.00  0.00    -0.248 NA
ATOM     55  C   UNL A   1      45.193  24.169  28.066  1.00  0.00     0.031 C 
ATOM     56  C   UNL A   1      47.269  29.328  30.494  1.00  0.00     0.029 A 
ATOM     57  C   UNL A   1      46.429  28.363  29.960  1.00  0.00     0.049 A 
ATOM     58  H   UNL A   1      44.364  28.477  29.544  1.00  0.00     0.167 HD
ATOM     59  C   UNL A   1      45.885  26.138  29.011  1.00  0.00     0.074 A 
ATOM     60  C   UNL A   1      46.242  24.808  28.566  1.00  0.00     0.031 C 
ATOM     61  C   UNL A   1      46.759  27.028  29.539  1.00  0.00     0.037 A 
BRANCH  48  62
ATOM     62  C   UNL A   1      44.280  32.474  31.025  1.00  0.00     0.057 A 
ATOM     63  C   UNL A   1      44.609  33.537  30.176  1.00  0.00     0.134 A 
ATOM     64  C   UNL A   1      44.224  32.736  32.400  1.00  0.00     0.134 A 
ATOM     65  F   UNL A   1      44.684  33.351  28.849  1.00  0.00    -0.206 F 
ATOM     66  C   UNL A   1      44.886  34.810  30.676  1.00  0.00     0.040 A 
ATOM     67  C   UNL A   1      44.476  34.009  32.910  1.00  0.00     0.040 A 
ATOM     68  F   UNL A   1      43.901  31.761  33.264  1.00  0.00    -0.206 F 
ATOM     69  C   UNL A   1      44.818  35.049  32.047  1.00  0.00     0.006 A 
ENDBRANCH  48  62
BRANCH  49  70
ATOM     70  C   UNL A   1      42.477  23.397  27.288  1.00  0.00     0.057 A 
ATOM     71  C   UNL A   1      42.571  23.140  25.915  1.00  0.00     0.134 A 
ATOM     72  C   UNL A   1      42.122  22.330  28.121  1.00  0.00     0.134 A 
ATOM     73  F   UNL A   1      42.900  24.122  25.063  1.00  0.00    -0.206 F 
ATOM     74  C   UNL A   1      42.312  21.873  25.390  1.00  0.00     0.040 A 
ATOM     75  C   UNL A   1      41.881  21.053  27.612  1.00  0.00     0.040 A 
ATOM     76  F   UNL A   1      42.035  22.511  29.447  1.00  0.00    -0.206 F 
ATOM     77  C   UNL A   1      41.971  20.823  26.240  1.00  0.00     0.006 A 
ENDBRANCH  49  70
BRANCH  61  78
ATOM     78  C   UNL A   1      48.182  26.590  29.714  1.00  0.00     0.057 A 
ATOM     79  C   UNL A   1      48.586  25.953  30.893  1.00  0.00     0.134 A 
ATOM     80  C   UNL A   1      49.166  26.898  28.769  1.00  0.00     0.134 A 
ATOM     81  F   UNL A   1      47.690  25.642  31.841  1.00  0.00    -0.206 F 
ATOM     82  C   UNL A   1      49.927  25.653  31.136  1.00  0.00     0.040 A 
ATOM     83  C   UNL A   1      50.509  26.586  28.992  1.00  0.00     0.040 A 
ATOM     84  F   UNL A   1      48.839  27.502  27.616  1.00  0.00    -0.206 F 
ATOM     85  C   UNL A   1      50.892  25.973  30.183  1.00  0.00     0.006 A 
ENDBRANCH  61  78
ENDBRANCH  35  36
ENDBRANCH  27  30
ENDBRANCH  25  26
ENDBRANCH  24  25
ENDBRANCH   1  24
TORSDOF 13
ENDMDL
MODEL 2
REMARK VINA RESULT:     -11.5      3.634      5.082
REMARK SMILES C[C@@H]1OCC[C@@H]1C(=O)Nc1ccc(C(=O)NCCCCNC(=O)c2ccc(-c3c4nc(c(-c5c(F)cccc5F)c5ccc([nH]5)c(-c5c(F)cccc5F)c5nc(c(-c6c(F)cccc6F)c6ccc3[nH]6)C=C5)C=C4)cc2)cc1F
REMARK SMILES IDX 18 1 17 2 16 3 14 4 15 5 13 7 10 8 11 9 79 10 12 11 78 12
REMARK SMILES IDX 80 13 9 14 7 15 8 16 6 18 1 19 2 20 3 21 4 22 5 23 19 24
REMARK SMILES IDX 20 25 21 26 22 27 23 29 24 30 25 31 77 32 26 33 76 34 27 35
REMARK SMILES IDX 28 36 29 37 70 38 30 39 75 40 69 41 71 42 31 43 74 44 68 45
REMARK SMILES IDX 67 46 32 48 58 49 41 50 57 51 42 52 45 53 56 54 72 55 43 56
REMARK SMILES IDX 44 57 55 59 73 60 46 61 33 62 34 63 39 64 35 65 36 66 38 67
REMARK SMILES IDX 40 68 37 69 59 70 60 71 65 72 61 73 62 74 64 75 66 76 63 77
REMARK SMILES IDX 47 78 48 79 53 80 49 81 50 82 52 83 54 84 51 85
REMARK H PARENT 16 6 9 17 21 28 71 47 45 58
REMARK Flexibility Score: inf
ROOT
ATOM      1  C   UNL A   1      31.890  30.401  26.873  1.00  0.00     0.023 C 
ENDROOT
BRANCH   1   2
ATOM      2  C   UNL A   1      32.115  29.764  25.490  1.00  0.00     0.116 C 
BRANCH   2   3
ATOM      3  N   UNL A   1      31.026  30.071  24.569  1.00  0.00    -0.352 N 
ATOM      4  C   UNL A   1      30.316  29.320  23.655  1.00  0.00     0.251 C 
ATOM      5  O   UNL A   1      29.396  29.870  23.051  1.00  0.00    -0.269 OA
ATOM      6  H   UNL A   1      30.739  31.012  24.605  1.00  0.00     0.163 HD
BRANCH   4   7
ATOM      7  C   UNL A   1      30.581  27.877  23.389  1.00  0.00     0.042 A 
ATOM      8  C   UNL A   1      31.181  25.109  22.973  1.00  0.00     0.077 A 
ATOM      9  C   UNL A   1      30.177  25.510  23.871  1.00  0.00     0.030 A 
ATOM     10  C   UNL A   1      31.880  26.131  22.357  1.00  0.00     0.147 A 
ATOM     11  C   UNL A   1      29.903  26.878  24.101  1.00  0.00     0.016 A 
ATOM     12  C   UNL A   1      31.514  27.457  22.469  1.00  0.00     0.055 A 
ATOM     13  F   UNL A   1      33.006  25.963  21.673  1.00  0.00    -0.205 F 
BRANCH   8  14
ATOM     14  N   UNL A   1      31.351  23.724  22.750  1.00  0.00    -0.323 N 
ATOM     15  C   UNL A   1      32.031  22.714  23.380  1.00  0.00     0.230 C 
ATOM     16  O   UNL A   1      32.011  21.609  22.826  1.00  0.00    -0.274 OA
ATOM     17  H   UNL A   1      30.867  23.410  21.953  1.00  0.00     0.170 HD
BRANCH  15  18
ATOM     18  C   UNL A   1      32.745  22.893  24.702  1.00  0.00     0.110 C 
ATOM     19  C   UNL A   1      34.978  23.380  23.474  1.00  0.00     0.039 C 
ATOM     20  C   UNL A   1      34.080  23.651  24.673  1.00  0.00     0.127 C 
ATOM     21  O   UNL A   1      34.800  23.242  25.861  1.00  0.00    -0.378 OA
ATOM     22  C   UNL A   1      34.052  22.195  26.493  1.00  0.00     0.161 C 
ATOM     23  C   UNL A   1      33.163  21.618  25.413  1.00  0.00     0.044 C 
ENDBRANCH  15  18
ENDBRANCH   8  14
ENDBRANCH   4   7
ENDBRANCH   2   3
ENDBRANCH   1   2
BRANCH   1  24
ATOM     24  C   UNL A   1      31.604  31.899  26.818  1.00  0.00     0.023 C 
BRANCH  24  25
ATOM     25  C   UNL A   1      32.782  32.753  27.261  1.00  0.00     0.116 C 
BRANCH  25  26
ATOM     26  N   UNL A   1      32.415  34.119  27.608  1.00  0.00    -0.352 N 
ATOM     27  C   UNL A   1      32.995  34.916  28.575  1.00  0.00     0.251 C 
ATOM     28  H   UNL A   1      31.673  34.516  27.098  1.00  0.00     0.163 HD
ATOM     29  O   UNL A   1      32.543  36.012  28.848  1.00  0.00    -0.269 OA
BRANCH  27  30
ATOM     30  C   UNL A   1      34.158  34.376  29.312  1.00  0.00     0.039 A 
ATOM     31  C   UNL A   1      33.936  33.626  30.469  1.00  0.00     0.014 A 
ATOM     32  C   UNL A   1      35.450  34.542  28.808  1.00  0.00     0.014 A 
ATOM     33  C   UNL A   1      35.009  32.976  31.081  1.00  0.00     0.010 A 
ATOM     34  C   UNL A   1      36.504  33.839  29.377  1.00  0.00     0.010 A 
ATOM     35  C   UNL A   1      36.293  33.046  30.516  1.00  0.00    -0.014 A 
BRANCH  35  36
ATOM     36  C   UNL A   1      37.444  32.314  31.098  1.00  0.00     0.031 A 
ATOM     37  C   UNL A   1      38.069  32.811  32.371  1.00  0.00     0.074 A 
ATOM     38  C   UNL A   1      37.981  31.265  30.443  1.00  0.00     0.049 A 
ATOM     39  N   UNL A   1      39.167  32.418  32.961  1.00  0.00    -0.248 NA
ATOM     40  C   UNL A   1      37.380  33.917  33.056  1.00  0.00     0.031 C 
ATOM     41  C   UNL A   1      37.483  30.706  29.185  1.00  0.00     0.029 A 
ATOM     42  N   UNL A   1      39.076  30.492  30.740  1.00  0.00    -0.354 N 
ATOM     43  C   UNL A   1      39.314  33.242  34.068  1.00  0.00     0.074 A 
ATOM     44  C   UNL A   1      38.216  34.184  34.048  1.00  0.00     0.031 C 
ATOM     45  C   UNL A   1      38.258  29.668  28.829  1.00  0.00     0.029 A 
ATOM     46  C   UNL A   1      39.331  29.516  29.808  1.00  0.00     0.049 A 
ATOM     47  H   UNL A   1      39.626  30.626  31.545  1.00  0.00     0.167 HD
ATOM     48  C   UNL A   1      40.268  33.204  35.025  1.00  0.00     0.037 A 
ATOM     49  C   UNL A   1      40.325  28.609  29.745  1.00  0.00     0.037 A 
ATOM     50  C   UNL A   1      41.332  32.238  35.068  1.00  0.00     0.049 A 
ATOM     51  C   UNL A   1      41.372  28.586  30.824  1.00  0.00     0.074 A 
ATOM     52  C   UNL A   1      42.320  32.090  36.025  1.00  0.00     0.029 A 
ATOM     53  N   UNL A   1      41.537  31.248  34.120  1.00  0.00    -0.354 N 
ATOM     54  N   UNL A   1      41.484  29.356  31.878  1.00  0.00    -0.248 NA
ATOM     55  C   UNL A   1      42.430  27.571  30.705  1.00  0.00     0.031 C 
ATOM     56  C   UNL A   1      43.140  31.025  35.644  1.00  0.00     0.029 A 
ATOM     57  C   UNL A   1      42.639  30.488  34.468  1.00  0.00     0.049 A 
ATOM     58  H   UNL A   1      40.981  31.106  33.320  1.00  0.00     0.167 HD
ATOM     59  C   UNL A   1      42.603  28.901  32.563  1.00  0.00     0.074 A 
ATOM     60  C   UNL A   1      43.136  27.788  31.807  1.00  0.00     0.031 C 
ATOM     61  C   UNL A   1      43.138  29.366  33.718  1.00  0.00     0.037 A 
BRANCH  48  62
ATOM     62  C   UNL A   1      40.200  34.226  36.120  1.00  0.00     0.057 A 
ATOM     63  C   UNL A   1      39.466  33.977  37.286  1.00  0.00     0.134 A 
ATOM     64  C   UNL A   1      40.808  35.480  35.991  1.00  0.00     0.134 A 
ATOM     65  F   UNL A   1      38.856  32.796  37.468  1.00  0.00    -0.206 F 
ATOM     66  C   UNL A   1      39.329  34.946  38.280  1.00  0.00     0.040 A 
ATOM     67  C   UNL A   1      40.698  36.449  36.989  1.00  0.00     0.040 A 
ATOM     68  F   UNL A   1      41.536  35.774  34.902  1.00  0.00    -0.206 F 
ATOM     69  C   UNL A   1      39.948  36.187  38.133  1.00  0.00     0.006 A 
ENDBRANCH  48  62
BRANCH  49  70
ATOM     70  C   UNL A   1      40.362  27.628  28.632  1.00  0.00     0.057 A 
ATOM     71  C   UNL A   1      41.106  27.861  27.469  1.00  0.00     0.134 A 
ATOM     72  C   UNL A   1      39.641  26.431  28.708  1.00  0.00     0.134 A 
ATOM     73  F   UNL A   1      41.814  28.992  27.333  1.00  0.00    -0.206 F 
ATOM     74  C   UNL A   1      41.124  26.943  26.418  1.00  0.00     0.040 A 
ATOM     75  C   UNL A   1      39.667  25.495  27.672  1.00  0.00     0.040 A 
ATOM     76  F   UNL A   1      38.925  26.145  29.804  1.00  0.00    -0.206 F 
ATOM     77  C   UNL A   1      40.407  25.753  26.520  1.00  0.00     0.006 A 
ENDBRANCH  49  70
BRANCH  61  78
ATOM     78  C   UNL A   1      44.334  28.653  34.271  1.00  0.00     0.057 A 
ATOM     79  C   UNL A   1      44.172  27.596  35.175  1.00  0.00     0.134 A 
ATOM     80  C   UNL A   1      45.637  29.083  33.998  1.00  0.00     0.134 A 
ATOM     81  F   UNL A   1      42.947  27.146  35.486  1.00  0.00    -0.206 F 
ATOM     82  C   UNL A   1      45.267  27.002  35.804  1.00  0.00     0.040 A 
ATOM     83  C   UNL A   1      46.741  28.484  34.607  1.00  0.00     0.040 A 
ATOM     84  F   UNL A   1      45.855  30.087  33.135  1.00  0.00    -0.206 F 
ATOM     85  C   UNL A   1      46.556  27.449  35.521  1.00  0.00     0.006 A 
ENDBRANCH  61  78
ENDBRANCH  35  36
ENDBRANCH  27  30
ENDBRANCH  25  26
ENDBRANCH  24  25
ENDBRANCH   1  24
TORSDOF 13
ENDMDL
MODEL 3
REMARK VINA RESULT:     -11.5      2.615      7.764
REMARK SMILES C[C@@H]1OCC[C@@H]1C(=O)Nc1ccc(C(=O)NCCCCNC(=O)c2ccc(-c3c4nc(c(-c5c(F)cccc5F)c5ccc([nH]5)c(-c5c(F)cccc5F)c5nc(c(-c6c(F)cccc6F)c6ccc3[nH]6)C=C5)C=C4)cc2)cc1F
REMARK SMILES IDX 18 1 17 2 16 3 14 4 15 5 13 7 10 8 11 9 79 10 12 11 78 12
REMARK SMILES IDX 80 13 9 14 7 15 8 16 6 18 1 19 2 20 3 21 4 22 5 23 19 24
REMARK SMILES IDX 20 25 21 26 22 27 23 29 24 30 25 31 77 32 26 33 76 34 27 35
REMARK SMILES IDX 28 36 29 37 70 38 30 39 75 40 69 41 71 42 31 43 74 44 68 45
REMARK SMILES IDX 67 46 32 48 58 49 41 50 57 51 42 52 45 53 56 54 72 55 43 56
REMARK SMILES IDX 44 57 55 59 73 60 46 61 33 62 34 63 39 64 35 65 36 66 38 67
REMARK SMILES IDX 40 68 37 69 59 70 60 71 65 72 61 73 62 74 64 75 66 76 63 77
REMARK SMILES IDX 47 78 48 79 53 80 49 81 50 82 52 83 54 84 51 85
REMARK H PARENT 16 6 9 17 21 28 71 47 45 58
REMARK Flexibility Score: inf
ROOT
ATOM      1  C   UNL A   1      37.202  21.094  24.655  1.00  0.00     0.023 C 
ENDROOT
BRANCH   1   2
ATOM      2  C   UNL A   1      35.865  21.109  25.417  1.00  0.00     0.116 C 
BRANCH   2   3
ATOM      3  N   UNL A   1      35.017  19.981  25.045  1.00  0.00    -0.352 N 
ATOM      4  C   UNL A   1      33.708  19.877  24.626  1.00  0.00     0.251 C 
ATOM      5  O   UNL A   1      33.286  18.759  24.329  1.00  0.00    -0.269 OA
ATOM      6  H   UNL A   1      35.476  19.112  25.108  1.00  0.00     0.163 HD
BRANCH   4   7
ATOM      7  C   UNL A   1      32.791  21.044  24.480  1.00  0.00     0.042 A 
ATOM      8  C   UNL A   1      31.134  23.365  24.232  1.00  0.00     0.077 A 
ATOM      9  C   UNL A   1      31.830  22.845  23.127  1.00  0.00     0.030 A 
ATOM     10  C   UNL A   1      31.347  22.718  25.435  1.00  0.00     0.147 A 
ATOM     11  C   UNL A   1      32.674  21.718  23.257  1.00  0.00     0.016 A 
ATOM     12  C   UNL A   1      32.051  21.535  25.531  1.00  0.00     0.055 A 
ATOM     13  F   UNL A   1      30.979  23.195  26.619  1.00  0.00    -0.205 F 
BRANCH   8  14
ATOM     14  N   UNL A   1      30.261  24.453  24.008  1.00  0.00    -0.323 N 
ATOM     15  C   UNL A   1      30.407  25.813  23.913  1.00  0.00     0.230 C 
ATOM     16  O   UNL A   1      29.366  26.470  23.790  1.00  0.00    -0.274 OA
ATOM     17  H   UNL A   1      29.326  24.167  23.895  1.00  0.00     0.170 HD
BRANCH  15  18
ATOM     18  C   UNL A   1      31.752  26.506  23.915  1.00  0.00     0.110 C 
ATOM     19  C   UNL A   1      31.689  26.704  26.501  1.00  0.00     0.039 C 
ATOM     20  C   UNL A   1      32.525  26.519  25.242  1.00  0.00     0.127 C 
ATOM     21  O   UNL A   1      33.446  27.633  25.160  1.00  0.00    -0.378 OA
ATOM     22  C   UNL A   1      33.161  28.355  23.953  1.00  0.00     0.161 C 
ATOM     23  C   UNL A   1      31.739  27.988  23.584  1.00  0.00     0.044 C 
ENDBRANCH  15  18
ENDBRANCH   8  14
ENDBRANCH   4   7
ENDBRANCH   2   3
ENDBRANCH   1   2
BRANCH   1  24
ATOM     24  C   UNL A   1      38.064  19.870  24.952  1.00  0.00     0.023 C 
BRANCH  24  25
ATOM     25  C   UNL A   1      39.291  20.188  25.792  1.00  0.00     0.116 C 
BRANCH  25  26
ATOM     26  N   UNL A   1      40.244  19.091  25.872  1.00  0.00    -0.352 N 
ATOM     27  C   UNL A   1      41.599  19.182  26.126  1.00  0.00     0.251 C 
ATOM     28  H   UNL A   1      39.884  18.186  25.730  1.00  0.00     0.163 HD
ATOM     29  O   UNL A   1      42.321  18.204  26.074  1.00  0.00    -0.269 OA
BRANCH  27  30
ATOM     30  C   UNL A   1      42.161  20.520  26.415  1.00  0.00     0.039 A 
ATOM     31  C   UNL A   1      42.547  21.335  25.349  1.00  0.00     0.014 A 
ATOM     32  C   UNL A   1      42.223  20.988  27.730  1.00  0.00     0.014 A 
ATOM     33  C   UNL A   1      42.925  22.656  25.599  1.00  0.00     0.010 A 
ATOM     34  C   UNL A   1      42.532  22.321  27.968  1.00  0.00     0.010 A 
ATOM     35  C   UNL A   1      42.881  23.169  26.906  1.00  0.00    -0.014 A 
BRANCH  35  36
ATOM     36  C   UNL A   1      43.209  24.584  27.201  1.00  0.00     0.031 A 
ATOM     37  C   UNL A   1      44.642  25.035  27.161  1.00  0.00     0.074 A 
ATOM     38  C   UNL A   1      42.240  25.437  27.588  1.00  0.00     0.049 A 
ATOM     39  N   UNL A   1      45.161  26.176  27.534  1.00  0.00    -0.248 NA
ATOM     40  C   UNL A   1      45.626  24.060  26.662  1.00  0.00     0.031 C 
ATOM     41  C   UNL A   1      40.817  25.112  27.694  1.00  0.00     0.029 A 
ATOM     42  N   UNL A   1      42.311  26.750  27.982  1.00  0.00    -0.354 N 
ATOM     43  C   UNL A   1      46.529  26.047  27.339  1.00  0.00     0.074 A 
ATOM     44  C   UNL A   1      46.767  24.706  26.854  1.00  0.00     0.031 C 
ATOM     45  C   UNL A   1      40.147  26.203  28.104  1.00  0.00     0.029 A 
ATOM     46  C   UNL A   1      41.097  27.288  28.333  1.00  0.00     0.049 A 
ATOM     47  H   UNL A   1      43.153  27.259  28.010  1.00  0.00     0.167 HD
ATOM     48  C   UNL A   1      47.497  26.972  27.530  1.00  0.00     0.037 A 
ATOM     49  C   UNL A   1      40.787  28.514  28.797  1.00  0.00     0.037 A 
ATOM     50  C   UNL A   1      47.252  28.320  27.968  1.00  0.00     0.049 A 
ATOM     51  C   UNL A   1      41.881  29.525  28.997  1.00  0.00     0.074 A 
ATOM     52  C   UNL A   1      48.165  29.344  28.145  1.00  0.00     0.029 A 
ATOM     53  N   UNL A   1      46.004  28.831  28.284  1.00  0.00    -0.354 N 
ATOM     54  N   UNL A   1      43.169  29.398  28.785  1.00  0.00    -0.248 NA
ATOM     55  C   UNL A   1      41.484  30.848  29.501  1.00  0.00     0.031 C 
ATOM     56  C   UNL A   1      47.472  30.472  28.594  1.00  0.00     0.029 A 
ATOM     57  C   UNL A   1      46.123  30.158  28.660  1.00  0.00     0.049 A 
ATOM     58  H   UNL A   1      45.159  28.328  28.246  1.00  0.00     0.167 HD
ATOM     59  C   UNL A   1      43.729  30.629  29.099  1.00  0.00     0.074 A 
ATOM     60  C   UNL A   1      42.644  31.491  29.516  1.00  0.00     0.031 C 
ATOM     61  C   UNL A   1      45.028  31.008  29.044  1.00  0.00     0.037 A 
BRANCH  48  62
ATOM     62  C   UNL A   1      48.913  26.569  27.249  1.00  0.00     0.057 A 
ATOM     63  C   UNL A   1      49.449  26.689  25.961  1.00  0.00     0.134 A 
ATOM     64  C   UNL A   1      49.724  26.002  28.239  1.00  0.00     0.134 A 
ATOM     65  F   UNL A   1      48.721  27.220  24.966  1.00  0.00    -0.206 F 
ATOM     66  C   UNL A   1      50.739  26.247  25.666  1.00  0.00     0.040 A 
ATOM     67  C   UNL A   1      51.023  25.578  27.962  1.00  0.00     0.040 A 
ATOM     68  F   UNL A   1      49.271  25.872  29.496  1.00  0.00    -0.206 F 
ATOM     69  C   UNL A   1      51.531  25.691  26.669  1.00  0.00     0.006 A 
ENDBRANCH  48  62
BRANCH  49  70
ATOM     70  C   UNL A   1      39.372  28.863  29.079  1.00  0.00     0.057 A 
ATOM     71  C   UNL A   1      38.547  29.436  28.105  1.00  0.00     0.134 A 
ATOM     72  C   UNL A   1      38.817  28.635  30.343  1.00  0.00     0.134 A 
ATOM     73  F   UNL A   1      39.022  29.686  26.876  1.00  0.00    -0.206 F 
ATOM     74  C   UNL A   1      37.222  29.779  28.380  1.00  0.00     0.040 A 
ATOM     75  C   UNL A   1      37.487  28.953  30.625  1.00  0.00     0.040 A 
ATOM     76  F   UNL A   1      39.554  28.071  31.311  1.00  0.00    -0.206 F 
ATOM     77  C   UNL A   1      36.687  29.532  29.642  1.00  0.00     0.006 A 
ENDBRANCH  49  70
BRANCH  61  78
ATOM     78  C   UNL A   1      45.358  32.427  29.396  1.00  0.00     0.057 A 
ATOM     79  C   UNL A   1      45.628  32.782  30.724  1.00  0.00     0.134 A 
ATOM     80  C   UNL A   1      45.299  33.452  28.447  1.00  0.00     0.134 A 
ATOM     81  F   UNL A   1      45.686  31.844  31.681  1.00  0.00    -0.206 F 
ATOM     82  C   UNL A   1      45.809  34.113  31.098  1.00  0.00     0.040 A 
ATOM     83  C   UNL A   1      45.498  34.787  28.806  1.00  0.00     0.040 A 
ATOM     84  F   UNL A   1      45.052  33.173  27.157  1.00  0.00    -0.206 F 
ATOM     85  C   UNL A   1      45.741  35.120  30.138  1.00  0.00     0.006 A 
ENDBRANCH  61  78
ENDBRANCH  35  36
ENDBRANCH  27  30
ENDBRANCH  25  26
ENDBRANCH  24  25
ENDBRANCH   1  24
TORSDOF 13
ENDMDL
