MODEL 1
REMARK VINA RESULT:     -11.9      0.000      0.000
REMARK SMILES N#Cc1ccc2c(c1)C=C(C(=O)NCCCCNC(=O)c1ccc(-c3c4nc(c(-c5c(F)cccc5F)c5ccc([nH]5)c(-c5c(F)cccc5F)c5nc(c(-c6c(F)cccc6F)c6ccc3[nH]6)C=C5)C=C4)cc1)[C@@H](C(F)(F)F)O2
REMARK SMILES IDX 16 1 15 2 14 3 13 4 11 5 12 6 10 8 3 9 4 10 8 11 5 12 7 13
REMARK SMILES IDX 6 14 9 15 80 16 75 17 2 18 1 19 76 20 77 21 78 22 79 23
REMARK SMILES IDX 17 24 18 25 19 26 20 28 21 29 22 30 74 31 23 32 73 33 24 34
REMARK SMILES IDX 25 35 26 36 67 37 27 38 72 39 66 40 68 41 28 42 71 43 65 44
REMARK SMILES IDX 64 45 29 47 55 48 38 49 54 50 39 51 42 52 53 53 69 54 40 55
REMARK SMILES IDX 41 56 52 58 70 59 43 60 30 61 31 62 36 63 32 64 33 65 35 66
REMARK SMILES IDX 37 67 34 68 56 69 57 70 62 71 58 72 59 73 61 74 63 75 60 76
REMARK SMILES IDX 44 77 45 78 50 79 46 80 47 81 49 82 51 83 48 84
REMARK H PARENT 13 7 18 27 68 46 42 57
REMARK Flexibility Score: inf
ROOT
ATOM      1  C   UNL A   1      33.211  29.177  25.824  1.00  0.00     0.023 C 
ENDROOT
BRANCH   1   2
ATOM      2  C   UNL A   1      33.944  28.322  24.800  1.00  0.00     0.023 C 
BRANCH   2   3
ATOM      3  C   UNL A   1      33.820  26.828  25.071  1.00  0.00     0.116 C 
BRANCH   3   4
ATOM      4  N   UNL A   1      33.518  26.072  23.868  1.00  0.00    -0.352 N 
ATOM      5  C   UNL A   1      32.468  25.950  23.016  1.00  0.00     0.251 C 
ATOM      6  O   UNL A   1      32.649  25.205  22.050  1.00  0.00    -0.270 OA
ATOM      7  H   UNL A   1      34.272  25.500  23.599  1.00  0.00     0.163 HD
BRANCH   5   8
ATOM      8  C   UNL A   1      31.153  26.638  23.188  1.00  0.00     0.067 C 
ATOM      9  C   UNL A   1      28.376  30.539  22.488  1.00  0.00     0.053 A 
ATOM     10  C   UNL A   1      27.265  29.826  22.953  1.00  0.00     0.023 A 
ATOM     11  C   UNL A   1      29.630  29.915  22.410  1.00  0.00     0.031 A 
ATOM     12  C   UNL A   1      27.407  28.498  23.341  1.00  0.00     0.048 A 
ATOM     13  C   UNL A   1      29.775  28.581  22.800  1.00  0.00     0.018 A 
ATOM     14  C   UNL A   1      28.658  27.890  23.272  1.00  0.00     0.128 A 
ATOM     15  C   UNL A   1      31.049  27.878  22.677  1.00  0.00     0.025 C 
ATOM     16  O   UNL A   1      28.691  26.585  23.650  1.00  0.00    -0.475 OA
ATOM     17  C   UNL A   1      29.994  26.014  23.909  1.00  0.00     0.314 C 
BRANCH   9  18
ATOM     18  C   UNL A   1      28.217  31.902  22.082  1.00  0.00     0.099 C 
ATOM     19  N   UNL A   1      28.084  33.004  21.738  1.00  0.00    -0.192 NA
ENDBRANCH   9  18
BRANCH  17  20
ATOM     20  C   UNL A   1      30.220  25.947  25.432  1.00  0.00     0.429 C 
ATOM     21  F   UNL A   1      29.065  25.622  26.066  1.00  0.00    -0.167 F 
ATOM     22  F   UNL A   1      31.126  25.007  25.790  1.00  0.00    -0.167 F 
ATOM     23  F   UNL A   1      30.652  27.121  25.943  1.00  0.00    -0.167 F 
ENDBRANCH  17  20
ENDBRANCH   5   8
ENDBRANCH   3   4
ENDBRANCH   2   3
ENDBRANCH   1   2
BRANCH   1  24
ATOM     24  C   UNL A   1      33.756  29.067  27.241  1.00  0.00     0.116 C 
BRANCH  24  25
ATOM     25  N   UNL A   1      33.824  30.340  27.953  1.00  0.00    -0.352 N 
ATOM     26  C   UNL A   1      34.900  30.863  28.639  1.00  0.00     0.251 C 
ATOM     27  H   UNL A   1      33.006  30.888  27.944  1.00  0.00     0.163 HD
ATOM     28  O   UNL A   1      34.803  31.895  29.290  1.00  0.00    -0.269 OA
BRANCH  26  29
ATOM     29  C   UNL A   1      36.164  30.104  28.603  1.00  0.00     0.039 A 
ATOM     30  C   UNL A   1      36.588  29.444  29.756  1.00  0.00     0.014 A 
ATOM     31  C   UNL A   1      36.999  30.216  27.491  1.00  0.00     0.014 A 
ATOM     32  C   UNL A   1      37.926  29.112  29.883  1.00  0.00     0.010 A 
ATOM     33  C   UNL A   1      38.313  29.751  27.579  1.00  0.00     0.010 A 
ATOM     34  C   UNL A   1      38.807  29.257  28.797  1.00  0.00    -0.014 A 
BRANCH  34  35
ATOM     35  C   UNL A   1      40.236  28.884  28.975  1.00  0.00     0.031 A 
ATOM     36  C   UNL A   1      41.210  29.809  29.658  1.00  0.00     0.074 A 
ATOM     37  C   UNL A   1      40.639  27.666  28.568  1.00  0.00     0.049 A 
ATOM     38  N   UNL A   1      42.485  29.630  29.901  1.00  0.00    -0.248 NA
ATOM     39  C   UNL A   1      40.691  31.104  30.125  1.00  0.00     0.031 C 
ATOM     40  C   UNL A   1      39.787  26.670  27.913  1.00  0.00     0.029 A 
ATOM     41  N   UNL A   1      41.856  27.044  28.667  1.00  0.00    -0.354 N 
ATOM     42  C   UNL A   1      42.923  30.790  30.530  1.00  0.00     0.074 A 
ATOM     43  C   UNL A   1      41.787  31.684  30.595  1.00  0.00     0.031 C 
ATOM     44  C   UNL A   1      40.488  25.544  27.725  1.00  0.00     0.029 A 
ATOM     45  C   UNL A   1      41.860  25.769  28.157  1.00  0.00     0.049 A 
ATOM     46  H   UNL A   1      42.649  27.469  29.065  1.00  0.00     0.167 HD
ATOM     47  C   UNL A   1      44.156  31.078  31.018  1.00  0.00     0.037 A 
ATOM     48  C   UNL A   1      42.864  24.887  28.018  1.00  0.00     0.037 A 
ATOM     49  C   UNL A   1      45.285  30.185  30.944  1.00  0.00     0.049 A 
ATOM     50  C   UNL A   1      44.238  25.273  28.481  1.00  0.00     0.074 A 
ATOM     51  C   UNL A   1      46.572  30.381  31.418  1.00  0.00     0.029 A 
ATOM     52  N   UNL A   1      45.268  28.932  30.349  1.00  0.00    -0.354 N 
ATOM     53  N   UNL A   1      44.634  26.366  29.088  1.00  0.00    -0.248 NA
ATOM     54  C   UNL A   1      45.310  24.301  28.231  1.00  0.00     0.031 C 
ATOM     55  C   UNL A   1      47.349  29.278  31.045  1.00  0.00     0.029 A 
ATOM     56  C   UNL A   1      46.529  28.359  30.410  1.00  0.00     0.049 A 
ATOM     57  H   UNL A   1      44.476  28.512  29.942  1.00  0.00     0.167 HD
ATOM     58  C   UNL A   1      45.993  26.201  29.317  1.00  0.00     0.074 A 
ATOM     59  C   UNL A   1      46.345  24.892  28.807  1.00  0.00     0.031 C 
ATOM     60  C   UNL A   1      46.871  27.057  29.896  1.00  0.00     0.037 A 
BRANCH  47  61
ATOM     61  C   UNL A   1      44.355  32.432  31.644  1.00  0.00     0.057 A 
ATOM     62  C   UNL A   1      44.763  33.525  30.866  1.00  0.00     0.134 A 
ATOM     63  C   UNL A   1      44.166  32.657  33.014  1.00  0.00     0.134 A 
ATOM     64  F   UNL A   1      44.978  33.382  29.549  1.00  0.00    -0.206 F 
ATOM     65  C   UNL A   1      44.969  34.787  31.425  1.00  0.00     0.040 A 
ATOM     66  C   UNL A   1      44.336  33.924  33.579  1.00  0.00     0.040 A 
ATOM     67  F   UNL A   1      43.771  31.659  33.820  1.00  0.00    -0.206 F 
ATOM     68  C   UNL A   1      44.744  34.992  32.783  1.00  0.00     0.006 A 
ENDBRANCH  47  61
BRANCH  48  69
ATOM     69  C   UNL A   1      42.618  23.568  27.384  1.00  0.00     0.057 A 
ATOM     70  C   UNL A   1      42.748  23.386  26.001  1.00  0.00     0.134 A 
ATOM     71  C   UNL A   1      42.280  22.447  28.151  1.00  0.00     0.134 A 
ATOM     72  F   UNL A   1      43.058  24.422  25.207  1.00  0.00    -0.206 F 
ATOM     73  C   UNL A   1      42.552  22.141  25.404  1.00  0.00     0.040 A 
ATOM     74  C   UNL A   1      42.118  21.188  27.572  1.00  0.00     0.040 A 
ATOM     75  F   UNL A   1      42.153  22.553  29.482  1.00  0.00    -0.206 F 
ATOM     76  C   UNL A   1      42.252  21.034  26.194  1.00  0.00     0.006 A 
ENDBRANCH  48  69
BRANCH  60  77
ATOM     77  C   UNL A   1      48.288  26.580  30.046  1.00  0.00     0.057 A 
ATOM     78  C   UNL A   1      49.246  26.883  29.069  1.00  0.00     0.134 A 
ATOM     79  C   UNL A   1      48.709  25.824  31.149  1.00  0.00     0.134 A 
ATOM     80  F   UNL A   1      48.913  27.594  27.982  1.00  0.00    -0.206 F 
ATOM     81  C   UNL A   1      50.570  26.455  29.186  1.00  0.00     0.040 A 
ATOM     82  C   UNL A   1      50.038  25.423  31.294  1.00  0.00     0.040 A 
ATOM     83  F   UNL A   1      47.846  25.511  32.127  1.00  0.00    -0.206 F 
ATOM     84  C   UNL A   1      50.971  25.734  30.308  1.00  0.00     0.006 A 
ENDBRANCH  60  77
ENDBRANCH  34  35
ENDBRANCH  26  29
ENDBRANCH  24  25
ENDBRANCH   1  24
TORSDOF 13
ENDMDL
MODEL 2
REMARK VINA RESULT:     -11.9      2.789      7.471
REMARK SMILES N#Cc1ccc2c(c1)C=C(C(=O)NCCCCNC(=O)c1ccc(-c3c4nc(c(-c5c(F)cccc5F)c5ccc([nH]5)c(-c5c(F)cccc5F)c5nc(c(-c6c(F)cccc6F)c6ccc3[nH]6)C=C5)C=C4)cc1)[C@@H](C(F)(F)F)O2
REMARK SMILES IDX 16 1 15 2 14 3 13 4 11 5 12 6 10 8 3 9 4 10 8 11 5 12 7 13
REMARK SMILES IDX 6 14 9 15 80 16 75 17 2 18 1 19 76 20 77 21 78 22 79 23
REMARK SMILES IDX 17 24 18 25 19 26 20 28 21 29 22 30 74 31 23 32 73 33 24 34
REMARK SMILES IDX 25 35 26 36 67 37 27 38 72 39 66 40 68 41 28 42 71 43 65 44
REMARK SMILES IDX 64 45 29 47 55 48 38 49 54 50 39 51 42 52 53 53 69 54 40 55
REMARK SMILES IDX 41 56 52 58 70 59 43 60 30 61 31 62 36 63 32 64 33 65 35 66
REMARK SMILES IDX 37 67 34 68 56 69 57 70 62 71 58 72 59 73 61 74 63 75 60 76
REMARK SMILES IDX 44 77 45 78 50 79 46 80 47 81 49 82 51 83 48 84
REMARK H PARENT 13 7 18 27 68 46 42 57
REMARK Flexibility Score: inf
ROOT
ATOM      1  C   UNL A   1      37.702  21.078  25.034  1.00  0.00     0.023 C 
ENDROOT
BRANCH   1   2
ATOM      2  C   UNL A   1      36.586  21.947  25.596  1.00  0.00     0.023 C 
BRANCH   2   3
ATOM      3  C   UNL A   1      36.570  23.351  25.006  1.00  0.00     0.116 C 
BRANCH   3   4
ATOM      4  N   UNL A   1      35.685  23.457  23.859  1.00  0.00    -0.352 N 
ATOM      5  C   UNL A   1      34.508  24.070  23.573  1.00  0.00     0.251 C 
ATOM      6  O   UNL A   1      34.106  23.941  22.414  1.00  0.00    -0.270 OA
ATOM      7  H   UNL A   1      36.029  22.954  23.086  1.00  0.00     0.163 HD
BRANCH   5   8
ATOM      8  C   UNL A   1      33.702  24.856  24.555  1.00  0.00     0.067 C 
ATOM      9  C   UNL A   1      32.885  29.019  26.884  1.00  0.00     0.053 A 
ATOM     10  C   UNL A   1      31.688  28.498  27.387  1.00  0.00     0.023 A 
ATOM     11  C   UNL A   1      33.686  28.246  26.029  1.00  0.00     0.031 A 
ATOM     12  C   UNL A   1      31.294  27.209  27.042  1.00  0.00     0.048 A 
ATOM     13  C   UNL A   1      33.292  26.950  25.682  1.00  0.00     0.018 A 
ATOM     14  C   UNL A   1      32.100  26.444  26.203  1.00  0.00     0.128 A 
ATOM     15  C   UNL A   1      34.065  26.137  24.749  1.00  0.00     0.025 C 
ATOM     16  O   UNL A   1      31.620  25.208  25.904  1.00  0.00    -0.475 OA
ATOM     17  C   UNL A   1      32.553  24.269  25.321  1.00  0.00     0.314 C 
BRANCH   9  18
ATOM     18  C   UNL A   1      33.277  30.349  27.238  1.00  0.00     0.099 C 
ATOM     19  N   UNL A   1      33.584  31.430  27.536  1.00  0.00    -0.192 NA
ENDBRANCH   9  18
BRANCH  17  20
ATOM     20  C   UNL A   1      33.018  23.282  26.410  1.00  0.00     0.429 C 
ATOM     21  F   UNL A   1      33.318  22.079  25.859  1.00  0.00    -0.167 F 
ATOM     22  F   UNL A   1      34.135  23.694  27.054  1.00  0.00    -0.167 F 
ATOM     23  F   UNL A   1      32.076  23.075  27.357  1.00  0.00    -0.167 F 
ENDBRANCH  17  20
ENDBRANCH   5   8
ENDBRANCH   3   4
ENDBRANCH   2   3
ENDBRANCH   1   2
BRANCH   1  24
ATOM     24  C   UNL A   1      38.984  21.091  25.853  1.00  0.00     0.116 C 
BRANCH  24  25
ATOM     25  N   UNL A   1      39.742  19.844  25.793  1.00  0.00    -0.352 N 
ATOM     26  C   UNL A   1      41.081  19.661  26.073  1.00  0.00     0.251 C 
ATOM     27  H   UNL A   1      39.241  19.043  25.521  1.00  0.00     0.163 HD
ATOM     28  O   UNL A   1      41.631  18.584  25.883  1.00  0.00    -0.269 OA
BRANCH  26  29
ATOM     29  C   UNL A   1      41.840  20.827  26.562  1.00  0.00     0.039 A 
ATOM     30  C   UNL A   1      41.888  21.074  27.933  1.00  0.00     0.014 A 
ATOM     31  C   UNL A   1      42.328  21.759  25.646  1.00  0.00     0.014 A 
ATOM     32  C   UNL A   1      42.200  22.349  28.373  1.00  0.00     0.010 A 
ATOM     33  C   UNL A   1      42.774  22.999  26.111  1.00  0.00     0.010 A 
ATOM     34  C   UNL A   1      42.650  23.328  27.471  1.00  0.00    -0.014 A 
BRANCH  34  35
ATOM     35  C   UNL A   1      42.978  24.684  27.985  1.00  0.00     0.031 A 
ATOM     36  C   UNL A   1      44.406  25.122  28.192  1.00  0.00     0.074 A 
ATOM     37  C   UNL A   1      41.971  25.550  28.207  1.00  0.00     0.049 A 
ATOM     38  N   UNL A   1      44.860  26.273  28.623  1.00  0.00    -0.248 NA
ATOM     39  C   UNL A   1      45.460  24.144  27.880  1.00  0.00     0.031 C 
ATOM     40  C   UNL A   1      40.548  25.254  28.024  1.00  0.00     0.029 A 
ATOM     41  N   UNL A   1      41.986  26.860  28.608  1.00  0.00    -0.354 N 
ATOM     42  C   UNL A   1      46.245  26.152  28.652  1.00  0.00     0.074 A 
ATOM     43  C   UNL A   1      46.555  24.802  28.233  1.00  0.00     0.031 C 
ATOM     44  C   UNL A   1      39.834  26.364  28.251  1.00  0.00     0.029 A 
ATOM     45  C   UNL A   1      40.735  27.421  28.687  1.00  0.00     0.049 A 
ATOM     46  H   UNL A   1      42.813  27.352  28.818  1.00  0.00     0.167 HD
ATOM     47  C   UNL A   1      47.173  27.084  28.985  1.00  0.00     0.037 A 
ATOM     48  C   UNL A   1      40.349  28.641  29.099  1.00  0.00     0.037 A 
ATOM     49  C   UNL A   1      46.857  28.426  29.408  1.00  0.00     0.049 A 
ATOM     50  C   UNL A   1      41.394  29.617  29.553  1.00  0.00     0.074 A 
ATOM     51  C   UNL A   1      47.725  29.447  29.757  1.00  0.00     0.029 A 
ATOM     52  N   UNL A   1      45.573  28.931  29.550  1.00  0.00    -0.354 N 
ATOM     53  N   UNL A   1      42.699  29.495  29.560  1.00  0.00    -0.248 NA
ATOM     54  C   UNL A   1      40.907  30.904  30.067  1.00  0.00     0.031 C 
ATOM     55  C   UNL A   1      46.965  30.544  30.180  1.00  0.00     0.029 A 
ATOM     56  C   UNL A   1      45.624  30.236  30.018  1.00  0.00     0.049 A 
ATOM     57  H   UNL A   1      44.746  28.435  29.350  1.00  0.00     0.167 HD
ATOM     58  C   UNL A   1      43.190  30.697  30.050  1.00  0.00     0.074 A 
ATOM     59  C   UNL A   1      42.042  31.543  30.305  1.00  0.00     0.031 C 
ATOM     60  C   UNL A   1      44.475  31.068  30.272  1.00  0.00     0.037 A 
BRANCH  47  61
ATOM     61  C   UNL A   1      48.619  26.671  28.941  1.00  0.00     0.057 A 
ATOM     62  C   UNL A   1      49.233  26.102  30.065  1.00  0.00     0.134 A 
ATOM     63  C   UNL A   1      49.413  26.851  27.800  1.00  0.00     0.134 A 
ATOM     64  F   UNL A   1      48.540  25.913  31.199  1.00  0.00    -0.206 F 
ATOM     65  C   UNL A   1      50.578  25.725  30.054  1.00  0.00     0.040 A 
ATOM     66  C   UNL A   1      50.750  26.445  27.766  1.00  0.00     0.040 A 
ATOM     67  F   UNL A   1      48.891  27.385  26.685  1.00  0.00    -0.206 F 
ATOM     68  C   UNL A   1      51.336  25.884  28.898  1.00  0.00     0.006 A 
ENDBRANCH  47  61
BRANCH  48  69
ATOM     69  C   UNL A   1      38.908  28.996  29.134  1.00  0.00     0.057 A 
ATOM     70  C   UNL A   1      38.152  28.864  30.306  1.00  0.00     0.134 A 
ATOM     71  C   UNL A   1      38.261  29.509  28.005  1.00  0.00     0.134 A 
ATOM     72  F   UNL A   1      38.709  28.367  31.421  1.00  0.00    -0.206 F 
ATOM     73  C   UNL A   1      36.807  29.229  30.354  1.00  0.00     0.040 A 
ATOM     74  C   UNL A   1      36.926  29.913  28.049  1.00  0.00     0.040 A 
ATOM     75  F   UNL A   1      38.934  29.671  26.856  1.00  0.00    -0.206 F 
ATOM     76  C   UNL A   1      36.195  29.771  29.227  1.00  0.00     0.006 A 
ENDBRANCH  48  69
BRANCH  60  77
ATOM     77  C   UNL A   1      44.703  32.465  30.775  1.00  0.00     0.057 A 
ATOM     78  C   UNL A   1      44.781  32.721  32.151  1.00  0.00     0.134 A 
ATOM     79  C   UNL A   1      44.846  33.557  29.908  1.00  0.00     0.134 A 
ATOM     80  F   UNL A   1      44.643  31.725  33.039  1.00  0.00    -0.206 F 
ATOM     81  C   UNL A   1      44.996  34.008  32.644  1.00  0.00     0.040 A 
ATOM     82  C   UNL A   1      45.099  34.843  30.389  1.00  0.00     0.040 A 
ATOM     83  F   UNL A   1      44.797  33.381  28.579  1.00  0.00    -0.206 F 
ATOM     84  C   UNL A   1      45.169  35.071  31.761  1.00  0.00     0.006 A 
ENDBRANCH  60  77
ENDBRANCH  34  35
ENDBRANCH  26  29
ENDBRANCH  24  25
ENDBRANCH   1  24
TORSDOF 13
ENDMDL
MODEL 3
REMARK VINA RESULT:     -11.8      3.582      5.875
REMARK SMILES N#Cc1ccc2c(c1)C=C(C(=O)NCCCCNC(=O)c1ccc(-c3c4nc(c(-c5c(F)cccc5F)c5ccc([nH]5)c(-c5c(F)cccc5F)c5nc(c(-c6c(F)cccc6F)c6ccc3[nH]6)C=C5)C=C4)cc1)[C@@H](C(F)(F)F)O2
REMARK SMILES IDX 16 1 15 2 14 3 13 4 11 5 12 6 10 8 3 9 4 10 8 11 5 12 7 13
REMARK SMILES IDX 6 14 9 15 80 16 75 17 2 18 1 19 76 20 77 21 78 22 79 23
REMARK SMILES IDX 17 24 18 25 19 26 20 28 21 29 22 30 74 31 23 32 73 33 24 34
REMARK SMILES IDX 25 35 26 36 67 37 27 38 72 39 66 40 68 41 28 42 71 43 65 44
REMARK SMILES IDX 64 45 29 47 55 48 38 49 54 50 39 51 42 52 53 53 69 54 40 55
REMARK SMILES IDX 41 56 52 58 70 59 43 60 30 61 31 62 36 63 32 64 33 65 35 66
REMARK SMILES IDX 37 67 34 68 56 69 57 70 62 71 58 72 59 73 61 74 63 75 60 76
REMARK SMILES IDX 44 77 45 78 50 79 46 80 47 81 49 82 51 83 48 84
REMARK H PARENT 13 7 18 27 68 46 42 57
REMARK Flexibility Score: inf
ROOT
ATOM      1  C   UNL A   1      32.325  30.862  26.872  1.00  0.00     0.023 C 
ENDROOT
BRANCH   1   2
ATOM      2  C   UNL A   1      32.977  29.727  26.094  1.00  0.00     0.023 C 
BRANCH   2   3
ATOM      3  C   UNL A   1      33.222  28.487  26.942  1.00  0.00     0.116 C 
BRANCH   3   4
ATOM      4  N   UNL A   1      32.130  27.534  26.854  1.00  0.00    -0.352 N 
ATOM      5  C   UNL A   1      31.920  26.322  26.280  1.00  0.00     0.251 C 
ATOM      6  O   UNL A   1      30.819  25.810  26.499  1.00  0.00    -0.270 OA
ATOM      7  H   UNL A   1      31.333  27.847  27.339  1.00  0.00     0.163 HD
BRANCH   5   8
ATOM      8  C   UNL A   1      32.915  25.607  25.423  1.00  0.00     0.067 C 
ATOM      9  C   UNL A   1      36.884  22.863  25.062  1.00  0.00     0.053 A 
ATOM     10  C   UNL A   1      36.653  22.717  23.690  1.00  0.00     0.023 A 
ATOM     11  C   UNL A   1      35.995  23.608  25.850  1.00  0.00     0.031 A 
ATOM     12  C   UNL A   1      35.542  23.317  23.107  1.00  0.00     0.048 A 
ATOM     13  C   UNL A   1      34.877  24.212  25.267  1.00  0.00     0.018 A 
ATOM     14  C   UNL A   1      34.670  24.064  23.894  1.00  0.00     0.128 A 
ATOM     15  C   UNL A   1      33.896  24.944  26.062  1.00  0.00     0.025 C 
ATOM     16  O   UNL A   1      33.601  24.590  23.239  1.00  0.00    -0.475 OA
ATOM     17  C   UNL A   1      32.863  25.628  23.924  1.00  0.00     0.314 C 
BRANCH   9  18
ATOM     18  C   UNL A   1      38.026  22.235  25.654  1.00  0.00     0.099 C 
ATOM     19  N   UNL A   1      38.957  21.718  26.120  1.00  0.00    -0.192 NA
ENDBRANCH   9  18
BRANCH  17  20
ATOM     20  C   UNL A   1      33.264  26.997  23.343  1.00  0.00     0.429 C 
ATOM     21  F   UNL A   1      33.601  26.874  22.034  1.00  0.00    -0.167 F 
ATOM     22  F   UNL A   1      32.262  27.906  23.393  1.00  0.00    -0.167 F 
ATOM     23  F   UNL A   1      34.319  27.544  23.988  1.00  0.00    -0.167 F 
ENDBRANCH  17  20
ENDBRANCH   5   8
ENDBRANCH   3   4
ENDBRANCH   2   3
ENDBRANCH   1   2
BRANCH   1  24
ATOM     24  C   UNL A   1      33.303  31.891  27.420  1.00  0.00     0.116 C 
BRANCH  24  25
ATOM     25  N   UNL A   1      32.720  33.214  27.629  1.00  0.00    -0.352 N 
ATOM     26  C   UNL A   1      33.164  34.203  28.482  1.00  0.00     0.251 C 
ATOM     27  H   UNL A   1      31.917  33.424  27.100  1.00  0.00     0.163 HD
ATOM     28  O   UNL A   1      32.527  35.235  28.650  1.00  0.00    -0.269 OA
BRANCH  26  29
ATOM     29  C   UNL A   1      34.410  33.949  29.228  1.00  0.00     0.039 A 
ATOM     30  C   UNL A   1      35.631  34.261  28.629  1.00  0.00     0.014 A 
ATOM     31  C   UNL A   1      34.360  33.233  30.424  1.00  0.00     0.014 A 
ATOM     32  C   UNL A   1      36.781  33.650  29.095  1.00  0.00     0.010 A 
ATOM     33  C   UNL A   1      35.546  32.734  30.968  1.00  0.00     0.010 A 
ATOM     34  C   UNL A   1      36.757  32.881  30.272  1.00  0.00    -0.014 A 
BRANCH  34  35
ATOM     35  C   UNL A   1      38.017  32.245  30.742  1.00  0.00     0.031 A 
ATOM     36  C   UNL A   1      38.787  32.798  31.914  1.00  0.00     0.074 A 
ATOM     37  C   UNL A   1      38.432  31.115  30.138  1.00  0.00     0.049 A 
ATOM     38  N   UNL A   1      39.895  32.355  32.454  1.00  0.00    -0.248 NA
ATOM     39  C   UNL A   1      38.249  34.004  32.561  1.00  0.00     0.031 C 
ATOM     40  C   UNL A   1      37.762  30.468  29.007  1.00  0.00     0.029 A 
ATOM     41  N   UNL A   1      39.498  30.296  30.403  1.00  0.00    -0.354 N 
ATOM     42  C   UNL A   1      40.197  33.234  33.488  1.00  0.00     0.074 A 
ATOM     43  C   UNL A   1      39.176  34.260  33.474  1.00  0.00     0.031 C 
ATOM     44  C   UNL A   1      38.395  29.324  28.716  1.00  0.00     0.029 A 
ATOM     45  C   UNL A   1      39.566  29.204  29.573  1.00  0.00     0.049 A 
ATOM     46  H   UNL A   1      40.150  30.472  31.119  1.00  0.00     0.167 HD
ATOM     47  C   UNL A   1      41.223  33.185  34.374  1.00  0.00     0.037 A 
ATOM     48  C   UNL A   1      40.487  28.230  29.485  1.00  0.00     0.037 A 
ATOM     49  C   UNL A   1      42.241  32.163  34.378  1.00  0.00     0.049 A 
ATOM     50  C   UNL A   1      41.663  28.257  30.417  1.00  0.00     0.074 A 
ATOM     51  C   UNL A   1      43.315  32.020  35.240  1.00  0.00     0.029 A 
ATOM     52  N   UNL A   1      42.318  31.117  33.470  1.00  0.00    -0.354 N 
ATOM     53  N   UNL A   1      41.925  29.085  31.398  1.00  0.00    -0.248 NA
ATOM     54  C   UNL A   1      42.677  27.213  30.220  1.00  0.00     0.031 C 
ATOM     55  C   UNL A   1      44.081  30.931  34.808  1.00  0.00     0.029 A 
ATOM     56  C   UNL A   1      43.442  30.347  33.728  1.00  0.00     0.049 A 
ATOM     57  H   UNL A   1      41.670  30.948  32.748  1.00  0.00     0.167 HD
ATOM     58  C   UNL A   1      43.119  28.645  31.955  1.00  0.00     0.074 A 
ATOM     59  C   UNL A   1      43.513  27.464  31.216  1.00  0.00     0.031 C 
ATOM     60  C   UNL A   1      43.827  29.174  32.983  1.00  0.00     0.037 A 
BRANCH  47  61
ATOM     61  C   UNL A   1      41.316  34.290  35.391  1.00  0.00     0.057 A 
ATOM     62  C   UNL A   1      40.670  34.174  36.630  1.00  0.00     0.134 A 
ATOM     63  C   UNL A   1      42.022  35.475  35.146  1.00  0.00     0.134 A 
ATOM     64  F   UNL A   1      39.962  33.075  36.931  1.00  0.00    -0.206 F 
ATOM     65  C   UNL A   1      40.729  35.191  37.585  1.00  0.00     0.040 A 
ATOM     66  C   UNL A   1      42.117  36.484  36.108  1.00  0.00     0.040 A 
ATOM     67  F   UNL A   1      42.669  35.653  33.984  1.00  0.00    -0.206 F 
ATOM     68  C   UNL A   1      41.464  36.345  37.330  1.00  0.00     0.006 A 
ENDBRANCH  47  61
BRANCH  48  69
ATOM     69  C   UNL A   1      40.356  27.168  28.456  1.00  0.00     0.057 A 
ATOM     70  C   UNL A   1      39.548  26.042  28.667  1.00  0.00     0.134 A 
ATOM     71  C   UNL A   1      41.007  27.270  27.222  1.00  0.00     0.134 A 
ATOM     72  F   UNL A   1      38.906  25.877  29.833  1.00  0.00    -0.206 F 
ATOM     73  C   UNL A   1      39.393  25.059  27.691  1.00  0.00     0.040 A 
ATOM     74  C   UNL A   1      40.831  26.313  26.222  1.00  0.00     0.040 A 
ATOM     75  F   UNL A   1      41.784  28.330  26.954  1.00  0.00    -0.206 F 
ATOM     76  C   UNL A   1      40.024  25.202  26.457  1.00  0.00     0.006 A 
ENDBRANCH  48  69
BRANCH  60  77
ATOM     77  C   UNL A   1      45.076  28.446  33.395  1.00  0.00     0.057 A 
ATOM     78  C   UNL A   1      45.016  27.407  34.333  1.00  0.00     0.134 A 
ATOM     79  C   UNL A   1      46.335  28.768  32.869  1.00  0.00     0.134 A 
ATOM     80  F   UNL A   1      43.846  27.052  34.885  1.00  0.00    -0.206 F 
ATOM     81  C   UNL A   1      46.160  26.713  34.728  1.00  0.00     0.040 A 
ATOM     82  C   UNL A   1      47.480  28.055  33.229  1.00  0.00     0.040 A 
ATOM     83  F   UNL A   1      46.462  29.742  31.956  1.00  0.00    -0.206 F 
ATOM     84  C   UNL A   1      47.394  27.028  34.166  1.00  0.00     0.006 A 
ENDBRANCH  60  77
ENDBRANCH  34  35
ENDBRANCH  26  29
ENDBRANCH  24  25
ENDBRANCH   1  24
TORSDOF 13
ENDMDL
