MODEL 1
REMARK VINA RESULT:     -12.3      0.000      0.000
REMARK SMILES N#Cc1ccc(C(=O)NCCCCNC(=O)c2ccc(-c3c4nc(c(-c5c(F)cccc5F)c5ccc([nH]5)c(-c5c(F)cccc5F)c5nc(c(-c6c(F)cccc6F)c6ccc3[nH]6)C=C5)C=C4)cc2)nc1/C=C/c1ccc(O)c(Cl)c1
REMARK SMILES IDX 11 1 10 2 9 3 7 4 8 5 6 7 3 8 4 9 72 10 5 11 71 12 2 13 1 14
REMARK SMILES IDX 73 15 74 16 75 17 76 18 82 19 77 20 80 21 78 22 81 23 79 24
REMARK SMILES IDX 12 26 13 27 14 28 15 29 16 31 17 32 18 33 70 34 19 35 69 36
REMARK SMILES IDX 20 37 21 38 22 39 63 40 23 41 68 42 62 43 64 44 24 45 67 46
REMARK SMILES IDX 61 47 60 48 25 50 51 51 34 52 50 53 35 54 38 55 49 56 65 57
REMARK SMILES IDX 36 58 37 59 48 61 66 62 39 63 26 64 27 65 32 66 28 67 29 68
REMARK SMILES IDX 31 69 33 70 30 71 52 72 53 73 58 74 54 75 55 76 57 77 59 78
REMARK SMILES IDX 56 79 40 80 41 81 46 82 42 83 43 84 45 85 47 86 44 87
REMARK H PARENT 9 6 79 25 14 30 64 49 38 60
REMARK Flexibility Score: inf
ROOT
ATOM      1  C   UNL A   1      31.789  30.497  26.729  1.00  0.00     0.023 C 
ENDROOT
BRANCH   1   2
ATOM      2  C   UNL A   1      33.124  30.084  26.126  1.00  0.00     0.116 C 
BRANCH   2   3
ATOM      3  N   UNL A   1      33.073  29.805  24.703  1.00  0.00    -0.351 N 
ATOM      4  C   UNL A   1      32.651  28.708  23.975  1.00  0.00     0.269 C 
ATOM      5  O   UNL A   1      32.760  28.790  22.750  1.00  0.00    -0.268 OA
ATOM      6  H   UNL A   1      33.405  30.545  24.144  1.00  0.00     0.163 HD
BRANCH   4   7
ATOM      7  C   UNL A   1      32.112  27.442  24.596  1.00  0.00     0.128 A 
ATOM      8  C   UNL A   1      31.330  25.176  25.964  1.00  0.00     0.078 A 
ATOM      9  C   UNL A   1      30.372  26.089  25.534  1.00  0.00     0.024 A 
ATOM     10  C   UNL A   1      32.655  25.385  25.577  1.00  0.00     0.082 A 
ATOM     11  C   UNL A   1      30.762  27.185  24.770  1.00  0.00     0.035 A 
ATOM     12  N   UNL A   1      33.054  26.527  24.958  1.00  0.00    -0.242 NA
BRANCH   8  13
ATOM     13  C   UNL A   1      30.906  24.038  26.717  1.00  0.00     0.101 C 
ATOM     14  N   UNL A   1      30.575  23.116  27.342  1.00  0.00    -0.192 NA
ENDBRANCH   8  13
BRANCH  10  15
ATOM     15  C   UNL A   1      33.660  24.309  25.686  1.00  0.00     0.030 C 
ATOM     16  C   UNL A   1      34.961  24.432  25.375  1.00  0.00     0.010 C 
BRANCH  16  17
ATOM     17  C   UNL A   1      35.835  23.253  25.314  1.00  0.00    -0.024 A 
ATOM     18  C   UNL A   1      35.352  22.044  24.802  1.00  0.00     0.012 A 
ATOM     19  C   UNL A   1      37.153  23.313  25.800  1.00  0.00     0.032 A 
ATOM     20  C   UNL A   1      36.184  20.923  24.731  1.00  0.00     0.048 A 
ATOM     21  C   UNL A   1      37.981  22.195  25.726  1.00  0.00     0.083 A 
ATOM     22  C   UNL A   1      37.496  21.005  25.184  1.00  0.00     0.134 A 
ATOM     23  Cl  UNL A   1      39.603  22.300  26.303  1.00  0.00    -0.080 Cl
BRANCH  22  24
ATOM     24  O   UNL A   1      38.277  19.887  25.076  1.00  0.00    -0.506 OA
ATOM     25  H   UNL A   1      37.889  19.066  24.846  1.00  0.00     0.293 HD
ENDBRANCH  22  24
ENDBRANCH  16  17
ENDBRANCH  10  15
ENDBRANCH   4   7
ENDBRANCH   2   3
ENDBRANCH   1   2
BRANCH   1  26
ATOM     26  C   UNL A   1      31.542  31.994  26.826  1.00  0.00     0.023 C 
BRANCH  26  27
ATOM     27  C   UNL A   1      32.733  32.823  27.286  1.00  0.00     0.116 C 
BRANCH  27  28
ATOM     28  N   UNL A   1      32.392  34.196  27.640  1.00  0.00    -0.352 N 
ATOM     29  C   UNL A   1      32.976  35.019  28.574  1.00  0.00     0.251 C 
ATOM     30  H   UNL A   1      31.639  34.588  27.141  1.00  0.00     0.163 HD
ATOM     31  O   UNL A   1      32.491  36.114  28.833  1.00  0.00    -0.269 OA
BRANCH  29  32
ATOM     32  C   UNL A   1      34.178  34.547  29.291  1.00  0.00     0.039 A 
ATOM     33  C   UNL A   1      34.029  33.922  30.529  1.00  0.00     0.014 A 
ATOM     34  C   UNL A   1      35.437  34.656  28.696  1.00  0.00     0.014 A 
ATOM     35  C   UNL A   1      35.138  33.330  31.134  1.00  0.00     0.010 A 
ATOM     36  C   UNL A   1      36.515  33.975  29.248  1.00  0.00     0.010 A 
ATOM     37  C   UNL A   1      36.379  33.308  30.475  1.00  0.00    -0.014 A 
BRANCH  37  38
ATOM     38  C   UNL A   1      37.544  32.591  31.049  1.00  0.00     0.031 A 
ATOM     39  C   UNL A   1      38.173  33.074  32.326  1.00  0.00     0.074 A 
ATOM     40  C   UNL A   1      38.074  31.541  30.391  1.00  0.00     0.049 A 
ATOM     41  N   UNL A   1      39.219  32.609  32.961  1.00  0.00    -0.248 NA
ATOM     42  C   UNL A   1      37.565  34.255  32.958  1.00  0.00     0.031 C 
ATOM     43  C   UNL A   1      37.586  31.004  29.119  1.00  0.00     0.029 A 
ATOM     44  N   UNL A   1      39.144  30.738  30.699  1.00  0.00    -0.354 N 
ATOM     45  C   UNL A   1      39.396  33.444  34.056  1.00  0.00     0.074 A 
ATOM     46  C   UNL A   1      38.397  34.484  33.962  1.00  0.00     0.031 C 
ATOM     47  C   UNL A   1      38.327  29.939  28.778  1.00  0.00     0.029 A 
ATOM     48  C   UNL A   1      39.374  29.748  29.775  1.00  0.00     0.049 A 
ATOM     49  H   UNL A   1      39.694  30.861  31.506  1.00  0.00     0.167 HD
ATOM     50  C   UNL A   1      40.295  33.340  35.064  1.00  0.00     0.037 A 
ATOM     51  C   UNL A   1      40.327  28.797  29.733  1.00  0.00     0.037 A 
ATOM     52  C   UNL A   1      41.285  32.299  35.154  1.00  0.00     0.049 A 
ATOM     53  C   UNL A   1      41.340  28.725  30.844  1.00  0.00     0.074 A 
ATOM     54  C   UNL A   1      42.206  32.072  36.162  1.00  0.00     0.029 A 
ATOM     55  N   UNL A   1      41.495  31.321  34.193  1.00  0.00    -0.354 N 
ATOM     56  N   UNL A   1      41.448  29.473  31.914  1.00  0.00    -0.248 NA
ATOM     57  C   UNL A   1      42.359  27.673  30.741  1.00  0.00     0.031 C 
ATOM     58  C   UNL A   1      43.022  31.005  35.774  1.00  0.00     0.029 A 
ATOM     59  C   UNL A   1      42.558  30.513  34.564  1.00  0.00     0.049 A 
ATOM     60  H   UNL A   1      40.967  31.216  33.368  1.00  0.00     0.167 HD
ATOM     61  C   UNL A   1      42.524  28.963  32.630  1.00  0.00     0.074 A 
ATOM     62  C   UNL A   1      43.024  27.831  31.876  1.00  0.00     0.031 C 
ATOM     63  C   UNL A   1      43.047  29.388  33.806  1.00  0.00     0.037 A 
BRANCH  50  64
ATOM     64  C   UNL A   1      40.256  34.392  36.137  1.00  0.00     0.057 A 
ATOM     65  C   UNL A   1      39.454  34.263  37.281  1.00  0.00     0.134 A 
ATOM     66  C   UNL A   1      41.043  35.547  36.033  1.00  0.00     0.134 A 
ATOM     67  F   UNL A   1      38.667  33.188  37.442  1.00  0.00    -0.206 F 
ATOM     68  C   UNL A   1      39.407  35.259  38.258  1.00  0.00     0.040 A 
ATOM     69  C   UNL A   1      41.032  36.531  37.021  1.00  0.00     0.040 A 
ATOM     70  F   UNL A   1      41.840  35.734  34.971  1.00  0.00    -0.206 F 
ATOM     71  C   UNL A   1      40.203  36.395  38.133  1.00  0.00     0.006 A 
ENDBRANCH  50  64
BRANCH  51  72
ATOM     72  C   UNL A   1      40.358  27.823  28.611  1.00  0.00     0.057 A 
ATOM     73  C   UNL A   1      41.074  28.094  27.438  1.00  0.00     0.134 A 
ATOM     74  C   UNL A   1      39.672  26.605  28.678  1.00  0.00     0.134 A 
ATOM     75  F   UNL A   1      41.738  29.252  27.305  1.00  0.00    -0.206 F 
ATOM     76  C   UNL A   1      41.089  27.200  26.367  1.00  0.00     0.040 A 
ATOM     77  C   UNL A   1      39.705  25.686  27.626  1.00  0.00     0.040 A 
ATOM     78  F   UNL A   1      38.974  26.279  29.776  1.00  0.00    -0.206 F 
ATOM     79  C   UNL A   1      40.408  25.989  26.462  1.00  0.00     0.006 A 
ENDBRANCH  51  72
BRANCH  63  80
ATOM     80  C   UNL A   1      44.196  28.604  34.378  1.00  0.00     0.057 A 
ATOM     81  C   UNL A   1      45.531  28.946  34.130  1.00  0.00     0.134 A 
ATOM     82  C   UNL A   1      43.958  27.511  35.222  1.00  0.00     0.134 A 
ATOM     83  F   UNL A   1      45.833  29.975  33.323  1.00  0.00    -0.206 F 
ATOM     84  C   UNL A   1      46.587  28.213  34.677  1.00  0.00     0.040 A 
ATOM     85  C   UNL A   1      45.003  26.794  35.804  1.00  0.00     0.040 A 
ATOM     86  F   UNL A   1      42.703  27.134  35.513  1.00  0.00    -0.206 F 
ATOM     87  C   UNL A   1      46.323  27.139  35.524  1.00  0.00     0.006 A 
ENDBRANCH  63  80
ENDBRANCH  37  38
ENDBRANCH  29  32
ENDBRANCH  27  28
ENDBRANCH  26  27
ENDBRANCH   1  26
TORSDOF 15
ENDMDL
MODEL 2
REMARK VINA RESULT:     -12.2      4.957     10.478
REMARK SMILES N#Cc1ccc(C(=O)NCCCCNC(=O)c2ccc(-c3c4nc(c(-c5c(F)cccc5F)c5ccc([nH]5)c(-c5c(F)cccc5F)c5nc(c(-c6c(F)cccc6F)c6ccc3[nH]6)C=C5)C=C4)cc2)nc1/C=C/c1ccc(O)c(Cl)c1
REMARK SMILES IDX 11 1 10 2 9 3 7 4 8 5 6 7 3 8 4 9 72 10 5 11 71 12 2 13 1 14
REMARK SMILES IDX 73 15 74 16 75 17 76 18 82 19 77 20 80 21 78 22 81 23 79 24
REMARK SMILES IDX 12 26 13 27 14 28 15 29 16 31 17 32 18 33 70 34 19 35 69 36
REMARK SMILES IDX 20 37 21 38 22 39 63 40 23 41 68 42 62 43 64 44 24 45 67 46
REMARK SMILES IDX 61 47 60 48 25 50 51 51 34 52 50 53 35 54 38 55 49 56 65 57
REMARK SMILES IDX 36 58 37 59 48 61 66 62 39 63 26 64 27 65 32 66 28 67 29 68
REMARK SMILES IDX 31 69 33 70 30 71 52 72 53 73 58 74 54 75 55 76 57 77 59 78
REMARK SMILES IDX 56 79 40 80 41 81 46 82 42 83 43 84 45 85 47 86 44 87
REMARK H PARENT 9 6 79 25 14 30 64 49 38 60
REMARK Flexibility Score: inf
ROOT
ATOM      1  C   UNL A   1      37.284  20.919  24.665  1.00  0.00     0.023 C 
ENDROOT
BRANCH   1   2
ATOM      2  C   UNL A   1      36.963  21.836  25.837  1.00  0.00     0.116 C 
BRANCH   2   3
ATOM      3  N   UNL A   1      35.706  21.538  26.498  1.00  0.00    -0.351 N 
ATOM      4  C   UNL A   1      34.393  21.859  26.209  1.00  0.00     0.269 C 
ATOM      5  O   UNL A   1      33.543  21.455  27.006  1.00  0.00    -0.268 OA
ATOM      6  H   UNL A   1      35.810  21.000  27.316  1.00  0.00     0.163 HD
BRANCH   4   7
ATOM      7  C   UNL A   1      33.971  22.687  25.020  1.00  0.00     0.128 A 
ATOM      8  C   UNL A   1      33.462  24.364  22.887  1.00  0.00     0.078 A 
ATOM      9  C   UNL A   1      33.391  22.985  22.715  1.00  0.00     0.024 A 
ATOM     10  C   UNL A   1      33.673  24.853  24.177  1.00  0.00     0.082 A 
ATOM     11  C   UNL A   1      33.563  22.146  23.812  1.00  0.00     0.035 A 
ATOM     12  N   UNL A   1      33.983  24.035  25.217  1.00  0.00    -0.242 NA
BRANCH   8  13
ATOM     13  C   UNL A   1      33.248  25.210  21.756  1.00  0.00     0.101 C 
ATOM     14  N   UNL A   1      33.081  25.912  20.845  1.00  0.00    -0.192 NA
ENDBRANCH   8  13
BRANCH  10  15
ATOM     15  C   UNL A   1      33.418  26.269  24.507  1.00  0.00     0.030 C 
ATOM     16  C   UNL A   1      33.583  26.823  25.720  1.00  0.00     0.010 C 
BRANCH  16  17
ATOM     17  C   UNL A   1      33.104  28.183  25.998  1.00  0.00    -0.024 A 
ATOM     18  C   UNL A   1      31.926  28.649  25.404  1.00  0.00     0.012 A 
ATOM     19  C   UNL A   1      33.836  29.043  26.834  1.00  0.00     0.032 A 
ATOM     20  C   UNL A   1      31.459  29.939  25.676  1.00  0.00     0.048 A 
ATOM     21  C   UNL A   1      33.367  30.327  27.106  1.00  0.00     0.083 A 
ATOM     22  C   UNL A   1      32.175  30.768  26.532  1.00  0.00     0.134 A 
ATOM     23  Cl  UNL A   1      34.268  31.356  28.157  1.00  0.00    -0.080 Cl
BRANCH  22  24
ATOM     24  O   UNL A   1      31.668  32.014  26.781  1.00  0.00    -0.506 OA
ATOM     25  H   UNL A   1      32.248  32.739  26.909  1.00  0.00     0.293 HD
ENDBRANCH  22  24
ENDBRANCH  16  17
ENDBRANCH  10  15
ENDBRANCH   4   7
ENDBRANCH   2   3
ENDBRANCH   1   2
BRANCH   1  26
ATOM     26  C   UNL A   1      38.180  19.732  24.980  1.00  0.00     0.023 C 
BRANCH  26  27
ATOM     27  C   UNL A   1      39.416  20.051  25.810  1.00  0.00     0.116 C 
BRANCH  27  28
ATOM     28  N   UNL A   1      40.389  18.965  25.855  1.00  0.00    -0.352 N 
ATOM     29  C   UNL A   1      41.742  19.026  26.095  1.00  0.00     0.251 C 
ATOM     30  H   UNL A   1      40.028  18.064  25.690  1.00  0.00     0.163 HD
ATOM     31  O   UNL A   1      42.443  18.027  25.981  1.00  0.00    -0.269 OA
BRANCH  29  32
ATOM     32  C   UNL A   1      42.346  20.324  26.455  1.00  0.00     0.039 A 
ATOM     33  C   UNL A   1      42.931  21.102  25.456  1.00  0.00     0.014 A 
ATOM     34  C   UNL A   1      42.261  20.798  27.767  1.00  0.00     0.014 A 
ATOM     35  C   UNL A   1      43.356  22.396  25.758  1.00  0.00     0.010 A 
ATOM     36  C   UNL A   1      42.586  22.120  28.039  1.00  0.00     0.010 A 
ATOM     37  C   UNL A   1      43.142  22.933  27.039  1.00  0.00    -0.014 A 
BRANCH  37  38
ATOM     38  C   UNL A   1      43.487  24.342  27.352  1.00  0.00     0.031 A 
ATOM     39  C   UNL A   1      44.920  24.796  27.304  1.00  0.00     0.074 A 
ATOM     40  C   UNL A   1      42.520  25.199  27.737  1.00  0.00     0.049 A 
ATOM     41  N   UNL A   1      45.425  25.971  27.584  1.00  0.00    -0.248 NA
ATOM     42  C   UNL A   1      45.921  23.789  26.922  1.00  0.00     0.031 C 
ATOM     43  C   UNL A   1      41.100  24.868  27.869  1.00  0.00     0.029 A 
ATOM     44  N   UNL A   1      42.586  26.522  28.091  1.00  0.00    -0.354 N 
ATOM     45  C   UNL A   1      46.797  25.839  27.420  1.00  0.00     0.074 A 
ATOM     46  C   UNL A   1      47.053  24.456  27.086  1.00  0.00     0.031 C 
ATOM     47  C   UNL A   1      40.424  25.968  28.235  1.00  0.00     0.029 A 
ATOM     48  C   UNL A   1      41.367  27.067  28.415  1.00  0.00     0.049 A 
ATOM     49  H   UNL A   1      43.427  27.033  28.111  1.00  0.00     0.167 HD
ATOM     50  C   UNL A   1      47.756  26.790  27.513  1.00  0.00     0.037 A 
ATOM     51  C   UNL A   1      41.046  28.311  28.819  1.00  0.00     0.037 A 
ATOM     52  C   UNL A   1      47.495  28.167  27.842  1.00  0.00     0.049 A 
ATOM     53  C   UNL A   1      42.134  29.341  28.955  1.00  0.00     0.074 A 
ATOM     54  C   UNL A   1      48.389  29.221  27.908  1.00  0.00     0.029 A 
ATOM     55  N   UNL A   1      46.249  28.678  28.175  1.00  0.00    -0.354 N 
ATOM     56  N   UNL A   1      43.418  29.223  28.721  1.00  0.00    -0.248 NA
ATOM     57  C   UNL A   1      41.726  30.678  29.407  1.00  0.00     0.031 C 
ATOM     58  C   UNL A   1      47.699  30.351  28.356  1.00  0.00     0.029 A 
ATOM     59  C   UNL A   1      46.358  30.023  28.488  1.00  0.00     0.049 A 
ATOM     60  H   UNL A   1      45.411  28.161  28.187  1.00  0.00     0.167 HD
ATOM     61  C   UNL A   1      43.967  30.477  28.963  1.00  0.00     0.074 A 
ATOM     62  C   UNL A   1      42.871  31.343  29.348  1.00  0.00     0.031 C 
ATOM     63  C   UNL A   1      45.260  30.876  28.870  1.00  0.00     0.037 A 
BRANCH  50  64
ATOM     64  C   UNL A   1      49.179  26.363  27.275  1.00  0.00     0.057 A 
ATOM     65  C   UNL A   1      50.019  25.953  28.319  1.00  0.00     0.134 A 
ATOM     66  C   UNL A   1      49.711  26.349  25.979  1.00  0.00     0.134 A 
ATOM     67  F   UNL A   1      49.580  25.951  29.587  1.00  0.00    -0.206 F 
ATOM     68  C   UNL A   1      51.346  25.583  28.089  1.00  0.00     0.040 A 
ATOM     69  C   UNL A   1      51.024  25.946  25.732  1.00  0.00     0.040 A 
ATOM     70  F   UNL A   1      48.963  26.720  24.930  1.00  0.00    -0.206 F 
ATOM     71  C   UNL A   1      51.850  25.573  26.791  1.00  0.00     0.006 A 
ENDBRANCH  50  64
BRANCH  51  72
ATOM     72  C   UNL A   1      39.630  28.658  29.107  1.00  0.00     0.057 A 
ATOM     73  C   UNL A   1      39.082  28.467  30.382  1.00  0.00     0.134 A 
ATOM     74  C   UNL A   1      38.788  29.183  28.119  1.00  0.00     0.134 A 
ATOM     75  F   UNL A   1      39.832  27.952  31.367  1.00  0.00    -0.206 F 
ATOM     76  C   UNL A   1      37.747  28.764  30.657  1.00  0.00     0.040 A 
ATOM     77  C   UNL A   1      37.459  29.515  28.389  1.00  0.00     0.040 A 
ATOM     78  F   UNL A   1      39.251  29.400  26.879  1.00  0.00    -0.206 F 
ATOM     79  C   UNL A   1      36.933  29.296  29.660  1.00  0.00     0.006 A 
ENDBRANCH  51  72
BRANCH  63  80
ATOM     80  C   UNL A   1      45.560  32.323  29.148  1.00  0.00     0.057 A 
ATOM     81  C   UNL A   1      45.943  32.777  30.416  1.00  0.00     0.134 A 
ATOM     82  C   UNL A   1      45.501  33.270  28.116  1.00  0.00     0.134 A 
ATOM     83  F   UNL A   1      46.010  31.927  31.452  1.00  0.00    -0.206 F 
ATOM     84  C   UNL A   1      46.227  34.124  30.655  1.00  0.00     0.040 A 
ATOM     85  C   UNL A   1      45.819  34.611  28.333  1.00  0.00     0.040 A 
ATOM     86  F   UNL A   1      45.153  32.904  26.873  1.00  0.00    -0.206 F 
ATOM     87  C   UNL A   1      46.174  35.042  29.609  1.00  0.00     0.006 A 
ENDBRANCH  63  80
ENDBRANCH  37  38
ENDBRANCH  29  32
ENDBRANCH  27  28
ENDBRANCH  26  27
ENDBRANCH   1  26
TORSDOF 15
ENDMDL
MODEL 3
REMARK VINA RESULT:     -12.1      1.164      1.909
REMARK SMILES N#Cc1ccc(C(=O)NCCCCNC(=O)c2ccc(-c3c4nc(c(-c5c(F)cccc5F)c5ccc([nH]5)c(-c5c(F)cccc5F)c5nc(c(-c6c(F)cccc6F)c6ccc3[nH]6)C=C5)C=C4)cc2)nc1/C=C/c1ccc(O)c(Cl)c1
REMARK SMILES IDX 11 1 10 2 9 3 7 4 8 5 6 7 3 8 4 9 72 10 5 11 71 12 2 13 1 14
REMARK SMILES IDX 73 15 74 16 75 17 76 18 82 19 77 20 80 21 78 22 81 23 79 24
REMARK SMILES IDX 12 26 13 27 14 28 15 29 16 31 17 32 18 33 70 34 19 35 69 36
REMARK SMILES IDX 20 37 21 38 22 39 63 40 23 41 68 42 62 43 64 44 24 45 67 46
REMARK SMILES IDX 61 47 60 48 25 50 51 51 34 52 50 53 35 54 38 55 49 56 65 57
REMARK SMILES IDX 36 58 37 59 48 61 66 62 39 63 26 64 27 65 32 66 28 67 29 68
REMARK SMILES IDX 31 69 33 70 30 71 52 72 53 73 58 74 54 75 55 76 57 77 59 78
REMARK SMILES IDX 56 79 40 80 41 81 46 82 42 83 43 84 45 85 47 86 44 87
REMARK H PARENT 9 6 79 25 14 30 64 49 38 60
REMARK Flexibility Score: inf
ROOT
ATOM      1  C   UNL A   1      31.752  30.605  26.876  1.00  0.00     0.023 C 
ENDROOT
BRANCH   1   2
ATOM      2  C   UNL A   1      33.187  30.262  26.501  1.00  0.00     0.116 C 
BRANCH   2   3
ATOM      3  N   UNL A   1      33.380  29.976  25.092  1.00  0.00    -0.351 N 
ATOM      4  C   UNL A   1      33.086  28.876  24.307  1.00  0.00     0.269 C 
ATOM      5  O   UNL A   1      33.405  28.951  23.119  1.00  0.00    -0.268 OA
ATOM      6  H   UNL A   1      33.806  30.712  24.595  1.00  0.00     0.163 HD
BRANCH   4   7
ATOM      7  C   UNL A   1      32.444  27.615  24.833  1.00  0.00     0.128 A 
ATOM      8  C   UNL A   1      31.471  25.327  26.031  1.00  0.00     0.078 A 
ATOM      9  C   UNL A   1      30.591  26.335  25.648  1.00  0.00     0.024 A 
ATOM     10  C   UNL A   1      32.815  25.462  25.681  1.00  0.00     0.082 A 
ATOM     11  C   UNL A   1      31.075  27.447  24.966  1.00  0.00     0.035 A 
ATOM     12  N   UNL A   1      33.309  26.611  25.146  1.00  0.00    -0.242 NA
BRANCH   8  13
ATOM     13  C   UNL A   1      30.950  24.176  26.698  1.00  0.00     0.101 C 
ATOM     14  N   UNL A   1      30.516  23.250  27.251  1.00  0.00    -0.192 NA
ENDBRANCH   8  13
BRANCH  10  15
ATOM     15  C   UNL A   1      33.737  24.311  25.732  1.00  0.00     0.030 C 
ATOM     16  C   UNL A   1      35.075  24.387  25.642  1.00  0.00     0.010 C 
BRANCH  16  17
ATOM     17  C   UNL A   1      35.889  23.174  25.491  1.00  0.00    -0.024 A 
ATOM     18  C   UNL A   1      35.311  21.993  25.013  1.00  0.00     0.012 A 
ATOM     19  C   UNL A   1      37.247  23.172  25.857  1.00  0.00     0.032 A 
ATOM     20  C   UNL A   1      36.086  20.839  24.855  1.00  0.00     0.048 A 
ATOM     21  C   UNL A   1      38.017  22.022  25.697  1.00  0.00     0.083 A 
ATOM     22  C   UNL A   1      37.435  20.861  25.189  1.00  0.00     0.134 A 
ATOM     23  Cl  UNL A   1      39.687  22.052  26.126  1.00  0.00    -0.080 Cl
BRANCH  22  24
ATOM     24  O   UNL A   1      38.154  19.713  25.000  1.00  0.00    -0.506 OA
ATOM     25  H   UNL A   1      38.204  19.074  25.683  1.00  0.00     0.293 HD
ENDBRANCH  22  24
ENDBRANCH  16  17
ENDBRANCH  10  15
ENDBRANCH   4   7
ENDBRANCH   2   3
ENDBRANCH   1   2
BRANCH   1  26
ATOM     26  C   UNL A   1      31.403  32.085  26.876  1.00  0.00     0.023 C 
BRANCH  26  27
ATOM     27  C   UNL A   1      32.588  33.033  26.752  1.00  0.00     0.116 C 
BRANCH  27  28
ATOM     28  N   UNL A   1      32.500  34.198  27.625  1.00  0.00    -0.352 N 
ATOM     29  C   UNL A   1      33.278  34.524  28.712  1.00  0.00     0.251 C 
ATOM     30  H   UNL A   1      31.786  34.840  27.408  1.00  0.00     0.163 HD
ATOM     31  O   UNL A   1      32.998  35.488  29.415  1.00  0.00    -0.269 OA
BRANCH  29  32
ATOM     32  C   UNL A   1      34.437  33.672  29.043  1.00  0.00     0.039 A 
ATOM     33  C   UNL A   1      35.723  34.204  28.944  1.00  0.00     0.014 A 
ATOM     34  C   UNL A   1      34.240  32.375  29.524  1.00  0.00     0.014 A 
ATOM     35  C   UNL A   1      36.808  33.461  29.410  1.00  0.00     0.010 A 
ATOM     36  C   UNL A   1      35.307  31.683  30.083  1.00  0.00     0.010 A 
ATOM     37  C   UNL A   1      36.603  32.216  30.028  1.00  0.00    -0.014 A 
BRANCH  37  38
ATOM     38  C   UNL A   1      37.730  31.458  30.626  1.00  0.00     0.031 A 
ATOM     39  C   UNL A   1      38.132  31.705  32.054  1.00  0.00     0.074 A 
ATOM     40  C   UNL A   1      38.432  30.592  29.868  1.00  0.00     0.049 A 
ATOM     41  N   UNL A   1      39.112  31.175  32.741  1.00  0.00    -0.248 NA
ATOM     42  C   UNL A   1      37.347  32.700  32.800  1.00  0.00     0.031 C 
ATOM     43  C   UNL A   1      38.173  30.300  28.457  1.00  0.00     0.029 A 
ATOM     44  N   UNL A   1      39.508  29.800  30.177  1.00  0.00    -0.354 N 
ATOM     45  C   UNL A   1      39.066  31.779  33.990  1.00  0.00     0.074 A 
ATOM     46  C   UNL A   1      38.008  32.764  33.945  1.00  0.00     0.031 C 
ATOM     47  C   UNL A   1      39.038  29.365  28.035  1.00  0.00     0.029 A 
ATOM     48  C   UNL A   1      39.946  29.030  29.126  1.00  0.00     0.049 A 
ATOM     49  H   UNL A   1      39.928  29.785  31.068  1.00  0.00     0.167 HD
ATOM     50  C   UNL A   1      39.818  31.519  35.085  1.00  0.00     0.037 A 
ATOM     51  C   UNL A   1      40.969  28.158  29.050  1.00  0.00     0.037 A 
ATOM     52  C   UNL A   1      40.868  30.534  35.125  1.00  0.00     0.049 A 
ATOM     53  C   UNL A   1      41.819  27.915  30.268  1.00  0.00     0.074 A 
ATOM     54  C   UNL A   1      41.652  30.156  36.200  1.00  0.00     0.029 A 
ATOM     55  N   UNL A   1      41.290  29.783  34.037  1.00  0.00    -0.354 N 
ATOM     56  N   UNL A   1      41.714  28.436  31.466  1.00  0.00    -0.248 NA
ATOM     57  C   UNL A   1      42.924  26.960  30.123  1.00  0.00     0.031 C 
ATOM     58  C   UNL A   1      42.599  29.234  35.744  1.00  0.00     0.029 A 
ATOM     59  C   UNL A   1      42.351  28.973  34.405  1.00  0.00     0.049 A 
ATOM     60  H   UNL A   1      40.893  29.821  33.137  1.00  0.00     0.167 HD
ATOM     61  C   UNL A   1      42.716  27.847  32.227  1.00  0.00     0.074 A 
ATOM     62  C   UNL A   1      43.408  26.919  31.356  1.00  0.00     0.031 C 
ATOM     63  C   UNL A   1      43.032  28.052  33.530  1.00  0.00     0.037 A 
BRANCH  50  64
ATOM     64  C   UNL A   1      39.543  32.330  36.322  1.00  0.00     0.057 A 
ATOM     65  C   UNL A   1      40.273  33.485  36.634  1.00  0.00     0.134 A 
ATOM     66  C   UNL A   1      38.523  31.957  37.206  1.00  0.00     0.134 A 
ATOM     67  F   UNL A   1      41.272  33.896  35.838  1.00  0.00    -0.206 F 
ATOM     68  C   UNL A   1      40.026  34.215  37.799  1.00  0.00     0.040 A 
ATOM     69  C   UNL A   1      38.242  32.699  38.354  1.00  0.00     0.040 A 
ATOM     70  F   UNL A   1      37.778  30.867  36.968  1.00  0.00    -0.206 F 
ATOM     71  C   UNL A   1      39.002  33.826  38.660  1.00  0.00     0.006 A 
ENDBRANCH  50  64
BRANCH  51  72
ATOM     72  C   UNL A   1      41.237  27.435  27.779  1.00  0.00     0.057 A 
ATOM     73  C   UNL A   1      40.635  26.199  27.510  1.00  0.00     0.134 A 
ATOM     74  C   UNL A   1      42.101  27.954  26.807  1.00  0.00     0.134 A 
ATOM     75  F   UNL A   1      39.810  25.641  28.408  1.00  0.00    -0.206 F 
ATOM     76  C   UNL A   1      40.898  25.498  26.332  1.00  0.00     0.040 A 
ATOM     77  C   UNL A   1      42.349  27.278  25.611  1.00  0.00     0.040 A 
ATOM     78  F   UNL A   1      42.704  29.137  26.998  1.00  0.00    -0.206 F 
ATOM     79  C   UNL A   1      41.753  26.040  25.376  1.00  0.00     0.006 A 
ENDBRANCH  51  72
BRANCH  63  80
ATOM     80  C   UNL A   1      44.149  27.229  34.110  1.00  0.00     0.057 A 
ATOM     81  C   UNL A   1      45.475  27.679  34.133  1.00  0.00     0.134 A 
ATOM     82  C   UNL A   1      43.883  25.981  34.689  1.00  0.00     0.134 A 
ATOM     83  F   UNL A   1      45.804  28.860  33.587  1.00  0.00    -0.206 F 
ATOM     84  C   UNL A   1      46.499  26.905  34.685  1.00  0.00     0.040 A 
ATOM     85  C   UNL A   1      44.891  25.215  35.276  1.00  0.00     0.040 A 
ATOM     86  F   UNL A   1      42.633  25.492  34.713  1.00  0.00    -0.206 F 
ATOM     87  C   UNL A   1      46.205  25.674  35.266  1.00  0.00     0.006 A 
ENDBRANCH  63  80
ENDBRANCH  37  38
ENDBRANCH  29  32
ENDBRANCH  27  28
ENDBRANCH  26  27
ENDBRANCH   1  26
TORSDOF 15
ENDMDL
