MODEL 1
REMARK VINA RESULT:     -12.2      0.000      0.000
REMARK SMILES O=C(NCCCCNC(=O)[C@@H](c1c[nH]c2cc(OCc3ccccc3)ccc12)[NH+]1CCSCC1)c1ccc(-c2c3nc(c(-c4c(F)cccc4F)c4ccc([nH]4)c(-c4c(F)cccc4F)c4nc(c(-c5c(F)cccc5F)c5ccc2[nH]5)C=C4)C=C3)cc1
REMARK SMILES IDX 6 1 5 2 4 3 3 4 1 5 2 6 35 8 36 9 88 10 37 11 87 12 38 13
REMARK SMILES IDX 39 14 40 15 81 16 41 17 86 18 80 19 82 20 42 21 85 22 79 23
REMARK SMILES IDX 78 24 43 26 69 27 52 28 68 29 53 30 56 31 67 32 83 33 54 34
REMARK SMILES IDX 55 35 66 37 84 38 57 39 44 40 45 41 50 42 46 43 47 44 49 45
REMARK SMILES IDX 51 46 48 47 70 48 71 49 76 50 72 51 73 52 75 53 77 54 74 55
REMARK SMILES IDX 58 56 59 57 64 58 60 59 61 60 63 61 65 62 62 63 7 64 8 65
REMARK SMILES IDX 9 66 10 68 11 69 12 70 13 71 28 72 14 73 15 74 27 75 16 77
REMARK SMILES IDX 26 78 17 79 18 80 19 81 20 82 21 83 25 84 22 85 24 86 23 87
REMARK SMILES IDX 29 88 30 89 34 90 31 92 33 93 32 94
REMARK H PARENT 3 7 82 25 56 36 8 67 14 76 29 91
REMARK Flexibility Score: inf
ROOT
ATOM      1  C   UNL A   1      34.338  31.077  27.468  1.00  0.00     0.023 C 
ENDROOT
BRANCH   1   2
ATOM      2  C   UNL A   1      33.096  31.955  27.603  1.00  0.00     0.023 C 
BRANCH   2   3
ATOM      3  C   UNL A   1      33.305  33.404  27.196  1.00  0.00     0.116 C 
BRANCH   3   4
ATOM      4  N   UNL A   1      32.777  34.355  28.161  1.00  0.00    -0.352 N 
ATOM      5  O   UNL A   1      32.660  35.341  30.198  1.00  0.00    -0.269 OA
ATOM      6  C   UNL A   1      33.248  34.600  29.429  1.00  0.00     0.251 C 
ATOM      7  H   UNL A   1      31.996  34.882  27.874  1.00  0.00     0.163 HD
BRANCH   6   8
ATOM      8  C   UNL A   1      34.484  33.909  29.841  1.00  0.00     0.039 A 
ATOM      9  C   UNL A   1      35.687  34.207  29.196  1.00  0.00     0.014 A 
ATOM     10  C   UNL A   1      34.419  32.918  30.822  1.00  0.00     0.014 A 
ATOM     11  C   UNL A   1      36.811  33.441  29.460  1.00  0.00     0.010 A 
ATOM     12  C   UNL A   1      35.570  32.200  31.142  1.00  0.00     0.010 A 
ATOM     13  C   UNL A   1      36.769  32.452  30.457  1.00  0.00    -0.014 A 
BRANCH  13  14
ATOM     14  C   UNL A   1      38.031  31.797  30.866  1.00  0.00     0.031 A 
ATOM     15  C   UNL A   1      38.589  30.626  30.115  1.00  0.00     0.074 A 
ATOM     16  C   UNL A   1      38.660  32.287  31.952  1.00  0.00     0.049 A 
ATOM     17  N   UNL A   1      39.662  29.925  30.375  1.00  0.00    -0.248 NA
ATOM     18  C   UNL A   1      37.851  30.177  28.923  1.00  0.00     0.031 C 
ATOM     19  C   UNL A   1      38.181  33.411  32.762  1.00  0.00     0.029 A 
ATOM     20  N   UNL A   1      39.827  31.913  32.560  1.00  0.00    -0.354 N 
ATOM     21  C   UNL A   1      39.718  28.938  29.402  1.00  0.00     0.074 A 
ATOM     22  C   UNL A   1      38.568  29.125  28.543  1.00  0.00     0.031 C 
ATOM     23  C   UNL A   1      39.060  33.653  33.744  1.00  0.00     0.029 A 
ATOM     24  C   UNL A   1      40.124  32.660  33.674  1.00  0.00     0.049 A 
ATOM     25  H   UNL A   1      40.398  31.181  32.232  1.00  0.00     0.167 HD
ATOM     26  C   UNL A   1      40.651  27.969  29.249  1.00  0.00     0.037 A 
ATOM     27  C   UNL A   1      41.122  32.536  34.565  1.00  0.00     0.037 A 
ATOM     28  C   UNL A   1      41.805  27.815  30.098  1.00  0.00     0.049 A 
ATOM     29  C   UNL A   1      42.123  31.438  34.376  1.00  0.00     0.074 A 
ATOM     30  C   UNL A   1      42.851  26.917  29.976  1.00  0.00     0.029 A 
ATOM     31  N   UNL A   1      42.058  28.573  31.232  1.00  0.00    -0.354 N 
ATOM     32  N   UNL A   1      42.195  30.547  33.417  1.00  0.00    -0.248 NA
ATOM     33  C   UNL A   1      43.170  31.316  35.397  1.00  0.00     0.031 C 
ATOM     34  C   UNL A   1      43.712  27.098  31.063  1.00  0.00     0.029 A 
ATOM     35  C   UNL A   1      43.224  28.135  31.841  1.00  0.00     0.049 A 
ATOM     36  H   UNL A   1      41.494  29.311  31.557  1.00  0.00     0.167 HD
ATOM     37  C   UNL A   1      43.292  29.757  33.718  1.00  0.00     0.074 A 
ATOM     38  C   UNL A   1      43.874  30.295  34.932  1.00  0.00     0.031 C 
ATOM     39  C   UNL A   1      43.771  28.676  33.058  1.00  0.00     0.037 A 
BRANCH  26  40
ATOM     40  C   UNL A   1      40.471  26.980  28.136  1.00  0.00     0.057 A 
ATOM     41  C   UNL A   1      41.178  27.083  26.932  1.00  0.00     0.134 A 
ATOM     42  C   UNL A   1      39.653  25.855  28.313  1.00  0.00     0.134 A 
ATOM     43  F   UNL A   1      41.971  28.138  26.698  1.00  0.00    -0.206 F 
ATOM     44  C   UNL A   1      41.078  26.101  25.943  1.00  0.00     0.040 A 
ATOM     45  C   UNL A   1      39.558  24.861  27.339  1.00  0.00     0.040 A 
ATOM     46  F   UNL A   1      38.955  25.695  29.447  1.00  0.00    -0.206 F 
ATOM     47  C   UNL A   1      40.273  24.982  26.150  1.00  0.00     0.006 A 
ENDBRANCH  26  40
BRANCH  27  48
ATOM     48  C   UNL A   1      41.185  33.448  35.732  1.00  0.00     0.057 A 
ATOM     49  C   UNL A   1      40.521  33.148  36.924  1.00  0.00     0.134 A 
ATOM     50  C   UNL A   1      41.925  34.638  35.682  1.00  0.00     0.134 A 
ATOM     51  F   UNL A   1      39.786  32.031  37.026  1.00  0.00    -0.206 F 
ATOM     52  C   UNL A   1      40.577  34.006  38.025  1.00  0.00     0.040 A 
ATOM     53  C   UNL A   1      42.012  35.489  36.783  1.00  0.00     0.040 A 
ATOM     54  F   UNL A   1      42.591  34.975  34.569  1.00  0.00    -0.206 F 
ATOM     55  C   UNL A   1      41.330  35.177  37.957  1.00  0.00     0.006 A 
ENDBRANCH  27  48
BRANCH  39  56
ATOM     56  C   UNL A   1      44.976  28.010  33.646  1.00  0.00     0.057 A 
ATOM     57  C   UNL A   1      46.272  28.428  33.320  1.00  0.00     0.134 A 
ATOM     58  C   UNL A   1      44.841  26.956  34.558  1.00  0.00     0.134 A 
ATOM     59  F   UNL A   1      46.463  29.421  32.438  1.00  0.00    -0.206 F 
ATOM     60  C   UNL A   1      47.395  27.807  33.865  1.00  0.00     0.040 A 
ATOM     61  C   UNL A   1      45.956  26.342  35.127  1.00  0.00     0.040 A 
ATOM     62  F   UNL A   1      43.625  26.513  34.913  1.00  0.00    -0.206 F 
ATOM     63  C   UNL A   1      47.237  26.763  34.776  1.00  0.00     0.006 A 
ENDBRANCH  39  56
ENDBRANCH  13  14
ENDBRANCH   6   8
ENDBRANCH   3   4
ENDBRANCH   2   3
ENDBRANCH   1   2
BRANCH   1  64
ATOM     64  C   UNL A   1      34.037  29.647  27.030  1.00  0.00     0.116 C 
BRANCH  64  65
ATOM     65  N   UNL A   1      32.863  29.130  27.696  1.00  0.00    -0.351 N 
ATOM     66  C   UNL A   1      31.936  28.239  27.233  1.00  0.00     0.283 C 
ATOM     67  H   UNL A   1      32.710  29.466  28.608  1.00  0.00     0.163 HD
ATOM     68  O   UNL A   1      31.033  27.924  28.020  1.00  0.00    -0.268 OA
BRANCH  66  69
ATOM     69  C   UNL A   1      31.999  27.608  25.814  1.00  0.00     0.307 C 
BRANCH  69  70
ATOM     70  C   UNL A   1      31.881  26.092  25.897  1.00  0.00     0.044 A 
ATOM     71  C   UNL A   1      30.742  25.325  26.100  1.00  0.00     0.094 A 
ATOM     72  C   UNL A   1      32.951  25.153  25.697  1.00  0.00     0.009 A 
ATOM     73  N   UNL A   1      31.099  24.009  26.171  1.00  0.00    -0.361 N 
ATOM     74  C   UNL A   1      32.420  23.871  25.837  1.00  0.00     0.050 A 
ATOM     75  C   UNL A   1      34.318  25.269  25.367  1.00  0.00     0.015 A 
ATOM     76  H   UNL A   1      30.498  23.272  26.425  1.00  0.00     0.166 HD
ATOM     77  C   UNL A   1      33.159  22.709  25.607  1.00  0.00     0.073 A 
ATOM     78  C   UNL A   1      35.059  24.114  25.071  1.00  0.00     0.047 A 
ATOM     79  C   UNL A   1      34.461  22.856  25.125  1.00  0.00     0.121 A 
BRANCH  79  80
ATOM     80  O   UNL A   1      34.998  21.694  24.642  1.00  0.00    -0.489 OA
BRANCH  80  81
ATOM     81  C   UNL A   1      34.776  20.486  25.377  1.00  0.00     0.265 C 
BRANCH  81  82
ATOM     82  C   UNL A   1      34.156  19.310  24.632  1.00  0.00    -0.011 A 
ATOM     83  C   UNL A   1      34.868  18.098  24.585  1.00  0.00     0.007 A 
ATOM     84  C   UNL A   1      32.964  19.391  23.896  1.00  0.00     0.007 A 
ATOM     85  C   UNL A   1      34.410  17.018  23.824  1.00  0.00     0.000 A 
ATOM     86  C   UNL A   1      32.511  18.316  23.124  1.00  0.00     0.000 A 
ATOM     87  C   UNL A   1      33.237  17.131  23.085  1.00  0.00     0.000 A 
ENDBRANCH  81  82
ENDBRANCH  80  81
ENDBRANCH  79  80
ENDBRANCH  69  70
BRANCH  69  88
ATOM     88  N   UNL A   1      31.018  28.161  24.817  1.00  0.00    -0.319 N 
ATOM     89  C   UNL A   1      31.342  27.600  23.477  1.00  0.00     0.274 C 
ATOM     90  C   UNL A   1      31.032  29.639  24.738  1.00  0.00     0.274 C 
ATOM     91  H   UNL A   1      30.085  27.892  25.127  1.00  0.00     0.349 HD
ATOM     92  C   UNL A   1      30.331  27.940  22.372  1.00  0.00     0.131 C 
ATOM     93  C   UNL A   1      29.919  30.194  23.838  1.00  0.00     0.131 C 
ATOM     94  S   UNL A   1      30.158  29.728  22.102  1.00  0.00    -0.150 SA
ENDBRANCH  69  88
ENDBRANCH  66  69
ENDBRANCH  64  65
ENDBRANCH   1  64
TORSDOF 16
ENDMDL
MODEL 2
REMARK VINA RESULT:     -12.0      4.517      9.877
REMARK SMILES O=C(NCCCCNC(=O)[C@@H](c1c[nH]c2cc(OCc3ccccc3)ccc12)[NH+]1CCSCC1)c1ccc(-c2c3nc(c(-c4c(F)cccc4F)c4ccc([nH]4)c(-c4c(F)cccc4F)c4nc(c(-c5c(F)cccc5F)c5ccc2[nH]5)C=C4)C=C3)cc1
REMARK SMILES IDX 6 1 5 2 4 3 3 4 1 5 2 6 35 8 36 9 88 10 37 11 87 12 38 13
REMARK SMILES IDX 39 14 40 15 81 16 41 17 86 18 80 19 82 20 42 21 85 22 79 23
REMARK SMILES IDX 78 24 43 26 69 27 52 28 68 29 53 30 56 31 67 32 83 33 54 34
REMARK SMILES IDX 55 35 66 37 84 38 57 39 44 40 45 41 50 42 46 43 47 44 49 45
REMARK SMILES IDX 51 46 48 47 70 48 71 49 76 50 72 51 73 52 75 53 77 54 74 55
REMARK SMILES IDX 58 56 59 57 64 58 60 59 61 60 63 61 65 62 62 63 7 64 8 65
REMARK SMILES IDX 9 66 10 68 11 69 12 70 13 71 28 72 14 73 15 74 27 75 16 77
REMARK SMILES IDX 26 78 17 79 18 80 19 81 20 82 21 83 25 84 22 85 24 86 23 87
REMARK SMILES IDX 29 88 30 89 34 90 31 92 33 93 32 94
REMARK H PARENT 3 7 82 25 56 36 8 67 14 76 29 91
REMARK Flexibility Score: inf
ROOT
ATOM      1  C   UNL A   1      36.697  20.111  25.018  1.00  0.00     0.023 C 
ENDROOT
BRANCH   1   2
ATOM      2  C   UNL A   1      38.149  19.840  24.634  1.00  0.00     0.023 C 
BRANCH   2   3
ATOM      3  C   UNL A   1      39.149  20.084  25.754  1.00  0.00     0.116 C 
BRANCH   3   4
ATOM      4  N   UNL A   1      40.189  19.071  25.827  1.00  0.00    -0.352 N 
ATOM      5  O   UNL A   1      42.332  18.358  26.018  1.00  0.00    -0.269 OA
ATOM      6  C   UNL A   1      41.524  19.268  26.091  1.00  0.00     0.251 C 
ATOM      7  H   UNL A   1      39.906  18.141  25.671  1.00  0.00     0.163 HD
BRANCH   6   8
ATOM      8  C   UNL A   1      41.954  20.635  26.440  1.00  0.00     0.039 A 
ATOM      9  C   UNL A   1      42.012  21.015  27.784  1.00  0.00     0.014 A 
ATOM     10  C   UNL A   1      42.229  21.546  25.420  1.00  0.00     0.014 A 
ATOM     11  C   UNL A   1      42.248  22.342  28.107  1.00  0.00     0.010 A 
ATOM     12  C   UNL A   1      42.543  22.864  25.751  1.00  0.00     0.010 A 
ATOM     13  C   UNL A   1      42.546  23.270  27.095  1.00  0.00    -0.014 A 
BRANCH  13  14
ATOM     14  C   UNL A   1      43.001  24.625  27.479  1.00  0.00     0.031 A 
ATOM     15  C   UNL A   1      42.035  25.683  27.921  1.00  0.00     0.074 A 
ATOM     16  C   UNL A   1      44.321  24.878  27.408  1.00  0.00     0.049 A 
ATOM     17  N   UNL A   1      42.279  26.925  28.251  1.00  0.00    -0.248 NA
ATOM     18  C   UNL A   1      40.614  25.308  27.998  1.00  0.00     0.031 C 
ATOM     19  C   UNL A   1      45.338  23.917  26.967  1.00  0.00     0.029 A 
ATOM     20  N   UNL A   1      45.037  26.007  27.702  1.00  0.00    -0.354 N 
ATOM     21  C   UNL A   1      41.048  27.489  28.550  1.00  0.00     0.074 A 
ATOM     22  C   UNL A   1      40.052  26.456  28.359  1.00  0.00     0.031 C 
ATOM     23  C   UNL A   1      46.547  24.488  27.046  1.00  0.00     0.029 A 
ATOM     24  C   UNL A   1      46.385  25.870  27.474  1.00  0.00     0.049 A 
ATOM     25  H   UNL A   1      44.628  26.834  28.043  1.00  0.00     0.167 HD
ATOM     26  C   UNL A   1      40.785  28.756  28.947  1.00  0.00     0.037 A 
ATOM     27  C   UNL A   1      47.379  26.770  27.562  1.00  0.00     0.037 A 
ATOM     28  C   UNL A   1      41.793  29.763  29.159  1.00  0.00     0.049 A 
ATOM     29  C   UNL A   1      47.046  28.169  27.984  1.00  0.00     0.074 A 
ATOM     30  C   UNL A   1      41.636  31.052  29.641  1.00  0.00     0.029 A 
ATOM     31  N   UNL A   1      43.144  29.597  28.893  1.00  0.00    -0.354 N 
ATOM     32  N   UNL A   1      45.883  28.673  28.318  1.00  0.00    -0.248 NA
ATOM     33  C   UNL A   1      48.157  29.127  28.025  1.00  0.00     0.031 C 
ATOM     34  C   UNL A   1      42.884  31.681  29.620  1.00  0.00     0.029 A 
ATOM     35  C   UNL A   1      43.826  30.774  29.162  1.00  0.00     0.049 A 
ATOM     36  H   UNL A   1      43.558  28.768  28.561  1.00  0.00     0.167 HD
ATOM     37  C   UNL A   1      46.120  30.007  28.608  1.00  0.00     0.074 A 
ATOM     38  C   UNL A   1      47.543  30.225  28.441  1.00  0.00     0.031 C 
ATOM     39  C   UNL A   1      45.239  30.970  28.970  1.00  0.00     0.037 A 
BRANCH  26  40
ATOM     40  C   UNL A   1      39.354  29.148  29.169  1.00  0.00     0.057 A 
ATOM     41  C   UNL A   1      38.525  29.554  28.116  1.00  0.00     0.134 A 
ATOM     42  C   UNL A   1      38.773  29.020  30.438  1.00  0.00     0.134 A 
ATOM     43  F   UNL A   1      39.022  29.702  26.879  1.00  0.00    -0.206 F 
ATOM     44  C   UNL A   1      37.169  29.820  28.319  1.00  0.00     0.040 A 
ATOM     45  C   UNL A   1      37.416  29.267  30.649  1.00  0.00     0.040 A 
ATOM     46  F   UNL A   1      39.512  28.629  31.488  1.00  0.00    -0.206 F 
ATOM     47  C   UNL A   1      36.610  29.667  29.586  1.00  0.00     0.006 A 
ENDBRANCH  26  40
BRANCH  27  48
ATOM     48  C   UNL A   1      48.762  26.380  27.198  1.00  0.00     0.057 A 
ATOM     49  C   UNL A   1      49.664  25.921  28.162  1.00  0.00     0.134 A 
ATOM     50  C   UNL A   1      49.207  26.446  25.871  1.00  0.00     0.134 A 
ATOM     51  F   UNL A   1      49.299  25.849  29.450  1.00  0.00    -0.206 F 
ATOM     52  C   UNL A   1      50.968  25.554  27.823  1.00  0.00     0.040 A 
ATOM     53  C   UNL A   1      50.498  26.057  25.514  1.00  0.00     0.040 A 
ATOM     54  F   UNL A   1      48.384  26.869  24.901  1.00  0.00    -0.206 F 
ATOM     55  C   UNL A   1      51.385  25.616  26.494  1.00  0.00     0.006 A 
ENDBRANCH  27  48
BRANCH  39  56
ATOM     56  C   UNL A   1      45.798  32.339  29.198  1.00  0.00     0.057 A 
ATOM     57  C   UNL A   1      45.834  33.292  28.173  1.00  0.00     0.134 A 
ATOM     58  C   UNL A   1      46.290  32.715  30.455  1.00  0.00     0.134 A 
ATOM     59  F   UNL A   1      45.395  32.983  26.943  1.00  0.00    -0.206 F 
ATOM     60  C   UNL A   1      46.358  34.567  28.383  1.00  0.00     0.040 A 
ATOM     61  C   UNL A   1      46.795  33.995  30.684  1.00  0.00     0.040 A 
ATOM     62  F   UNL A   1      46.279  31.847  31.478  1.00  0.00    -0.206 F 
ATOM     63  C   UNL A   1      46.836  34.922  29.644  1.00  0.00     0.006 A 
ENDBRANCH  39  56
ENDBRANCH  13  14
ENDBRANCH   6   8
ENDBRANCH   3   4
ENDBRANCH   2   3
ENDBRANCH   1   2
BRANCH   1  64
ATOM     64  C   UNL A   1      36.418  21.564  25.390  1.00  0.00     0.116 C 
BRANCH  64  65
ATOM     65  N   UNL A   1      35.589  21.654  26.571  1.00  0.00    -0.351 N 
ATOM     66  C   UNL A   1      34.237  21.827  26.660  1.00  0.00     0.283 C 
ATOM     67  H   UNL A   1      36.066  21.580  27.429  1.00  0.00     0.163 HD
ATOM     68  O   UNL A   1      33.756  21.834  27.802  1.00  0.00    -0.268 OA
BRANCH  66  69
ATOM     69  C   UNL A   1      33.316  21.977  25.417  1.00  0.00     0.307 C 
BRANCH  69  70
ATOM     70  C   UNL A   1      33.589  23.295  24.705  1.00  0.00     0.044 A 
ATOM     71  C   UNL A   1      34.209  23.502  23.481  1.00  0.00     0.094 A 
ATOM     72  C   UNL A   1      33.172  24.596  25.154  1.00  0.00     0.009 A 
ATOM     73  N   UNL A   1      34.305  24.844  23.252  1.00  0.00    -0.361 N 
ATOM     74  C   UNL A   1      33.600  25.527  24.208  1.00  0.00     0.050 A 
ATOM     75  C   UNL A   1      32.431  25.068  26.257  1.00  0.00     0.015 A 
ATOM     76  H   UNL A   1      34.806  25.259  22.513  1.00  0.00     0.166 HD
ATOM     77  C   UNL A   1      33.279  26.884  24.273  1.00  0.00     0.073 A 
ATOM     78  C   UNL A   1      32.045  26.417  26.306  1.00  0.00     0.047 A 
ATOM     79  C   UNL A   1      32.410  27.294  25.286  1.00  0.00     0.121 A 
BRANCH  79  80
ATOM     80  O   UNL A   1      31.910  28.554  25.098  1.00  0.00    -0.489 OA
BRANCH  80  81
ATOM     81  C   UNL A   1      31.552  28.952  23.771  1.00  0.00     0.265 C 
BRANCH  81  82
ATOM     82  C   UNL A   1      30.067  29.024  23.431  1.00  0.00    -0.011 A 
ATOM     83  C   UNL A   1      29.465  30.291  23.330  1.00  0.00     0.007 A 
ATOM     84  C   UNL A   1      29.236  27.899  23.317  1.00  0.00     0.007 A 
ATOM     85  C   UNL A   1      28.087  30.423  23.134  1.00  0.00     0.000 A 
ATOM     86  C   UNL A   1      27.855  28.030  23.134  1.00  0.00     0.000 A 
ATOM     87  C   UNL A   1      27.281  29.293  23.048  1.00  0.00     0.000 A 
ENDBRANCH  81  82
ENDBRANCH  80  81
ENDBRANCH  79  80
ENDBRANCH  69  70
BRANCH  69  88
ATOM     88  N   UNL A   1      33.355  20.832  24.443  1.00  0.00    -0.319 N 
ATOM     89  C   UNL A   1      32.175  20.940  23.542  1.00  0.00     0.274 C 
ATOM     90  C   UNL A   1      33.343  19.504  25.097  1.00  0.00     0.274 C 
ATOM     91  H   UNL A   1      34.234  20.898  23.929  1.00  0.00     0.349 HD
ATOM     92  C   UNL A   1      32.153  19.935  22.381  1.00  0.00     0.131 C 
ATOM     93  C   UNL A   1      33.544  18.352  24.102  1.00  0.00     0.131 C 
ATOM     94  S   UNL A   1      32.155  18.208  22.945  1.00  0.00    -0.150 SA
ENDBRANCH  69  88
ENDBRANCH  66  69
ENDBRANCH  64  65
ENDBRANCH   1  64
TORSDOF 16
ENDMDL
MODEL 3
REMARK VINA RESULT:     -12.0      1.349      2.010
REMARK SMILES O=C(NCCCCNC(=O)[C@@H](c1c[nH]c2cc(OCc3ccccc3)ccc12)[NH+]1CCSCC1)c1ccc(-c2c3nc(c(-c4c(F)cccc4F)c4ccc([nH]4)c(-c4c(F)cccc4F)c4nc(c(-c5c(F)cccc5F)c5ccc2[nH]5)C=C4)C=C3)cc1
REMARK SMILES IDX 6 1 5 2 4 3 3 4 1 5 2 6 35 8 36 9 88 10 37 11 87 12 38 13
REMARK SMILES IDX 39 14 40 15 81 16 41 17 86 18 80 19 82 20 42 21 85 22 79 23
REMARK SMILES IDX 78 24 43 26 69 27 52 28 68 29 53 30 56 31 67 32 83 33 54 34
REMARK SMILES IDX 55 35 66 37 84 38 57 39 44 40 45 41 50 42 46 43 47 44 49 45
REMARK SMILES IDX 51 46 48 47 70 48 71 49 76 50 72 51 73 52 75 53 77 54 74 55
REMARK SMILES IDX 58 56 59 57 64 58 60 59 61 60 63 61 65 62 62 63 7 64 8 65
REMARK SMILES IDX 9 66 10 68 11 69 12 70 13 71 28 72 14 73 15 74 27 75 16 77
REMARK SMILES IDX 26 78 17 79 18 80 19 81 20 82 21 83 25 84 22 85 24 86 23 87
REMARK SMILES IDX 29 88 30 89 34 90 31 92 33 93 32 94
REMARK H PARENT 3 7 82 25 56 36 8 67 14 76 29 91
REMARK Flexibility Score: inf
ROOT
ATOM      1  C   UNL A   1      31.542  30.819  26.169  1.00  0.00     0.023 C 
ENDROOT
BRANCH   1   2
ATOM      2  C   UNL A   1      31.651  31.890  27.252  1.00  0.00     0.023 C 
BRANCH   2   3
ATOM      3  C   UNL A   1      32.761  32.904  27.022  1.00  0.00     0.116 C 
BRANCH   3   4
ATOM      4  N   UNL A   1      32.484  34.204  27.613  1.00  0.00    -0.352 N 
ATOM      5  O   UNL A   1      32.723  35.825  29.178  1.00  0.00    -0.269 OA
ATOM      6  C   UNL A   1      33.110  34.774  28.696  1.00  0.00     0.251 C 
ATOM      7  H   UNL A   1      31.769  34.733  27.190  1.00  0.00     0.163 HD
BRANCH   6   8
ATOM      8  C   UNL A   1      34.258  34.053  29.276  1.00  0.00     0.039 A 
ATOM      9  C   UNL A   1      35.553  34.369  28.855  1.00  0.00     0.014 A 
ATOM     10  C   UNL A   1      34.028  33.019  30.184  1.00  0.00     0.014 A 
ATOM     11  C   UNL A   1      36.616  33.581  29.267  1.00  0.00     0.010 A 
ATOM     12  C   UNL A   1      35.109  32.277  30.658  1.00  0.00     0.010 A 
ATOM     13  C   UNL A   1      36.406  32.548  30.196  1.00  0.00    -0.014 A 
BRANCH  13  14
ATOM     14  C   UNL A   1      37.580  31.863  30.780  1.00  0.00     0.031 A 
ATOM     15  C   UNL A   1      38.351  30.832  30.012  1.00  0.00     0.074 A 
ATOM     16  C   UNL A   1      37.929  32.194  32.038  1.00  0.00     0.049 A 
ATOM     17  N   UNL A   1      39.377  30.120  30.403  1.00  0.00    -0.248 NA
ATOM     18  C   UNL A   1      37.918  30.555  28.633  1.00  0.00     0.031 C 
ATOM     19  C   UNL A   1      37.225  33.171  32.874  1.00  0.00     0.029 A 
ATOM     20  N   UNL A   1      38.952  31.754  32.832  1.00  0.00    -0.354 N 
ATOM     21  C   UNL A   1      39.698  29.294  29.335  1.00  0.00     0.074 A 
ATOM     22  C   UNL A   1      38.755  29.588  28.276  1.00  0.00     0.031 C 
ATOM     23  C   UNL A   1      37.853  33.277  34.052  1.00  0.00     0.029 A 
ATOM     24  C   UNL A   1      38.957  32.328  34.080  1.00  0.00     0.049 A 
ATOM     25  H   UNL A   1      39.619  31.092  32.539  1.00  0.00     0.167 HD
ATOM     26  C   UNL A   1      40.691  28.379  29.257  1.00  0.00     0.037 A 
ATOM     27  C   UNL A   1      39.741  32.089  35.145  1.00  0.00     0.037 A 
ATOM     28  C   UNL A   1      41.637  28.120  30.313  1.00  0.00     0.049 A 
ATOM     29  C   UNL A   1      40.816  31.052  35.030  1.00  0.00     0.074 A 
ATOM     30  C   UNL A   1      42.731  27.271  30.301  1.00  0.00     0.029 A 
ATOM     31  N   UNL A   1      41.595  28.700  31.572  1.00  0.00    -0.354 N 
ATOM     32  N   UNL A   1      41.143  30.320  33.993  1.00  0.00    -0.248 NA
ATOM     33  C   UNL A   1      41.618  30.797  36.232  1.00  0.00     0.031 C 
ATOM     34  C   UNL A   1      43.322  27.301  31.568  1.00  0.00     0.029 A 
ATOM     35  C   UNL A   1      42.620  28.198  32.358  1.00  0.00     0.049 A 
ATOM     36  H   UNL A   1      40.935  29.369  31.865  1.00  0.00     0.167 HD
ATOM     37  C   UNL A   1      42.189  29.515  34.416  1.00  0.00     0.074 A 
ATOM     38  C   UNL A   1      42.461  29.872  35.795  1.00  0.00     0.031 C 
ATOM     39  C   UNL A   1      42.858  28.557  33.731  1.00  0.00     0.037 A 
BRANCH  26  40
ATOM     40  C   UNL A   1      40.813  27.568  28.001  1.00  0.00     0.057 A 
ATOM     41  C   UNL A   1      41.654  27.952  26.950  1.00  0.00     0.134 A 
ATOM     42  C   UNL A   1      40.154  26.336  27.887  1.00  0.00     0.134 A 
ATOM     43  F   UNL A   1      42.306  29.123  26.995  1.00  0.00    -0.206 F 
ATOM     44  C   UNL A   1      41.835  27.139  25.828  1.00  0.00     0.040 A 
ATOM     45  C   UNL A   1      40.341  25.508  26.780  1.00  0.00     0.040 A 
ATOM     46  F   UNL A   1      39.340  25.908  28.863  1.00  0.00    -0.206 F 
ATOM     47  C   UNL A   1      41.185  25.909  25.747  1.00  0.00     0.006 A 
ENDBRANCH  26  40
BRANCH  27  48
ATOM     48  C   UNL A   1      39.498  32.813  36.416  1.00  0.00     0.057 A 
ATOM     49  C   UNL A   1      40.227  33.958  36.750  1.00  0.00     0.134 A 
ATOM     50  C   UNL A   1      38.519  32.381  37.320  1.00  0.00     0.134 A 
ATOM     51  F   UNL A   1      41.186  34.411  35.931  1.00  0.00    -0.206 F 
ATOM     52  C   UNL A   1      40.002  34.641  37.947  1.00  0.00     0.040 A 
ATOM     53  C   UNL A   1      38.265  33.069  38.506  1.00  0.00     0.040 A 
ATOM     54  F   UNL A   1      37.780  31.294  37.051  1.00  0.00    -0.206 F 
ATOM     55  C   UNL A   1      39.014  34.200  38.825  1.00  0.00     0.006 A 
ENDBRANCH  27  48
BRANCH  39  56
ATOM     56  C   UNL A   1      43.937  27.833  34.473  1.00  0.00     0.057 A 
ATOM     57  C   UNL A   1      43.692  26.606  35.103  1.00  0.00     0.134 A 
ATOM     58  C   UNL A   1      45.235  28.355  34.545  1.00  0.00     0.134 A 
ATOM     59  F   UNL A   1      42.464  26.066  35.083  1.00  0.00    -0.206 F 
ATOM     60  C   UNL A   1      44.696  25.932  35.797  1.00  0.00     0.040 A 
ATOM     61  C   UNL A   1      46.253  27.679  35.217  1.00  0.00     0.040 A 
ATOM     62  F   UNL A   1      45.532  29.524  33.959  1.00  0.00    -0.206 F 
ATOM     63  C   UNL A   1      45.983  26.467  35.850  1.00  0.00     0.006 A 
ENDBRANCH  39  56
ENDBRANCH  13  14
ENDBRANCH   6   8
ENDBRANCH   3   4
ENDBRANCH   2   3
ENDBRANCH   1   2
BRANCH   1  64
ATOM     64  C   UNL A   1      32.418  29.596  26.422  1.00  0.00     0.116 C 
BRANCH  64  65
ATOM     65  N   UNL A   1      33.361  29.394  25.345  1.00  0.00    -0.351 N 
ATOM     66  C   UNL A   1      33.292  28.520  24.297  1.00  0.00     0.283 C 
ATOM     67  H   UNL A   1      34.163  29.964  25.371  1.00  0.00     0.163 HD
ATOM     68  O   UNL A   1      34.221  28.567  23.478  1.00  0.00    -0.268 OA
BRANCH  66  69
ATOM     69  C   UNL A   1      32.111  27.530  24.092  1.00  0.00     0.307 C 
BRANCH  69  70
ATOM     70  C   UNL A   1      32.128  26.449  25.164  1.00  0.00     0.044 A 
ATOM     71  C   UNL A   1      31.139  26.129  26.083  1.00  0.00     0.094 A 
ATOM     72  C   UNL A   1      33.176  25.486  25.371  1.00  0.00     0.009 A 
ATOM     73  N   UNL A   1      31.596  25.137  26.902  1.00  0.00    -0.361 N 
ATOM     74  C   UNL A   1      32.793  24.665  26.432  1.00  0.00     0.050 A 
ATOM     75  C   UNL A   1      34.399  25.205  24.727  1.00  0.00     0.015 A 
ATOM     76  H   UNL A   1      31.135  24.810  27.709  1.00  0.00     0.166 HD
ATOM     77  C   UNL A   1      33.529  23.552  26.841  1.00  0.00     0.073 A 
ATOM     78  C   UNL A   1      35.121  24.054  25.084  1.00  0.00     0.047 A 
ATOM     79  C   UNL A   1      34.649  23.205  26.083  1.00  0.00     0.121 A 
BRANCH  79  80
ATOM     80  O   UNL A   1      35.127  21.952  26.359  1.00  0.00    -0.489 OA
BRANCH  80  81
ATOM     81  C   UNL A   1      35.566  21.137  25.267  1.00  0.00     0.265 C 
BRANCH  81  82
ATOM     82  C   UNL A   1      34.567  20.148  24.677  1.00  0.00    -0.011 A 
ATOM     83  C   UNL A   1      33.318  20.634  24.250  1.00  0.00     0.007 A 
ATOM     84  C   UNL A   1      34.774  18.761  24.630  1.00  0.00     0.007 A 
ATOM     85  C   UNL A   1      32.317  19.764  23.806  1.00  0.00     0.000 A 
ATOM     86  C   UNL A   1      33.769  17.889  24.199  1.00  0.00     0.000 A 
ATOM     87  C   UNL A   1      32.539  18.391  23.792  1.00  0.00     0.000 A 
ENDBRANCH  81  82
ENDBRANCH  80  81
ENDBRANCH  79  80
ENDBRANCH  69  70
BRANCH  69  88
ATOM     88  N   UNL A   1      30.749  28.161  23.999  1.00  0.00    -0.319 N 
ATOM     89  C   UNL A   1      29.790  27.138  23.499  1.00  0.00     0.274 C 
ATOM     90  C   UNL A   1      30.708  29.339  23.104  1.00  0.00     0.274 C 
ATOM     91  H   UNL A   1      30.502  28.491  24.932  1.00  0.00     0.349 HD
ATOM     92  C   UNL A   1      28.319  27.575  23.500  1.00  0.00     0.131 C 
ATOM     93  C   UNL A   1      29.355  30.065  23.144  1.00  0.00     0.131 C 
ATOM     94  S   UNL A   1      28.019  29.041  22.470  1.00  0.00    -0.150 SA
ENDBRANCH  69  88
ENDBRANCH  66  69
ENDBRANCH  64  65
ENDBRANCH   1  64
TORSDOF 16
ENDMDL
