MODEL 1
REMARK VINA RESULT:     -12.9      0.000      0.000
REMARK SMILES Cc1cc(N2CCCC2)nc2sc3c(=O)n(CC(=O)NCCCCNC(=O)c4ccc(-c5c6nc(c(-c7c(F)cccc7F)c7ccc([nH]7)c(-c7c(F)cccc7F)c7nc(c(-c8c(F)cccc8F)c8ccc5[nH]8)C=C7)C=C6)cc4)cnc3c12
REMARK SMILES IDX 22 1 21 2 20 3 18 4 19 5 17 7 16 8 1 9 2 10 3 11 85 12 4 13
REMARK SMILES IDX 11 14 84 15 10 16 12 17 13 18 83 19 14 20 82 21 15 22 5 23
REMARK SMILES IDX 6 24 9 25 7 26 8 27 23 28 24 29 25 30 26 31 27 33 28 34
REMARK SMILES IDX 29 35 81 36 30 37 80 38 31 39 32 40 33 41 74 42 34 43 79 44
REMARK SMILES IDX 73 45 75 46 35 47 78 48 72 49 71 50 36 52 62 53 45 54 61 55
REMARK SMILES IDX 46 56 49 57 60 58 76 59 47 60 48 61 59 63 77 64 50 65 37 66
REMARK SMILES IDX 38 67 43 68 39 69 40 70 42 71 44 72 41 73 63 74 64 75 69 76
REMARK SMILES IDX 65 77 66 78 68 79 70 80 67 81 51 82 52 83 57 84 53 85 54 86
REMARK SMILES IDX 56 87 58 88 55 89
REMARK H PARENT 20 6 25 32 75 51 49 62
REMARK Flexibility Score: inf
ROOT
ATOM      1  C   UNL A   1      39.178  23.967  26.719  1.00  0.00     0.023 C 
ENDROOT
BRANCH   1   2
ATOM      2  C   UNL A   1      37.745  23.865  26.195  1.00  0.00     0.116 C 
BRANCH   2   3
ATOM      3  N   UNL A   1      37.715  23.693  24.754  1.00  0.00    -0.355 N 
ATOM      4  C   UNL A   1      36.699  23.321  23.929  1.00  0.00     0.240 C 
ATOM      5  O   UNL A   1      36.933  23.275  22.717  1.00  0.00    -0.273 OA
ATOM      6  H   UNL A   1      38.569  23.876  24.299  1.00  0.00     0.163 HD
BRANCH   4   7
ATOM      7  C   UNL A   1      35.298  22.999  24.450  1.00  0.00     0.226 C 
BRANCH   7   8
ATOM      8  N   UNL A   1      34.385  24.127  24.346  1.00  0.00    -0.288 N 
ATOM      9  C   UNL A   1      31.955  28.684  26.414  1.00  0.00     0.045 C 
ATOM     10  C   UNL A   1      31.479  28.468  25.006  1.00  0.00    -0.035 A 
ATOM     11  C   UNL A   1      30.653  29.441  24.422  1.00  0.00     0.051 A 
ATOM     12  C   UNL A   1      31.833  27.373  24.186  1.00  0.00     0.041 A 
ATOM     13  C   UNL A   1      30.124  29.286  23.142  1.00  0.00     0.130 A 
ATOM     14  C   UNL A   1      31.256  27.324  22.917  1.00  0.00     0.128 A 
ATOM     15  C   UNL A   1      32.687  26.242  24.362  1.00  0.00     0.098 A 
ATOM     16  N   UNL A   1      30.384  28.207  22.389  1.00  0.00    -0.220 NA
ATOM     17  S   UNL A   1      31.776  25.975  21.998  1.00  0.00    -0.108 S 
ATOM     18  C   UNL A   1      32.776  25.445  23.254  1.00  0.00     0.121 A 
ATOM     19  N   UNL A   1      33.399  25.960  25.537  1.00  0.00    -0.236 NA
ATOM     20  C   UNL A   1      33.633  24.301  23.189  1.00  0.00     0.271 A 
ATOM     21  C   UNL A   1      34.178  24.928  25.457  1.00  0.00     0.203 A 
ATOM     22  O   UNL A   1      33.714  23.537  22.220  1.00  0.00    -0.268 OA
BRANCH  13  23
ATOM     23  N   UNL A   1      29.261  30.228  22.654  1.00  0.00    -0.357 N 
ATOM     24  C   UNL A   1      28.580  30.165  21.380  1.00  0.00     0.118 C 
ATOM     25  C   UNL A   1      28.935  31.421  23.412  1.00  0.00     0.118 C 
ATOM     26  C   UNL A   1      28.351  31.638  21.070  1.00  0.00     0.023 C 
ATOM     27  C   UNL A   1      28.081  32.248  22.441  1.00  0.00     0.023 C 
ENDBRANCH  13  23
ENDBRANCH   7   8
ENDBRANCH   4   7
ENDBRANCH   2   3
ENDBRANCH   1   2
BRANCH   1  28
ATOM     28  C   UNL A   1      39.961  25.210  26.245  1.00  0.00     0.023 C 
BRANCH  28  29
ATOM     29  C   UNL A   1      41.497  25.089  26.251  1.00  0.00     0.116 C 
BRANCH  29  30
ATOM     30  N   UNL A   1      42.112  26.175  25.509  1.00  0.00    -0.352 N 
ATOM     31  C   UNL A   1      41.948  27.532  25.561  1.00  0.00     0.251 C 
ATOM     32  H   UNL A   1      42.773  25.879  24.842  1.00  0.00     0.163 HD
ATOM     33  O   UNL A   1      42.383  28.203  24.626  1.00  0.00    -0.269 OA
BRANCH  31  34
ATOM     34  C   UNL A   1      41.297  28.237  26.689  1.00  0.00     0.039 A 
ATOM     35  C   UNL A   1      41.905  28.142  27.949  1.00  0.00     0.014 A 
ATOM     36  C   UNL A   1      40.027  28.805  26.585  1.00  0.00     0.014 A 
ATOM     37  C   UNL A   1      41.260  28.624  29.093  1.00  0.00     0.010 A 
ATOM     38  C   UNL A   1      39.377  29.281  27.736  1.00  0.00     0.010 A 
ATOM     39  C   UNL A   1      39.986  29.201  29.001  1.00  0.00    -0.014 A 
BRANCH  39  40
ATOM     40  C   UNL A   1      39.392  29.808  30.222  1.00  0.00     0.031 A 
ATOM     41  C   UNL A   1      39.720  29.128  31.511  1.00  0.00     0.074 A 
ATOM     42  C   UNL A   1      39.019  31.106  30.300  1.00  0.00     0.049 A 
ATOM     43  N   UNL A   1      40.832  29.344  32.153  1.00  0.00    -0.248 NA
ATOM     44  C   UNL A   1      38.951  27.998  32.031  1.00  0.00     0.031 C 
ATOM     45  C   UNL A   1      39.697  32.187  29.574  1.00  0.00     0.029 A 
ATOM     46  N   UNL A   1      38.188  31.763  31.184  1.00  0.00    -0.354 N 
ATOM     47  C   UNL A   1      40.959  28.353  33.107  1.00  0.00     0.074 A 
ATOM     48  C   UNL A   1      39.756  27.553  33.009  1.00  0.00     0.031 C 
ATOM     49  C   UNL A   1      39.381  33.362  30.156  1.00  0.00     0.029 A 
ATOM     50  C   UNL A   1      38.363  33.148  31.186  1.00  0.00     0.049 A 
ATOM     51  H   UNL A   1      37.535  31.300  31.758  1.00  0.00     0.167 HD
ATOM     52  C   UNL A   1      42.055  28.240  33.901  1.00  0.00     0.037 A 
ATOM     53  C   UNL A   1      38.213  33.959  32.271  1.00  0.00     0.037 A 
ATOM     54  C   UNL A   1      43.066  29.237  33.707  1.00  0.00     0.049 A 
ATOM     55  C   UNL A   1      39.354  33.522  33.145  1.00  0.00     0.074 A 
ATOM     56  C   UNL A   1      44.240  29.374  32.998  1.00  0.00     0.029 A 
ATOM     57  N   UNL A   1      42.903  30.446  34.341  1.00  0.00    -0.354 N 
ATOM     58  N   UNL A   1      40.599  33.895  33.023  1.00  0.00    -0.248 NA
ATOM     59  C   UNL A   1      39.144  32.351  33.996  1.00  0.00     0.031 C 
ATOM     60  C   UNL A   1      44.446  30.785  32.874  1.00  0.00     0.029 A 
ATOM     61  C   UNL A   1      43.354  31.407  33.474  1.00  0.00     0.049 A 
ATOM     62  H   UNL A   1      42.533  30.593  35.242  1.00  0.00     0.167 HD
ATOM     63  C   UNL A   1      41.350  32.846  33.556  1.00  0.00     0.074 A 
ATOM     64  C   UNL A   1      40.395  31.948  34.174  1.00  0.00     0.031 C 
ATOM     65  C   UNL A   1      42.678  32.669  33.297  1.00  0.00     0.037 A 
BRANCH  52  66
ATOM     66  C   UNL A   1      42.238  27.273  34.998  1.00  0.00     0.057 A 
ATOM     67  C   UNL A   1      41.622  27.424  36.241  1.00  0.00     0.134 A 
ATOM     68  C   UNL A   1      42.805  26.028  34.691  1.00  0.00     0.134 A 
ATOM     69  F   UNL A   1      41.048  28.586  36.583  1.00  0.00    -0.206 F 
ATOM     70  C   UNL A   1      41.526  26.347  37.128  1.00  0.00     0.040 A 
ATOM     71  C   UNL A   1      42.705  24.945  35.560  1.00  0.00     0.040 A 
ATOM     72  F   UNL A   1      43.403  25.834  33.504  1.00  0.00    -0.206 F 
ATOM     73  C   UNL A   1      42.047  25.100  36.777  1.00  0.00     0.006 A 
ENDBRANCH  52  66
BRANCH  53  74
ATOM     74  C   UNL A   1      36.829  34.182  32.791  1.00  0.00     0.057 A 
ATOM     75  C   UNL A   1      36.484  34.435  34.127  1.00  0.00     0.134 A 
ATOM     76  C   UNL A   1      35.757  34.202  31.878  1.00  0.00     0.134 A 
ATOM     77  F   UNL A   1      37.418  34.578  35.075  1.00  0.00    -0.206 F 
ATOM     78  C   UNL A   1      35.153  34.559  34.549  1.00  0.00     0.040 A 
ATOM     79  C   UNL A   1      34.425  34.350  32.280  1.00  0.00     0.040 A 
ATOM     80  F   UNL A   1      35.986  34.095  30.560  1.00  0.00    -0.206 F 
ATOM     81  C   UNL A   1      34.116  34.500  33.626  1.00  0.00     0.006 A 
ENDBRANCH  53  74
BRANCH  65  82
ATOM     82  C   UNL A   1      43.334  33.772  32.539  1.00  0.00     0.057 A 
ATOM     83  C   UNL A   1      43.950  34.851  33.186  1.00  0.00     0.134 A 
ATOM     84  C   UNL A   1      43.346  33.764  31.140  1.00  0.00     0.134 A 
ATOM     85  F   UNL A   1      43.998  34.917  34.527  1.00  0.00    -0.206 F 
ATOM     86  C   UNL A   1      44.520  35.903  32.469  1.00  0.00     0.040 A 
ATOM     87  C   UNL A   1      43.936  34.797  30.412  1.00  0.00     0.040 A 
ATOM     88  F   UNL A   1      42.766  32.762  30.459  1.00  0.00    -0.206 F 
ATOM     89  C   UNL A   1      44.515  35.877  31.077  1.00  0.00     0.006 A 
ENDBRANCH  65  82
ENDBRANCH  39  40
ENDBRANCH  31  34
ENDBRANCH  29  30
ENDBRANCH  28  29
ENDBRANCH   1  28
TORSDOF 13
ENDMDL
MODEL 2
REMARK VINA RESULT:     -12.4      4.103      9.645
REMARK SMILES Cc1cc(N2CCCC2)nc2sc3c(=O)n(CC(=O)NCCCCNC(=O)c4ccc(-c5c6nc(c(-c7c(F)cccc7F)c7ccc([nH]7)c(-c7c(F)cccc7F)c7nc(c(-c8c(F)cccc8F)c8ccc5[nH]8)C=C7)C=C6)cc4)cnc3c12
REMARK SMILES IDX 22 1 21 2 20 3 18 4 19 5 17 7 16 8 1 9 2 10 3 11 85 12 4 13
REMARK SMILES IDX 11 14 84 15 10 16 12 17 13 18 83 19 14 20 82 21 15 22 5 23
REMARK SMILES IDX 6 24 9 25 7 26 8 27 23 28 24 29 25 30 26 31 27 33 28 34
REMARK SMILES IDX 29 35 81 36 30 37 80 38 31 39 32 40 33 41 74 42 34 43 79 44
REMARK SMILES IDX 73 45 75 46 35 47 78 48 72 49 71 50 36 52 62 53 45 54 61 55
REMARK SMILES IDX 46 56 49 57 60 58 76 59 47 60 48 61 59 63 77 64 50 65 37 66
REMARK SMILES IDX 38 67 43 68 39 69 40 70 42 71 44 72 41 73 63 74 64 75 69 76
REMARK SMILES IDX 65 77 66 78 68 79 70 80 67 81 51 82 52 83 57 84 53 85 54 86
REMARK SMILES IDX 56 87 58 88 55 89
REMARK H PARENT 20 6 25 32 75 51 49 62
REMARK Flexibility Score: inf
ROOT
ATOM      1  C   UNL A   1      35.133  29.261  27.062  1.00  0.00     0.023 C 
ENDROOT
BRANCH   1   2
ATOM      2  C   UNL A   1      33.734  29.827  26.811  1.00  0.00     0.116 C 
BRANCH   2   3
ATOM      3  N   UNL A   1      32.735  29.160  27.626  1.00  0.00    -0.355 N 
ATOM      4  C   UNL A   1      31.753  28.285  27.281  1.00  0.00     0.240 C 
ATOM      5  O   UNL A   1      31.041  27.837  28.185  1.00  0.00    -0.273 OA
ATOM      6  H   UNL A   1      32.776  29.377  28.586  1.00  0.00     0.163 HD
BRANCH   4   7
ATOM      7  C   UNL A   1      31.536  27.827  25.838  1.00  0.00     0.226 C 
BRANCH   7   8
ATOM      8  N   UNL A   1      31.990  26.464  25.606  1.00  0.00    -0.288 N 
ATOM      9  C   UNL A   1      35.912  22.760  24.245  1.00  0.00     0.045 C 
ATOM     10  C   UNL A   1      34.643  22.032  24.585  1.00  0.00    -0.035 A 
ATOM     11  C   UNL A   1      34.667  20.629  24.627  1.00  0.00     0.051 A 
ATOM     12  C   UNL A   1      33.414  22.648  24.916  1.00  0.00     0.041 A 
ATOM     13  C   UNL A   1      33.519  19.880  24.877  1.00  0.00     0.130 A 
ATOM     14  C   UNL A   1      32.333  21.802  25.161  1.00  0.00     0.128 A 
ATOM     15  C   UNL A   1      32.997  24.005  25.064  1.00  0.00     0.098 A 
ATOM     16  N   UNL A   1      32.328  20.454  25.107  1.00  0.00    -0.220 NA
ATOM     17  S   UNL A   1      30.904  22.649  25.582  1.00  0.00    -0.108 S 
ATOM     18  C   UNL A   1      31.694  24.139  25.459  1.00  0.00     0.121 A 
ATOM     19  N   UNL A   1      33.826  25.118  24.854  1.00  0.00    -0.236 NA
ATOM     20  C   UNL A   1      31.095  25.408  25.737  1.00  0.00     0.271 A 
ATOM     21  C   UNL A   1      33.271  26.257  25.121  1.00  0.00     0.203 A 
ATOM     22  O   UNL A   1      29.913  25.571  26.060  1.00  0.00    -0.268 OA
BRANCH  13  23
ATOM     23  N   UNL A   1      33.584  18.515  24.828  1.00  0.00    -0.357 N 
ATOM     24  C   UNL A   1      34.663  17.744  24.251  1.00  0.00     0.118 C 
ATOM     25  C   UNL A   1      32.531  17.687  25.384  1.00  0.00     0.118 C 
ATOM     26  C   UNL A   1      33.957  16.452  23.861  1.00  0.00     0.023 C 
ATOM     27  C   UNL A   1      32.932  16.263  24.975  1.00  0.00     0.023 C 
ENDBRANCH  13  23
ENDBRANCH   7   8
ENDBRANCH   4   7
ENDBRANCH   2   3
ENDBRANCH   1   2
BRANCH   1  28
ATOM     28  C   UNL A   1      36.153  30.268  27.635  1.00  0.00     0.023 C 
BRANCH  28  29
ATOM     29  C   UNL A   1      35.629  31.221  28.727  1.00  0.00     0.116 C 
BRANCH  29  30
ATOM     30  N   UNL A   1      35.899  30.698  30.054  1.00  0.00    -0.352 N 
ATOM     31  C   UNL A   1      36.833  29.815  30.521  1.00  0.00     0.251 C 
ATOM     32  H   UNL A   1      35.296  31.046  30.750  1.00  0.00     0.163 HD
ATOM     33  O   UNL A   1      36.660  29.328  31.638  1.00  0.00    -0.269 OA
BRANCH  31  34
ATOM     34  C   UNL A   1      38.049  29.431  29.768  1.00  0.00     0.039 A 
ATOM     35  C   UNL A   1      38.124  28.116  29.287  1.00  0.00     0.014 A 
ATOM     36  C   UNL A   1      39.177  30.248  29.700  1.00  0.00     0.014 A 
ATOM     37  C   UNL A   1      39.307  27.625  28.727  1.00  0.00     0.010 A 
ATOM     38  C   UNL A   1      40.368  29.751  29.145  1.00  0.00     0.010 A 
ATOM     39  C   UNL A   1      40.447  28.438  28.649  1.00  0.00    -0.014 A 
BRANCH  39  40
ATOM     40  C   UNL A   1      41.644  27.915  27.938  1.00  0.00     0.031 A 
ATOM     41  C   UNL A   1      42.718  28.913  27.652  1.00  0.00     0.074 A 
ATOM     42  C   UNL A   1      42.019  26.615  27.970  1.00  0.00     0.049 A 
ATOM     43  N   UNL A   1      43.607  29.256  28.540  1.00  0.00    -0.248 NA
ATOM     44  C   UNL A   1      42.719  29.760  26.461  1.00  0.00     0.031 C 
ATOM     45  C   UNL A   1      41.791  25.737  29.124  1.00  0.00     0.029 A 
ATOM     46  N   UNL A   1      42.867  25.891  27.158  1.00  0.00    -0.354 N 
ATOM     47  C   UNL A   1      44.236  30.395  28.076  1.00  0.00     0.074 A 
ATOM     48  C   UNL A   1      43.668  30.658  26.770  1.00  0.00     0.031 C 
ATOM     49  C   UNL A   1      42.613  24.672  29.024  1.00  0.00     0.029 A 
ATOM     50  C   UNL A   1      43.307  24.699  27.736  1.00  0.00     0.049 A 
ATOM     51  H   UNL A   1      43.136  26.186  26.257  1.00  0.00     0.167 HD
ATOM     52  C   UNL A   1      45.169  31.062  28.804  1.00  0.00     0.037 A 
ATOM     53  C   UNL A   1      44.527  24.127  27.530  1.00  0.00     0.037 A 
ATOM     54  C   UNL A   1      45.484  30.490  30.081  1.00  0.00     0.049 A 
ATOM     55  C   UNL A   1      45.449  25.121  28.177  1.00  0.00     0.074 A 
ATOM     56  C   UNL A   1      45.099  30.655  31.393  1.00  0.00     0.029 A 
ATOM     57  N   UNL A   1      46.395  29.461  30.114  1.00  0.00    -0.354 N 
ATOM     58  N   UNL A   1      45.696  25.216  29.455  1.00  0.00    -0.248 NA
ATOM     59  C   UNL A   1      45.861  26.278  27.383  1.00  0.00     0.031 C 
ATOM     60  C   UNL A   1      45.435  29.426  32.045  1.00  0.00     0.029 A 
ATOM     61  C   UNL A   1      45.956  28.580  31.068  1.00  0.00     0.049 A 
ATOM     62  H   UNL A   1      47.204  29.374  29.561  1.00  0.00     0.167 HD
ATOM     63  C   UNL A   1      46.042  26.553  29.663  1.00  0.00     0.074 A 
ATOM     64  C   UNL A   1      46.165  27.140  28.343  1.00  0.00     0.031 C 
ATOM     65  C   UNL A   1      46.019  27.150  30.889  1.00  0.00     0.037 A 
BRANCH  52  66
ATOM     66  C   UNL A   1      45.951  32.228  28.357  1.00  0.00     0.057 A 
ATOM     67  C   UNL A   1      47.064  32.110  27.524  1.00  0.00     0.134 A 
ATOM     68  C   UNL A   1      45.393  33.502  28.533  1.00  0.00     0.134 A 
ATOM     69  F   UNL A   1      47.630  30.914  27.305  1.00  0.00    -0.206 F 
ATOM     70  C   UNL A   1      47.570  33.221  26.842  1.00  0.00     0.040 A 
ATOM     71  C   UNL A   1      45.879  34.614  27.851  1.00  0.00     0.040 A 
ATOM     72  F   UNL A   1      44.317  33.663  29.321  1.00  0.00    -0.206 F 
ATOM     73  C   UNL A   1      46.962  34.470  26.987  1.00  0.00     0.006 A 
ENDBRANCH  52  66
BRANCH  53  74
ATOM     74  C   UNL A   1      44.796  23.520  26.189  1.00  0.00     0.057 A 
ATOM     75  C   UNL A   1      46.040  23.475  25.543  1.00  0.00     0.134 A 
ATOM     76  C   UNL A   1      43.742  22.877  25.512  1.00  0.00     0.134 A 
ATOM     77  F   UNL A   1      47.152  23.929  26.134  1.00  0.00    -0.206 F 
ATOM     78  C   UNL A   1      46.197  22.955  24.251  1.00  0.00     0.040 A 
ATOM     79  C   UNL A   1      43.888  22.328  24.234  1.00  0.00     0.040 A 
ATOM     80  F   UNL A   1      42.539  22.751  26.094  1.00  0.00    -0.206 F 
ATOM     81  C   UNL A   1      45.115  22.393  23.585  1.00  0.00     0.006 A 
ENDBRANCH  53  74
BRANCH  65  82
ATOM     82  C   UNL A   1      45.764  26.238  32.040  1.00  0.00     0.057 A 
ATOM     83  C   UNL A   1      46.806  25.586  32.713  1.00  0.00     0.134 A 
ATOM     84  C   UNL A   1      44.459  25.997  32.481  1.00  0.00     0.134 A 
ATOM     85  F   UNL A   1      48.087  25.785  32.361  1.00  0.00    -0.206 F 
ATOM     86  C   UNL A   1      46.556  24.697  33.758  1.00  0.00     0.040 A 
ATOM     87  C   UNL A   1      44.198  25.130  33.543  1.00  0.00     0.040 A 
ATOM     88  F   UNL A   1      43.415  26.585  31.873  1.00  0.00    -0.206 F 
ATOM     89  C   UNL A   1      45.247  24.468  34.177  1.00  0.00     0.006 A 
ENDBRANCH  65  82
ENDBRANCH  39  40
ENDBRANCH  31  34
ENDBRANCH  29  30
ENDBRANCH  28  29
ENDBRANCH   1  28
TORSDOF 13
ENDMDL
MODEL 3
REMARK VINA RESULT:     -12.3      5.593     10.387
REMARK SMILES Cc1cc(N2CCCC2)nc2sc3c(=O)n(CC(=O)NCCCCNC(=O)c4ccc(-c5c6nc(c(-c7c(F)cccc7F)c7ccc([nH]7)c(-c7c(F)cccc7F)c7nc(c(-c8c(F)cccc8F)c8ccc5[nH]8)C=C7)C=C6)cc4)cnc3c12
REMARK SMILES IDX 22 1 21 2 20 3 18 4 19 5 17 7 16 8 1 9 2 10 3 11 85 12 4 13
REMARK SMILES IDX 11 14 84 15 10 16 12 17 13 18 83 19 14 20 82 21 15 22 5 23
REMARK SMILES IDX 6 24 9 25 7 26 8 27 23 28 24 29 25 30 26 31 27 33 28 34
REMARK SMILES IDX 29 35 81 36 30 37 80 38 31 39 32 40 33 41 74 42 34 43 79 44
REMARK SMILES IDX 73 45 75 46 35 47 78 48 72 49 71 50 36 52 62 53 45 54 61 55
REMARK SMILES IDX 46 56 49 57 60 58 76 59 47 60 48 61 59 63 77 64 50 65 37 66
REMARK SMILES IDX 38 67 43 68 39 69 40 70 42 71 44 72 41 73 63 74 64 75 69 76
REMARK SMILES IDX 65 77 66 78 68 79 70 80 67 81 51 82 52 83 57 84 53 85 54 86
REMARK SMILES IDX 56 87 58 88 55 89
REMARK H PARENT 20 6 25 32 75 51 49 62
REMARK Flexibility Score: inf
ROOT
ATOM      1  C   UNL A   1      44.065  26.764  37.013  1.00  0.00     0.023 C 
ENDROOT
BRANCH   1   2
ATOM      2  C   UNL A   1      43.781  27.912  36.043  1.00  0.00     0.116 C 
BRANCH   2   3
ATOM      3  N   UNL A   1      42.616  27.639  35.221  1.00  0.00    -0.355 N 
ATOM      4  C   UNL A   1      41.598  28.454  34.832  1.00  0.00     0.240 C 
ATOM      5  O   UNL A   1      40.728  27.973  34.099  1.00  0.00    -0.273 OA
ATOM      6  H   UNL A   1      42.552  26.713  34.891  1.00  0.00     0.163 HD
BRANCH   4   7
ATOM      7  C   UNL A   1      41.525  29.925  35.243  1.00  0.00     0.226 C 
BRANCH   7   8
ATOM      8  N   UNL A   1      40.558  30.681  34.462  1.00  0.00    -0.288 N 
ATOM      9  C   UNL A   1      38.920  33.198  29.779  1.00  0.00     0.045 C 
ATOM     10  C   UNL A   1      37.822  33.293  30.799  1.00  0.00    -0.035 A 
ATOM     11  C   UNL A   1      36.593  33.848  30.409  1.00  0.00     0.051 A 
ATOM     12  C   UNL A   1      37.903  32.821  32.129  1.00  0.00     0.041 A 
ATOM     13  C   UNL A   1      35.545  34.023  31.312  1.00  0.00     0.130 A 
ATOM     14  C   UNL A   1      36.790  33.036  32.941  1.00  0.00     0.128 A 
ATOM     15  C   UNL A   1      38.912  32.141  32.877  1.00  0.00     0.098 A 
ATOM     16  N   UNL A   1      35.644  33.658  32.599  1.00  0.00    -0.220 NA
ATOM     17  S   UNL A   1      36.984  32.400  34.521  1.00  0.00    -0.108 S 
ATOM     18  C   UNL A   1      38.529  31.822  34.150  1.00  0.00     0.121 A 
ATOM     19  N   UNL A   1      40.177  31.798  32.375  1.00  0.00    -0.236 NA
ATOM     20  C   UNL A   1      39.359  31.076  35.045  1.00  0.00     0.271 A 
ATOM     21  C   UNL A   1      40.910  31.113  33.194  1.00  0.00     0.203 A 
ATOM     22  O   UNL A   1      39.063  30.799  36.213  1.00  0.00    -0.268 OA
BRANCH  13  23
ATOM     23  N   UNL A   1      34.399  34.642  30.897  1.00  0.00    -0.357 N 
ATOM     24  C   UNL A   1      33.821  34.546  29.575  1.00  0.00     0.118 C 
ATOM     25  C   UNL A   1      33.625  35.480  31.793  1.00  0.00     0.118 C 
ATOM     26  C   UNL A   1      33.053  35.857  29.468  1.00  0.00     0.023 C 
ATOM     27  C   UNL A   1      32.541  36.080  30.887  1.00  0.00     0.023 C 
ENDBRANCH  13  23
ENDBRANCH   7   8
ENDBRANCH   4   7
ENDBRANCH   2   3
ENDBRANCH   1   2
BRANCH   1  28
ATOM     28  C   UNL A   1      42.842  25.892  37.371  1.00  0.00     0.023 C 
BRANCH  28  29
ATOM     29  C   UNL A   1      42.577  24.684  36.452  1.00  0.00     0.116 C 
BRANCH  29  30
ATOM     30  N   UNL A   1      43.687  23.749  36.480  1.00  0.00    -0.352 N 
ATOM     31  C   UNL A   1      44.565  23.336  35.515  1.00  0.00     0.251 C 
ATOM     32  H   UNL A   1      43.838  23.334  37.360  1.00  0.00     0.163 HD
ATOM     33  O   UNL A   1      45.228  22.323  35.734  1.00  0.00    -0.269 OA
BRANCH  31  34
ATOM     34  C   UNL A   1      44.775  24.052  34.236  1.00  0.00     0.039 A 
ATOM     35  C   UNL A   1      45.555  25.217  34.268  1.00  0.00     0.014 A 
ATOM     36  C   UNL A   1      44.075  23.731  33.074  1.00  0.00     0.014 A 
ATOM     37  C   UNL A   1      45.650  26.045  33.145  1.00  0.00     0.010 A 
ATOM     38  C   UNL A   1      44.165  24.568  31.949  1.00  0.00     0.010 A 
ATOM     39  C   UNL A   1      44.956  25.731  31.969  1.00  0.00    -0.014 A 
BRANCH  39  40
ATOM     40  C   UNL A   1      45.182  26.572  30.764  1.00  0.00     0.031 A 
ATOM     41  C   UNL A   1      45.175  25.851  29.456  1.00  0.00     0.074 A 
ATOM     42  C   UNL A   1      44.919  27.899  30.725  1.00  0.00     0.049 A 
ATOM     43  N   UNL A   1      44.074  25.550  28.829  1.00  0.00    -0.248 NA
ATOM     44  C   UNL A   1      46.364  25.210  28.896  1.00  0.00     0.031 C 
ATOM     45  C   UNL A   1      43.838  28.532  31.490  1.00  0.00     0.029 A 
ATOM     46  N   UNL A   1      45.341  28.886  29.857  1.00  0.00    -0.354 N 
ATOM     47  C   UNL A   1      44.395  24.636  27.845  1.00  0.00     0.074 A 
ATOM     48  C   UNL A   1      45.832  24.472  27.909  1.00  0.00     0.031 C 
ATOM     49  C   UNL A   1      43.571  29.736  30.943  1.00  0.00     0.029 A 
ATOM     50  C   UNL A   1      44.553  30.037  29.900  1.00  0.00     0.049 A 
ATOM     51  H   UNL A   1      46.121  28.787  29.264  1.00  0.00     0.167 HD
ATOM     52  C   UNL A   1      43.455  24.054  27.055  1.00  0.00     0.037 A 
ATOM     53  C   UNL A   1      44.293  30.854  28.840  1.00  0.00     0.037 A 
ATOM     54  C   UNL A   1      42.104  24.473  27.287  1.00  0.00     0.049 A 
ATOM     55  C   UNL A   1      43.460  29.966  27.960  1.00  0.00     0.074 A 
ATOM     56  C   UNL A   1      41.012  24.041  28.007  1.00  0.00     0.029 A 
ATOM     57  N   UNL A   1      41.684  25.639  26.691  1.00  0.00    -0.354 N 
ATOM     58  N   UNL A   1      42.186  29.725  28.102  1.00  0.00    -0.248 NA
ATOM     59  C   UNL A   1      44.165  29.042  27.072  1.00  0.00     0.031 C 
ATOM     60  C   UNL A   1      40.187  25.198  28.178  1.00  0.00     0.029 A 
ATOM     61  C   UNL A   1      40.862  26.265  27.590  1.00  0.00     0.049 A 
ATOM     62  H   UNL A   1      41.928  25.961  25.792  1.00  0.00     0.167 HD
ATOM     63  C   UNL A   1      41.985  28.463  27.541  1.00  0.00     0.074 A 
ATOM     64  C   UNL A   1      43.233  28.117  26.889  1.00  0.00     0.031 C 
ATOM     65  C   UNL A   1      40.890  27.692  27.803  1.00  0.00     0.037 A 
BRANCH  52  66
ATOM     66  C   UNL A   1      43.711  23.138  25.929  1.00  0.00     0.057 A 
ATOM     67  C   UNL A   1      44.393  23.537  24.778  1.00  0.00     0.134 A 
ATOM     68  C   UNL A   1      43.526  21.765  26.141  1.00  0.00     0.134 A 
ATOM     69  F   UNL A   1      44.615  24.836  24.531  1.00  0.00    -0.206 F 
ATOM     70  C   UNL A   1      44.922  22.592  23.895  1.00  0.00     0.040 A 
ATOM     71  C   UNL A   1      44.058  20.814  25.276  1.00  0.00     0.040 A 
ATOM     72  F   UNL A   1      42.881  21.334  27.238  1.00  0.00    -0.206 F 
ATOM     73  C   UNL A   1      44.775  21.227  24.157  1.00  0.00     0.006 A 
ENDBRANCH  52  66
BRANCH  53  74
ATOM     74  C   UNL A   1      45.412  31.698  28.318  1.00  0.00     0.057 A 
ATOM     75  C   UNL A   1      46.616  31.223  27.778  1.00  0.00     0.134 A 
ATOM     76  C   UNL A   1      45.253  33.098  28.299  1.00  0.00     0.134 A 
ATOM     77  F   UNL A   1      46.840  29.913  27.612  1.00  0.00    -0.206 F 
ATOM     78  C   UNL A   1      47.650  32.080  27.378  1.00  0.00     0.040 A 
ATOM     79  C   UNL A   1      46.266  33.966  27.877  1.00  0.00     0.040 A 
ATOM     80  F   UNL A   1      44.092  33.654  28.675  1.00  0.00    -0.206 F 
ATOM     81  C   UNL A   1      47.483  33.458  27.443  1.00  0.00     0.006 A 
ENDBRANCH  53  74
BRANCH  65  82
ATOM     82  C   UNL A   1      39.819  28.353  28.600  1.00  0.00     0.057 A 
ATOM     83  C   UNL A   1      38.836  29.152  28.001  1.00  0.00     0.134 A 
ATOM     84  C   UNL A   1      39.769  28.200  29.989  1.00  0.00     0.134 A 
ATOM     85  F   UNL A   1      38.806  29.328  26.670  1.00  0.00    -0.206 F 
ATOM     86  C   UNL A   1      37.865  29.807  28.758  1.00  0.00     0.040 A 
ATOM     87  C   UNL A   1      38.786  28.828  30.756  1.00  0.00     0.040 A 
ATOM     88  F   UNL A   1      40.686  27.454  30.627  1.00  0.00    -0.206 F 
ATOM     89  C   UNL A   1      37.837  29.643  30.142  1.00  0.00     0.006 A 
ENDBRANCH  65  82
ENDBRANCH  39  40
ENDBRANCH  31  34
ENDBRANCH  29  30
ENDBRANCH  28  29
ENDBRANCH   1  28
TORSDOF 13
ENDMDL
