MODEL 1
REMARK VINA RESULT:     -13.0      0.000      0.000
REMARK SMILES Cc1cccc(-n2c(C)cc(/C=N\c3ccc(O)c(C(=O)NCCCCNC(=O)c4ccc(-c5c6nc(c(-c7c(F)cccc7F)c7ccc([nH]7)c(-c7c(F)cccc7F)c7nc(c(-c8c(F)cccc8F)c8ccc5[nH]8)C=C7)C=C6)cc4)c3)c2C)c1
REMARK SMILES IDX 24 1 23 2 22 3 20 4 21 5 19 7 14 8 15 9 84 10 16 11 17 12
REMARK SMILES IDX 13 13 12 14 11 15 7 16 8 17 85 18 9 19 10 20 86 21 6 22 1 23
REMARK SMILES IDX 2 24 3 25 87 26 4 27 5 28 18 29 25 31 26 32 27 33 28 34
REMARK SMILES IDX 29 36 30 37 31 38 83 39 32 40 82 41 33 42 34 43 35 44 76 45
REMARK SMILES IDX 36 46 81 47 75 48 77 49 37 50 80 51 74 52 73 53 38 55 64 56
REMARK SMILES IDX 47 57 63 58 48 59 51 60 62 61 78 62 49 63 50 64 61 66 79 67
REMARK SMILES IDX 52 68 39 69 40 70 45 71 41 72 42 73 44 74 46 75 43 76 65 77
REMARK SMILES IDX 66 78 71 79 67 80 68 81 70 82 72 83 69 84 53 85 54 86 59 87
REMARK SMILES IDX 55 88 56 89 58 90 60 91 57 92
REMARK H PARENT 22 6 18 30 27 35 77 54 51 65
REMARK Flexibility Score: inf
ROOT
ATOM      1  C   UNL A   1      33.061  29.484  25.268  1.00  0.00     0.023 C 
ENDROOT
BRANCH   1   2
ATOM      2  C   UNL A   1      33.294  29.214  23.786  1.00  0.00     0.116 C 
BRANCH   2   3
ATOM      3  N   UNL A   1      32.191  29.517  22.886  1.00  0.00    -0.352 N 
ATOM      4  C   UNL A   1      31.111  28.761  22.475  1.00  0.00     0.255 C 
ATOM      5  O   UNL A   1      30.283  29.313  21.747  1.00  0.00    -0.269 OA
ATOM      6  H   UNL A   1      32.221  30.422  22.501  1.00  0.00     0.163 HD
BRANCH   4   7
ATOM      7  C   UNL A   1      30.909  27.327  22.841  1.00  0.00     0.083 A 
ATOM      8  C   UNL A   1      30.006  25.733  24.458  1.00  0.00     0.064 A 
ATOM      9  C   UNL A   1      30.337  24.678  23.611  1.00  0.00     0.032 A 
ATOM     10  C   UNL A   1      30.168  27.051  24.004  1.00  0.00     0.046 A 
ATOM     11  C   UNL A   1      31.109  24.927  22.483  1.00  0.00     0.049 A 
ATOM     12  C   UNL A   1      31.499  26.235  22.199  1.00  0.00     0.128 A 
BRANCH   8  13
ATOM     13  N   UNL A   1      29.561  25.508  25.762  1.00  0.00    -0.256 NA
ATOM     14  C   UNL A   1      30.230  24.794  26.626  1.00  0.00     0.121 C 
BRANCH  14  15
ATOM     15  C   UNL A   1      31.511  24.085  26.511  1.00  0.00     0.014 A 
ATOM     16  N   UNL A   1      33.633  23.416  26.071  1.00  0.00    -0.318 N 
ATOM     17  C   UNL A   1      32.982  22.339  26.653  1.00  0.00     0.021 A 
ATOM     18  C   UNL A   1      32.790  24.530  26.164  1.00  0.00     0.029 A 
ATOM     19  C   UNL A   1      33.658  21.059  27.009  1.00  0.00     0.065 C 
ATOM     20  C   UNL A   1      31.677  22.719  26.890  1.00  0.00     0.033 A 
ATOM     21  C   UNL A   1      33.272  25.900  25.845  1.00  0.00     0.065 C 
BRANCH  16  22
ATOM     22  C   UNL A   1      34.903  23.368  25.418  1.00  0.00     0.046 A 
ATOM     23  C   UNL A   1      38.591  23.581  26.382  1.00  0.00     0.044 C 
ATOM     24  C   UNL A   1      37.330  23.395  25.589  1.00  0.00    -0.049 A 
ATOM     25  C   UNL A   1      37.414  22.964  24.258  1.00  0.00     0.003 A 
ATOM     26  C   UNL A   1      36.067  23.602  26.166  1.00  0.00     0.030 A 
ATOM     27  C   UNL A   1      36.259  22.780  23.501  1.00  0.00     0.002 A 
ATOM     28  C   UNL A   1      35.006  22.996  24.075  1.00  0.00     0.026 A 
ENDBRANCH  16  22
ENDBRANCH  14  15
ENDBRANCH   8  13
BRANCH  12  29
ATOM     29  O   UNL A   1      32.618  26.338  21.413  1.00  0.00    -0.507 OA
ATOM     30  H   UNL A   1      33.035  25.564  21.089  1.00  0.00     0.293 HD
ENDBRANCH  12  29
ENDBRANCH   4   7
ENDBRANCH   2   3
ENDBRANCH   1   2
BRANCH   1  31
ATOM     31  C   UNL A   1      34.253  29.383  26.204  1.00  0.00     0.023 C 
BRANCH  31  32
ATOM     32  C   UNL A   1      34.002  29.743  27.658  1.00  0.00     0.116 C 
BRANCH  32  33
ATOM     33  N   UNL A   1      34.669  30.933  28.160  1.00  0.00    -0.352 N 
ATOM     34  C   UNL A   1      35.949  31.079  28.669  1.00  0.00     0.251 C 
ATOM     35  H   UNL A   1      34.131  31.757  28.134  1.00  0.00     0.163 HD
ATOM     36  O   UNL A   1      36.288  32.181  29.108  1.00  0.00    -0.269 OA
BRANCH  34  37
ATOM     37  C   UNL A   1      36.965  29.989  28.580  1.00  0.00     0.039 A 
ATOM     38  C   UNL A   1      37.028  29.043  29.617  1.00  0.00     0.014 A 
ATOM     39  C   UNL A   1      37.951  29.968  27.601  1.00  0.00     0.014 A 
ATOM     40  C   UNL A   1      38.181  28.274  29.795  1.00  0.00     0.010 A 
ATOM     41  C   UNL A   1      39.136  29.306  27.835  1.00  0.00     0.010 A 
ATOM     42  C   UNL A   1      39.273  28.502  28.962  1.00  0.00    -0.014 A 
BRANCH  42  43
ATOM     43  C   UNL A   1      40.636  28.086  29.252  1.00  0.00     0.031 A 
ATOM     44  C   UNL A   1      41.241  26.913  28.595  1.00  0.00     0.074 A 
ATOM     45  C   UNL A   1      41.413  28.920  29.977  1.00  0.00     0.049 A 
ATOM     46  N   UNL A   1      42.240  26.259  29.085  1.00  0.00    -0.248 NA
ATOM     47  C   UNL A   1      40.772  26.382  27.318  1.00  0.00     0.031 C 
ATOM     48  C   UNL A   1      42.867  28.897  30.105  1.00  0.00     0.029 A 
ATOM     49  N   UNL A   1      40.997  29.877  30.910  1.00  0.00    -0.354 N 
ATOM     50  C   UNL A   1      42.728  25.452  28.085  1.00  0.00     0.074 A 
ATOM     51  C   UNL A   1      41.741  25.507  27.031  1.00  0.00     0.031 C 
ATOM     52  C   UNL A   1      43.212  29.552  31.225  1.00  0.00     0.029 A 
ATOM     53  C   UNL A   1      41.982  29.889  31.919  1.00  0.00     0.049 A 
ATOM     54  H   UNL A   1      40.183  30.430  30.869  1.00  0.00     0.167 HD
ATOM     55  C   UNL A   1      43.988  24.942  28.177  1.00  0.00     0.037 A 
ATOM     56  C   UNL A   1      41.676  29.511  33.194  1.00  0.00     0.037 A 
ATOM     57  C   UNL A   1      44.658  25.373  29.399  1.00  0.00     0.049 A 
ATOM     58  C   UNL A   1      42.451  28.308  33.679  1.00  0.00     0.074 A 
ATOM     59  C   UNL A   1      45.583  26.373  29.657  1.00  0.00     0.029 A 
ATOM     60  N   UNL A   1      44.161  24.975  30.636  1.00  0.00    -0.354 N 
ATOM     61  N   UNL A   1      43.089  27.485  32.894  1.00  0.00    -0.248 NA
ATOM     62  C   UNL A   1      42.564  27.929  35.084  1.00  0.00     0.031 C 
ATOM     63  C   UNL A   1      45.618  26.597  31.054  1.00  0.00     0.029 A 
ATOM     64  C   UNL A   1      44.724  25.727  31.649  1.00  0.00     0.049 A 
ATOM     65  H   UNL A   1      43.500  24.257  30.771  1.00  0.00     0.167 HD
ATOM     66  C   UNL A   1      43.674  26.490  33.636  1.00  0.00     0.074 A 
ATOM     67  C   UNL A   1      43.333  26.827  35.004  1.00  0.00     0.031 C 
ATOM     68  C   UNL A   1      44.384  25.480  33.043  1.00  0.00     0.037 A 
BRANCH  55  69
ATOM     69  C   UNL A   1      44.680  24.321  26.991  1.00  0.00     0.057 A 
ATOM     70  C   UNL A   1      44.481  22.975  26.637  1.00  0.00     0.134 A 
ATOM     71  C   UNL A   1      45.603  25.011  26.187  1.00  0.00     0.134 A 
ATOM     72  F   UNL A   1      43.568  22.210  27.247  1.00  0.00    -0.206 F 
ATOM     73  C   UNL A   1      45.227  22.334  25.639  1.00  0.00     0.040 A 
ATOM     74  C   UNL A   1      46.391  24.373  25.218  1.00  0.00     0.040 A 
ATOM     75  F   UNL A   1      45.766  26.338  26.303  1.00  0.00    -0.206 F 
ATOM     76  C   UNL A   1      46.214  23.023  24.951  1.00  0.00     0.006 A 
ENDBRANCH  55  69
BRANCH  56  77
ATOM     77  C   UNL A   1      40.285  29.867  33.583  1.00  0.00     0.057 A 
ATOM     78  C   UNL A   1      40.018  31.203  33.939  1.00  0.00     0.134 A 
ATOM     79  C   UNL A   1      39.192  29.074  33.230  1.00  0.00     0.134 A 
ATOM     80  F   UNL A   1      41.026  32.021  34.284  1.00  0.00    -0.206 F 
ATOM     81  C   UNL A   1      38.739  31.756  33.831  1.00  0.00     0.040 A 
ATOM     82  C   UNL A   1      37.902  29.615  33.131  1.00  0.00     0.040 A 
ATOM     83  F   UNL A   1      39.366  27.799  32.851  1.00  0.00    -0.206 F 
ATOM     84  C   UNL A   1      37.682  30.967  33.393  1.00  0.00     0.006 A 
ENDBRANCH  56  77
BRANCH  68  85
ATOM     85  C   UNL A   1      44.919  24.219  33.691  1.00  0.00     0.057 A 
ATOM     86  C   UNL A   1      46.271  23.955  33.945  1.00  0.00     0.134 A 
ATOM     87  C   UNL A   1      44.023  23.254  34.222  1.00  0.00     0.134 A 
ATOM     88  F   UNL A   1      47.234  24.821  33.606  1.00  0.00    -0.206 F 
ATOM     89  C   UNL A   1      46.703  22.804  34.622  1.00  0.00     0.040 A 
ATOM     90  C   UNL A   1      44.439  22.134  34.948  1.00  0.00     0.040 A 
ATOM     91  F   UNL A   1      42.693  23.364  34.081  1.00  0.00    -0.206 F 
ATOM     92  C   UNL A   1      45.787  21.896  35.139  1.00  0.00     0.006 A 
ENDBRANCH  68  85
ENDBRANCH  42  43
ENDBRANCH  34  37
ENDBRANCH  32  33
ENDBRANCH  31  32
ENDBRANCH   1  31
TORSDOF 15
ENDMDL
MODEL 2
REMARK VINA RESULT:     -12.7      2.110      3.514
REMARK SMILES Cc1cccc(-n2c(C)cc(/C=N\c3ccc(O)c(C(=O)NCCCCNC(=O)c4ccc(-c5c6nc(c(-c7c(F)cccc7F)c7ccc([nH]7)c(-c7c(F)cccc7F)c7nc(c(-c8c(F)cccc8F)c8ccc5[nH]8)C=C7)C=C6)cc4)c3)c2C)c1
REMARK SMILES IDX 24 1 23 2 22 3 20 4 21 5 19 7 14 8 15 9 84 10 16 11 17 12
REMARK SMILES IDX 13 13 12 14 11 15 7 16 8 17 85 18 9 19 10 20 86 21 6 22 1 23
REMARK SMILES IDX 2 24 3 25 87 26 4 27 5 28 18 29 25 31 26 32 27 33 28 34
REMARK SMILES IDX 29 36 30 37 31 38 83 39 32 40 82 41 33 42 34 43 35 44 76 45
REMARK SMILES IDX 36 46 81 47 75 48 77 49 37 50 80 51 74 52 73 53 38 55 64 56
REMARK SMILES IDX 47 57 63 58 48 59 51 60 62 61 78 62 49 63 50 64 61 66 79 67
REMARK SMILES IDX 52 68 39 69 40 70 45 71 41 72 42 73 44 74 46 75 43 76 65 77
REMARK SMILES IDX 66 78 71 79 67 80 68 81 70 82 72 83 69 84 53 85 54 86 59 87
REMARK SMILES IDX 55 88 56 89 58 90 60 91 57 92
REMARK H PARENT 22 6 18 30 27 35 77 54 51 65
REMARK Flexibility Score: inf
ROOT
ATOM      1  C   UNL A   1      32.700  30.103  27.260  1.00  0.00     0.023 C 
ENDROOT
BRANCH   1   2
ATOM      2  C   UNL A   1      32.438  30.210  25.762  1.00  0.00     0.116 C 
BRANCH   2   3
ATOM      3  N   UNL A   1      33.272  29.392  24.894  1.00  0.00    -0.352 N 
ATOM      4  C   UNL A   1      32.981  28.285  24.122  1.00  0.00     0.255 C 
ATOM      5  O   UNL A   1      33.890  27.833  23.422  1.00  0.00    -0.269 OA
ATOM      6  H   UNL A   1      34.213  29.680  24.851  1.00  0.00     0.163 HD
BRANCH   4   7
ATOM      7  C   UNL A   1      31.651  27.604  24.108  1.00  0.00     0.083 A 
ATOM      8  C   UNL A   1      30.055  26.204  25.317  1.00  0.00     0.064 A 
ATOM      9  C   UNL A   1      29.127  26.368  24.292  1.00  0.00     0.032 A 
ATOM     10  C   UNL A   1      31.253  26.935  25.279  1.00  0.00     0.046 A 
ATOM     11  C   UNL A   1      29.519  26.985  23.110  1.00  0.00     0.049 A 
ATOM     12  C   UNL A   1      30.822  27.466  22.993  1.00  0.00     0.128 A 
BRANCH   8  13
ATOM     13  N   UNL A   1      29.842  25.293  26.354  1.00  0.00    -0.256 NA
ATOM     14  C   UNL A   1      30.570  24.222  26.518  1.00  0.00     0.121 C 
BRANCH  14  15
ATOM     15  C   UNL A   1      31.710  23.699  25.753  1.00  0.00     0.014 A 
ATOM     16  N   UNL A   1      33.695  22.864  25.042  1.00  0.00    -0.318 N 
ATOM     17  C   UNL A   1      32.959  23.176  23.910  1.00  0.00     0.021 A 
ATOM     18  C   UNL A   1      32.856  23.006  26.154  1.00  0.00     0.029 A 
ATOM     19  C   UNL A   1      33.407  22.867  22.522  1.00  0.00     0.065 C 
ATOM     20  C   UNL A   1      31.763  23.723  24.328  1.00  0.00     0.033 A 
ATOM     21  C   UNL A   1      33.262  22.529  27.503  1.00  0.00     0.065 C 
BRANCH  16  22
ATOM     22  C   UNL A   1      35.087  22.540  25.069  1.00  0.00     0.046 A 
ATOM     23  C   UNL A   1      38.342  24.135  26.268  1.00  0.00     0.044 C 
ATOM     24  C   UNL A   1      37.350  23.148  25.723  1.00  0.00    -0.049 A 
ATOM     25  C   UNL A   1      37.767  21.840  25.446  1.00  0.00     0.003 A 
ATOM     26  C   UNL A   1      36.004  23.498  25.528  1.00  0.00     0.030 A 
ATOM     27  C   UNL A   1      36.866  20.904  24.942  1.00  0.00     0.002 A 
ATOM     28  C   UNL A   1      35.531  21.257  24.741  1.00  0.00     0.026 A 
ENDBRANCH  16  22
ENDBRANCH  14  15
ENDBRANCH   8  13
BRANCH  12  29
ATOM     29  O   UNL A   1      31.269  27.590  21.702  1.00  0.00    -0.507 OA
ATOM     30  H   UNL A   1      32.068  28.044  21.525  1.00  0.00     0.293 HD
ENDBRANCH  12  29
ENDBRANCH   4   7
ENDBRANCH   2   3
ENDBRANCH   1   2
BRANCH   1  31
ATOM     31  C   UNL A   1      34.135  30.228  27.741  1.00  0.00     0.023 C 
BRANCH  31  32
ATOM     32  C   UNL A   1      34.755  31.613  27.665  1.00  0.00     0.116 C 
BRANCH  32  33
ATOM     33  N   UNL A   1      34.058  32.679  28.364  1.00  0.00    -0.352 N 
ATOM     34  C   UNL A   1      34.410  33.355  29.520  1.00  0.00     0.251 C 
ATOM     35  H   UNL A   1      33.209  32.963  27.954  1.00  0.00     0.163 HD
ATOM     36  O   UNL A   1      33.624  34.187  29.981  1.00  0.00    -0.269 OA
BRANCH  34  37
ATOM     37  C   UNL A   1      35.757  33.205  30.145  1.00  0.00     0.039 A 
ATOM     38  C   UNL A   1      36.856  33.830  29.530  1.00  0.00     0.014 A 
ATOM     39  C   UNL A   1      35.994  32.345  31.210  1.00  0.00     0.014 A 
ATOM     40  C   UNL A   1      38.155  33.403  29.817  1.00  0.00     0.010 A 
ATOM     41  C   UNL A   1      37.256  31.834  31.413  1.00  0.00     0.010 A 
ATOM     42  C   UNL A   1      38.330  32.322  30.676  1.00  0.00    -0.014 A 
BRANCH  42  43
ATOM     43  C   UNL A   1      39.545  31.527  30.769  1.00  0.00     0.031 A 
ATOM     44  C   UNL A   1      39.727  30.300  29.973  1.00  0.00     0.074 A 
ATOM     45  C   UNL A   1      40.596  32.051  31.438  1.00  0.00     0.049 A 
ATOM     46  N   UNL A   1      40.548  29.358  30.295  1.00  0.00    -0.248 NA
ATOM     47  C   UNL A   1      38.998  30.034  28.736  1.00  0.00     0.031 C 
ATOM     48  C   UNL A   1      41.990  31.624  31.381  1.00  0.00     0.029 A 
ATOM     49  N   UNL A   1      40.563  32.996  32.471  1.00  0.00    -0.354 N 
ATOM     50  C   UNL A   1      40.685  28.543  29.197  1.00  0.00     0.074 A 
ATOM     51  C   UNL A   1      39.649  28.959  28.279  1.00  0.00     0.031 C 
ATOM     52  C   UNL A   1      42.619  32.056  32.486  1.00  0.00     0.029 A 
ATOM     53  C   UNL A   1      41.611  32.649  33.347  1.00  0.00     0.049 A 
ATOM     54  H   UNL A   1      39.936  33.750  32.564  1.00  0.00     0.167 HD
ATOM     55  C   UNL A   1      41.755  27.706  29.100  1.00  0.00     0.037 A 
ATOM     56  C   UNL A   1      41.346  32.253  34.626  1.00  0.00     0.037 A 
ATOM     57  C   UNL A   1      42.642  27.826  30.252  1.00  0.00     0.049 A 
ATOM     58  C   UNL A   1      41.800  30.847  34.939  1.00  0.00     0.074 A 
ATOM     59  C   UNL A   1      43.831  28.511  30.450  1.00  0.00     0.029 A 
ATOM     60  N   UNL A   1      42.185  27.467  31.515  1.00  0.00    -0.354 N 
ATOM     61  N   UNL A   1      42.098  29.957  34.033  1.00  0.00    -0.248 NA
ATOM     62  C   UNL A   1      41.948  30.326  36.294  1.00  0.00     0.031 C 
ATOM     63  C   UNL A   1      44.073  28.589  31.842  1.00  0.00     0.029 A 
ATOM     64  C   UNL A   1      43.038  27.943  32.492  1.00  0.00     0.049 A 
ATOM     65  H   UNL A   1      41.368  26.945  31.690  1.00  0.00     0.167 HD
ATOM     66  C   UNL A   1      42.455  28.777  34.636  1.00  0.00     0.074 A 
ATOM     67  C   UNL A   1      42.366  29.069  36.054  1.00  0.00     0.031 C 
ATOM     68  C   UNL A   1      42.789  27.672  33.902  1.00  0.00     0.037 A 
BRANCH  55  69
ATOM     69  C   UNL A   1      42.119  27.031  27.803  1.00  0.00     0.057 A 
ATOM     70  C   UNL A   1      42.856  27.690  26.803  1.00  0.00     0.134 A 
ATOM     71  C   UNL A   1      41.716  25.726  27.472  1.00  0.00     0.134 A 
ATOM     72  F   UNL A   1      43.390  28.901  27.001  1.00  0.00    -0.206 F 
ATOM     73  C   UNL A   1      43.073  27.142  25.533  1.00  0.00     0.040 A 
ATOM     74  C   UNL A   1      41.882  25.182  26.190  1.00  0.00     0.040 A 
ATOM     75  F   UNL A   1      41.153  24.922  28.388  1.00  0.00    -0.206 F 
ATOM     76  C   UNL A   1      42.552  25.898  25.208  1.00  0.00     0.006 A 
ENDBRANCH  55  69
BRANCH  56  77
ATOM     77  C   UNL A   1      40.158  32.936  35.206  1.00  0.00     0.057 A 
ATOM     78  C   UNL A   1      38.931  32.246  35.207  1.00  0.00     0.134 A 
ATOM     79  C   UNL A   1      40.281  34.014  36.086  1.00  0.00     0.134 A 
ATOM     80  F   UNL A   1      38.750  31.197  34.387  1.00  0.00    -0.206 F 
ATOM     81  C   UNL A   1      37.919  32.537  36.124  1.00  0.00     0.040 A 
ATOM     82  C   UNL A   1      39.266  34.323  37.002  1.00  0.00     0.040 A 
ATOM     83  F   UNL A   1      41.428  34.704  36.165  1.00  0.00    -0.206 F 
ATOM     84  C   UNL A   1      38.100  33.559  37.049  1.00  0.00     0.006 A 
ENDBRANCH  56  77
BRANCH  68  85
ATOM     85  C   UNL A   1      43.015  26.259  34.402  1.00  0.00     0.057 A 
ATOM     86  C   UNL A   1      42.054  25.469  35.047  1.00  0.00     0.134 A 
ATOM     87  C   UNL A   1      44.229  25.584  34.110  1.00  0.00     0.134 A 
ATOM     88  F   UNL A   1      40.820  25.924  35.296  1.00  0.00    -0.206 F 
ATOM     89  C   UNL A   1      42.295  24.137  35.417  1.00  0.00     0.040 A 
ATOM     90  C   UNL A   1      44.458  24.240  34.422  1.00  0.00     0.040 A 
ATOM     91  F   UNL A   1      45.248  26.190  33.482  1.00  0.00    -0.206 F 
ATOM     92  C   UNL A   1      43.492  23.513  35.093  1.00  0.00     0.006 A 
ENDBRANCH  68  85
ENDBRANCH  42  43
ENDBRANCH  34  37
ENDBRANCH  32  33
ENDBRANCH  31  32
ENDBRANCH   1  31
TORSDOF 15
ENDMDL
MODEL 3
REMARK VINA RESULT:     -12.6      3.903      9.138
REMARK SMILES Cc1cccc(-n2c(C)cc(/C=N\c3ccc(O)c(C(=O)NCCCCNC(=O)c4ccc(-c5c6nc(c(-c7c(F)cccc7F)c7ccc([nH]7)c(-c7c(F)cccc7F)c7nc(c(-c8c(F)cccc8F)c8ccc5[nH]8)C=C7)C=C6)cc4)c3)c2C)c1
REMARK SMILES IDX 24 1 23 2 22 3 20 4 21 5 19 7 14 8 15 9 84 10 16 11 17 12
REMARK SMILES IDX 13 13 12 14 11 15 7 16 8 17 85 18 9 19 10 20 86 21 6 22 1 23
REMARK SMILES IDX 2 24 3 25 87 26 4 27 5 28 18 29 25 31 26 32 27 33 28 34
REMARK SMILES IDX 29 36 30 37 31 38 83 39 32 40 82 41 33 42 34 43 35 44 76 45
REMARK SMILES IDX 36 46 81 47 75 48 77 49 37 50 80 51 74 52 73 53 38 55 64 56
REMARK SMILES IDX 47 57 63 58 48 59 51 60 62 61 78 62 49 63 50 64 61 66 79 67
REMARK SMILES IDX 52 68 39 69 40 70 45 71 41 72 42 73 44 74 46 75 43 76 65 77
REMARK SMILES IDX 66 78 71 79 67 80 68 81 70 82 72 83 69 84 53 85 54 86 59 87
REMARK SMILES IDX 55 88 56 89 58 90 60 91 57 92
REMARK H PARENT 22 6 18 30 27 35 77 54 51 65
REMARK Flexibility Score: inf
ROOT
ATOM      1  C   UNL A   1      36.600  23.697  25.984  1.00  0.00     0.023 C 
ENDROOT
BRANCH   1   2
ATOM      2  C   UNL A   1      35.978  22.405  26.499  1.00  0.00     0.116 C 
BRANCH   2   3
ATOM      3  N   UNL A   1      34.752  22.533  27.272  1.00  0.00    -0.352 N 
ATOM      4  C   UNL A   1      33.424  22.517  26.892  1.00  0.00     0.255 C 
ATOM      5  O   UNL A   1      32.582  22.580  27.790  1.00  0.00    -0.269 OA
ATOM      6  H   UNL A   1      34.895  22.654  28.238  1.00  0.00     0.163 HD
BRANCH   4   7
ATOM      7  C   UNL A   1      32.963  22.453  25.472  1.00  0.00     0.083 A 
ATOM      8  C   UNL A   1      31.439  23.321  23.772  1.00  0.00     0.064 A 
ATOM      9  C   UNL A   1      32.068  22.544  22.803  1.00  0.00     0.032 A 
ATOM     10  C   UNL A   1      31.981  23.373  25.066  1.00  0.00     0.046 A 
ATOM     11  C   UNL A   1      33.007  21.597  23.194  1.00  0.00     0.049 A 
ATOM     12  C   UNL A   1      33.331  21.475  24.544  1.00  0.00     0.128 A 
BRANCH   8  13
ATOM     13  N   UNL A   1      30.256  24.011  23.498  1.00  0.00    -0.256 NA
ATOM     14  C   UNL A   1      30.176  25.314  23.513  1.00  0.00     0.121 C 
BRANCH  14  15
ATOM     15  C   UNL A   1      31.186  26.344  23.791  1.00  0.00     0.014 A 
ATOM     16  N   UNL A   1      32.499  27.966  24.678  1.00  0.00    -0.318 N 
ATOM     17  C   UNL A   1      32.877  27.820  23.353  1.00  0.00     0.021 A 
ATOM     18  C   UNL A   1      31.604  26.934  24.987  1.00  0.00     0.029 A 
ATOM     19  C   UNL A   1      34.029  28.539  22.738  1.00  0.00     0.065 C 
ATOM     20  C   UNL A   1      32.058  26.863  22.788  1.00  0.00     0.033 A 
ATOM     21  C   UNL A   1      31.183  26.661  26.387  1.00  0.00     0.065 C 
BRANCH  16  22
ATOM     22  C   UNL A   1      32.892  29.032  25.544  1.00  0.00     0.046 A 
ATOM     23  C   UNL A   1      31.410  32.290  26.873  1.00  0.00     0.044 C 
ATOM     24  C   UNL A   1      32.326  31.121  26.657  1.00  0.00    -0.049 A 
ATOM     25  C   UNL A   1      33.460  30.980  27.468  1.00  0.00     0.003 A 
ATOM     26  C   UNL A   1      32.047  30.144  25.688  1.00  0.00     0.030 A 
ATOM     27  C   UNL A   1      34.325  29.902  27.290  1.00  0.00     0.002 A 
ATOM     28  C   UNL A   1      34.050  28.938  26.321  1.00  0.00     0.026 A 
ENDBRANCH  16  22
ENDBRANCH  14  15
ENDBRANCH   8  13
BRANCH  12  29
ATOM     29  O   UNL A   1      33.844  20.254  24.899  1.00  0.00    -0.507 OA
ATOM     30  H   UNL A   1      33.566  19.843  25.693  1.00  0.00     0.293 HD
ENDBRANCH  12  29
ENDBRANCH   4   7
ENDBRANCH   2   3
ENDBRANCH   1   2
BRANCH   1  31
ATOM     31  C   UNL A   1      38.092  23.705  25.704  1.00  0.00     0.023 C 
BRANCH  31  32
ATOM     32  C   UNL A   1      38.935  22.723  26.500  1.00  0.00     0.116 C 
BRANCH  32  33
ATOM     33  N   UNL A   1      40.375  22.917  26.460  1.00  0.00    -0.352 N 
ATOM     34  C   UNL A   1      41.114  24.077  26.622  1.00  0.00     0.251 C 
ATOM     35  H   UNL A   1      40.902  22.103  26.294  1.00  0.00     0.163 HD
ATOM     36  O   UNL A   1      42.338  24.023  26.477  1.00  0.00    -0.269 OA
BRANCH  34  37
ATOM     37  C   UNL A   1      40.494  25.351  27.094  1.00  0.00     0.039 A 
ATOM     38  C   UNL A   1      40.632  26.501  26.297  1.00  0.00     0.014 A 
ATOM     39  C   UNL A   1      39.930  25.483  28.357  1.00  0.00     0.014 A 
ATOM     40  C   UNL A   1      40.443  27.767  26.856  1.00  0.00     0.010 A 
ATOM     41  C   UNL A   1      39.858  26.722  28.950  1.00  0.00     0.010 A 
ATOM     42  C   UNL A   1      40.169  27.864  28.218  1.00  0.00    -0.014 A 
BRANCH  42  43
ATOM     43  C   UNL A   1      40.331  29.072  29.010  1.00  0.00     0.031 A 
ATOM     44  C   UNL A   1      39.226  30.033  29.187  1.00  0.00     0.074 A 
ATOM     45  C   UNL A   1      41.448  29.195  29.760  1.00  0.00     0.049 A 
ATOM     46  N   UNL A   1      39.404  31.272  29.502  1.00  0.00    -0.248 NA
ATOM     47  C   UNL A   1      37.821  29.672  29.029  1.00  0.00     0.031 C 
ATOM     48  C   UNL A   1      41.680  30.113  30.871  1.00  0.00     0.029 A 
ATOM     49  N   UNL A   1      42.696  28.602  29.534  1.00  0.00    -0.354 N 
ATOM     50  C   UNL A   1      38.183  31.775  29.882  1.00  0.00     0.074 A 
ATOM     51  C   UNL A   1      37.218  30.767  29.502  1.00  0.00     0.031 C 
ATOM     52  C   UNL A   1      43.003  30.255  31.044  1.00  0.00     0.029 A 
ATOM     53  C   UNL A   1      43.656  29.542  29.960  1.00  0.00     0.049 A 
ATOM     54  H   UNL A   1      42.867  27.709  29.154  1.00  0.00     0.167 HD
ATOM     55  C   UNL A   1      38.117  32.917  30.621  1.00  0.00     0.037 A 
ATOM     56  C   UNL A   1      44.525  30.102  29.069  1.00  0.00     0.037 A 
ATOM     57  C   UNL A   1      39.444  33.449  30.913  1.00  0.00     0.049 A 
ATOM     58  C   UNL A   1      44.397  31.602  28.949  1.00  0.00     0.074 A 
ATOM     59  C   UNL A   1      40.260  33.367  32.031  1.00  0.00     0.029 A 
ATOM     60  N   UNL A   1      40.253  33.896  29.874  1.00  0.00    -0.354 N 
ATOM     61  N   UNL A   1      43.365  32.283  29.363  1.00  0.00    -0.248 NA
ATOM     62  C   UNL A   1      45.416  32.456  28.346  1.00  0.00     0.031 C 
ATOM     63  C   UNL A   1      41.572  33.738  31.652  1.00  0.00     0.029 A 
ATOM     64  C   UNL A   1      41.554  34.057  30.307  1.00  0.00     0.049 A 
ATOM     65  H   UNL A   1      39.941  34.074  28.956  1.00  0.00     0.167 HD
ATOM     66  C   UNL A   1      43.545  33.617  29.093  1.00  0.00     0.074 A 
ATOM     67  C   UNL A   1      44.857  33.674  28.475  1.00  0.00     0.031 C 
ATOM     68  C   UNL A   1      42.590  34.545  29.406  1.00  0.00     0.037 A 
BRANCH  55  69
ATOM     69  C   UNL A   1      36.850  33.338  31.320  1.00  0.00     0.057 A 
ATOM     70  C   UNL A   1      35.811  33.999  30.641  1.00  0.00     0.134 A 
ATOM     71  C   UNL A   1      36.628  33.151  32.695  1.00  0.00     0.134 A 
ATOM     72  F   UNL A   1      35.831  34.170  29.314  1.00  0.00    -0.206 F 
ATOM     73  C   UNL A   1      34.696  34.536  31.296  1.00  0.00     0.040 A 
ATOM     74  C   UNL A   1      35.543  33.725  33.374  1.00  0.00     0.040 A 
ATOM     75  F   UNL A   1      37.454  32.393  33.433  1.00  0.00    -0.206 F 
ATOM     76  C   UNL A   1      34.577  34.434  32.674  1.00  0.00     0.006 A 
ENDBRANCH  55  69
BRANCH  56  77
ATOM     77  C   UNL A   1      44.910  29.168  27.976  1.00  0.00     0.057 A 
ATOM     78  C   UNL A   1      45.884  28.191  28.253  1.00  0.00     0.134 A 
ATOM     79  C   UNL A   1      44.094  28.955  26.863  1.00  0.00     0.134 A 
ATOM     80  F   UNL A   1      46.698  28.334  29.312  1.00  0.00    -0.206 F 
ATOM     81  C   UNL A   1      45.963  26.998  27.529  1.00  0.00     0.040 A 
ATOM     82  C   UNL A   1      44.173  27.767  26.122  1.00  0.00     0.040 A 
ATOM     83  F   UNL A   1      43.125  29.826  26.549  1.00  0.00    -0.206 F 
ATOM     84  C   UNL A   1      45.080  26.770  26.479  1.00  0.00     0.006 A 
ENDBRANCH  56  77
BRANCH  68  85
ATOM     85  C   UNL A   1      42.550  36.006  29.006  1.00  0.00     0.057 A 
ATOM     86  C   UNL A   1      43.249  37.037  29.648  1.00  0.00     0.134 A 
ATOM     87  C   UNL A   1      41.876  36.404  27.822  1.00  0.00     0.134 A 
ATOM     88  F   UNL A   1      44.023  36.805  30.716  1.00  0.00    -0.206 F 
ATOM     89  C   UNL A   1      43.238  38.361  29.184  1.00  0.00     0.040 A 
ATOM     90  C   UNL A   1      41.906  37.708  27.319  1.00  0.00     0.040 A 
ATOM     91  F   UNL A   1      41.171  35.537  27.078  1.00  0.00    -0.206 F 
ATOM     92  C   UNL A   1      42.579  38.699  28.009  1.00  0.00     0.006 A 
ENDBRANCH  68  85
ENDBRANCH  42  43
ENDBRANCH  34  37
ENDBRANCH  32  33
ENDBRANCH  31  32
ENDBRANCH   1  31
TORSDOF 15
ENDMDL
