MODEL 1
REMARK VINA RESULT:     -13.1      0.000      0.000
REMARK SMILES COC(=O)c1sc(SCC(=O)NCCCCNC(=O)c2ccc(-c3c4nc(c(-c5c(F)cccc5F)c5ccc([nH]5)c(-c5c(F)cccc5F)c5nc(c(-c6c(F)cccc6F)c6ccc3[nH]6)C=C5)C=C4)cc2)c(NC(=O)c2ccccc2)c1O
REMARK SMILES IDX 13 1 12 2 10 3 11 4 9 6 8 7 7 8 5 9 6 10 84 11 74 12 3 13
REMARK SMILES IDX 4 14 2 15 1 16 85 17 75 19 76 20 77 22 78 23 79 24 83 25
REMARK SMILES IDX 80 26 82 27 81 28 14 29 15 30 16 31 17 32 18 33 19 35 20 36
REMARK SMILES IDX 21 37 73 38 22 39 72 40 23 41 24 42 25 43 66 44 26 45 71 46
REMARK SMILES IDX 65 47 67 48 27 49 70 50 64 51 63 52 28 54 54 55 37 56 53 57
REMARK SMILES IDX 38 58 41 59 52 60 68 61 39 62 40 63 51 65 69 66 42 67 29 68
REMARK SMILES IDX 30 69 35 70 31 71 32 72 34 73 36 74 33 75 55 76 56 77 61 78
REMARK SMILES IDX 57 79 58 80 60 81 62 82 59 83 43 84 44 85 49 86 45 87 46 88
REMARK SMILES IDX 48 89 50 90 47 91
REMARK H PARENT 12 5 85 18 75 21 17 34 67 53 41 64
REMARK Flexibility Score: inf
ROOT
ATOM      1  C   UNL A   1      34.141  33.880  28.410  1.00  0.00     0.116 C 
ENDROOT
BRANCH   1   2
ATOM      2  N   UNL A   1      32.986  33.436  27.662  1.00  0.00    -0.355 N 
ATOM      3  C   UNL A   1      32.621  32.179  27.242  1.00  0.00     0.230 C 
ATOM      4  O   UNL A   1      31.453  32.074  26.850  1.00  0.00    -0.274 OA
ATOM      5  H   UNL A   1      32.358  34.152  27.413  1.00  0.00     0.163 HD
BRANCH   3   6
ATOM      6  C   UNL A   1      33.708  30.813  27.370  1.00  0.00     0.175 C 
BRANCH   6   7
ATOM      7  S   UNL A   1      33.243  28.306  26.932  1.00  0.00    -0.103 SA
BRANCH   7   8
ATOM      8  C   UNL A   1      31.892  27.846  25.745  1.00  0.00     0.089 A 
ATOM      9  C   UNL A   1      30.254  27.956  23.857  1.00  0.00     0.157 A 
ATOM     10  S   UNL A   1      31.618  28.864  24.372  1.00  0.00    -0.116 S 
ATOM     11  C   UNL A   1      30.085  26.846  24.657  1.00  0.00     0.166 A 
ATOM     12  C   UNL A   1      31.010  26.765  25.736  1.00  0.00     0.109 A 
BRANCH   9  13
ATOM     13  C   UNL A   1      29.463  28.410  22.730  1.00  0.00     0.352 C 
ATOM     14  O   UNL A   1      29.873  28.935  21.704  1.00  0.00    -0.245 OA
BRANCH  13  15
ATOM     15  O   UNL A   1      28.137  28.176  22.995  1.00  0.00    -0.465 OA
ATOM     16  C   UNL A   1      27.318  29.336  23.168  1.00  0.00     0.282 C 
ENDBRANCH  13  15
ENDBRANCH   9  13
BRANCH  11  17
ATOM     17  O   UNL A   1      29.091  25.940  24.503  1.00  0.00    -0.504 OA
ATOM     18  H   UNL A   1      29.247  25.036  24.696  1.00  0.00     0.293 HD
ENDBRANCH  11  17
BRANCH  12  19
ATOM     19  N   UNL A   1      30.898  25.726  26.656  1.00  0.00    -0.317 N 
ATOM     20  C   UNL A   1      31.450  24.486  26.542  1.00  0.00     0.255 C 
ATOM     21  H   UNL A   1      30.370  25.906  27.467  1.00  0.00     0.170 HD
ATOM     22  O   UNL A   1      31.120  23.530  27.226  1.00  0.00    -0.269 OA
BRANCH  20  23
ATOM     23  C   UNL A   1      32.457  24.362  25.489  1.00  0.00     0.040 A 
ATOM     24  C   UNL A   1      34.164  24.515  26.005  1.00  0.00     0.014 A 
ATOM     25  C   UNL A   1      32.042  23.556  23.887  1.00  0.00     0.014 A 
ATOM     26  C   UNL A   1      35.462  23.873  24.946  1.00  0.00     0.001 A 
ATOM     27  C   UNL A   1      33.376  22.892  22.868  1.00  0.00     0.001 A 
ATOM     28  C   UNL A   1      35.079  23.050  23.410  1.00  0.00     0.000 A 
ENDBRANCH  20  23
ENDBRANCH  12  19
ENDBRANCH   7   8
ENDBRANCH   6   7
ENDBRANCH   3   6
ENDBRANCH   1   2
BRANCH   1  29
ATOM     29  C   UNL A   1      34.367  35.393  28.411  1.00  0.00     0.023 C 
BRANCH  29  30
ATOM     30  C   UNL A   1      33.251  36.286  28.954  1.00  0.00     0.023 C 
BRANCH  30  31
ATOM     31  C   UNL A   1      33.550  37.011  30.258  1.00  0.00     0.116 C 
BRANCH  31  32
ATOM     32  N   UNL A   1      32.566  36.747  31.304  1.00  0.00    -0.352 N 
ATOM     33  C   UNL A   1      32.502  35.664  32.159  1.00  0.00     0.251 C 
ATOM     34  H   UNL A   1      31.862  37.424  31.413  1.00  0.00     0.163 HD
ATOM     35  O   UNL A   1      31.462  35.378  32.737  1.00  0.00    -0.269 OA
BRANCH  33  36
ATOM     36  C   UNL A   1      33.715  34.856  32.372  1.00  0.00     0.039 A 
ATOM     37  C   UNL A   1      33.710  33.478  32.183  1.00  0.00     0.014 A 
ATOM     38  C   UNL A   1      34.887  35.516  32.728  1.00  0.00     0.014 A 
ATOM     39  C   UNL A   1      34.922  32.795  32.250  1.00  0.00     0.010 A 
ATOM     40  C   UNL A   1      36.099  34.875  32.669  1.00  0.00     0.010 A 
ATOM     41  C   UNL A   1      36.121  33.505  32.455  1.00  0.00    -0.014 A 
BRANCH  41  42
ATOM     42  C   UNL A   1      37.405  32.844  32.259  1.00  0.00     0.031 A 
ATOM     43  C   UNL A   1      38.192  32.703  33.513  1.00  0.00     0.074 A 
ATOM     44  C   UNL A   1      37.789  32.229  31.119  1.00  0.00     0.049 A 
ATOM     45  N   UNL A   1      39.260  33.352  33.833  1.00  0.00    -0.248 NA
ATOM     46  C   UNL A   1      37.643  31.884  34.605  1.00  0.00     0.031 C 
ATOM     47  C   UNL A   1      37.007  31.996  29.902  1.00  0.00     0.029 A 
ATOM     48  N   UNL A   1      38.962  31.589  30.845  1.00  0.00    -0.354 N 
ATOM     49  C   UNL A   1      39.656  32.847  35.067  1.00  0.00     0.074 A 
ATOM     50  C   UNL A   1      38.526  32.118  35.579  1.00  0.00     0.031 C 
ATOM     51  C   UNL A   1      37.637  31.089  29.124  1.00  0.00     0.029 A 
ATOM     52  C   UNL A   1      38.938  30.799  29.700  1.00  0.00     0.049 A 
ATOM     53  H   UNL A   1      39.761  31.680  31.412  1.00  0.00     0.167 HD
ATOM     54  C   UNL A   1      40.973  32.839  35.412  1.00  0.00     0.037 A 
ATOM     55  C   UNL A   1      39.910  29.959  29.264  1.00  0.00     0.037 A 
ATOM     56  C   UNL A   1      41.727  33.742  34.569  1.00  0.00     0.049 A 
ATOM     57  C   UNL A   1      41.174  30.362  29.926  1.00  0.00     0.074 A 
ATOM     58  C   UNL A   1      41.640  35.085  34.253  1.00  0.00     0.029 A 
ATOM     59  N   UNL A   1      42.517  33.186  33.592  1.00  0.00    -0.354 N 
ATOM     60  N   UNL A   1      41.816  31.463  29.655  1.00  0.00    -0.248 NA
ATOM     61  C   UNL A   1      41.489  29.757  31.211  1.00  0.00     0.031 C 
ATOM     62  C   UNL A   1      41.955  35.159  32.862  1.00  0.00     0.029 A 
ATOM     63  C   UNL A   1      42.296  33.878  32.431  1.00  0.00     0.049 A 
ATOM     64  H   UNL A   1      43.132  32.426  33.706  1.00  0.00     0.167 HD
ATOM     65  C   UNL A   1      42.233  31.932  30.889  1.00  0.00     0.074 A 
ATOM     66  C   UNL A   1      42.105  30.789  31.793  1.00  0.00     0.031 C 
ATOM     67  C   UNL A   1      42.356  33.273  31.122  1.00  0.00     0.037 A 
BRANCH  54  68
ATOM     68  C   UNL A   1      41.647  31.713  36.171  1.00  0.00     0.057 A 
ATOM     69  C   UNL A   1      42.564  32.043  37.189  1.00  0.00     0.134 A 
ATOM     70  C   UNL A   1      41.696  30.369  35.746  1.00  0.00     0.134 A 
ATOM     71  F   UNL A   1      42.613  33.285  37.694  1.00  0.00    -0.206 F 
ATOM     72  C   UNL A   1      43.535  31.146  37.649  1.00  0.00     0.040 A 
ATOM     73  C   UNL A   1      42.629  29.451  36.236  1.00  0.00     0.040 A 
ATOM     74  F   UNL A   1      40.921  29.885  34.771  1.00  0.00    -0.206 F 
ATOM     75  C   UNL A   1      43.581  29.849  37.159  1.00  0.00     0.006 A 
ENDBRANCH  54  68
BRANCH  55  76
ATOM     76  C   UNL A   1      39.809  28.702  28.487  1.00  0.00     0.057 A 
ATOM     77  C   UNL A   1      40.544  28.520  27.305  1.00  0.00     0.134 A 
ATOM     78  C   UNL A   1      39.226  27.547  29.034  1.00  0.00     0.134 A 
ATOM     79  F   UNL A   1      41.166  29.555  26.722  1.00  0.00    -0.206 F 
ATOM     80  C   UNL A   1      40.724  27.258  26.724  1.00  0.00     0.040 A 
ATOM     81  C   UNL A   1      39.391  26.281  28.459  1.00  0.00     0.040 A 
ATOM     82  F   UNL A   1      38.553  27.593  30.192  1.00  0.00    -0.206 F 
ATOM     83  C   UNL A   1      40.158  26.130  27.311  1.00  0.00     0.006 A 
ENDBRANCH  55  76
BRANCH  67  84
ATOM     84  C   UNL A   1      42.330  34.197  29.935  1.00  0.00     0.057 A 
ATOM     85  C   UNL A   1      41.171  34.779  29.397  1.00  0.00     0.134 A 
ATOM     86  C   UNL A   1      43.551  34.599  29.381  1.00  0.00     0.134 A 
ATOM     87  F   UNL A   1      39.963  34.543  29.923  1.00  0.00    -0.206 F 
ATOM     88  C   UNL A   1      41.226  35.671  28.321  1.00  0.00     0.040 A 
ATOM     89  C   UNL A   1      43.621  35.518  28.333  1.00  0.00     0.040 A 
ATOM     90  F   UNL A   1      44.707  34.128  29.878  1.00  0.00    -0.206 F 
ATOM     91  C   UNL A   1      42.454  36.045  27.788  1.00  0.00     0.006 A 
ENDBRANCH  67  84
ENDBRANCH  41  42
ENDBRANCH  33  36
ENDBRANCH  31  32
ENDBRANCH  30  31
ENDBRANCH  29  30
ENDBRANCH   1  29
TORSDOF 18
ENDMDL
MODEL 2
REMARK VINA RESULT:     -12.0      3.380      8.653
REMARK SMILES COC(=O)c1sc(SCC(=O)NCCCCNC(=O)c2ccc(-c3c4nc(c(-c5c(F)cccc5F)c5ccc([nH]5)c(-c5c(F)cccc5F)c5nc(c(-c6c(F)cccc6F)c6ccc3[nH]6)C=C5)C=C4)cc2)c(NC(=O)c2ccccc2)c1O
REMARK SMILES IDX 13 1 12 2 10 3 11 4 9 6 8 7 7 8 5 9 6 10 84 11 74 12 3 13
REMARK SMILES IDX 4 14 2 15 1 16 85 17 75 19 76 20 77 22 78 23 79 24 83 25
REMARK SMILES IDX 80 26 82 27 81 28 14 29 15 30 16 31 17 32 18 33 19 35 20 36
REMARK SMILES IDX 21 37 73 38 22 39 72 40 23 41 24 42 25 43 66 44 26 45 71 46
REMARK SMILES IDX 65 47 67 48 27 49 70 50 64 51 63 52 28 54 54 55 37 56 53 57
REMARK SMILES IDX 38 58 41 59 52 60 68 61 39 62 40 63 51 65 69 66 42 67 29 68
REMARK SMILES IDX 30 69 35 70 31 71 32 72 34 73 36 74 33 75 55 76 56 77 61 78
REMARK SMILES IDX 57 79 58 80 60 81 62 82 59 83 43 84 44 85 49 86 45 87 46 88
REMARK SMILES IDX 48 89 50 90 47 91
REMARK H PARENT 12 5 85 18 75 21 17 34 67 53 41 64
REMARK Flexibility Score: inf
ROOT
ATOM      1  C   UNL A   1      35.239  23.269  24.108  1.00  0.00     0.116 C 
ENDROOT
BRANCH   1   2
ATOM      2  N   UNL A   1      34.216  22.282  23.848  1.00  0.00    -0.355 N 
ATOM      3  C   UNL A   1      33.010  22.393  23.195  1.00  0.00     0.230 C 
ATOM      4  O   UNL A   1      32.470  21.321  22.903  1.00  0.00    -0.274 OA
ATOM      5  H   UNL A   1      34.415  21.383  24.195  1.00  0.00     0.163 HD
BRANCH   3   6
ATOM      6  C   UNL A   1      32.361  23.947  22.718  1.00  0.00     0.175 C 
BRANCH   6   7
ATOM      7  S   UNL A   1      30.253  25.173  23.580  1.00  0.00    -0.103 SA
BRANCH   7   8
ATOM      8  C   UNL A   1      30.000  26.949  23.106  1.00  0.00     0.089 A 
ATOM      9  C   UNL A   1      28.913  29.168  22.710  1.00  0.00     0.157 A 
ATOM     10  S   UNL A   1      28.499  27.708  23.513  1.00  0.00    -0.116 S 
ATOM     11  C   UNL A   1      30.208  29.107  22.240  1.00  0.00     0.166 A 
ATOM     12  C   UNL A   1      30.844  27.852  22.458  1.00  0.00     0.109 A 
BRANCH   9  13
ATOM     13  C   UNL A   1      27.940  30.237  22.600  1.00  0.00     0.352 C 
ATOM     14  O   UNL A   1      27.184  30.640  23.472  1.00  0.00    -0.245 OA
BRANCH  13  15
ATOM     15  O   UNL A   1      27.977  30.740  21.323  1.00  0.00    -0.465 OA
ATOM     16  C   UNL A   1      28.014  32.166  21.212  1.00  0.00     0.282 C 
ENDBRANCH  13  15
ENDBRANCH   9  13
BRANCH  11  17
ATOM     17  O   UNL A   1      30.818  30.106  21.559  1.00  0.00    -0.504 OA
ATOM     18  H   UNL A   1      31.744  30.228  21.638  1.00  0.00     0.293 HD
ENDBRANCH  11  17
BRANCH  12  19
ATOM     19  N   UNL A   1      32.129  27.643  21.965  1.00  0.00    -0.317 N 
ATOM     20  C   UNL A   1      33.293  27.830  22.647  1.00  0.00     0.255 C 
ATOM     21  H   UNL A   1      32.203  27.328  21.035  1.00  0.00     0.170 HD
ATOM     22  O   UNL A   1      34.391  27.890  22.114  1.00  0.00    -0.269 OA
BRANCH  20  23
ATOM     23  C   UNL A   1      33.133  28.003  24.089  1.00  0.00     0.040 A 
ATOM     24  C   UNL A   1      32.636  29.631  24.642  1.00  0.00     0.014 A 
ATOM     25  C   UNL A   1      32.906  26.543  25.188  1.00  0.00     0.014 A 
ATOM     26  C   UNL A   1      31.913  29.824  26.272  1.00  0.00     0.001 A 
ATOM     27  C   UNL A   1      32.142  26.774  26.807  1.00  0.00     0.001 A 
ATOM     28  C   UNL A   1      31.644  28.416  27.335  1.00  0.00     0.000 A 
ENDBRANCH  20  23
ENDBRANCH  12  19
ENDBRANCH   7   8
ENDBRANCH   6   7
ENDBRANCH   3   6
ENDBRANCH   1   2
BRANCH   1  29
ATOM     29  C   UNL A   1      36.663  22.829  23.761  1.00  0.00     0.023 C 
BRANCH  29  30
ATOM     30  C   UNL A   1      37.287  21.702  24.584  1.00  0.00     0.023 C 
BRANCH  30  31
ATOM     31  C   UNL A   1      38.171  22.133  25.745  1.00  0.00     0.116 C 
BRANCH  31  32
ATOM     32  N   UNL A   1      39.494  21.516  25.723  1.00  0.00    -0.352 N 
ATOM     33  C   UNL A   1      40.704  22.081  26.078  1.00  0.00     0.251 C 
ATOM     34  H   UNL A   1      39.528  20.582  25.417  1.00  0.00     0.163 HD
ATOM     35  O   UNL A   1      41.761  21.601  25.691  1.00  0.00    -0.269 OA
BRANCH  33  36
ATOM     36  C   UNL A   1      40.702  23.274  26.941  1.00  0.00     0.039 A 
ATOM     37  C   UNL A   1      41.635  23.432  27.961  1.00  0.00     0.014 A 
ATOM     38  C   UNL A   1      39.764  24.269  26.681  1.00  0.00     0.014 A 
ATOM     39  C   UNL A   1      41.677  24.648  28.638  1.00  0.00     0.010 A 
ATOM     40  C   UNL A   1      39.883  25.512  27.252  1.00  0.00     0.010 A 
ATOM     41  C   UNL A   1      40.824  25.700  28.253  1.00  0.00    -0.014 A 
BRANCH  41  42
ATOM     42  C   UNL A   1      41.044  27.046  28.768  1.00  0.00     0.031 A 
ATOM     43  C   UNL A   1      42.222  27.722  28.163  1.00  0.00     0.074 A 
ATOM     44  C   UNL A   1      40.179  27.720  29.556  1.00  0.00     0.049 A 
ATOM     45  N   UNL A   1      43.350  27.972  28.737  1.00  0.00    -0.248 NA
ATOM     46  C   UNL A   1      42.217  27.995  26.716  1.00  0.00     0.031 C 
ATOM     47  C   UNL A   1      38.832  27.325  29.977  1.00  0.00     0.029 A 
ATOM     48  N   UNL A   1      40.298  28.973  30.082  1.00  0.00    -0.354 N 
ATOM     49  C   UNL A   1      44.114  28.653  27.796  1.00  0.00     0.074 A 
ATOM     50  C   UNL A   1      43.459  28.449  26.531  1.00  0.00     0.031 C 
ATOM     51  C   UNL A   1      38.185  28.393  30.494  1.00  0.00     0.029 A 
ATOM     52  C   UNL A   1      39.118  29.502  30.594  1.00  0.00     0.049 A 
ATOM     53  H   UNL A   1      41.151  29.463  30.098  1.00  0.00     0.167 HD
ATOM     54  C   UNL A   1      45.049  29.557  28.198  1.00  0.00     0.037 A 
ATOM     55  C   UNL A   1      38.917  30.762  31.056  1.00  0.00     0.037 A 
ATOM     56  C   UNL A   1      45.374  29.368  29.596  1.00  0.00     0.049 A 
ATOM     57  C   UNL A   1      40.248  31.337  31.367  1.00  0.00     0.074 A 
ATOM     58  C   UNL A   1      45.820  28.307  30.360  1.00  0.00     0.029 A 
ATOM     59  N   UNL A   1      44.866  30.278  30.492  1.00  0.00    -0.354 N 
ATOM     60  N   UNL A   1      40.991  30.946  32.363  1.00  0.00    -0.248 NA
ATOM     61  C   UNL A   1      40.948  32.040  30.304  1.00  0.00     0.031 C 
ATOM     62  C   UNL A   1      45.112  28.417  31.596  1.00  0.00     0.029 A 
ATOM     63  C   UNL A   1      44.343  29.579  31.546  1.00  0.00     0.049 A 
ATOM     64  H   UNL A   1      44.876  31.257  30.394  1.00  0.00     0.167 HD
ATOM     65  C   UNL A   1      42.276  30.922  31.846  1.00  0.00     0.074 A 
ATOM     66  C   UNL A   1      42.205  31.711  30.617  1.00  0.00     0.031 C 
ATOM     67  C   UNL A   1      43.196  30.022  32.303  1.00  0.00     0.037 A 
BRANCH  54  68
ATOM     68  C   UNL A   1      45.326  30.869  27.489  1.00  0.00     0.057 A 
ATOM     69  C   UNL A   1      46.661  31.199  27.186  1.00  0.00     0.134 A 
ATOM     70  C   UNL A   1      44.414  31.941  27.392  1.00  0.00     0.134 A 
ATOM     71  F   UNL A   1      47.627  30.269  27.226  1.00  0.00    -0.206 F 
ATOM     72  C   UNL A   1      47.074  32.514  26.936  1.00  0.00     0.040 A 
ATOM     73  C   UNL A   1      44.810  33.247  27.093  1.00  0.00     0.040 A 
ATOM     74  F   UNL A   1      43.113  31.819  27.671  1.00  0.00    -0.206 F 
ATOM     75  C   UNL A   1      46.148  33.547  26.907  1.00  0.00     0.006 A 
ENDBRANCH  54  68
BRANCH  55  76
ATOM     76  C   UNL A   1      37.694  31.597  31.054  1.00  0.00     0.057 A 
ATOM     77  C   UNL A   1      37.206  32.165  29.866  1.00  0.00     0.134 A 
ATOM     78  C   UNL A   1      36.816  31.614  32.150  1.00  0.00     0.134 A 
ATOM     79  F   UNL A   1      37.955  32.169  28.754  1.00  0.00    -0.206 F 
ATOM     80  C   UNL A   1      35.907  32.681  29.763  1.00  0.00     0.040 A 
ATOM     81  C   UNL A   1      35.518  32.133  32.062  1.00  0.00     0.040 A 
ATOM     82  F   UNL A   1      37.153  31.046  33.316  1.00  0.00    -0.206 F 
ATOM     83  C   UNL A   1      35.053  32.652  30.861  1.00  0.00     0.006 A 
ENDBRANCH  55  76
BRANCH  67  84
ATOM     84  C   UNL A   1      42.882  29.281  33.575  1.00  0.00     0.057 A 
ATOM     85  C   UNL A   1      43.138  29.763  34.868  1.00  0.00     0.134 A 
ATOM     86  C   UNL A   1      42.189  28.068  33.482  1.00  0.00     0.134 A 
ATOM     87  F   UNL A   1      43.701  30.962  35.067  1.00  0.00    -0.206 F 
ATOM     88  C   UNL A   1      42.774  29.042  36.010  1.00  0.00     0.040 A 
ATOM     89  C   UNL A   1      41.785  27.358  34.614  1.00  0.00     0.040 A 
ATOM     90  F   UNL A   1      41.858  27.569  32.280  1.00  0.00    -0.206 F 
ATOM     91  C   UNL A   1      42.092  27.837  35.883  1.00  0.00     0.006 A 
ENDBRANCH  67  84
ENDBRANCH  41  42
ENDBRANCH  33  36
ENDBRANCH  31  32
ENDBRANCH  30  31
ENDBRANCH  29  30
ENDBRANCH   1  29
TORSDOF 18
ENDMDL
MODEL 3
REMARK VINA RESULT:     -11.9      4.800      9.276
REMARK SMILES COC(=O)c1sc(SCC(=O)NCCCCNC(=O)c2ccc(-c3c4nc(c(-c5c(F)cccc5F)c5ccc([nH]5)c(-c5c(F)cccc5F)c5nc(c(-c6c(F)cccc6F)c6ccc3[nH]6)C=C5)C=C4)cc2)c(NC(=O)c2ccccc2)c1O
REMARK SMILES IDX 13 1 12 2 10 3 11 4 9 6 8 7 7 8 5 9 6 10 84 11 74 12 3 13
REMARK SMILES IDX 4 14 2 15 1 16 85 17 75 19 76 20 77 22 78 23 79 24 83 25
REMARK SMILES IDX 80 26 82 27 81 28 14 29 15 30 16 31 17 32 18 33 19 35 20 36
REMARK SMILES IDX 21 37 73 38 22 39 72 40 23 41 24 42 25 43 66 44 26 45 71 46
REMARK SMILES IDX 65 47 67 48 27 49 70 50 64 51 63 52 28 54 54 55 37 56 53 57
REMARK SMILES IDX 38 58 41 59 52 60 68 61 39 62 40 63 51 65 69 66 42 67 29 68
REMARK SMILES IDX 30 69 35 70 31 71 32 72 34 73 36 74 33 75 55 76 56 77 61 78
REMARK SMILES IDX 57 79 58 80 60 81 62 82 59 83 43 84 44 85 49 86 45 87 46 88
REMARK SMILES IDX 48 89 50 90 47 91
REMARK H PARENT 12 5 85 18 75 21 17 34 67 53 41 64
REMARK Flexibility Score: inf
ROOT
ATOM      1  C   UNL A   1      32.059  27.183  27.070  1.00  0.00     0.116 C 
ENDROOT
BRANCH   1   2
ATOM      2  N   UNL A   1      31.179  27.095  25.927  1.00  0.00    -0.355 N 
ATOM      3  C   UNL A   1      30.432  26.043  25.451  1.00  0.00     0.230 C 
ATOM      4  O   UNL A   1      29.577  26.343  24.610  1.00  0.00    -0.274 OA
ATOM      5  H   UNL A   1      31.101  27.925  25.403  1.00  0.00     0.163 HD
BRANCH   3   6
ATOM      6  C   UNL A   1      30.611  24.423  26.090  1.00  0.00     0.175 C 
BRANCH   6   7
ATOM      7  S   UNL A   1      32.696  23.297  27.128  1.00  0.00    -0.103 SA
BRANCH   7   8
ATOM      8  C   UNL A   1      33.510  21.909  26.202  1.00  0.00     0.089 A 
ATOM      9  C   UNL A   1      33.844  19.788  24.918  1.00  0.00     0.157 A 
ATOM     10  S   UNL A   1      32.506  20.753  25.397  1.00  0.00    -0.116 S 
ATOM     11  C   UNL A   1      35.028  20.397  25.276  1.00  0.00     0.166 A 
ATOM     12  C   UNL A   1      34.858  21.607  26.005  1.00  0.00     0.109 A 
BRANCH   9  13
ATOM     13  C   UNL A   1      33.623  18.521  24.250  1.00  0.00     0.352 C 
ATOM     14  O   UNL A   1      34.420  17.602  24.126  1.00  0.00    -0.245 OA
BRANCH  13  15
ATOM     15  O   UNL A   1      32.348  18.505  23.740  1.00  0.00    -0.465 OA
ATOM     16  C   UNL A   1      32.236  18.223  22.342  1.00  0.00     0.282 C 
ENDBRANCH  13  15
ENDBRANCH   9  13
BRANCH  11  17
ATOM     17  O   UNL A   1      36.254  19.876  25.037  1.00  0.00    -0.504 OA
ATOM     18  H   UNL A   1      36.993  20.169  25.534  1.00  0.00     0.293 HD
ENDBRANCH  11  17
BRANCH  12  19
ATOM     19  N   UNL A   1      35.979  22.279  26.484  1.00  0.00    -0.317 N 
ATOM     20  C   UNL A   1      36.610  23.325  25.879  1.00  0.00     0.255 C 
ATOM     21  H   UNL A   1      36.351  21.971  27.342  1.00  0.00     0.170 HD
ATOM     22  O   UNL A   1      37.727  23.714  26.187  1.00  0.00    -0.269 OA
BRANCH  20  23
ATOM     23  C   UNL A   1      35.863  23.936  24.782  1.00  0.00     0.040 A 
ATOM     24  C   UNL A   1      35.667  22.941  23.307  1.00  0.00     0.014 A 
ATOM     25  C   UNL A   1      34.741  25.362  25.093  1.00  0.00     0.014 A 
ATOM     26  C   UNL A   1      34.366  23.347  22.140  1.00  0.00     0.001 A 
ATOM     27  C   UNL A   1      33.423  25.715  23.911  1.00  0.00     0.001 A 
ATOM     28  C   UNL A   1      33.241  24.697  22.444  1.00  0.00     0.000 A 
ENDBRANCH  20  23
ENDBRANCH  12  19
ENDBRANCH   7   8
ENDBRANCH   6   7
ENDBRANCH   3   6
ENDBRANCH   1   2
BRANCH   1  29
ATOM     29  C   UNL A   1      32.561  28.592  27.390  1.00  0.00     0.023 C 
BRANCH  29  30
ATOM     30  C   UNL A   1      33.749  29.131  26.591  1.00  0.00     0.023 C 
BRANCH  30  31
ATOM     31  C   UNL A   1      35.118  28.964  27.233  1.00  0.00     0.116 C 
BRANCH  31  32
ATOM     32  N   UNL A   1      35.326  29.837  28.384  1.00  0.00    -0.352 N 
ATOM     33  C   UNL A   1      36.380  29.833  29.276  1.00  0.00     0.251 C 
ATOM     34  H   UNL A   1      34.627  30.511  28.545  1.00  0.00     0.163 HD
ATOM     35  O   UNL A   1      36.276  30.357  30.378  1.00  0.00    -0.269 OA
BRANCH  33  36
ATOM     36  C   UNL A   1      37.644  29.193  28.877  1.00  0.00     0.039 A 
ATOM     37  C   UNL A   1      38.321  29.580  27.726  1.00  0.00     0.014 A 
ATOM     38  C   UNL A   1      38.172  28.210  29.711  1.00  0.00     0.014 A 
ATOM     39  C   UNL A   1      39.584  29.044  27.487  1.00  0.00     0.010 A 
ATOM     40  C   UNL A   1      39.465  27.777  29.552  1.00  0.00     0.010 A 
ATOM     41  C   UNL A   1      40.169  28.172  28.425  1.00  0.00    -0.014 A 
BRANCH  41  42
ATOM     42  C   UNL A   1      41.581  27.823  28.319  1.00  0.00     0.031 A 
ATOM     43  C   UNL A   1      41.822  26.563  27.567  1.00  0.00     0.074 A 
ATOM     44  C   UNL A   1      42.602  28.633  28.675  1.00  0.00     0.049 A 
ATOM     45  N   UNL A   1      42.202  25.432  28.055  1.00  0.00    -0.248 NA
ATOM     46  C   UNL A   1      41.432  26.500  26.149  1.00  0.00     0.031 C 
ATOM     47  C   UNL A   1      42.546  30.024  29.128  1.00  0.00     0.029 A 
ATOM     48  N   UNL A   1      43.943  28.395  28.613  1.00  0.00    -0.354 N 
ATOM     49  C   UNL A   1      42.335  24.574  26.968  1.00  0.00     0.074 A 
ATOM     50  C   UNL A   1      41.653  25.212  25.873  1.00  0.00     0.031 C 
ATOM     51  C   UNL A   1      43.783  30.568  29.084  1.00  0.00     0.029 A 
ATOM     52  C   UNL A   1      44.740  29.525  28.760  1.00  0.00     0.049 A 
ATOM     53  H   UNL A   1      44.317  27.495  28.476  1.00  0.00     0.167 HD
ATOM     54  C   UNL A   1      43.242  23.559  27.005  1.00  0.00     0.037 A 
ATOM     55  C   UNL A   1      46.087  29.603  28.615  1.00  0.00     0.037 A 
ATOM     56  C   UNL A   1      43.658  23.295  28.365  1.00  0.00     0.049 A 
ATOM     57  C   UNL A   1      46.626  28.227  28.740  1.00  0.00     0.074 A 
ATOM     58  C   UNL A   1      43.005  22.985  29.544  1.00  0.00     0.029 A 
ATOM     59  N   UNL A   1      44.907  23.727  28.741  1.00  0.00    -0.354 N 
ATOM     60  N   UNL A   1      46.651  27.557  29.857  1.00  0.00    -0.248 NA
ATOM     61  C   UNL A   1      46.731  27.427  27.530  1.00  0.00     0.031 C 
ATOM     62  C   UNL A   1      43.704  23.710  30.556  1.00  0.00     0.029 A 
ATOM     63  C   UNL A   1      44.787  24.350  29.954  1.00  0.00     0.049 A 
ATOM     64  H   UNL A   1      45.739  23.610  28.229  1.00  0.00     0.167 HD
ATOM     65  C   UNL A   1      46.294  26.269  29.494  1.00  0.00     0.074 A 
ATOM     66  C   UNL A   1      46.468  26.222  28.043  1.00  0.00     0.031 C 
ATOM     67  C   UNL A   1      45.612  25.463  30.360  1.00  0.00     0.037 A 
BRANCH  54  68
ATOM     68  C   UNL A   1      44.081  23.125  25.819  1.00  0.00     0.057 A 
ATOM     69  C   UNL A   1      44.220  21.747  25.563  1.00  0.00     0.134 A 
ATOM     70  C   UNL A   1      45.002  23.948  25.138  1.00  0.00     0.134 A 
ATOM     71  F   UNL A   1      43.399  20.854  26.136  1.00  0.00    -0.206 F 
ATOM     72  C   UNL A   1      45.271  21.224  24.799  1.00  0.00     0.040 A 
ATOM     73  C   UNL A   1      46.024  23.438  24.332  1.00  0.00     0.040 A 
ATOM     74  F   UNL A   1      45.037  25.276  25.282  1.00  0.00    -0.206 F 
ATOM     75  C   UNL A   1      46.189  22.071  24.195  1.00  0.00     0.006 A 
ENDBRANCH  54  68
BRANCH  55  76
ATOM     76  C   UNL A   1      46.936  30.730  28.165  1.00  0.00     0.057 A 
ATOM     77  C   UNL A   1      46.817  31.254  26.867  1.00  0.00     0.134 A 
ATOM     78  C   UNL A   1      47.668  31.507  29.077  1.00  0.00     0.134 A 
ATOM     79  F   UNL A   1      46.111  30.603  25.931  1.00  0.00    -0.206 F 
ATOM     80  C   UNL A   1      47.358  32.496  26.511  1.00  0.00     0.040 A 
ATOM     81  C   UNL A   1      48.220  32.747  28.732  1.00  0.00     0.040 A 
ATOM     82  F   UNL A   1      47.796  31.134  30.359  1.00  0.00    -0.206 F 
ATOM     83  C   UNL A   1      48.049  33.254  27.451  1.00  0.00     0.006 A 
ENDBRANCH  55  76
BRANCH  67  84
ATOM     84  C   UNL A   1      45.532  25.888  31.801  1.00  0.00     0.057 A 
ATOM     85  C   UNL A   1      46.552  25.707  32.748  1.00  0.00     0.134 A 
ATOM     86  C   UNL A   1      44.409  26.613  32.218  1.00  0.00     0.134 A 
ATOM     87  F   UNL A   1      47.710  25.120  32.423  1.00  0.00    -0.206 F 
ATOM     88  C   UNL A   1      46.430  26.173  34.062  1.00  0.00     0.040 A 
ATOM     89  C   UNL A   1      44.293  27.117  33.514  1.00  0.00     0.040 A 
ATOM     90  F   UNL A   1      43.415  26.875  31.353  1.00  0.00    -0.206 F 
ATOM     91  C   UNL A   1      45.299  26.883  34.446  1.00  0.00     0.006 A 
ENDBRANCH  67  84
ENDBRANCH  41  42
ENDBRANCH  33  36
ENDBRANCH  31  32
ENDBRANCH  30  31
ENDBRANCH  29  30
ENDBRANCH   1  29
TORSDOF 18
ENDMDL
