MODEL 1
REMARK VINA RESULT:     -11.4      0.000      0.000
REMARK SMILES O=C(NCCCCNC(=O)c1cc2ncoc2cn1)c1ccc(-c2c3nc(c(-c4c(F)cccc4F)c4ccc([nH]4)c(-c4c(F)cccc4F)c4nc(c(-c5c(F)cccc5F)c5ccc2[nH]5)C=C4)C=C3)cc1
REMARK SMILES IDX 4 1 3 2 1 3 2 4 20 6 21 7 73 8 22 9 72 10 23 11 24 12 25 13
REMARK SMILES IDX 66 14 26 15 71 16 65 17 67 18 27 19 70 20 64 21 63 22 28 24
REMARK SMILES IDX 54 25 37 26 53 27 38 28 41 29 52 30 68 31 39 32 40 33 51 35
REMARK SMILES IDX 69 36 42 37 29 38 30 39 35 40 31 41 32 42 34 43 36 44 33 45
REMARK SMILES IDX 55 46 56 47 61 48 57 49 58 50 60 51 62 52 59 53 43 54 44 55
REMARK SMILES IDX 49 56 45 57 46 58 48 59 50 60 47 61 5 62 6 63 7 64 8 65 9 66
REMARK SMILES IDX 10 68 11 69 12 70 19 71 13 72 18 73 14 74 17 75 15 76 16 77
REMARK H PARENT 3 5 67 23 41 34 8 67
REMARK Flexibility Score: inf
ROOT
ATOM      1  C   UNL A   1      36.655  30.675  31.241  1.00  0.00     0.116 C 
ENDROOT
BRANCH   1   2
ATOM      2  N   UNL A   1      35.931  30.093  30.101  1.00  0.00    -0.352 N 
ATOM      3  O   UNL A   1      35.776  29.435  27.921  1.00  0.00    -0.269 OA
ATOM      4  C   UNL A   1      36.459  29.544  28.941  1.00  0.00     0.251 C 
ATOM      5  H   UNL A   1      34.950  30.092  30.169  1.00  0.00     0.163 HD
BRANCH   4   6
ATOM      6  C   UNL A   1      37.855  29.079  28.950  1.00  0.00     0.039 A 
ATOM      7  C   UNL A   1      38.337  28.059  29.770  1.00  0.00     0.014 A 
ATOM      8  C   UNL A   1      38.704  29.702  28.050  1.00  0.00     0.014 A 
ATOM      9  C   UNL A   1      39.673  27.687  29.628  1.00  0.00     0.010 A 
ATOM     10  C   UNL A   1      39.847  29.081  27.661  1.00  0.00     0.010 A 
ATOM     11  C   UNL A   1      40.422  28.221  28.563  1.00  0.00    -0.014 A 
BRANCH  11  12
ATOM     12  C   UNL A   1      41.828  27.924  28.350  1.00  0.00     0.031 A 
ATOM     13  C   UNL A   1      42.055  26.688  27.584  1.00  0.00     0.074 A 
ATOM     14  C   UNL A   1      42.836  28.759  28.694  1.00  0.00     0.049 A 
ATOM     15  N   UNL A   1      42.397  25.542  28.062  1.00  0.00    -0.248 NA
ATOM     16  C   UNL A   1      41.665  26.663  26.168  1.00  0.00     0.031 C 
ATOM     17  C   UNL A   1      42.785  30.147  29.182  1.00  0.00     0.029 A 
ATOM     18  N   UNL A   1      44.174  28.531  28.619  1.00  0.00    -0.354 N 
ATOM     19  C   UNL A   1      42.497  24.696  26.968  1.00  0.00     0.074 A 
ATOM     20  C   UNL A   1      41.839  25.371  25.880  1.00  0.00     0.031 C 
ATOM     21  C   UNL A   1      44.021  30.693  29.154  1.00  0.00     0.029 A 
ATOM     22  C   UNL A   1      44.972  29.650  28.832  1.00  0.00     0.049 A 
ATOM     23  H   UNL A   1      44.551  27.641  28.428  1.00  0.00     0.167 HD
ATOM     24  C   UNL A   1      43.357  23.644  27.003  1.00  0.00     0.037 A 
ATOM     25  C   UNL A   1      46.325  29.704  28.754  1.00  0.00     0.037 A 
ATOM     26  C   UNL A   1      43.770  23.364  28.362  1.00  0.00     0.049 A 
ATOM     27  C   UNL A   1      46.823  28.316  28.909  1.00  0.00     0.074 A 
ATOM     28  C   UNL A   1      43.116  23.014  29.529  1.00  0.00     0.029 A 
ATOM     29  N   UNL A   1      45.001  23.833  28.755  1.00  0.00    -0.354 N 
ATOM     30  N   UNL A   1      46.736  27.638  30.019  1.00  0.00    -0.248 NA
ATOM     31  C   UNL A   1      46.987  27.521  27.703  1.00  0.00     0.031 C 
ATOM     32  C   UNL A   1      43.796  23.724  30.565  1.00  0.00     0.029 A 
ATOM     33  C   UNL A   1      44.865  24.413  29.989  1.00  0.00     0.049 A 
ATOM     34  H   UNL A   1      45.836  23.764  28.238  1.00  0.00     0.167 HD
ATOM     35  C   UNL A   1      46.386  26.355  29.622  1.00  0.00     0.074 A 
ATOM     36  C   UNL A   1      46.647  26.321  28.183  1.00  0.00     0.031 C 
ATOM     37  C   UNL A   1      45.649  25.542  30.438  1.00  0.00     0.037 A 
BRANCH  24  38
ATOM     38  C   UNL A   1      44.158  23.171  25.812  1.00  0.00     0.057 A 
ATOM     39  C   UNL A   1      45.138  23.935  25.145  1.00  0.00     0.134 A 
ATOM     40  C   UNL A   1      44.184  21.793  25.528  1.00  0.00     0.134 A 
ATOM     41  F   UNL A   1      45.280  25.252  25.322  1.00  0.00    -0.206 F 
ATOM     42  C   UNL A   1      46.110  23.366  24.320  1.00  0.00     0.040 A 
ATOM     43  C   UNL A   1      45.182  21.209  24.742  1.00  0.00     0.040 A 
ATOM     44  F   UNL A   1      43.293  20.959  26.087  1.00  0.00    -0.206 F 
ATOM     45  C   UNL A   1      46.161  21.994  24.149  1.00  0.00     0.006 A 
ENDBRANCH  24  38
BRANCH  25  46
ATOM     46  C   UNL A   1      47.184  30.805  28.264  1.00  0.00     0.057 A 
ATOM     47  C   UNL A   1      48.044  31.497  29.135  1.00  0.00     0.134 A 
ATOM     48  C   UNL A   1      46.967  31.397  27.012  1.00  0.00     0.134 A 
ATOM     49  F   UNL A   1      48.267  31.055  30.381  1.00  0.00    -0.206 F 
ATOM     50  C   UNL A   1      48.628  32.722  28.793  1.00  0.00     0.040 A 
ATOM     51  C   UNL A   1      47.545  32.625  26.658  1.00  0.00     0.040 A 
ATOM     52  F   UNL A   1      46.132  30.832  26.128  1.00  0.00    -0.206 F 
ATOM     53  C   UNL A   1      48.367  33.298  27.556  1.00  0.00     0.006 A 
ENDBRANCH  25  46
BRANCH  37  54
ATOM     54  C   UNL A   1      45.471  25.978  31.870  1.00  0.00     0.057 A 
ATOM     55  C   UNL A   1      44.326  26.707  32.211  1.00  0.00     0.134 A 
ATOM     56  C   UNL A   1      46.431  25.803  32.879  1.00  0.00     0.134 A 
ATOM     57  F   UNL A   1      43.389  26.963  31.286  1.00  0.00    -0.206 F 
ATOM     58  C   UNL A   1      44.134  27.222  33.496  1.00  0.00     0.040 A 
ATOM     59  C   UNL A   1      46.235  26.284  34.179  1.00  0.00     0.040 A 
ATOM     60  F   UNL A   1      47.601  25.205  32.628  1.00  0.00    -0.206 F 
ATOM     61  C   UNL A   1      45.083  27.000  34.489  1.00  0.00     0.006 A 
ENDBRANCH  37  54
ENDBRANCH  11  12
ENDBRANCH   4   6
ENDBRANCH   1   2
BRANCH   1  62
ATOM     62  C   UNL A   1      36.729  32.190  31.227  1.00  0.00     0.023 C 
BRANCH  62  63
ATOM     63  C   UNL A   1      37.847  32.769  30.350  1.00  0.00     0.023 C 
BRANCH  63  64
ATOM     64  C   UNL A   1      37.428  33.724  29.224  1.00  0.00     0.116 C 
BRANCH  64  65
ATOM     65  N   UNL A   1      36.552  33.098  28.247  1.00  0.00    -0.351 N 
ATOM     66  C   UNL A   1      35.197  33.276  28.061  1.00  0.00     0.269 C 
ATOM     67  H   UNL A   1      36.985  32.459  27.636  1.00  0.00     0.163 HD
ATOM     68  O   UNL A   1      34.586  32.530  27.298  1.00  0.00    -0.268 OA
BRANCH  66  69
ATOM     69  C   UNL A   1      34.463  34.339  28.807  1.00  0.00     0.130 A 
ATOM     70  C   UNL A   1      34.015  34.043  30.091  1.00  0.00     0.066 A 
ATOM     71  N   UNL A   1      34.297  35.538  28.170  1.00  0.00    -0.247 NA
ATOM     72  C   UNL A   1      33.420  35.107  30.767  1.00  0.00     0.113 A 
ATOM     73  C   UNL A   1      33.688  36.556  28.829  1.00  0.00     0.161 A 
ATOM     74  N   UNL A   1      32.924  35.201  32.044  1.00  0.00    -0.216 NA
ATOM     75  C   UNL A   1      33.277  36.326  30.125  1.00  0.00     0.172 A 
ATOM     76  C   UNL A   1      32.517  36.451  32.123  1.00  0.00     0.309 A 
ATOM     77  O   UNL A   1      32.692  37.198  30.996  1.00  0.00    -0.442 OA
ENDBRANCH  66  69
ENDBRANCH  64  65
ENDBRANCH  63  64
ENDBRANCH  62  63
ENDBRANCH   1  62
TORSDOF 11
ENDMDL
MODEL 2
REMARK VINA RESULT:     -11.0      2.452      6.956
REMARK SMILES O=C(NCCCCNC(=O)c1cc2ncoc2cn1)c1ccc(-c2c3nc(c(-c4c(F)cccc4F)c4ccc([nH]4)c(-c4c(F)cccc4F)c4nc(c(-c5c(F)cccc5F)c5ccc2[nH]5)C=C4)C=C3)cc1
REMARK SMILES IDX 4 1 3 2 1 3 2 4 20 6 21 7 73 8 22 9 72 10 23 11 24 12 25 13
REMARK SMILES IDX 66 14 26 15 71 16 65 17 67 18 27 19 70 20 64 21 63 22 28 24
REMARK SMILES IDX 54 25 37 26 53 27 38 28 41 29 52 30 68 31 39 32 40 33 51 35
REMARK SMILES IDX 69 36 42 37 29 38 30 39 35 40 31 41 32 42 34 43 36 44 33 45
REMARK SMILES IDX 55 46 56 47 61 48 57 49 58 50 60 51 62 52 59 53 43 54 44 55
REMARK SMILES IDX 49 56 45 57 46 58 48 59 50 60 47 61 5 62 6 63 7 64 8 65 9 66
REMARK SMILES IDX 10 68 11 69 12 70 19 71 13 72 18 73 14 74 17 75 15 76 16 77
REMARK H PARENT 3 5 67 23 41 34 8 67
REMARK Flexibility Score: inf
ROOT
ATOM      1  C   UNL A   1      35.094  33.581  28.991  1.00  0.00     0.116 C 
ENDROOT
BRANCH   1   2
ATOM      2  N   UNL A   1      34.341  32.473  28.385  1.00  0.00    -0.352 N 
ATOM      3  O   UNL A   1      34.158  30.652  27.021  1.00  0.00    -0.269 OA
ATOM      4  C   UNL A   1      34.837  31.312  27.809  1.00  0.00     0.251 C 
ATOM      5  H   UNL A   1      33.361  32.566  28.389  1.00  0.00     0.163 HD
BRANCH   4   6
ATOM      6  C   UNL A   1      36.195  30.870  28.166  1.00  0.00     0.039 A 
ATOM      7  C   UNL A   1      37.150  31.684  28.775  1.00  0.00     0.014 A 
ATOM      8  C   UNL A   1      36.491  29.546  27.887  1.00  0.00     0.014 A 
ATOM      9  C   UNL A   1      38.377  31.111  29.105  1.00  0.00     0.010 A 
ATOM     10  C   UNL A   1      37.501  28.927  28.551  1.00  0.00     0.010 A 
ATOM     11  C   UNL A   1      38.538  29.718  28.977  1.00  0.00    -0.014 A 
BRANCH  11  12
ATOM     12  C   UNL A   1      39.785  29.031  29.262  1.00  0.00     0.031 A 
ATOM     13  C   UNL A   1      40.090  28.944  30.699  1.00  0.00     0.074 A 
ATOM     14  C   UNL A   1      40.534  28.406  28.322  1.00  0.00     0.049 A 
ATOM     15  N   UNL A   1      40.923  29.679  31.351  1.00  0.00    -0.248 NA
ATOM     16  C   UNL A   1      39.238  28.095  31.543  1.00  0.00     0.031 C 
ATOM     17  C   UNL A   1      40.235  28.132  26.908  1.00  0.00     0.029 A 
ATOM     18  N   UNL A   1      41.752  27.820  28.477  1.00  0.00    -0.354 N 
ATOM     19  C   UNL A   1      40.875  29.225  32.661  1.00  0.00     0.074 A 
ATOM     20  C   UNL A   1      39.689  28.414  32.758  1.00  0.00     0.031 C 
ATOM     21  C   UNL A   1      41.138  27.261  26.404  1.00  0.00     0.029 A 
ATOM     22  C   UNL A   1      42.180  27.065  27.390  1.00  0.00     0.049 A 
ATOM     23  H   UNL A   1      42.290  27.923  29.295  1.00  0.00     0.167 HD
ATOM     24  C   UNL A   1      41.970  29.340  33.457  1.00  0.00     0.037 A 
ATOM     25  C   UNL A   1      43.321  26.336  27.313  1.00  0.00     0.037 A 
ATOM     26  C   UNL A   1      42.917  30.280  32.895  1.00  0.00     0.049 A 
ATOM     27  C   UNL A   1      44.248  26.872  28.338  1.00  0.00     0.074 A 
ATOM     28  C   UNL A   1      42.880  31.621  32.560  1.00  0.00     0.029 A 
ATOM     29  N   UNL A   1      43.993  29.760  32.217  1.00  0.00    -0.354 N 
ATOM     30  N   UNL A   1      44.789  28.056  28.273  1.00  0.00    -0.248 NA
ATOM     31  C   UNL A   1      44.198  26.281  29.665  1.00  0.00     0.031 C 
ATOM     32  C   UNL A   1      43.633  31.725  31.350  1.00  0.00     0.029 A 
ATOM     33  C   UNL A   1      44.145  30.461  31.049  1.00  0.00     0.049 A 
ATOM     34  H   UNL A   1      44.558  29.012  32.518  1.00  0.00     0.167 HD
ATOM     35  C   UNL A   1      44.737  28.540  29.573  1.00  0.00     0.074 A 
ATOM     36  C   UNL A   1      44.451  27.369  30.400  1.00  0.00     0.031 C 
ATOM     37  C   UNL A   1      44.643  29.881  29.821  1.00  0.00     0.037 A 
BRANCH  24  38
ATOM     38  C   UNL A   1      42.385  28.303  34.474  1.00  0.00     0.057 A 
ATOM     39  C   UNL A   1      42.153  28.396  35.862  1.00  0.00     0.134 A 
ATOM     40  C   UNL A   1      42.734  27.019  34.015  1.00  0.00     0.134 A 
ATOM     41  F   UNL A   1      41.780  29.530  36.464  1.00  0.00    -0.206 F 
ATOM     42  C   UNL A   1      42.193  27.290  36.713  1.00  0.00     0.040 A 
ATOM     43  C   UNL A   1      42.730  25.898  34.851  1.00  0.00     0.040 A 
ATOM     44  F   UNL A   1      42.996  26.800  32.718  1.00  0.00    -0.206 F 
ATOM     45  C   UNL A   1      42.441  26.028  36.202  1.00  0.00     0.006 A 
ENDBRANCH  24  38
BRANCH  25  46
ATOM     46  C   UNL A   1      43.551  25.040  26.636  1.00  0.00     0.057 A 
ATOM     47  C   UNL A   1      44.267  24.969  25.428  1.00  0.00     0.134 A 
ATOM     48  C   UNL A   1      42.828  23.893  26.992  1.00  0.00     0.134 A 
ATOM     49  F   UNL A   1      44.936  26.032  24.959  1.00  0.00    -0.206 F 
ATOM     50  C   UNL A   1      44.241  23.836  24.607  1.00  0.00     0.040 A 
ATOM     51  C   UNL A   1      42.792  22.752  26.178  1.00  0.00     0.040 A 
ATOM     52  F   UNL A   1      42.083  23.877  28.107  1.00  0.00    -0.206 F 
ATOM     53  C   UNL A   1      43.489  22.727  24.974  1.00  0.00     0.006 A 
ENDBRANCH  25  46
BRANCH  37  54
ATOM     54  C   UNL A   1      44.875  30.817  28.662  1.00  0.00     0.057 A 
ATOM     55  C   UNL A   1      46.092  31.503  28.587  1.00  0.00     0.134 A 
ATOM     56  C   UNL A   1      43.908  31.142  27.698  1.00  0.00     0.134 A 
ATOM     57  F   UNL A   1      47.046  31.287  29.505  1.00  0.00    -0.206 F 
ATOM     58  C   UNL A   1      46.345  32.452  27.593  1.00  0.00     0.040 A 
ATOM     59  C   UNL A   1      44.161  32.065  26.677  1.00  0.00     0.040 A 
ATOM     60  F   UNL A   1      42.680  30.612  27.740  1.00  0.00    -0.206 F 
ATOM     61  C   UNL A   1      45.384  32.726  26.625  1.00  0.00     0.006 A 
ENDBRANCH  37  54
ENDBRANCH  11  12
ENDBRANCH   4   6
ENDBRANCH   1   2
BRANCH   1  62
ATOM     62  C   UNL A   1      35.086  34.861  28.176  1.00  0.00     0.023 C 
BRANCH  62  63
ATOM     63  C   UNL A   1      34.021  35.882  28.597  1.00  0.00     0.023 C 
BRANCH  63  64
ATOM     64  C   UNL A   1      32.940  35.402  29.575  1.00  0.00     0.116 C 
BRANCH  64  65
ATOM     65  N   UNL A   1      32.585  36.408  30.564  1.00  0.00    -0.351 N 
ATOM     66  C   UNL A   1      32.854  36.424  31.917  1.00  0.00     0.269 C 
ATOM     67  H   UNL A   1      32.085  37.183  30.220  1.00  0.00     0.163 HD
ATOM     68  O   UNL A   1      32.323  37.272  32.631  1.00  0.00    -0.268 OA
BRANCH  66  69
ATOM     69  C   UNL A   1      33.748  35.395  32.524  1.00  0.00     0.130 A 
ATOM     70  C   UNL A   1      35.061  35.760  32.810  1.00  0.00     0.066 A 
ATOM     71  N   UNL A   1      33.200  34.166  32.766  1.00  0.00    -0.247 NA
ATOM     72  C   UNL A   1      35.815  34.785  33.460  1.00  0.00     0.113 A 
ATOM     73  C   UNL A   1      33.956  33.216  33.372  1.00  0.00     0.161 A 
ATOM     74  N   UNL A   1      37.101  34.809  33.940  1.00  0.00    -0.216 NA
ATOM     75  C   UNL A   1      35.246  33.550  33.725  1.00  0.00     0.172 A 
ATOM     76  C   UNL A   1      37.252  33.614  34.473  1.00  0.00     0.309 A 
ATOM     77  O   UNL A   1      36.170  32.788  34.378  1.00  0.00    -0.442 OA
ENDBRANCH  66  69
ENDBRANCH  64  65
ENDBRANCH  63  64
ENDBRANCH  62  63
ENDBRANCH   1  62
TORSDOF 11
ENDMDL
MODEL 3
REMARK VINA RESULT:     -10.8      4.005     10.561
REMARK SMILES O=C(NCCCCNC(=O)c1cc2ncoc2cn1)c1ccc(-c2c3nc(c(-c4c(F)cccc4F)c4ccc([nH]4)c(-c4c(F)cccc4F)c4nc(c(-c5c(F)cccc5F)c5ccc2[nH]5)C=C4)C=C3)cc1
REMARK SMILES IDX 4 1 3 2 1 3 2 4 20 6 21 7 73 8 22 9 72 10 23 11 24 12 25 13
REMARK SMILES IDX 66 14 26 15 71 16 65 17 67 18 27 19 70 20 64 21 63 22 28 24
REMARK SMILES IDX 54 25 37 26 53 27 38 28 41 29 52 30 68 31 39 32 40 33 51 35
REMARK SMILES IDX 69 36 42 37 29 38 30 39 35 40 31 41 32 42 34 43 36 44 33 45
REMARK SMILES IDX 55 46 56 47 61 48 57 49 58 50 60 51 62 52 59 53 43 54 44 55
REMARK SMILES IDX 49 56 45 57 46 58 48 59 50 60 47 61 5 62 6 63 7 64 8 65 9 66
REMARK SMILES IDX 10 68 11 69 12 70 19 71 13 72 18 73 14 74 17 75 15 76 16 77
REMARK H PARENT 3 5 67 23 41 34 8 67
REMARK Flexibility Score: inf
ROOT
ATOM      1  C   UNL A   1      41.983  22.081  26.307  1.00  0.00     0.116 C 
ENDROOT
BRANCH   1   2
ATOM      2  N   UNL A   1      40.552  22.129  25.972  1.00  0.00    -0.352 N 
ATOM      3  O   UNL A   1      38.370  22.595  26.458  1.00  0.00    -0.269 OA
ATOM      4  C   UNL A   1      39.560  22.902  26.559  1.00  0.00     0.251 C 
ATOM      5  H   UNL A   1      40.261  21.540  25.240  1.00  0.00     0.163 HD
BRANCH   4   6
ATOM      6  C   UNL A   1      39.951  24.112  27.300  1.00  0.00     0.039 A 
ATOM      7  C   UNL A   1      41.121  24.228  28.051  1.00  0.00     0.014 A 
ATOM      8  C   UNL A   1      39.088  25.190  27.193  1.00  0.00     0.014 A 
ATOM      9  C   UNL A   1      41.388  25.456  28.654  1.00  0.00     0.010 A 
ATOM     10  C   UNL A   1      39.543  26.445  27.444  1.00  0.00     0.010 A 
ATOM     11  C   UNL A   1      40.574  26.562  28.342  1.00  0.00    -0.014 A 
BRANCH  11  12
ATOM     12  C   UNL A   1      40.747  27.873  28.942  1.00  0.00     0.031 A 
ATOM     13  C   UNL A   1      41.911  28.606  28.419  1.00  0.00     0.074 A 
ATOM     14  C   UNL A   1      39.859  28.435  29.796  1.00  0.00     0.049 A 
ATOM     15  N   UNL A   1      43.055  28.740  28.996  1.00  0.00    -0.248 NA
ATOM     16  C   UNL A   1      41.876  29.067  27.024  1.00  0.00     0.031 C 
ATOM     17  C   UNL A   1      38.514  27.986  30.188  1.00  0.00     0.029 A 
ATOM     18  N   UNL A   1      39.978  29.608  30.474  1.00  0.00    -0.354 N 
ATOM     19  C   UNL A   1      43.820  29.510  28.133  1.00  0.00     0.074 A 
ATOM     20  C   UNL A   1      43.130  29.498  26.869  1.00  0.00     0.031 C 
ATOM     21  C   UNL A   1      37.873  28.971  30.855  1.00  0.00     0.029 A 
ATOM     22  C   UNL A   1      38.817  30.040  31.105  1.00  0.00     0.049 A 
ATOM     23  H   UNL A   1      40.822  30.113  30.516  1.00  0.00     0.167 HD
ATOM     24  C   UNL A   1      44.802  30.308  28.629  1.00  0.00     0.037 A 
ATOM     25  C   UNL A   1      38.653  31.198  31.792  1.00  0.00     0.037 A 
ATOM     26  C   UNL A   1      45.135  29.928  29.986  1.00  0.00     0.049 A 
ATOM     27  C   UNL A   1      40.006  31.663  32.184  1.00  0.00     0.074 A 
ATOM     28  C   UNL A   1      45.607  28.778  30.590  1.00  0.00     0.029 A 
ATOM     29  N   UNL A   1      44.598  30.684  31.001  1.00  0.00    -0.354 N 
ATOM     30  N   UNL A   1      40.758  31.046  33.052  1.00  0.00    -0.248 NA
ATOM     31  C   UNL A   1      40.708  32.542  31.264  1.00  0.00     0.031 C 
ATOM     32  C   UNL A   1      44.914  28.698  31.837  1.00  0.00     0.029 A 
ATOM     33  C   UNL A   1      44.109  29.833  31.958  1.00  0.00     0.049 A 
ATOM     34  H   UNL A   1      44.569  31.668  31.034  1.00  0.00     0.167 HD
ATOM     35  C   UNL A   1      42.036  31.102  32.515  1.00  0.00     0.074 A 
ATOM     36  C   UNL A   1      41.959  32.116  31.463  1.00  0.00     0.031 C 
ATOM     37  C   UNL A   1      42.953  30.123  32.777  1.00  0.00     0.037 A 
BRANCH  24  38
ATOM     38  C   UNL A   1      45.135  31.675  28.079  1.00  0.00     0.057 A 
ATOM     39  C   UNL A   1      46.280  31.979  27.312  1.00  0.00     0.134 A 
ATOM     40  C   UNL A   1      44.117  32.644  28.036  1.00  0.00     0.134 A 
ATOM     41  F   UNL A   1      47.328  31.156  27.211  1.00  0.00    -0.206 F 
ATOM     42  C   UNL A   1      46.373  33.118  26.510  1.00  0.00     0.040 A 
ATOM     43  C   UNL A   1      44.182  33.763  27.200  1.00  0.00     0.040 A 
ATOM     44  F   UNL A   1      42.983  32.483  28.735  1.00  0.00    -0.206 F 
ATOM     45  C   UNL A   1      45.306  33.994  26.419  1.00  0.00     0.006 A 
ENDBRANCH  24  38
BRANCH  25  46
ATOM     46  C   UNL A   1      37.461  32.070  31.872  1.00  0.00     0.057 A 
ATOM     47  C   UNL A   1      36.658  32.098  33.026  1.00  0.00     0.134 A 
ATOM     48  C   UNL A   1      36.914  32.664  30.726  1.00  0.00     0.134 A 
ATOM     49  F   UNL A   1      37.056  31.500  34.158  1.00  0.00    -0.206 F 
ATOM     50  C   UNL A   1      35.375  32.656  33.032  1.00  0.00     0.040 A 
ATOM     51  C   UNL A   1      35.628  33.224  30.718  1.00  0.00     0.040 A 
ATOM     52  F   UNL A   1      37.587  32.652  29.566  1.00  0.00    -0.206 F 
ATOM     53  C   UNL A   1      34.849  33.208  31.871  1.00  0.00     0.006 A 
ENDBRANCH  25  46
BRANCH  37  54
ATOM     54  C   UNL A   1      42.623  29.142  33.873  1.00  0.00     0.057 A 
ATOM     55  C   UNL A   1      43.148  29.364  35.152  1.00  0.00     0.134 A 
ATOM     56  C   UNL A   1      41.911  27.948  33.684  1.00  0.00     0.134 A 
ATOM     57  F   UNL A   1      43.887  30.457  35.397  1.00  0.00    -0.206 F 
ATOM     58  C   UNL A   1      42.960  28.455  36.196  1.00  0.00     0.040 A 
ATOM     59  C   UNL A   1      41.687  27.045  34.729  1.00  0.00     0.040 A 
ATOM     60  F   UNL A   1      41.452  27.598  32.477  1.00  0.00    -0.206 F 
ATOM     61  C   UNL A   1      42.216  27.297  35.991  1.00  0.00     0.006 A 
ENDBRANCH  37  54
ENDBRANCH  11  12
ENDBRANCH   4   6
ENDBRANCH   1   2
BRANCH   1  62
ATOM     62  C   UNL A   1      42.325  21.153  27.458  1.00  0.00     0.023 C 
BRANCH  62  63
ATOM     63  C   UNL A   1      42.313  19.660  27.103  1.00  0.00     0.023 C 
BRANCH  63  64
ATOM     64  C   UNL A   1      42.430  19.292  25.618  1.00  0.00     0.116 C 
BRANCH  64  65
ATOM     65  N   UNL A   1      43.682  18.627  25.297  1.00  0.00    -0.351 N 
ATOM     66  C   UNL A   1      44.859  19.176  24.832  1.00  0.00     0.269 C 
ATOM     67  H   UNL A   1      43.691  17.651  25.430  1.00  0.00     0.163 HD
ATOM     68  O   UNL A   1      45.763  18.437  24.447  1.00  0.00    -0.268 OA
BRANCH  66  69
ATOM     69  C   UNL A   1      45.026  20.657  24.754  1.00  0.00     0.130 A 
ATOM     70  C   UNL A   1      45.732  21.287  25.775  1.00  0.00     0.066 A 
ATOM     71  N   UNL A   1      44.478  21.283  23.669  1.00  0.00    -0.247 NA
ATOM     72  C   UNL A   1      45.931  22.655  25.594  1.00  0.00     0.113 A 
ATOM     73  C   UNL A   1      44.654  22.621  23.522  1.00  0.00     0.161 A 
ATOM     74  N   UNL A   1      46.618  23.574  26.348  1.00  0.00    -0.216 NA
ATOM     75  C   UNL A   1      45.395  23.280  24.480  1.00  0.00     0.172 A 
ATOM     76  C   UNL A   1      46.479  24.693  25.669  1.00  0.00     0.309 A 
ATOM     77  O   UNL A   1      45.743  24.598  24.524  1.00  0.00    -0.442 OA
ENDBRANCH  66  69
ENDBRANCH  64  65
ENDBRANCH  63  64
ENDBRANCH  62  63
ENDBRANCH   1  62
TORSDOF 11
ENDMDL
