MODEL 1
REMARK VINA RESULT:     -12.5      0.000      0.000
REMARK SMILES Cc1ccc(NC(=O)[C@H]2CC=CC[C@H]2C(=O)NCCCCNC(=O)c2ccc(-c3c4nc(c(-c5c(F)cccc5F)c5ccc([nH]5)c(-c5c(F)cccc5F)c5nc(c(-c6c(F)cccc6F)c6ccc3[nH]6)C=C5)C=C4)cc2)cc1F
REMARK SMILES IDX 19 1 18 2 17 3 15 4 16 5 14 7 9 8 10 9 11 10 13 11 12 12
REMARK SMILES IDX 7 13 6 14 8 16 5 17 1 18 2 19 3 20 80 21 4 22 79 23 81 24
REMARK SMILES IDX 20 25 21 26 22 27 23 28 24 30 25 31 26 32 78 33 27 34 77 35
REMARK SMILES IDX 28 36 29 37 30 38 71 39 31 40 76 41 70 42 72 43 32 44 75 45
REMARK SMILES IDX 69 46 68 47 33 49 59 50 42 51 58 52 43 53 46 54 57 55 73 56
REMARK SMILES IDX 44 57 45 58 56 60 74 61 47 62 34 63 35 64 40 65 36 66 37 67
REMARK SMILES IDX 39 68 41 69 38 70 60 71 61 72 66 73 62 74 63 75 65 76 67 77
REMARK SMILES IDX 64 78 48 79 49 80 54 81 50 82 51 83 53 84 55 85 52 86
REMARK H PARENT 17 6 6 15 22 29 72 48 46 59
REMARK Flexibility Score: inf
ROOT
ATOM      1  C   UNL A   1      35.343  23.979  24.561  1.00  0.00     0.023 C 
ENDROOT
BRANCH   1   2
ATOM      2  C   UNL A   1      34.453  24.006  25.806  1.00  0.00     0.116 C 
BRANCH   2   3
ATOM      3  N   UNL A   1      33.042  24.187  25.524  1.00  0.00    -0.356 N 
ATOM      4  C   UNL A   1      32.307  25.313  25.331  1.00  0.00     0.224 C 
ATOM      5  O   UNL A   1      31.144  25.160  24.943  1.00  0.00    -0.275 OA
ATOM      6  H   UNL A   1      32.529  23.350  25.461  1.00  0.00     0.163 HD
BRANCH   4   7
ATOM      7  C   UNL A   1      32.876  26.718  25.506  1.00  0.00     0.095 C 
ATOM      8  C   UNL A   1      33.427  27.460  24.252  1.00  0.00     0.095 C 
ATOM      9  C   UNL A   1      33.241  29.003  24.249  1.00  0.00     0.041 C 
ATOM     10  C   UNL A   1      32.360  29.608  25.287  1.00  0.00    -0.030 C 
ATOM     11  C   UNL A   1      31.957  27.470  26.492  1.00  0.00     0.041 C 
ATOM     12  C   UNL A   1      31.791  28.931  26.284  1.00  0.00    -0.030 C 
BRANCH   8  13
ATOM     13  C   UNL A   1      33.110  26.892  22.861  1.00  0.00     0.228 C 
ATOM     14  N   UNL A   1      32.097  27.337  22.065  1.00  0.00    -0.326 N 
ATOM     15  H   UNL A   1      32.220  27.100  21.118  1.00  0.00     0.169 HD
ATOM     16  O   UNL A   1      33.810  25.995  22.372  1.00  0.00    -0.274 OA
BRANCH  14  17
ATOM     17  C   UNL A   1      30.921  28.058  22.298  1.00  0.00     0.044 A 
ATOM     18  C   UNL A   1      27.329  30.197  23.346  1.00  0.00     0.047 C 
ATOM     19  C   UNL A   1      28.553  29.421  22.975  1.00  0.00    -0.015 A 
ATOM     20  C   UNL A   1      28.733  28.094  23.372  1.00  0.00     0.008 A 
ATOM     21  C   UNL A   1      29.563  30.039  22.238  1.00  0.00     0.128 A 
ATOM     22  C   UNL A   1      29.918  27.424  23.048  1.00  0.00     0.026 A 
ATOM     23  C   UNL A   1      30.737  29.376  21.901  1.00  0.00     0.065 A 
ATOM     24  F   UNL A   1      29.427  31.321  21.870  1.00  0.00    -0.207 F 
ENDBRANCH  14  17
ENDBRANCH   8  13
ENDBRANCH   4   7
ENDBRANCH   2   3
ENDBRANCH   1   2
BRANCH   1  25
ATOM     25  C   UNL A   1      36.666  23.221  24.659  1.00  0.00     0.023 C 
BRANCH  25  26
ATOM     26  C   UNL A   1      37.478  23.693  25.836  1.00  0.00     0.116 C 
BRANCH  26  27
ATOM     27  N   UNL A   1      38.668  22.860  26.044  1.00  0.00    -0.352 N 
ATOM     28  C   UNL A   1      39.912  23.246  26.503  1.00  0.00     0.251 C 
ATOM     29  H   UNL A   1      38.567  21.905  25.829  1.00  0.00     0.163 HD
ATOM     30  O   UNL A   1      40.881  22.517  26.464  1.00  0.00    -0.269 OA
BRANCH  28  31
ATOM     31  C   UNL A   1      40.006  24.589  27.082  1.00  0.00     0.039 A 
ATOM     32  C   UNL A   1      40.484  25.683  26.356  1.00  0.00     0.014 A 
ATOM     33  C   UNL A   1      39.534  24.719  28.380  1.00  0.00     0.014 A 
ATOM     34  C   UNL A   1      40.453  26.938  26.957  1.00  0.00     0.010 A 
ATOM     35  C   UNL A   1      39.268  25.961  28.856  1.00  0.00     0.010 A 
ATOM     36  C   UNL A   1      39.836  27.054  28.206  1.00  0.00    -0.014 A 
BRANCH  36  37
ATOM     37  C   UNL A   1      39.821  28.247  29.025  1.00  0.00     0.031 A 
ATOM     38  C   UNL A   1      38.849  29.306  28.781  1.00  0.00     0.074 A 
ATOM     39  C   UNL A   1      40.689  28.253  30.062  1.00  0.00     0.049 A 
ATOM     40  N   UNL A   1      39.102  30.550  28.968  1.00  0.00    -0.248 NA
ATOM     41  C   UNL A   1      37.509  29.046  28.269  1.00  0.00     0.031 C 
ATOM     42  C   UNL A   1      40.776  29.117  31.221  1.00  0.00     0.029 A 
ATOM     43  N   UNL A   1      41.808  27.425  30.179  1.00  0.00    -0.354 N 
ATOM     44  C   UNL A   1      37.890  31.200  28.950  1.00  0.00     0.074 A 
ATOM     45  C   UNL A   1      36.966  30.268  28.344  1.00  0.00     0.031 C 
ATOM     46  C   UNL A   1      41.997  28.965  31.774  1.00  0.00     0.029 A 
ATOM     47  C   UNL A   1      42.787  28.116  30.891  1.00  0.00     0.049 A 
ATOM     48  H   UNL A   1      41.891  26.511  29.821  1.00  0.00     0.167 HD
ATOM     49  C   UNL A   1      37.766  32.363  29.651  1.00  0.00     0.037 A 
ATOM     50  C   UNL A   1      43.924  28.461  30.213  1.00  0.00     0.037 A 
ATOM     51  C   UNL A   1      38.996  32.634  30.399  1.00  0.00     0.049 A 
ATOM     52  C   UNL A   1      44.020  29.952  29.981  1.00  0.00     0.074 A 
ATOM     53  C   UNL A   1      39.381  32.388  31.708  1.00  0.00     0.029 A 
ATOM     54  N   UNL A   1      40.158  32.901  29.709  1.00  0.00    -0.354 N 
ATOM     55  N   UNL A   1      43.064  30.796  30.250  1.00  0.00    -0.248 NA
ATOM     56  C   UNL A   1      45.173  30.601  29.361  1.00  0.00     0.031 C 
ATOM     57  C   UNL A   1      40.797  32.529  31.787  1.00  0.00     0.029 A 
ATOM     58  C   UNL A   1      41.266  32.870  30.530  1.00  0.00     0.049 A 
ATOM     59  H   UNL A   1      40.194  33.093  28.744  1.00  0.00     0.167 HD
ATOM     60  C   UNL A   1      43.415  32.045  29.828  1.00  0.00     0.074 A 
ATOM     61  C   UNL A   1      44.746  31.872  29.271  1.00  0.00     0.031 C 
ATOM     62  C   UNL A   1      42.572  33.114  29.938  1.00  0.00     0.037 A 
BRANCH  49  63
ATOM     63  C   UNL A   1      36.477  33.102  29.911  1.00  0.00     0.057 A 
ATOM     64  C   UNL A   1      35.782  33.715  28.849  1.00  0.00     0.134 A 
ATOM     65  C   UNL A   1      35.851  33.234  31.163  1.00  0.00     0.134 A 
ATOM     66  F   UNL A   1      36.184  33.594  27.577  1.00  0.00    -0.206 F 
ATOM     67  C   UNL A   1      34.621  34.476  29.029  1.00  0.00     0.040 A 
ATOM     68  C   UNL A   1      34.710  34.026  31.365  1.00  0.00     0.040 A 
ATOM     69  F   UNL A   1      36.274  32.557  32.239  1.00  0.00    -0.206 F 
ATOM     70  C   UNL A   1      34.095  34.659  30.296  1.00  0.00     0.006 A 
ENDBRANCH  49  63
BRANCH  50  71
ATOM     71  C   UNL A   1      44.305  27.409  29.208  1.00  0.00     0.057 A 
ATOM     72  C   UNL A   1      44.061  27.674  27.844  1.00  0.00     0.134 A 
ATOM     73  C   UNL A   1      45.286  26.450  29.496  1.00  0.00     0.134 A 
ATOM     74  F   UNL A   1      43.134  28.578  27.490  1.00  0.00    -0.206 F 
ATOM     75  C   UNL A   1      44.866  27.142  26.830  1.00  0.00     0.040 A 
ATOM     76  C   UNL A   1      46.083  25.899  28.485  1.00  0.00     0.040 A 
ATOM     77  F   UNL A   1      45.575  26.129  30.765  1.00  0.00    -0.206 F 
ATOM     78  C   UNL A   1      45.909  26.282  27.156  1.00  0.00     0.006 A 
ENDBRANCH  50  71
BRANCH  62  79
ATOM     79  C   UNL A   1      42.918  34.495  29.459  1.00  0.00     0.057 A 
ATOM     80  C   UNL A   1      43.174  34.780  28.113  1.00  0.00     0.134 A 
ATOM     81  C   UNL A   1      43.104  35.571  30.352  1.00  0.00     0.134 A 
ATOM     82  F   UNL A   1      43.135  33.815  27.181  1.00  0.00    -0.206 F 
ATOM     83  C   UNL A   1      43.504  36.067  27.675  1.00  0.00     0.040 A 
ATOM     84  C   UNL A   1      43.496  36.843  29.936  1.00  0.00     0.040 A 
ATOM     85  F   UNL A   1      42.892  35.455  31.671  1.00  0.00    -0.206 F 
ATOM     86  C   UNL A   1      43.671  37.103  28.588  1.00  0.00     0.006 A 
ENDBRANCH  62  79
ENDBRANCH  36  37
ENDBRANCH  28  31
ENDBRANCH  26  27
ENDBRANCH  25  26
ENDBRANCH   1  25
TORSDOF 13
ENDMDL
MODEL 2
REMARK VINA RESULT:     -12.5      3.266      8.373
REMARK SMILES Cc1ccc(NC(=O)[C@H]2CC=CC[C@H]2C(=O)NCCCCNC(=O)c2ccc(-c3c4nc(c(-c5c(F)cccc5F)c5ccc([nH]5)c(-c5c(F)cccc5F)c5nc(c(-c6c(F)cccc6F)c6ccc3[nH]6)C=C5)C=C4)cc2)cc1F
REMARK SMILES IDX 19 1 18 2 17 3 15 4 16 5 14 7 9 8 10 9 11 10 13 11 12 12
REMARK SMILES IDX 7 13 6 14 8 16 5 17 1 18 2 19 3 20 80 21 4 22 79 23 81 24
REMARK SMILES IDX 20 25 21 26 22 27 23 28 24 30 25 31 26 32 78 33 27 34 77 35
REMARK SMILES IDX 28 36 29 37 30 38 71 39 31 40 76 41 70 42 72 43 32 44 75 45
REMARK SMILES IDX 69 46 68 47 33 49 59 50 42 51 58 52 43 53 46 54 57 55 73 56
REMARK SMILES IDX 44 57 45 58 56 60 74 61 47 62 34 63 35 64 40 65 36 66 37 67
REMARK SMILES IDX 39 68 41 69 38 70 60 71 61 72 66 73 62 74 63 75 65 76 67 77
REMARK SMILES IDX 64 78 48 79 49 80 54 81 50 82 51 83 53 84 55 85 52 86
REMARK H PARENT 17 6 6 15 22 29 72 48 46 59
REMARK Flexibility Score: inf
ROOT
ATOM      1  C   UNL A   1      34.891  30.709  27.623  1.00  0.00     0.023 C 
ENDROOT
BRANCH   1   2
ATOM      2  C   UNL A   1      34.489  29.319  27.125  1.00  0.00     0.116 C 
BRANCH   2   3
ATOM      3  N   UNL A   1      33.209  28.857  27.624  1.00  0.00    -0.356 N 
ATOM      4  C   UNL A   1      32.095  28.436  26.971  1.00  0.00     0.224 C 
ATOM      5  O   UNL A   1      31.197  27.942  27.661  1.00  0.00    -0.275 OA
ATOM      6  H   UNL A   1      33.133  28.847  28.605  1.00  0.00     0.163 HD
BRANCH   4   7
ATOM      7  C   UNL A   1      31.951  28.487  25.452  1.00  0.00     0.095 C 
ATOM      8  C   UNL A   1      31.631  27.168  24.689  1.00  0.00     0.095 C 
ATOM      9  C   UNL A   1      30.747  27.324  23.421  1.00  0.00     0.041 C 
ATOM     10  C   UNL A   1      30.089  28.638  23.178  1.00  0.00    -0.030 C 
ATOM     11  C   UNL A   1      31.174  29.775  25.105  1.00  0.00     0.041 C 
ATOM     12  C   UNL A   1      30.277  29.727  23.922  1.00  0.00    -0.030 C 
BRANCH   8  13
ATOM     13  C   UNL A   1      31.178  25.942  25.495  1.00  0.00     0.228 C 
ATOM     14  N   UNL A   1      31.969  24.863  25.758  1.00  0.00    -0.326 N 
ATOM     15  H   UNL A   1      31.651  24.330  26.521  1.00  0.00     0.169 HD
ATOM     16  O   UNL A   1      30.043  25.895  25.987  1.00  0.00    -0.274 OA
BRANCH  14  17
ATOM     17  C   UNL A   1      33.136  24.348  25.181  1.00  0.00     0.044 A 
ATOM     18  C   UNL A   1      36.653  22.941  23.126  1.00  0.00     0.047 C 
ATOM     19  C   UNL A   1      35.411  23.396  23.825  1.00  0.00    -0.015 A 
ATOM     20  C   UNL A   1      34.153  23.304  23.227  1.00  0.00     0.008 A 
ATOM     21  C   UNL A   1      35.505  23.959  25.099  1.00  0.00     0.128 A 
ATOM     22  C   UNL A   1      33.025  23.793  23.897  1.00  0.00     0.026 A 
ATOM     23  C   UNL A   1      34.388  24.434  25.775  1.00  0.00     0.065 A 
ATOM     24  F   UNL A   1      36.706  24.085  25.682  1.00  0.00    -0.207 F 
ENDBRANCH  14  17
ENDBRANCH   8  13
ENDBRANCH   4   7
ENDBRANCH   2   3
ENDBRANCH   1   2
BRANCH   1  25
ATOM     25  C   UNL A   1      33.767  31.682  27.977  1.00  0.00     0.023 C 
BRANCH  25  26
ATOM     26  C   UNL A   1      34.260  33.105  27.980  1.00  0.00     0.116 C 
BRANCH  26  27
ATOM     27  N   UNL A   1      33.909  33.799  29.224  1.00  0.00    -0.352 N 
ATOM     28  C   UNL A   1      34.417  33.592  30.491  1.00  0.00     0.251 C 
ATOM     29  H   UNL A   1      33.224  34.501  29.145  1.00  0.00     0.163 HD
ATOM     30  O   UNL A   1      33.928  34.090  31.484  1.00  0.00    -0.269 OA
BRANCH  28  31
ATOM     31  C   UNL A   1      35.616  32.756  30.584  1.00  0.00     0.039 A 
ATOM     32  C   UNL A   1      35.592  31.474  31.140  1.00  0.00     0.014 A 
ATOM     33  C   UNL A   1      36.770  33.294  30.031  1.00  0.00     0.014 A 
ATOM     34  C   UNL A   1      36.759  30.716  31.104  1.00  0.00     0.010 A 
ATOM     35  C   UNL A   1      37.813  32.468  29.769  1.00  0.00     0.010 A 
ATOM     36  C   UNL A   1      37.856  31.232  30.409  1.00  0.00    -0.014 A 
BRANCH  36  37
ATOM     37  C   UNL A   1      39.178  30.642  30.373  1.00  0.00     0.031 A 
ATOM     38  C   UNL A   1      39.419  29.400  29.650  1.00  0.00     0.074 A 
ATOM     39  C   UNL A   1      40.155  31.366  30.963  1.00  0.00     0.049 A 
ATOM     40  N   UNL A   1      40.273  28.520  30.029  1.00  0.00    -0.248 NA
ATOM     41  C   UNL A   1      38.684  29.030  28.446  1.00  0.00     0.031 C 
ATOM     42  C   UNL A   1      41.597  31.244  30.897  1.00  0.00     0.029 A 
ATOM     43  N   UNL A   1      39.950  32.391  31.890  1.00  0.00    -0.354 N 
ATOM     44  C   UNL A   1      40.454  27.670  28.962  1.00  0.00     0.074 A 
ATOM     45  C   UNL A   1      39.334  27.917  28.083  1.00  0.00     0.031 C 
ATOM     46  C   UNL A   1      42.131  31.947  31.917  1.00  0.00     0.029 A 
ATOM     47  C   UNL A   1      41.038  32.411  32.762  1.00  0.00     0.049 A 
ATOM     48  H   UNL A   1      39.172  32.994  31.923  1.00  0.00     0.167 HD
ATOM     49  C   UNL A   1      41.647  27.019  28.845  1.00  0.00     0.037 A 
ATOM     50  C   UNL A   1      40.798  32.069  34.066  1.00  0.00     0.037 A 
ATOM     51  C   UNL A   1      42.570  27.470  29.889  1.00  0.00     0.049 A 
ATOM     52  C   UNL A   1      41.414  30.736  34.428  1.00  0.00     0.074 A 
ATOM     53  C   UNL A   1      43.580  28.419  29.914  1.00  0.00     0.029 A 
ATOM     54  N   UNL A   1      42.283  27.192  31.208  1.00  0.00    -0.354 N 
ATOM     55  N   UNL A   1      41.971  29.931  33.568  1.00  0.00    -0.248 NA
ATOM     56  C   UNL A   1      41.388  30.175  35.777  1.00  0.00     0.031 C 
ATOM     57  C   UNL A   1      43.899  28.691  31.276  1.00  0.00     0.029 A 
ATOM     58  C   UNL A   1      43.090  27.900  32.074  1.00  0.00     0.049 A 
ATOM     59  H   UNL A   1      41.584  26.563  31.499  1.00  0.00     0.167 HD
ATOM     60  C   UNL A   1      42.331  28.769  34.185  1.00  0.00     0.074 A 
ATOM     61  C   UNL A   1      41.940  28.966  35.571  1.00  0.00     0.031 C 
ATOM     62  C   UNL A   1      42.890  27.725  33.504  1.00  0.00     0.037 A 
BRANCH  49  63
ATOM     63  C   UNL A   1      42.099  26.215  27.652  1.00  0.00     0.057 A 
ATOM     64  C   UNL A   1      42.140  24.807  27.718  1.00  0.00     0.134 A 
ATOM     65  C   UNL A   1      42.484  26.747  26.409  1.00  0.00     0.134 A 
ATOM     66  F   UNL A   1      41.704  24.136  28.792  1.00  0.00    -0.206 F 
ATOM     67  C   UNL A   1      42.616  24.004  26.676  1.00  0.00     0.040 A 
ATOM     68  C   UNL A   1      43.001  25.957  25.370  1.00  0.00     0.040 A 
ATOM     69  F   UNL A   1      42.325  28.043  26.115  1.00  0.00    -0.206 F 
ATOM     70  C   UNL A   1      43.077  24.579  25.504  1.00  0.00     0.006 A 
ENDBRANCH  49  63
BRANCH  50  71
ATOM     71  C   UNL A   1      39.443  32.540  34.517  1.00  0.00     0.057 A 
ATOM     72  C   UNL A   1      39.234  33.928  34.657  1.00  0.00     0.134 A 
ATOM     73  C   UNL A   1      38.301  31.748  34.335  1.00  0.00     0.134 A 
ATOM     74  F   UNL A   1      40.280  34.750  34.838  1.00  0.00    -0.206 F 
ATOM     75  C   UNL A   1      37.979  34.513  34.456  1.00  0.00     0.040 A 
ATOM     76  C   UNL A   1      37.038  32.324  34.151  1.00  0.00     0.040 A 
ATOM     77  F   UNL A   1      38.406  30.418  34.203  1.00  0.00    -0.206 F 
ATOM     78  C   UNL A   1      36.883  33.710  34.160  1.00  0.00     0.006 A 
ENDBRANCH  50  71
BRANCH  62  79
ATOM     79  C   UNL A   1      43.272  26.425  34.149  1.00  0.00     0.057 A 
ATOM     80  C   UNL A   1      44.577  25.920  34.107  1.00  0.00     0.134 A 
ATOM     81  C   UNL A   1      42.316  25.580  34.752  1.00  0.00     0.134 A 
ATOM     82  F   UNL A   1      45.554  26.581  33.466  1.00  0.00    -0.206 F 
ATOM     83  C   UNL A   1      44.924  24.703  34.702  1.00  0.00     0.040 A 
ATOM     84  C   UNL A   1      42.637  24.335  35.292  1.00  0.00     0.040 A 
ATOM     85  F   UNL A   1      41.027  25.927  34.873  1.00  0.00    -0.206 F 
ATOM     86  C   UNL A   1      43.952  23.904  35.294  1.00  0.00     0.006 A 
ENDBRANCH  62  79
ENDBRANCH  36  37
ENDBRANCH  28  31
ENDBRANCH  26  27
ENDBRANCH  25  26
ENDBRANCH   1  25
TORSDOF 13
ENDMDL
MODEL 3
REMARK VINA RESULT:     -12.5      2.797      7.757
REMARK SMILES Cc1ccc(NC(=O)[C@H]2CC=CC[C@H]2C(=O)NCCCCNC(=O)c2ccc(-c3c4nc(c(-c5c(F)cccc5F)c5ccc([nH]5)c(-c5c(F)cccc5F)c5nc(c(-c6c(F)cccc6F)c6ccc3[nH]6)C=C5)C=C4)cc2)cc1F
REMARK SMILES IDX 19 1 18 2 17 3 15 4 16 5 14 7 9 8 10 9 11 10 13 11 12 12
REMARK SMILES IDX 7 13 6 14 8 16 5 17 1 18 2 19 3 20 80 21 4 22 79 23 81 24
REMARK SMILES IDX 20 25 21 26 22 27 23 28 24 30 25 31 26 32 78 33 27 34 77 35
REMARK SMILES IDX 28 36 29 37 30 38 71 39 31 40 76 41 70 42 72 43 32 44 75 45
REMARK SMILES IDX 69 46 68 47 33 49 59 50 42 51 58 52 43 53 46 54 57 55 73 56
REMARK SMILES IDX 44 57 45 58 56 60 74 61 47 62 34 63 35 64 40 65 36 66 37 67
REMARK SMILES IDX 39 68 41 69 38 70 60 71 61 72 66 73 62 74 63 75 65 76 67 77
REMARK SMILES IDX 64 78 48 79 49 80 54 81 50 82 51 83 53 84 55 85 52 86
REMARK H PARENT 17 6 6 15 22 29 72 48 46 59
REMARK Flexibility Score: inf
ROOT
ATOM      1  C   UNL A   1      32.133  30.524  26.750  1.00  0.00     0.023 C 
ENDROOT
BRANCH   1   2
ATOM      2  C   UNL A   1      31.661  29.963  25.406  1.00  0.00     0.116 C 
BRANCH   2   3
ATOM      3  N   UNL A   1      32.736  29.560  24.521  1.00  0.00    -0.356 N 
ATOM      4  C   UNL A   1      33.203  28.330  24.183  1.00  0.00     0.224 C 
ATOM      5  O   UNL A   1      34.034  28.279  23.271  1.00  0.00    -0.275 OA
ATOM      6  H   UNL A   1      33.210  30.308  24.089  1.00  0.00     0.163 HD
BRANCH   4   7
ATOM      7  C   UNL A   1      32.696  27.043  24.828  1.00  0.00     0.095 C 
ATOM      8  C   UNL A   1      31.784  26.099  23.989  1.00  0.00     0.095 C 
ATOM      9  C   UNL A   1      31.942  24.581  24.280  1.00  0.00     0.041 C 
ATOM     10  C   UNL A   1      33.087  24.141  25.126  1.00  0.00    -0.030 C 
ATOM     11  C   UNL A   1      33.861  26.446  25.647  1.00  0.00     0.041 C 
ATOM     12  C   UNL A   1      33.939  24.966  25.734  1.00  0.00    -0.030 C 
BRANCH   8  13
ATOM     13  C   UNL A   1      31.674  26.333  22.476  1.00  0.00     0.228 C 
ATOM     14  N   UNL A   1      31.059  27.411  21.910  1.00  0.00    -0.326 N 
ATOM     15  H   UNL A   1      31.340  27.570  20.981  1.00  0.00     0.169 HD
ATOM     16  O   UNL A   1      32.189  25.541  21.676  1.00  0.00    -0.274 OA
BRANCH  14  17
ATOM     17  C   UNL A   1      30.115  28.341  22.362  1.00  0.00     0.044 A 
ATOM     18  C   UNL A   1      27.217  31.343  23.437  1.00  0.00     0.047 C 
ATOM     19  C   UNL A   1      28.253  30.327  23.076  1.00  0.00    -0.015 A 
ATOM     20  C   UNL A   1      29.459  30.686  22.471  1.00  0.00     0.008 A 
ATOM     21  C   UNL A   1      28.006  28.975  23.320  1.00  0.00     0.128 A 
ATOM     22  C   UNL A   1      30.376  29.696  22.102  1.00  0.00     0.026 A 
ATOM     23  C   UNL A   1      28.918  27.987  22.967  1.00  0.00     0.065 A 
ATOM     24  F   UNL A   1      26.843  28.602  23.873  1.00  0.00    -0.207 F 
ENDBRANCH  14  17
ENDBRANCH   8  13
ENDBRANCH   4   7
ENDBRANCH   2   3
ENDBRANCH   1   2
BRANCH   1  25
ATOM     25  C   UNL A   1      33.250  29.772  27.473  1.00  0.00     0.023 C 
BRANCH  25  26
ATOM     26  C   UNL A   1      34.491  30.617  27.582  1.00  0.00     0.116 C 
BRANCH  26  27
ATOM     27  N   UNL A   1      34.390  31.593  28.673  1.00  0.00    -0.352 N 
ATOM     28  C   UNL A   1      35.196  31.718  29.787  1.00  0.00     0.251 C 
ATOM     29  H   UNL A   1      33.653  32.241  28.601  1.00  0.00     0.163 HD
ATOM     30  O   UNL A   1      34.917  32.439  30.722  1.00  0.00    -0.269 OA
BRANCH  28  31
ATOM     31  C   UNL A   1      36.445  30.952  29.777  1.00  0.00     0.039 A 
ATOM     32  C   UNL A   1      36.586  29.743  30.463  1.00  0.00     0.014 A 
ATOM     33  C   UNL A   1      37.464  31.474  28.993  1.00  0.00     0.014 A 
ATOM     34  C   UNL A   1      37.778  29.039  30.322  1.00  0.00     0.010 A 
ATOM     35  C   UNL A   1      38.505  30.672  28.658  1.00  0.00     0.010 A 
ATOM     36  C   UNL A   1      38.723  29.520  29.411  1.00  0.00    -0.014 A 
BRANCH  36  37
ATOM     37  C   UNL A   1      40.057  28.990  29.229  1.00  0.00     0.031 A 
ATOM     38  C   UNL A   1      40.259  27.606  28.820  1.00  0.00     0.074 A 
ATOM     39  C   UNL A   1      41.063  29.883  29.368  1.00  0.00     0.049 A 
ATOM     40  N   UNL A   1      41.254  26.895  29.210  1.00  0.00    -0.248 NA
ATOM     41  C   UNL A   1      39.325  26.893  27.956  1.00  0.00     0.031 C 
ATOM     42  C   UNL A   1      42.463  29.798  29.008  1.00  0.00     0.029 A 
ATOM     43  N   UNL A   1      40.960  31.116  30.018  1.00  0.00    -0.354 N 
ATOM     44  C   UNL A   1      41.287  25.790  28.390  1.00  0.00     0.074 A 
ATOM     45  C   UNL A   1      39.988  25.745  27.758  1.00  0.00     0.031 C 
ATOM     46  C   UNL A   1      43.130  30.774  29.659  1.00  0.00     0.029 A 
ATOM     47  C   UNL A   1      42.200  31.415  30.580  1.00  0.00     0.049 A 
ATOM     48  H   UNL A   1      40.152  31.676  30.069  1.00  0.00     0.167 HD
ATOM     49  C   UNL A   1      42.485  25.175  28.177  1.00  0.00     0.037 A 
ATOM     50  C   UNL A   1      42.275  31.438  31.947  1.00  0.00     0.037 A 
ATOM     51  C   UNL A   1      43.560  25.928  28.827  1.00  0.00     0.049 A 
ATOM     52  C   UNL A   1      43.079  30.279  32.494  1.00  0.00     0.074 A 
ATOM     53  C   UNL A   1      44.457  26.882  28.370  1.00  0.00     0.029 A 
ATOM     54  N   UNL A   1      43.585  26.016  30.202  1.00  0.00    -0.354 N 
ATOM     55  N   UNL A   1      43.517  29.287  31.770  1.00  0.00    -0.248 NA
ATOM     56  C   UNL A   1      43.392  30.111  33.911  1.00  0.00     0.031 C 
ATOM     57  C   UNL A   1      45.028  27.531  29.504  1.00  0.00     0.029 A 
ATOM     58  C   UNL A   1      44.485  26.963  30.643  1.00  0.00     0.049 A 
ATOM     59  H   UNL A   1      43.028  25.467  30.799  1.00  0.00     0.167 HD
ATOM     60  C   UNL A   1      44.109  28.355  32.570  1.00  0.00     0.074 A 
ATOM     61  C   UNL A   1      44.001  28.913  33.908  1.00  0.00     0.031 C 
ATOM     62  C   UNL A   1      44.609  27.184  32.076  1.00  0.00     0.037 A 
BRANCH  49  63
ATOM     63  C   UNL A   1      42.750  24.089  27.165  1.00  0.00     0.057 A 
ATOM     64  C   UNL A   1      42.800  22.738  27.568  1.00  0.00     0.134 A 
ATOM     65  C   UNL A   1      42.942  24.288  25.787  1.00  0.00     0.134 A 
ATOM     66  F   UNL A   1      42.532  22.365  28.826  1.00  0.00    -0.206 F 
ATOM     67  C   UNL A   1      43.112  21.689  26.697  1.00  0.00     0.040 A 
ATOM     68  C   UNL A   1      43.295  23.250  24.909  1.00  0.00     0.040 A 
ATOM     69  F   UNL A   1      42.741  25.479  25.210  1.00  0.00    -0.206 F 
ATOM     70  C   UNL A   1      43.390  21.945  25.365  1.00  0.00     0.006 A 
ENDBRANCH  49  63
BRANCH  50  71
ATOM     71  C   UNL A   1      41.006  31.967  32.558  1.00  0.00     0.057 A 
ATOM     72  C   UNL A   1      40.732  33.345  32.431  1.00  0.00     0.134 A 
ATOM     73  C   UNL A   1      39.910  31.128  32.796  1.00  0.00     0.134 A 
ATOM     74  F   UNL A   1      41.733  34.211  32.204  1.00  0.00    -0.206 F 
ATOM     75  C   UNL A   1      39.425  33.838  32.373  1.00  0.00     0.040 A 
ATOM     76  C   UNL A   1      38.598  31.617  32.759  1.00  0.00     0.040 A 
ATOM     77  F   UNL A   1      40.080  29.806  32.940  1.00  0.00    -0.206 F 
ATOM     78  C   UNL A   1      38.351  32.964  32.497  1.00  0.00     0.006 A 
ENDBRANCH  50  71
BRANCH  62  79
ATOM     79  C   UNL A   1      45.242  26.126  32.933  1.00  0.00     0.057 A 
ATOM     80  C   UNL A   1      46.587  25.763  32.806  1.00  0.00     0.134 A 
ATOM     81  C   UNL A   1      44.492  25.360  33.852  1.00  0.00     0.134 A 
ATOM     82  F   UNL A   1      47.378  26.343  31.890  1.00  0.00    -0.206 F 
ATOM     83  C   UNL A   1      47.168  24.770  33.603  1.00  0.00     0.040 A 
ATOM     84  C   UNL A   1      45.044  24.325  34.605  1.00  0.00     0.040 A 
ATOM     85  F   UNL A   1      43.193  25.593  34.087  1.00  0.00    -0.206 F 
ATOM     86  C   UNL A   1      46.395  24.044  34.502  1.00  0.00     0.006 A 
ENDBRANCH  62  79
ENDBRANCH  36  37
ENDBRANCH  28  31
ENDBRANCH  26  27
ENDBRANCH  25  26
ENDBRANCH   1  25
TORSDOF 13
ENDMDL
