MODEL 1
REMARK VINA RESULT:     -12.0      0.000      0.000
REMARK SMILES C[C@@H]([C@H]1CC=CS1)n1nccc1NC(=O)CC1(CC(=O)NCCCCNC(=O)c2ccc(-c3c4nc(c(-c5c(F)cccc5F)c5ccc([nH]5)c(-c5c(F)cccc5F)c5nc(c(-c6c(F)cccc6F)c6ccc3[nH]6)C=C5)C=C4)cc2)CCCCC1
REMARK SMILES IDX 19 1 20 2 21 3 18 5 17 6 83 7 87 8 84 9 86 10 85 11 16 12
REMARK SMILES IDX 14 13 13 14 15 16 12 17 8 18 9 19 10 20 11 21 2 22 1 23 3 24
REMARK SMILES IDX 4 25 7 26 5 27 6 28 22 29 23 30 24 31 25 32 26 33 27 34
REMARK SMILES IDX 28 36 29 37 30 38 82 39 31 40 81 41 32 42 33 43 34 44 75 45
REMARK SMILES IDX 35 46 80 47 74 48 76 49 36 50 79 51 73 52 72 53 37 55 63 56
REMARK SMILES IDX 46 57 62 58 47 59 50 60 61 61 77 62 48 63 49 64 60 66 78 67
REMARK SMILES IDX 51 68 38 69 39 70 44 71 40 72 41 73 43 74 45 75 42 76 64 77
REMARK SMILES IDX 65 78 70 79 66 80 67 81 69 82 71 83 68 84 52 85 53 86 58 87
REMARK SMILES IDX 54 88 55 89 57 90 59 91 56 92
REMARK H PARENT 21 4 13 15 26 35 76 54 50 65
REMARK Flexibility Score: inf
ROOT
ATOM      1  C   UNL A   1      31.958  28.187  27.351  1.00  0.00     0.220 C 
ATOM      2  O   UNL A   1      31.038  27.894  28.119  1.00  0.00    -0.275 OA
ATOM      3  N   UNL A   1      33.136  28.568  27.905  1.00  0.00    -0.356 N 
ATOM      4  H   UNL A   1      33.132  28.592  28.890  1.00  0.00     0.163 HD
ENDROOT
BRANCH   1   5
ATOM      5  C   UNL A   1      31.741  28.099  25.845  1.00  0.00     0.107 C 
BRANCH   5   6
ATOM      6  C   UNL A   1      31.824  26.703  25.151  1.00  0.00    -0.012 C 
ATOM      7  C   UNL A   1      32.707  26.825  23.884  1.00  0.00     0.008 C 
ATOM      8  C   UNL A   1      30.455  26.211  24.610  1.00  0.00     0.008 C 
ATOM      9  C   UNL A   1      32.149  27.703  22.766  1.00  0.00     0.001 C 
ATOM     10  C   UNL A   1      29.836  27.094  23.525  1.00  0.00     0.001 C 
ATOM     11  C   UNL A   1      30.771  27.223  22.331  1.00  0.00     0.000 C 
BRANCH   6  12
ATOM     12  C   UNL A   1      32.359  25.596  26.124  1.00  0.00     0.108 C 
BRANCH  12  13
ATOM     13  C   UNL A   1      31.536  24.337  26.345  1.00  0.00     0.226 C 
ATOM     14  N   UNL A   1      31.693  23.142  25.572  1.00  0.00    -0.311 N 
ATOM     15  H   UNL A   1      31.213  22.348  25.903  1.00  0.00     0.171 HD
ATOM     16  O   UNL A   1      30.673  24.239  27.202  1.00  0.00    -0.275 OA
BRANCH  14  17
ATOM     17  C   UNL A   1      32.432  22.962  24.420  1.00  0.00     0.131 A 
ATOM     18  N   UNL A   1      33.683  22.376  24.331  1.00  0.00    -0.246 N 
ATOM     19  N   UNL A   1      34.255  22.582  23.124  1.00  0.00    -0.179 NA
ATOM     20  C   UNL A   1      33.266  23.082  22.382  1.00  0.00     0.137 A 
ATOM     21  C   UNL A   1      32.088  23.280  23.126  1.00  0.00     0.068 A 
BRANCH  18  22
ATOM     22  C   UNL A   1      34.279  21.430  25.270  1.00  0.00     0.120 C 
ATOM     23  C   UNL A   1      34.271  20.009  24.680  1.00  0.00     0.034 C 
BRANCH  22  24
ATOM     24  C   UNL A   1      35.661  21.780  25.862  1.00  0.00     0.079 C 
ATOM     25  C   UNL A   1      36.884  21.087  25.240  1.00  0.00     0.045 C 
ATOM     26  S   UNL A   1      36.111  23.555  25.968  1.00  0.00    -0.128 SA
ATOM     27  C   UNL A   1      38.077  21.951  25.514  1.00  0.00    -0.019 C 
ATOM     28  C   UNL A   1      37.806  23.212  25.864  1.00  0.00     0.037 C 
ENDBRANCH  22  24
ENDBRANCH  18  22
ENDBRANCH  14  17
ENDBRANCH  12  13
ENDBRANCH   6  12
ENDBRANCH   5   6
ENDBRANCH   1   5
BRANCH   3  29
ATOM     29  C   UNL A   1      34.400  28.947  27.304  1.00  0.00     0.116 C 
BRANCH  29  30
ATOM     30  C   UNL A   1      34.427  30.432  26.927  1.00  0.00     0.023 C 
BRANCH  30  31
ATOM     31  C   UNL A   1      33.687  31.398  27.852  1.00  0.00     0.023 C 
BRANCH  31  32
ATOM     32  C   UNL A   1      34.456  32.657  28.226  1.00  0.00     0.116 C 
BRANCH  32  33
ATOM     33  N   UNL A   1      34.503  32.910  29.666  1.00  0.00    -0.352 N 
ATOM     34  C   UNL A   1      35.267  32.238  30.607  1.00  0.00     0.251 C 
ATOM     35  H   UNL A   1      33.930  33.635  30.004  1.00  0.00     0.163 HD
ATOM     36  O   UNL A   1      35.020  32.276  31.796  1.00  0.00    -0.269 OA
BRANCH  34  37
ATOM     37  C   UNL A   1      36.415  31.474  30.092  1.00  0.00     0.039 A 
ATOM     38  C   UNL A   1      37.623  32.107  29.801  1.00  0.00     0.014 A 
ATOM     39  C   UNL A   1      36.307  30.088  30.129  1.00  0.00     0.014 A 
ATOM     40  C   UNL A   1      38.765  31.323  29.652  1.00  0.00     0.010 A 
ATOM     41  C   UNL A   1      37.460  29.333  30.105  1.00  0.00     0.010 A 
ATOM     42  C   UNL A   1      38.697  29.933  29.849  1.00  0.00    -0.014 A 
BRANCH  42  43
ATOM     43  C   UNL A   1      39.930  29.135  29.877  1.00  0.00     0.031 A 
ATOM     44  C   UNL A   1      40.584  28.913  31.210  1.00  0.00     0.074 A 
ATOM     45  C   UNL A   1      40.405  28.445  28.817  1.00  0.00     0.049 A 
ATOM     46  N   UNL A   1      41.766  29.284  31.589  1.00  0.00    -0.248 NA
ATOM     47  C   UNL A   1      39.821  28.219  32.258  1.00  0.00     0.031 C 
ATOM     48  C   UNL A   1      39.807  28.247  27.491  1.00  0.00     0.029 A 
ATOM     49  N   UNL A   1      41.531  27.680  28.755  1.00  0.00    -0.354 N 
ATOM     50  C   UNL A   1      41.964  28.757  32.867  1.00  0.00     0.074 A 
ATOM     51  C   UNL A   1      40.700  28.188  33.263  1.00  0.00     0.031 C 
ATOM     52  C   UNL A   1      40.445  27.244  26.852  1.00  0.00     0.029 A 
ATOM     53  C   UNL A   1      41.613  26.881  27.629  1.00  0.00     0.049 A 
ATOM     54  H   UNL A   1      42.227  27.696  29.451  1.00  0.00     0.167 HD
ATOM     55  C   UNL A   1      43.197  28.697  33.449  1.00  0.00     0.037 A 
ATOM     56  C   UNL A   1      42.576  25.981  27.333  1.00  0.00     0.037 A 
ATOM     57  C   UNL A   1      44.143  29.544  32.776  1.00  0.00     0.049 A 
ATOM     58  C   UNL A   1      43.781  26.345  28.110  1.00  0.00     0.074 A 
ATOM     59  C   UNL A   1      44.246  30.901  32.540  1.00  0.00     0.029 A 
ATOM     60  N   UNL A   1      45.056  28.958  31.937  1.00  0.00    -0.354 N 
ATOM     61  N   UNL A   1      44.479  27.428  27.908  1.00  0.00    -0.248 NA
ATOM     62  C   UNL A   1      43.990  25.698  29.395  1.00  0.00     0.031 C 
ATOM     63  C   UNL A   1      44.818  31.002  31.237  1.00  0.00     0.029 A 
ATOM     64  C   UNL A   1      45.057  29.702  30.787  1.00  0.00     0.049 A 
ATOM     65  H   UNL A   1      45.602  28.162  32.124  1.00  0.00     0.167 HD
ATOM     66  C   UNL A   1      44.895  27.824  29.170  1.00  0.00     0.074 A 
ATOM     67  C   UNL A   1      44.662  26.664  30.025  1.00  0.00     0.031 C 
ATOM     68  C   UNL A   1      45.135  29.137  29.459  1.00  0.00     0.037 A 
BRANCH  55  69
ATOM     69  C   UNL A   1      43.652  27.667  34.456  1.00  0.00     0.057 A 
ATOM     70  C   UNL A   1      43.742  26.310  34.081  1.00  0.00     0.134 A 
ATOM     71  C   UNL A   1      43.725  27.907  35.841  1.00  0.00     0.134 A 
ATOM     72  F   UNL A   1      43.673  25.945  32.791  1.00  0.00    -0.206 F 
ATOM     73  C   UNL A   1      43.826  25.271  35.016  1.00  0.00     0.040 A 
ATOM     74  C   UNL A   1      43.857  26.879  36.782  1.00  0.00     0.040 A 
ATOM     75  F   UNL A   1      43.572  29.133  36.357  1.00  0.00    -0.206 F 
ATOM     76  C   UNL A   1      43.877  25.553  36.374  1.00  0.00     0.006 A 
ENDBRANCH  55  69
BRANCH  56  77
ATOM     77  C   UNL A   1      42.426  24.707  26.607  1.00  0.00     0.057 A 
ATOM     78  C   UNL A   1      43.182  24.423  25.467  1.00  0.00     0.134 A 
ATOM     79  C   UNL A   1      41.716  23.632  27.173  1.00  0.00     0.134 A 
ATOM     80  F   UNL A   1      43.917  25.379  24.883  1.00  0.00    -0.206 F 
ATOM     81  C   UNL A   1      43.248  23.132  24.926  1.00  0.00     0.040 A 
ATOM     82  C   UNL A   1      41.770  22.341  26.642  1.00  0.00     0.040 A 
ATOM     83  F   UNL A   1      41.015  23.785  28.306  1.00  0.00    -0.206 F 
ATOM     84  C   UNL A   1      42.550  22.084  25.521  1.00  0.00     0.006 A 
ENDBRANCH  56  77
BRANCH  68  85
ATOM     85  C   UNL A   1      45.199  30.117  28.323  1.00  0.00     0.057 A 
ATOM     86  C   UNL A   1      44.085  30.811  27.829  1.00  0.00     0.134 A 
ATOM     87  C   UNL A   1      46.453  30.509  27.840  1.00  0.00     0.134 A 
ATOM     88  F   UNL A   1      42.856  30.577  28.304  1.00  0.00    -0.206 F 
ATOM     89  C   UNL A   1      44.210  31.825  26.875  1.00  0.00     0.040 A 
ATOM     90  C   UNL A   1      46.594  31.541  26.909  1.00  0.00     0.040 A 
ATOM     91  F   UNL A   1      47.569  29.932  28.312  1.00  0.00    -0.206 F 
ATOM     92  C   UNL A   1      45.470  32.199  26.417  1.00  0.00     0.006 A 
ENDBRANCH  68  85
ENDBRANCH  42  43
ENDBRANCH  34  37
ENDBRANCH  32  33
ENDBRANCH  31  32
ENDBRANCH  30  31
ENDBRANCH  29  30
ENDBRANCH   3  29
TORSDOF 17
ENDMDL
MODEL 2
REMARK VINA RESULT:     -12.0      2.999      8.084
REMARK SMILES C[C@@H]([C@H]1CC=CS1)n1nccc1NC(=O)CC1(CC(=O)NCCCCNC(=O)c2ccc(-c3c4nc(c(-c5c(F)cccc5F)c5ccc([nH]5)c(-c5c(F)cccc5F)c5nc(c(-c6c(F)cccc6F)c6ccc3[nH]6)C=C5)C=C4)cc2)CCCCC1
REMARK SMILES IDX 19 1 20 2 21 3 18 5 17 6 83 7 87 8 84 9 86 10 85 11 16 12
REMARK SMILES IDX 14 13 13 14 15 16 12 17 8 18 9 19 10 20 11 21 2 22 1 23 3 24
REMARK SMILES IDX 4 25 7 26 5 27 6 28 22 29 23 30 24 31 25 32 26 33 27 34
REMARK SMILES IDX 28 36 29 37 30 38 82 39 31 40 81 41 32 42 33 43 34 44 75 45
REMARK SMILES IDX 35 46 80 47 74 48 76 49 36 50 79 51 73 52 72 53 37 55 63 56
REMARK SMILES IDX 46 57 62 58 47 59 50 60 61 61 77 62 48 63 49 64 60 66 78 67
REMARK SMILES IDX 51 68 38 69 39 70 44 71 40 72 41 73 43 74 45 75 42 76 64 77
REMARK SMILES IDX 65 78 70 79 66 80 67 81 69 82 71 83 68 84 52 85 53 86 58 87
REMARK SMILES IDX 54 88 55 89 57 90 59 91 56 92
REMARK H PARENT 21 4 13 15 26 35 76 54 50 65
REMARK Flexibility Score: inf
ROOT
ATOM      1  C   UNL A   1      36.527  22.973  23.572  1.00  0.00     0.220 C 
ATOM      2  O   UNL A   1      36.839  23.040  22.381  1.00  0.00    -0.275 OA
ATOM      3  N   UNL A   1      37.398  23.489  24.475  1.00  0.00    -0.356 N 
ATOM      4  H   UNL A   1      38.222  23.856  24.081  1.00  0.00     0.163 HD
ENDROOT
BRANCH   1   5
ATOM      5  C   UNL A   1      35.199  22.339  23.970  1.00  0.00     0.107 C 
BRANCH   5   6
ATOM      6  C   UNL A   1      33.935  23.249  24.091  1.00  0.00    -0.012 C 
ATOM      7  C   UNL A   1      33.406  23.181  25.546  1.00  0.00     0.008 C 
ATOM      8  C   UNL A   1      32.742  22.748  23.234  1.00  0.00     0.008 C 
ATOM      9  C   UNL A   1      32.867  21.825  25.996  1.00  0.00     0.001 C 
ATOM     10  C   UNL A   1      32.206  21.368  23.619  1.00  0.00     0.001 C 
ATOM     11  C   UNL A   1      31.756  21.346  25.072  1.00  0.00     0.000 C 
BRANCH   6  12
ATOM     12  C   UNL A   1      34.231  24.724  23.651  1.00  0.00     0.108 C 
BRANCH  12  13
ATOM     13  C   UNL A   1      33.314  25.399  22.644  1.00  0.00     0.226 C 
ATOM     14  N   UNL A   1      32.088  26.048  22.998  1.00  0.00    -0.311 N 
ATOM     15  H   UNL A   1      31.658  26.576  22.287  1.00  0.00     0.171 HD
ATOM     16  O   UNL A   1      33.549  25.447  21.447  1.00  0.00    -0.275 OA
BRANCH  14  17
ATOM     17  C   UNL A   1      31.431  26.025  24.213  1.00  0.00     0.131 A 
ATOM     18  N   UNL A   1      31.625  26.900  25.267  1.00  0.00    -0.246 N 
ATOM     19  N   UNL A   1      31.035  26.465  26.403  1.00  0.00    -0.179 NA
ATOM     20  C   UNL A   1      30.270  25.450  25.998  1.00  0.00     0.137 A 
ATOM     21  C   UNL A   1      30.431  25.174  24.627  1.00  0.00     0.068 A 
BRANCH  18  22
ATOM     22  C   UNL A   1      32.165  28.254  25.197  1.00  0.00     0.120 C 
ATOM     23  C   UNL A   1      31.118  29.221  24.617  1.00  0.00     0.034 C 
BRANCH  22  24
ATOM     24  C   UNL A   1      32.814  28.836  26.472  1.00  0.00     0.079 C 
ATOM     25  C   UNL A   1      34.319  28.592  26.663  1.00  0.00     0.045 C 
ATOM     26  S   UNL A   1      32.563  30.621  26.810  1.00  0.00    -0.128 SA
ATOM     27  C   UNL A   1      34.836  29.670  27.568  1.00  0.00    -0.019 C 
ATOM     28  C   UNL A   1      34.048  30.741  27.695  1.00  0.00     0.037 C 
ENDBRANCH  22  24
ENDBRANCH  18  22
ENDBRANCH  14  17
ENDBRANCH  12  13
ENDBRANCH   6  12
ENDBRANCH   5   6
ENDBRANCH   1   5
BRANCH   3  29
ATOM     29  C   UNL A   1      37.330  23.594  25.921  1.00  0.00     0.116 C 
BRANCH  29  30
ATOM     30  C   UNL A   1      38.688  23.314  26.575  1.00  0.00     0.023 C 
BRANCH  30  31
ATOM     31  C   UNL A   1      39.438  22.066  26.112  1.00  0.00     0.023 C 
BRANCH  31  32
ATOM     32  C   UNL A   1      40.755  21.798  26.828  1.00  0.00     0.116 C 
BRANCH  32  33
ATOM     33  N   UNL A   1      41.934  22.174  26.048  1.00  0.00    -0.352 N 
ATOM     34  C   UNL A   1      42.368  23.457  25.759  1.00  0.00     0.251 C 
ATOM     35  H   UNL A   1      42.478  21.436  25.690  1.00  0.00     0.163 HD
ATOM     36  O   UNL A   1      43.146  23.695  24.856  1.00  0.00    -0.269 OA
BRANCH  34  37
ATOM     37  C   UNL A   1      41.845  24.534  26.615  1.00  0.00     0.039 A 
ATOM     38  C   UNL A   1      42.315  24.704  27.917  1.00  0.00     0.014 A 
ATOM     39  C   UNL A   1      41.045  25.489  25.996  1.00  0.00     0.014 A 
ATOM     40  C   UNL A   1      42.060  25.913  28.563  1.00  0.00     0.010 A 
ATOM     41  C   UNL A   1      40.908  26.724  26.592  1.00  0.00     0.010 A 
ATOM     42  C   UNL A   1      41.393  26.947  27.884  1.00  0.00    -0.014 A 
BRANCH  42  43
ATOM     43  C   UNL A   1      41.291  28.279  28.497  1.00  0.00     0.031 A 
ATOM     44  C   UNL A   1      42.395  29.258  28.218  1.00  0.00     0.074 A 
ATOM     45  C   UNL A   1      40.191  28.733  29.136  1.00  0.00     0.049 A 
ATOM     46  N   UNL A   1      43.204  29.809  29.067  1.00  0.00    -0.248 NA
ATOM     47  C   UNL A   1      42.650  29.649  26.824  1.00  0.00     0.031 C 
ATOM     48  C   UNL A   1      38.875  28.099  29.289  1.00  0.00     0.029 A 
ATOM     49  N   UNL A   1      40.009  29.947  29.727  1.00  0.00    -0.354 N 
ATOM     50  C   UNL A   1      43.979  30.724  28.351  1.00  0.00     0.074 A 
ATOM     51  C   UNL A   1      43.656  30.517  26.961  1.00  0.00     0.031 C 
ATOM     52  C   UNL A   1      37.979  29.014  29.713  1.00  0.00     0.029 A 
ATOM     53  C   UNL A   1      38.695  30.226  30.058  1.00  0.00     0.049 A 
ATOM     54  H   UNL A   1      40.749  30.572  29.902  1.00  0.00     0.167 HD
ATOM     55  C   UNL A   1      44.724  31.688  28.965  1.00  0.00     0.037 A 
ATOM     56  C   UNL A   1      38.211  31.368  30.592  1.00  0.00     0.037 A 
ATOM     57  C   UNL A   1      44.899  31.412  30.364  1.00  0.00     0.049 A 
ATOM     58  C   UNL A   1      39.338  32.066  31.250  1.00  0.00     0.074 A 
ATOM     59  C   UNL A   1      45.486  30.399  31.096  1.00  0.00     0.029 A 
ATOM     60  N   UNL A   1      44.144  32.121  31.265  1.00  0.00    -0.354 N 
ATOM     61  N   UNL A   1      39.953  31.619  32.309  1.00  0.00    -0.248 NA
ATOM     62  C   UNL A   1      40.055  33.077  30.491  1.00  0.00     0.031 C 
ATOM     63  C   UNL A   1      44.653  30.249  32.244  1.00  0.00     0.029 A 
ATOM     64  C   UNL A   1      43.640  31.205  32.151  1.00  0.00     0.049 A 
ATOM     65  H   UNL A   1      43.993  33.093  31.272  1.00  0.00     0.167 HD
ATOM     66  C   UNL A   1      41.280  31.977  32.129  1.00  0.00     0.074 A 
ATOM     67  C   UNL A   1      41.260  32.966  31.055  1.00  0.00     0.031 C 
ATOM     68  C   UNL A   1      42.295  31.245  32.675  1.00  0.00     0.037 A 
BRANCH  55  69
ATOM     69  C   UNL A   1      45.073  33.040  28.388  1.00  0.00     0.057 A 
ATOM     70  C   UNL A   1      44.051  33.977  28.127  1.00  0.00     0.134 A 
ATOM     71  C   UNL A   1      46.321  33.346  27.814  1.00  0.00     0.134 A 
ATOM     72  F   UNL A   1      42.811  33.795  28.605  1.00  0.00    -0.206 F 
ATOM     73  C   UNL A   1      44.241  35.092  27.301  1.00  0.00     0.040 A 
ATOM     74  C   UNL A   1      46.534  34.483  27.026  1.00  0.00     0.040 A 
ATOM     75  F   UNL A   1      47.366  32.513  27.903  1.00  0.00    -0.206 F 
ATOM     76  C   UNL A   1      45.485  35.346  26.741  1.00  0.00     0.006 A 
ENDBRANCH  55  69
BRANCH  56  77
ATOM     77  C   UNL A   1      36.895  31.986  30.355  1.00  0.00     0.057 A 
ATOM     78  C   UNL A   1      35.871  31.911  31.303  1.00  0.00     0.134 A 
ATOM     79  C   UNL A   1      36.700  32.888  29.292  1.00  0.00     0.134 A 
ATOM     80  F   UNL A   1      35.987  31.103  32.367  1.00  0.00    -0.206 F 
ATOM     81  C   UNL A   1      34.721  32.705  31.214  1.00  0.00     0.040 A 
ATOM     82  C   UNL A   1      35.556  33.684  29.189  1.00  0.00     0.040 A 
ATOM     83  F   UNL A   1      37.652  33.084  28.368  1.00  0.00    -0.206 F 
ATOM     84  C   UNL A   1      34.567  33.604  30.161  1.00  0.00     0.006 A 
ENDBRANCH  56  77
BRANCH  68  85
ATOM     85  C   UNL A   1      41.948  30.198  33.695  1.00  0.00     0.057 A 
ATOM     86  C   UNL A   1      41.658  28.864  33.375  1.00  0.00     0.134 A 
ATOM     87  C   UNL A   1      42.097  30.503  35.053  1.00  0.00     0.134 A 
ATOM     88  F   UNL A   1      41.595  28.455  32.102  1.00  0.00    -0.206 F 
ATOM     89  C   UNL A   1      41.490  27.887  34.361  1.00  0.00     0.040 A 
ATOM     90  C   UNL A   1      41.963  29.530  36.047  1.00  0.00     0.040 A 
ATOM     91  F   UNL A   1      42.436  31.745  35.433  1.00  0.00    -0.206 F 
ATOM     92  C   UNL A   1      41.652  28.217  35.702  1.00  0.00     0.006 A 
ENDBRANCH  68  85
ENDBRANCH  42  43
ENDBRANCH  34  37
ENDBRANCH  32  33
ENDBRANCH  31  32
ENDBRANCH  30  31
ENDBRANCH  29  30
ENDBRANCH   3  29
TORSDOF 17
ENDMDL
MODEL 3
REMARK VINA RESULT:     -11.6      2.095      6.117
REMARK SMILES C[C@@H]([C@H]1CC=CS1)n1nccc1NC(=O)CC1(CC(=O)NCCCCNC(=O)c2ccc(-c3c4nc(c(-c5c(F)cccc5F)c5ccc([nH]5)c(-c5c(F)cccc5F)c5nc(c(-c6c(F)cccc6F)c6ccc3[nH]6)C=C5)C=C4)cc2)CCCCC1
REMARK SMILES IDX 19 1 20 2 21 3 18 5 17 6 83 7 87 8 84 9 86 10 85 11 16 12
REMARK SMILES IDX 14 13 13 14 15 16 12 17 8 18 9 19 10 20 11 21 2 22 1 23 3 24
REMARK SMILES IDX 4 25 7 26 5 27 6 28 22 29 23 30 24 31 25 32 26 33 27 34
REMARK SMILES IDX 28 36 29 37 30 38 82 39 31 40 81 41 32 42 33 43 34 44 75 45
REMARK SMILES IDX 35 46 80 47 74 48 76 49 36 50 79 51 73 52 72 53 37 55 63 56
REMARK SMILES IDX 46 57 62 58 47 59 50 60 61 61 77 62 48 63 49 64 60 66 78 67
REMARK SMILES IDX 51 68 38 69 39 70 44 71 40 72 41 73 43 74 45 75 42 76 64 77
REMARK SMILES IDX 65 78 70 79 66 80 67 81 69 82 71 83 68 84 52 85 53 86 58 87
REMARK SMILES IDX 54 88 55 89 57 90 59 91 56 92
REMARK H PARENT 21 4 13 15 26 35 76 54 50 65
REMARK Flexibility Score: inf
ROOT
ATOM      1  C   UNL A   1      32.765  28.920  23.435  1.00  0.00     0.220 C 
ATOM      2  O   UNL A   1      33.685  28.982  22.616  1.00  0.00    -0.275 OA
ATOM      3  N   UNL A   1      32.827  29.749  24.507  1.00  0.00    -0.356 N 
ATOM      4  H   UNL A   1      33.630  30.318  24.534  1.00  0.00     0.163 HD
ENDROOT
BRANCH   1   5
ATOM      5  C   UNL A   1      31.616  27.944  23.207  1.00  0.00     0.107 C 
BRANCH   5   6
ATOM      6  C   UNL A   1      31.611  26.590  23.986  1.00  0.00    -0.012 C 
ATOM      7  C   UNL A   1      33.022  26.347  24.578  1.00  0.00     0.008 C 
ATOM      8  C   UNL A   1      31.372  25.362  23.068  1.00  0.00     0.008 C 
ATOM      9  C   UNL A   1      34.141  26.126  23.563  1.00  0.00     0.001 C 
ATOM     10  C   UNL A   1      32.444  25.136  22.002  1.00  0.00     0.001 C 
ATOM     11  C   UNL A   1      33.816  24.962  22.637  1.00  0.00     0.000 C 
BRANCH   6  12
ATOM     12  C   UNL A   1      30.504  26.557  25.097  1.00  0.00     0.108 C 
BRANCH  12  13
ATOM     13  C   UNL A   1      30.909  26.340  26.545  1.00  0.00     0.226 C 
ATOM     14  N   UNL A   1      31.394  25.093  27.055  1.00  0.00    -0.311 N 
ATOM     15  H   UNL A   1      31.764  25.115  27.967  1.00  0.00     0.171 HD
ATOM     16  O   UNL A   1      30.856  27.213  27.397  1.00  0.00    -0.275 OA
BRANCH  14  17
ATOM     17  C   UNL A   1      31.408  23.864  26.427  1.00  0.00     0.131 A 
ATOM     18  N   UNL A   1      32.530  23.156  26.033  1.00  0.00    -0.246 N 
ATOM     19  N   UNL A   1      32.219  22.124  25.218  1.00  0.00    -0.179 NA
ATOM     20  C   UNL A   1      30.891  22.038  25.302  1.00  0.00     0.137 A 
ATOM     21  C   UNL A   1      30.339  23.062  26.096  1.00  0.00     0.068 A 
BRANCH  18  22
ATOM     22  C   UNL A   1      33.881  23.278  26.573  1.00  0.00     0.120 C 
ATOM     23  C   UNL A   1      34.031  22.427  27.846  1.00  0.00     0.034 C 
BRANCH  22  24
ATOM     24  C   UNL A   1      35.064  23.049  25.607  1.00  0.00     0.079 C 
ATOM     25  C   UNL A   1      36.242  24.032  25.700  1.00  0.00     0.045 C 
ATOM     26  S   UNL A   1      35.824  21.380  25.581  1.00  0.00    -0.128 SA
ATOM     27  C   UNL A   1      37.453  23.333  25.158  1.00  0.00    -0.019 C 
ATOM     28  C   UNL A   1      37.360  22.002  25.077  1.00  0.00     0.037 C 
ENDBRANCH  22  24
ENDBRANCH  18  22
ENDBRANCH  14  17
ENDBRANCH  12  13
ENDBRANCH   6  12
ENDBRANCH   5   6
ENDBRANCH   1   5
BRANCH   3  29
ATOM     29  C   UNL A   1      31.918  29.945  25.620  1.00  0.00     0.116 C 
BRANCH  29  30
ATOM     30  C   UNL A   1      32.648  29.878  26.967  1.00  0.00     0.023 C 
BRANCH  30  31
ATOM     31  C   UNL A   1      33.731  28.811  27.119  1.00  0.00     0.023 C 
BRANCH  31  32
ATOM     32  C   UNL A   1      35.147  29.343  27.288  1.00  0.00     0.116 C 
BRANCH  32  33
ATOM     33  N   UNL A   1      35.347  30.099  28.525  1.00  0.00    -0.352 N 
ATOM     34  C   UNL A   1      36.373  29.938  29.442  1.00  0.00     0.251 C 
ATOM     35  H   UNL A   1      34.682  30.795  28.728  1.00  0.00     0.163 HD
ATOM     36  O   UNL A   1      36.302  30.359  30.580  1.00  0.00    -0.269 OA
BRANCH  34  37
ATOM     37  C   UNL A   1      37.575  29.236  28.965  1.00  0.00     0.039 A 
ATOM     38  C   UNL A   1      38.280  29.698  27.855  1.00  0.00     0.014 A 
ATOM     39  C   UNL A   1      38.088  28.245  29.796  1.00  0.00     0.014 A 
ATOM     40  C   UNL A   1      39.575  29.227  27.645  1.00  0.00     0.010 A 
ATOM     41  C   UNL A   1      39.410  27.882  29.653  1.00  0.00     0.010 A 
ATOM     42  C   UNL A   1      40.163  28.348  28.572  1.00  0.00    -0.014 A 
BRANCH  42  43
ATOM     43  C   UNL A   1      41.586  28.001  28.451  1.00  0.00     0.031 A 
ATOM     44  C   UNL A   1      41.935  26.750  27.699  1.00  0.00     0.074 A 
ATOM     45  C   UNL A   1      42.594  28.825  28.812  1.00  0.00     0.049 A 
ATOM     46  N   UNL A   1      42.540  25.695  28.145  1.00  0.00    -0.248 NA
ATOM     47  C   UNL A   1      41.539  26.648  26.287  1.00  0.00     0.031 C 
ATOM     48  C   UNL A   1      42.539  30.211  29.292  1.00  0.00     0.029 A 
ATOM     49  N   UNL A   1      43.934  28.589  28.733  1.00  0.00    -0.354 N 
ATOM     50  C   UNL A   1      42.734  24.848  27.052  1.00  0.00     0.074 A 
ATOM     51  C   UNL A   1      42.018  25.447  25.953  1.00  0.00     0.031 C 
ATOM     52  C   UNL A   1      43.771  30.760  29.233  1.00  0.00     0.029 A 
ATOM     53  C   UNL A   1      44.720  29.711  28.918  1.00  0.00     0.049 A 
ATOM     54  H   UNL A   1      44.310  27.695  28.559  1.00  0.00     0.167 HD
ATOM     55  C   UNL A   1      43.593  23.789  27.092  1.00  0.00     0.037 A 
ATOM     56  C   UNL A   1      46.066  29.791  28.832  1.00  0.00     0.037 A 
ATOM     57  C   UNL A   1      43.957  23.452  28.441  1.00  0.00     0.049 A 
ATOM     58  C   UNL A   1      46.607  28.429  29.032  1.00  0.00     0.074 A 
ATOM     59  C   UNL A   1      43.272  23.025  29.562  1.00  0.00     0.029 A 
ATOM     60  N   UNL A   1      45.193  23.837  28.895  1.00  0.00    -0.354 N 
ATOM     61  N   UNL A   1      46.537  27.775  30.159  1.00  0.00    -0.248 NA
ATOM     62  C   UNL A   1      46.880  27.619  27.856  1.00  0.00     0.031 C 
ATOM     63  C   UNL A   1      43.932  23.659  30.656  1.00  0.00     0.029 A 
ATOM     64  C   UNL A   1      44.994  24.397  30.130  1.00  0.00     0.049 A 
ATOM     65  H   UNL A   1      46.052  23.733  28.426  1.00  0.00     0.167 HD
ATOM     66  C   UNL A   1      46.347  26.452  29.791  1.00  0.00     0.074 A 
ATOM     67  C   UNL A   1      46.680  26.404  28.370  1.00  0.00     0.031 C 
ATOM     68  C   UNL A   1      45.680  25.577  30.601  1.00  0.00     0.037 A 
BRANCH  55  69
ATOM     69  C   UNL A   1      44.346  23.213  25.916  1.00  0.00     0.057 A 
ATOM     70  C   UNL A   1      44.274  21.830  25.647  1.00  0.00     0.134 A 
ATOM     71  C   UNL A   1      45.357  23.903  25.221  1.00  0.00     0.134 A 
ATOM     72  F   UNL A   1      43.362  21.055  26.255  1.00  0.00    -0.206 F 
ATOM     73  C   UNL A   1      45.183  21.175  24.806  1.00  0.00     0.040 A 
ATOM     74  C   UNL A   1      46.241  23.266  24.342  1.00  0.00     0.040 A 
ATOM     75  F   UNL A   1      45.603  25.201  25.433  1.00  0.00    -0.206 F 
ATOM     76  C   UNL A   1      46.176  21.893  24.154  1.00  0.00     0.006 A 
ENDBRANCH  55  69
BRANCH  56  77
ATOM     77  C   UNL A   1      46.873  30.928  28.355  1.00  0.00     0.057 A 
ATOM     78  C   UNL A   1      46.798  31.373  27.033  1.00  0.00     0.134 A 
ATOM     79  C   UNL A   1      47.546  31.768  29.261  1.00  0.00     0.134 A 
ATOM     80  F   UNL A   1      46.145  30.653  26.109  1.00  0.00    -0.206 F 
ATOM     81  C   UNL A   1      47.344  32.599  26.633  1.00  0.00     0.040 A 
ATOM     82  C   UNL A   1      48.100  32.991  28.876  1.00  0.00     0.040 A 
ATOM     83  F   UNL A   1      47.614  31.464  30.567  1.00  0.00    -0.206 F 
ATOM     84  C   UNL A   1      47.987  33.417  27.558  1.00  0.00     0.006 A 
ENDBRANCH  56  77
BRANCH  68  85
ATOM     85  C   UNL A   1      45.386  25.997  32.013  1.00  0.00     0.057 A 
ATOM     86  C   UNL A   1      44.191  26.617  32.408  1.00  0.00     0.134 A 
ATOM     87  C   UNL A   1      46.256  25.595  33.032  1.00  0.00     0.134 A 
ATOM     88  F   UNL A   1      43.252  26.947  31.513  1.00  0.00    -0.206 F 
ATOM     89  C   UNL A   1      43.892  26.853  33.753  1.00  0.00     0.040 A 
ATOM     90  C   UNL A   1      45.955  25.798  34.382  1.00  0.00     0.040 A 
ATOM     91  F   UNL A   1      47.389  24.941  32.733  1.00  0.00    -0.206 F 
ATOM     92  C   UNL A   1      44.772  26.436  34.746  1.00  0.00     0.006 A 
ENDBRANCH  68  85
ENDBRANCH  42  43
ENDBRANCH  34  37
ENDBRANCH  32  33
ENDBRANCH  31  32
ENDBRANCH  30  31
ENDBRANCH  29  30
ENDBRANCH   3  29
TORSDOF 17
ENDMDL
