MODEL 1
REMARK VINA RESULT:     -10.6      0.000      0.000
REMARK SMILES O=C(Cc1ccc(-c2ccn(C(F)F)c(=O)c2)cc1)NCCCCNC(=O)c1ccc(-c2c3nc(c(-c4c(F)cccc4F)c4ccc([nH]4)c(-c4c(F)cccc4F)c4nc(c(-c5c(F)cccc5F)c5ccc2[nH]5)C=C4)C=C3)cc1
REMARK SMILES IDX 22 1 21 2 20 3 1 4 2 5 3 7 4 8 5 9 19 10 6 11 18 12 7 13
REMARK SMILES IDX 8 14 9 15 17 16 10 17 15 18 11 19 16 20 12 21 13 22 14 23
REMARK SMILES IDX 23 24 24 25 25 26 26 27 27 29 28 30 29 31 81 32 30 33 80 34
REMARK SMILES IDX 31 35 32 36 33 37 74 38 34 39 79 40 73 41 75 42 35 43 78 44
REMARK SMILES IDX 72 45 71 46 36 48 62 49 45 50 61 51 46 52 49 53 60 54 76 55
REMARK SMILES IDX 47 56 48 57 59 59 77 60 50 61 37 62 38 63 43 64 39 65 40 66
REMARK SMILES IDX 42 67 44 68 41 69 63 70 64 71 69 72 65 73 66 74 68 75 70 76
REMARK SMILES IDX 67 77 51 78 52 79 57 80 53 81 54 82 56 83 58 84 55 85
REMARK H PARENT 20 6 25 28 75 47 49 58
REMARK Flexibility Score: inf
ROOT
ATOM      1  C   UNL A   1      41.401  19.851  27.021  1.00  0.00     0.023 C 
ENDROOT
BRANCH   1   2
ATOM      2  C   UNL A   1      42.447  18.896  26.452  1.00  0.00     0.116 C 
BRANCH   2   3
ATOM      3  N   UNL A   1      43.723  19.542  26.221  1.00  0.00    -0.356 N 
ATOM      4  O   UNL A   1      44.331  18.249  24.421  1.00  0.00    -0.275 OA
ATOM      5  C   UNL A   1      44.547  19.200  25.166  1.00  0.00     0.224 C 
ATOM      6  H   UNL A   1      44.014  20.251  26.839  1.00  0.00     0.163 HD
BRANCH   5   7
ATOM      7  C   UNL A   1      45.765  20.098  25.003  1.00  0.00     0.135 C 
BRANCH   7   8
ATOM      8  C   UNL A   1      45.511  21.581  25.190  1.00  0.00    -0.039 A 
ATOM      9  C   UNL A   1      44.835  22.297  24.189  1.00  0.00     0.005 A 
ATOM     10  C   UNL A   1      45.876  22.257  26.362  1.00  0.00     0.005 A 
ATOM     11  C   UNL A   1      44.562  23.662  24.339  1.00  0.00     0.009 A 
ATOM     12  C   UNL A   1      45.623  23.620  26.505  1.00  0.00     0.009 A 
ATOM     13  C   UNL A   1      44.964  24.334  25.497  1.00  0.00    -0.018 A 
BRANCH  13  14
ATOM     14  C   UNL A   1      44.685  25.761  25.726  1.00  0.00    -0.011 A 
ATOM     15  C   UNL A   1      45.310  26.515  26.796  1.00  0.00     0.027 A 
ATOM     16  C   UNL A   1      43.712  26.334  24.998  1.00  0.00     0.080 A 
ATOM     17  C   UNL A   1      44.860  27.733  27.116  1.00  0.00     0.095 A 
ATOM     18  C   UNL A   1      43.226  27.704  25.322  1.00  0.00     0.255 A 
ATOM     19  N   UNL A   1      43.820  28.315  26.415  1.00  0.00    -0.258 N 
ATOM     20  O   UNL A   1      42.325  28.182  24.639  1.00  0.00    -0.269 OA
BRANCH  19  21
ATOM     21  C   UNL A   1      43.276  29.581  26.831  1.00  0.00     0.451 C 
ATOM     22  F   UNL A   1      41.923  29.552  26.872  1.00  0.00    -0.185 F 
ATOM     23  F   UNL A   1      43.728  29.914  28.066  1.00  0.00    -0.185 F 
ENDBRANCH  19  21
ENDBRANCH  13  14
ENDBRANCH   7   8
ENDBRANCH   5   7
ENDBRANCH   2   3
ENDBRANCH   1   2
BRANCH   1  24
ATOM     24  C   UNL A   1      41.935  21.224  27.437  1.00  0.00     0.023 C 
BRANCH  24  25
ATOM     25  C   UNL A   1      41.610  22.373  26.488  1.00  0.00     0.116 C 
BRANCH  25  26
ATOM     26  N   UNL A   1      40.242  22.336  25.996  1.00  0.00    -0.352 N 
ATOM     27  C   UNL A   1      39.206  23.212  26.211  1.00  0.00     0.251 C 
ATOM     28  H   UNL A   1      40.025  21.566  25.421  1.00  0.00     0.163 HD
ATOM     29  O   UNL A   1      38.075  22.930  25.822  1.00  0.00    -0.269 OA
BRANCH  27  30
ATOM     30  C   UNL A   1      39.431  24.483  26.936  1.00  0.00     0.039 A 
ATOM     31  C   UNL A   1      38.965  24.601  28.249  1.00  0.00     0.014 A 
ATOM     32  C   UNL A   1      40.086  25.560  26.331  1.00  0.00     0.014 A 
ATOM     33  C   UNL A   1      39.221  25.766  28.978  1.00  0.00     0.010 A 
ATOM     34  C   UNL A   1      40.404  26.691  27.082  1.00  0.00     0.010 A 
ATOM     35  C   UNL A   1      39.979  26.805  28.415  1.00  0.00    -0.014 A 
BRANCH  35  36
ATOM     36  C   UNL A   1      40.350  28.009  29.208  1.00  0.00     0.031 A 
ATOM     37  C   UNL A   1      41.679  28.081  29.908  1.00  0.00     0.074 A 
ATOM     38  C   UNL A   1      39.460  29.011  29.352  1.00  0.00     0.049 A 
ATOM     39  N   UNL A   1      42.145  29.013  30.701  1.00  0.00    -0.248 NA
ATOM     40  C   UNL A   1      42.593  26.946  29.714  1.00  0.00     0.031 C 
ATOM     41  C   UNL A   1      38.122  29.048  28.759  1.00  0.00     0.029 A 
ATOM     42  N   UNL A   1      39.544  30.190  30.051  1.00  0.00    -0.354 N 
ATOM     43  C   UNL A   1      43.398  28.571  31.110  1.00  0.00     0.074 A 
ATOM     44  C   UNL A   1      43.596  27.265  30.519  1.00  0.00     0.031 C 
ATOM     45  C   UNL A   1      37.522  30.201  29.098  1.00  0.00     0.029 A 
ATOM     46  C   UNL A   1      38.412  30.964  29.966  1.00  0.00     0.049 A 
ATOM     47  H   UNL A   1      40.342  30.455  30.564  1.00  0.00     0.167 HD
ATOM     48  C   UNL A   1      44.309  29.204  31.888  1.00  0.00     0.037 A 
ATOM     49  C   UNL A   1      38.119  32.152  30.531  1.00  0.00     0.037 A 
ATOM     50  C   UNL A   1      44.121  30.515  32.455  1.00  0.00     0.049 A 
ATOM     51  C   UNL A   1      39.141  32.825  31.406  1.00  0.00     0.074 A 
ATOM     52  C   UNL A   1      45.012  31.265  33.203  1.00  0.00     0.029 A 
ATOM     53  N   UNL A   1      42.963  31.269  32.339  1.00  0.00    -0.354 N 
ATOM     54  N   UNL A   1      40.347  32.424  31.727  1.00  0.00    -0.248 NA
ATOM     55  C   UNL A   1      38.760  34.117  31.994  1.00  0.00     0.031 C 
ATOM     56  C   UNL A   1      44.374  32.450  33.585  1.00  0.00     0.029 A 
ATOM     57  C   UNL A   1      43.107  32.464  33.027  1.00  0.00     0.049 A 
ATOM     58  H   UNL A   1      42.159  30.997  31.843  1.00  0.00     0.167 HD
ATOM     59  C   UNL A   1      40.881  33.429  32.525  1.00  0.00     0.074 A 
ATOM     60  C   UNL A   1      39.872  34.462  32.628  1.00  0.00     0.031 C 
ATOM     61  C   UNL A   1      42.099  33.489  33.117  1.00  0.00     0.037 A 
BRANCH  48  62
ATOM     62  C   UNL A   1      45.596  28.485  32.177  1.00  0.00     0.057 A 
ATOM     63  C   UNL A   1      45.747  27.658  33.299  1.00  0.00     0.134 A 
ATOM     64  C   UNL A   1      46.682  28.586  31.299  1.00  0.00     0.134 A 
ATOM     65  F   UNL A   1      44.750  27.527  34.186  1.00  0.00    -0.206 F 
ATOM     66  C   UNL A   1      46.941  26.980  33.549  1.00  0.00     0.040 A 
ATOM     67  C   UNL A   1      47.870  27.888  31.524  1.00  0.00     0.040 A 
ATOM     68  F   UNL A   1      46.603  29.353  30.202  1.00  0.00    -0.206 F 
ATOM     69  C   UNL A   1      48.004  27.087  32.656  1.00  0.00     0.006 A 
ENDBRANCH  48  62
BRANCH  49  70
ATOM     70  C   UNL A   1      36.805  32.796  30.274  1.00  0.00     0.057 A 
ATOM     71  C   UNL A   1      35.722  32.593  31.137  1.00  0.00     0.134 A 
ATOM     72  C   UNL A   1      36.594  33.612  29.157  1.00  0.00     0.134 A 
ATOM     73  F   UNL A   1      35.857  31.805  32.215  1.00  0.00    -0.206 F 
ATOM     74  C   UNL A   1      34.470  33.157  30.887  1.00  0.00     0.040 A 
ATOM     75  C   UNL A   1      35.354  34.206  28.909  1.00  0.00     0.040 A 
ATOM     76  F   UNL A   1      37.592  33.853  28.295  1.00  0.00    -0.206 F 
ATOM     77  C   UNL A   1      34.286  33.970  29.772  1.00  0.00     0.006 A 
ENDBRANCH  49  70
BRANCH  61  78
ATOM     78  C   UNL A   1      42.426  34.731  33.896  1.00  0.00     0.057 A 
ATOM     79  C   UNL A   1      42.220  34.817  35.278  1.00  0.00     0.134 A 
ATOM     80  C   UNL A   1      42.990  35.843  33.257  1.00  0.00     0.134 A 
ATOM     81  F   UNL A   1      41.671  33.792  35.949  1.00  0.00    -0.206 F 
ATOM     82  C   UNL A   1      42.539  35.972  35.993  1.00  0.00     0.040 A 
ATOM     83  C   UNL A   1      43.342  36.993  33.965  1.00  0.00     0.040 A 
ATOM     84  F   UNL A   1      43.223  35.825  31.936  1.00  0.00    -0.206 F 
ATOM     85  C   UNL A   1      43.110  37.062  35.337  1.00  0.00     0.006 A 
ENDBRANCH  61  78
ENDBRANCH  35  36
ENDBRANCH  27  30
ENDBRANCH  25  26
ENDBRANCH  24  25
ENDBRANCH   1  24
TORSDOF 14
ENDMDL
MODEL 2
REMARK VINA RESULT:     -10.5      3.527     10.923
REMARK SMILES O=C(Cc1ccc(-c2ccn(C(F)F)c(=O)c2)cc1)NCCCCNC(=O)c1ccc(-c2c3nc(c(-c4c(F)cccc4F)c4ccc([nH]4)c(-c4c(F)cccc4F)c4nc(c(-c5c(F)cccc5F)c5ccc2[nH]5)C=C4)C=C3)cc1
REMARK SMILES IDX 22 1 21 2 20 3 1 4 2 5 3 7 4 8 5 9 19 10 6 11 18 12 7 13
REMARK SMILES IDX 8 14 9 15 17 16 10 17 15 18 11 19 16 20 12 21 13 22 14 23
REMARK SMILES IDX 23 24 24 25 25 26 26 27 27 29 28 30 29 31 81 32 30 33 80 34
REMARK SMILES IDX 31 35 32 36 33 37 74 38 34 39 79 40 73 41 75 42 35 43 78 44
REMARK SMILES IDX 72 45 71 46 36 48 62 49 45 50 61 51 46 52 49 53 60 54 76 55
REMARK SMILES IDX 47 56 48 57 59 59 77 60 50 61 37 62 38 63 43 64 39 65 40 66
REMARK SMILES IDX 42 67 44 68 41 69 63 70 64 71 69 72 65 73 66 74 68 75 70 76
REMARK SMILES IDX 67 77 51 78 52 79 57 80 53 81 54 82 56 83 58 84 55 85
REMARK H PARENT 20 6 25 28 75 47 49 58
REMARK Flexibility Score: inf
ROOT
ATOM      1  C   UNL A   1      34.267  34.645  28.033  1.00  0.00     0.023 C 
ENDROOT
BRANCH   1   2
ATOM      2  C   UNL A   1      33.695  35.813  28.833  1.00  0.00     0.116 C 
BRANCH   2   3
ATOM      3  N   UNL A   1      33.905  35.666  30.259  1.00  0.00    -0.356 N 
ATOM      4  O   UNL A   1      32.817  37.596  30.868  1.00  0.00    -0.275 OA
ATOM      5  C   UNL A   1      33.385  36.554  31.180  1.00  0.00     0.224 C 
ATOM      6  H   UNL A   1      34.439  34.904  30.583  1.00  0.00     0.163 HD
BRANCH   5   7
ATOM      7  C   UNL A   1      33.582  36.142  32.632  1.00  0.00     0.135 C 
BRANCH   7   8
ATOM      8  C   UNL A   1      34.583  35.025  32.862  1.00  0.00    -0.039 A 
ATOM      9  C   UNL A   1      34.124  33.706  33.003  1.00  0.00     0.005 A 
ATOM     10  C   UNL A   1      35.965  35.257  32.879  1.00  0.00     0.005 A 
ATOM     11  C   UNL A   1      35.022  32.648  33.193  1.00  0.00     0.009 A 
ATOM     12  C   UNL A   1      36.859  34.208  33.088  1.00  0.00     0.009 A 
ATOM     13  C   UNL A   1      36.397  32.896  33.244  1.00  0.00    -0.018 A 
BRANCH  13  14
ATOM     14  C   UNL A   1      37.392  31.825  33.416  1.00  0.00    -0.011 A 
ATOM     15  C   UNL A   1      38.810  32.095  33.554  1.00  0.00     0.027 A 
ATOM     16  C   UNL A   1      36.972  30.555  33.300  1.00  0.00     0.080 A 
ATOM     17  C   UNL A   1      39.699  31.098  33.471  1.00  0.00     0.095 A 
ATOM     18  C   UNL A   1      37.949  29.432  33.243  1.00  0.00     0.255 A 
ATOM     19  N   UNL A   1      39.287  29.791  33.293  1.00  0.00    -0.258 N 
ATOM     20  O   UNL A   1      37.520  28.289  33.121  1.00  0.00    -0.269 OA
BRANCH  19  21
ATOM     21  C   UNL A   1      40.253  28.740  33.104  1.00  0.00     0.451 C 
ATOM     22  F   UNL A   1      39.982  28.009  31.996  1.00  0.00    -0.185 F 
ATOM     23  F   UNL A   1      41.501  29.254  32.975  1.00  0.00    -0.185 F 
ENDBRANCH  19  21
ENDBRANCH  13  14
ENDBRANCH   7   8
ENDBRANCH   5   7
ENDBRANCH   2   3
ENDBRANCH   1   2
BRANCH   1  24
ATOM     24  C   UNL A   1      35.472  33.950  28.672  1.00  0.00     0.023 C 
BRANCH  24  25
ATOM     25  C   UNL A   1      35.156  32.703  29.491  1.00  0.00     0.116 C 
BRANCH  25  26
ATOM     26  N   UNL A   1      34.343  31.738  28.769  1.00  0.00    -0.352 N 
ATOM     27  C   UNL A   1      34.701  30.545  28.189  1.00  0.00     0.251 C 
ATOM     28  H   UNL A   1      33.391  31.976  28.682  1.00  0.00     0.163 HD
ATOM     29  O   UNL A   1      33.891  29.935  27.493  1.00  0.00    -0.269 OA
BRANCH  27  30
ATOM     30  C   UNL A   1      36.065  29.999  28.367  1.00  0.00     0.039 A 
ATOM     31  C   UNL A   1      36.987  30.136  27.324  1.00  0.00     0.014 A 
ATOM     32  C   UNL A   1      36.439  29.346  29.544  1.00  0.00     0.014 A 
ATOM     33  C   UNL A   1      38.300  29.687  27.490  1.00  0.00     0.010 A 
ATOM     34  C   UNL A   1      37.767  28.966  29.737  1.00  0.00     0.010 A 
ATOM     35  C   UNL A   1      38.713  29.135  28.714  1.00  0.00    -0.014 A 
BRANCH  35  36
ATOM     36  C   UNL A   1      40.131  28.746  28.946  1.00  0.00     0.031 A 
ATOM     37  C   UNL A   1      41.096  29.717  29.568  1.00  0.00     0.074 A 
ATOM     38  C   UNL A   1      40.565  27.538  28.536  1.00  0.00     0.049 A 
ATOM     39  N   UNL A   1      42.382  29.583  29.781  1.00  0.00    -0.248 NA
ATOM     40  C   UNL A   1      40.553  31.020  29.981  1.00  0.00     0.031 C 
ATOM     41  C   UNL A   1      39.742  26.518  27.882  1.00  0.00     0.029 A 
ATOM     42  N   UNL A   1      41.812  26.965  28.599  1.00  0.00    -0.354 N 
ATOM     43  C   UNL A   1      42.801  30.785  30.337  1.00  0.00     0.074 A 
ATOM     44  C   UNL A   1      41.645  31.654  30.382  1.00  0.00     0.031 C 
ATOM     45  C   UNL A   1      40.499  25.438  27.628  1.00  0.00     0.029 A 
ATOM     46  C   UNL A   1      41.868  25.703  28.059  1.00  0.00     0.049 A 
ATOM     47  H   UNL A   1      42.592  27.418  28.993  1.00  0.00     0.167 HD
ATOM     48  C   UNL A   1      44.031  31.127  30.791  1.00  0.00     0.037 A 
ATOM     49  C   UNL A   1      42.905  24.855  27.919  1.00  0.00     0.037 A 
ATOM     50  C   UNL A   1      45.176  30.252  30.770  1.00  0.00     0.049 A 
ATOM     51  C   UNL A   1      44.265  25.266  28.414  1.00  0.00     0.074 A 
ATOM     52  C   UNL A   1      46.447  30.485  31.265  1.00  0.00     0.029 A 
ATOM     53  N   UNL A   1      45.188  28.978  30.222  1.00  0.00    -0.354 N 
ATOM     54  N   UNL A   1      44.630  26.381  29.000  1.00  0.00    -0.248 NA
ATOM     55  C   UNL A   1      45.356  24.299  28.230  1.00  0.00     0.031 C 
ATOM     56  C   UNL A   1      47.244  29.374  30.969  1.00  0.00     0.029 A 
ATOM     57  C   UNL A   1      46.454  28.425  30.342  1.00  0.00     0.049 A 
ATOM     58  H   UNL A   1      44.414  28.532  29.810  1.00  0.00     0.167 HD
ATOM     59  C   UNL A   1      45.982  26.235  29.285  1.00  0.00     0.074 A 
ATOM     60  C   UNL A   1      46.369  24.920  28.818  1.00  0.00     0.031 C 
ATOM     61  C   UNL A   1      46.826  27.112  29.881  1.00  0.00     0.037 A 
BRANCH  48  62
ATOM     62  C   UNL A   1      44.208  32.510  31.349  1.00  0.00     0.057 A 
ATOM     63  C   UNL A   1      44.022  32.790  32.710  1.00  0.00     0.134 A 
ATOM     64  C   UNL A   1      44.612  33.567  30.523  1.00  0.00     0.134 A 
ATOM     65  F   UNL A   1      43.625  31.827  33.554  1.00  0.00    -0.206 F 
ATOM     66  C   UNL A   1      44.206  34.075  33.222  1.00  0.00     0.040 A 
ATOM     67  C   UNL A   1      44.828  34.849  31.030  1.00  0.00     0.040 A 
ATOM     68  F   UNL A   1      44.815  33.368  29.212  1.00  0.00    -0.206 F 
ATOM     69  C   UNL A   1      44.619  35.107  32.383  1.00  0.00     0.006 A 
ENDBRANCH  48  62
BRANCH  49  70
ATOM     70  C   UNL A   1      42.701  23.521  27.298  1.00  0.00     0.057 A 
ATOM     71  C   UNL A   1      42.334  22.414  28.072  1.00  0.00     0.134 A 
ATOM     72  C   UNL A   1      42.883  23.315  25.925  1.00  0.00     0.134 A 
ATOM     73  F   UNL A   1      42.164  22.544  29.397  1.00  0.00    -0.206 F 
ATOM     74  C   UNL A   1      42.180  21.146  27.510  1.00  0.00     0.040 A 
ATOM     75  C   UNL A   1      42.705  22.057  25.345  1.00  0.00     0.040 A 
ATOM     76  F   UNL A   1      43.228  24.335  25.127  1.00  0.00    -0.206 F 
ATOM     77  C   UNL A   1      42.362  20.967  26.141  1.00  0.00     0.006 A 
ENDBRANCH  49  70
BRANCH  61  78
ATOM     78  C   UNL A   1      48.243  26.664  30.102  1.00  0.00     0.057 A 
ATOM     79  C   UNL A   1      48.619  25.917  31.226  1.00  0.00     0.134 A 
ATOM     80  C   UNL A   1      49.236  26.953  29.157  1.00  0.00     0.134 A 
ATOM     81  F   UNL A   1      47.719  25.617  32.175  1.00  0.00    -0.206 F 
ATOM     82  C   UNL A   1      49.936  25.496  31.414  1.00  0.00     0.040 A 
ATOM     83  C   UNL A   1      50.550  26.512  29.318  1.00  0.00     0.040 A 
ATOM     84  F   UNL A   1      48.942  27.656  28.053  1.00  0.00    -0.206 F 
ATOM     85  C   UNL A   1      50.904  25.786  30.454  1.00  0.00     0.006 A 
ENDBRANCH  61  78
ENDBRANCH  35  36
ENDBRANCH  27  30
ENDBRANCH  25  26
ENDBRANCH  24  25
ENDBRANCH   1  24
TORSDOF 14
ENDMDL
MODEL 3
REMARK VINA RESULT:     -10.3      3.401      9.873
REMARK SMILES O=C(Cc1ccc(-c2ccn(C(F)F)c(=O)c2)cc1)NCCCCNC(=O)c1ccc(-c2c3nc(c(-c4c(F)cccc4F)c4ccc([nH]4)c(-c4c(F)cccc4F)c4nc(c(-c5c(F)cccc5F)c5ccc2[nH]5)C=C4)C=C3)cc1
REMARK SMILES IDX 22 1 21 2 20 3 1 4 2 5 3 7 4 8 5 9 19 10 6 11 18 12 7 13
REMARK SMILES IDX 8 14 9 15 17 16 10 17 15 18 11 19 16 20 12 21 13 22 14 23
REMARK SMILES IDX 23 24 24 25 25 26 26 27 27 29 28 30 29 31 81 32 30 33 80 34
REMARK SMILES IDX 31 35 32 36 33 37 74 38 34 39 79 40 73 41 75 42 35 43 78 44
REMARK SMILES IDX 72 45 71 46 36 48 62 49 45 50 61 51 46 52 49 53 60 54 76 55
REMARK SMILES IDX 47 56 48 57 59 59 77 60 50 61 37 62 38 63 43 64 39 65 40 66
REMARK SMILES IDX 42 67 44 68 41 69 63 70 64 71 69 72 65 73 66 74 68 75 70 76
REMARK SMILES IDX 67 77 51 78 52 79 57 80 53 81 54 82 56 83 58 84 55 85
REMARK H PARENT 20 6 25 28 75 47 49 58
REMARK Flexibility Score: inf
ROOT
ATOM      1  C   UNL A   1      37.576  33.208  29.506  1.00  0.00     0.023 C 
ENDROOT
BRANCH   1   2
ATOM      2  C   UNL A   1      37.878  33.707  30.916  1.00  0.00     0.116 C 
BRANCH   2   3
ATOM      3  N   UNL A   1      37.883  32.639  31.895  1.00  0.00    -0.356 N 
ATOM      4  O   UNL A   1      39.534  33.530  33.223  1.00  0.00    -0.275 OA
ATOM      5  C   UNL A   1      38.682  32.669  33.022  1.00  0.00     0.224 C 
ATOM      6  H   UNL A   1      37.296  31.861  31.752  1.00  0.00     0.163 HD
BRANCH   5   7
ATOM      7  C   UNL A   1      38.429  31.534  34.003  1.00  0.00     0.135 C 
BRANCH   7   8
ATOM      8  C   UNL A   1      39.465  30.426  33.999  1.00  0.00    -0.039 A 
ATOM      9  C   UNL A   1      40.463  30.411  34.987  1.00  0.00     0.005 A 
ATOM     10  C   UNL A   1      39.427  29.375  33.073  1.00  0.00     0.005 A 
ATOM     11  C   UNL A   1      41.420  29.390  35.027  1.00  0.00     0.009 A 
ATOM     12  C   UNL A   1      40.392  28.369  33.099  1.00  0.00     0.009 A 
ATOM     13  C   UNL A   1      41.394  28.366  34.076  1.00  0.00    -0.018 A 
BRANCH  13  14
ATOM     14  C   UNL A   1      42.357  27.253  34.079  1.00  0.00    -0.011 A 
ATOM     15  C   UNL A   1      43.452  27.167  33.133  1.00  0.00     0.027 A 
ATOM     16  C   UNL A   1      42.116  26.219  34.902  1.00  0.00     0.080 A 
ATOM     17  C   UNL A   1      44.156  26.036  33.015  1.00  0.00     0.095 A 
ATOM     18  C   UNL A   1      42.917  24.966  34.806  1.00  0.00     0.255 A 
ATOM     19  N   UNL A   1      43.884  24.942  33.814  1.00  0.00    -0.258 N 
ATOM     20  O   UNL A   1      42.651  24.042  35.568  1.00  0.00    -0.269 OA
BRANCH  19  21
ATOM     21  C   UNL A   1      44.579  23.697  33.611  1.00  0.00     0.451 C 
ATOM     22  F   UNL A   1      44.699  23.404  32.294  1.00  0.00    -0.185 F 
ATOM     23  F   UNL A   1      45.824  23.750  34.146  1.00  0.00    -0.185 F 
ENDBRANCH  19  21
ENDBRANCH  13  14
ENDBRANCH   7   8
ENDBRANCH   5   7
ENDBRANCH   2   3
ENDBRANCH   1   2
BRANCH   1  24
ATOM     24  C   UNL A   1      36.149  33.467  29.017  1.00  0.00     0.023 C 
BRANCH  24  25
ATOM     25  C   UNL A   1      35.052  32.699  29.748  1.00  0.00     0.116 C 
BRANCH  25  26
ATOM     26  N   UNL A   1      34.288  31.826  28.872  1.00  0.00    -0.352 N 
ATOM     27  C   UNL A   1      34.681  30.694  28.199  1.00  0.00     0.251 C 
ATOM     28  H   UNL A   1      33.346  32.084  28.740  1.00  0.00     0.163 HD
ATOM     29  O   UNL A   1      33.921  30.170  27.386  1.00  0.00    -0.269 OA
BRANCH  27  30
ATOM     30  C   UNL A   1      36.025  30.114  28.418  1.00  0.00     0.039 A 
ATOM     31  C   UNL A   1      36.967  30.187  27.387  1.00  0.00     0.014 A 
ATOM     32  C   UNL A   1      36.360  29.492  29.624  1.00  0.00     0.014 A 
ATOM     33  C   UNL A   1      38.263  29.704  27.591  1.00  0.00     0.010 A 
ATOM     34  C   UNL A   1      37.673  29.079  29.852  1.00  0.00     0.010 A 
ATOM     35  C   UNL A   1      38.640  29.184  28.840  1.00  0.00    -0.014 A 
BRANCH  35  36
ATOM     36  C   UNL A   1      40.041  28.761  29.109  1.00  0.00     0.031 A 
ATOM     37  C   UNL A   1      41.002  29.695  29.791  1.00  0.00     0.074 A 
ATOM     38  C   UNL A   1      40.467  27.556  28.680  1.00  0.00     0.049 A 
ATOM     39  N   UNL A   1      42.277  29.530  30.044  1.00  0.00    -0.248 NA
ATOM     40  C   UNL A   1      40.469  30.996  30.222  1.00  0.00     0.031 C 
ATOM     41  C   UNL A   1      39.648  26.571  27.971  1.00  0.00     0.029 A 
ATOM     42  N   UNL A   1      41.699  26.957  28.770  1.00  0.00    -0.354 N 
ATOM     43  C   UNL A   1      42.699  30.708  30.648  1.00  0.00     0.074 A 
ATOM     44  C   UNL A   1      41.558  31.598  30.678  1.00  0.00     0.031 C 
ATOM     45  C   UNL A   1      40.393  25.484  27.713  1.00  0.00     0.029 A 
ATOM     46  C   UNL A   1      41.750  25.709  28.198  1.00  0.00     0.049 A 
ATOM     47  H   UNL A   1      42.474  27.384  29.204  1.00  0.00     0.167 HD
ATOM     48  C   UNL A   1      43.919  31.013  31.153  1.00  0.00     0.037 A 
ATOM     49  C   UNL A   1      42.776  24.846  28.069  1.00  0.00     0.037 A 
ATOM     50  C   UNL A   1      45.047  30.117  31.146  1.00  0.00     0.049 A 
ATOM     51  C   UNL A   1      44.125  25.216  28.622  1.00  0.00     0.074 A 
ATOM     52  C   UNL A   1      46.304  30.311  31.691  1.00  0.00     0.029 A 
ATOM     53  N   UNL A   1      45.054  28.859  30.564  1.00  0.00    -0.354 N 
ATOM     54  N   UNL A   1      44.490  26.307  29.251  1.00  0.00    -0.248 NA
ATOM     55  C   UNL A   1      45.204  24.233  28.448  1.00  0.00     0.031 C 
ATOM     56  C   UNL A   1      47.090  29.193  31.392  1.00  0.00     0.029 A 
ATOM     57  C   UNL A   1      46.305  28.278  30.711  1.00  0.00     0.049 A 
ATOM     58  H   UNL A   1      44.287  28.439  30.113  1.00  0.00     0.167 HD
ATOM     59  C   UNL A   1      45.829  26.127  29.577  1.00  0.00     0.074 A 
ATOM     60  C   UNL A   1      46.207  24.818  29.088  1.00  0.00     0.031 C 
ATOM     61  C   UNL A   1      46.668  26.970  30.226  1.00  0.00     0.037 A 
BRANCH  48  62
ATOM     62  C   UNL A   1      44.102  32.377  31.755  1.00  0.00     0.057 A 
ATOM     63  C   UNL A   1      44.514  33.476  30.989  1.00  0.00     0.134 A 
ATOM     64  C   UNL A   1      43.818  32.604  33.108  1.00  0.00     0.134 A 
ATOM     65  F   UNL A   1      44.813  33.325  29.690  1.00  0.00    -0.206 F 
ATOM     66  C   UNL A   1      44.664  34.744  31.553  1.00  0.00     0.040 A 
ATOM     67  C   UNL A   1      43.935  33.874  33.675  1.00  0.00     0.040 A 
ATOM     68  F   UNL A   1      43.411  31.599  33.897  1.00  0.00    -0.206 F 
ATOM     69  C   UNL A   1      44.366  34.947  32.899  1.00  0.00     0.006 A 
ENDBRANCH  48  62
BRANCH  49  70
ATOM     70  C   UNL A   1      42.569  23.534  27.404  1.00  0.00     0.057 A 
ATOM     71  C   UNL A   1      42.233  22.395  28.146  1.00  0.00     0.134 A 
ATOM     72  C   UNL A   1      42.717  23.381  26.021  1.00  0.00     0.134 A 
ATOM     73  F   UNL A   1      42.097  22.473  29.479  1.00  0.00    -0.206 F 
ATOM     74  C   UNL A   1      42.077  21.147  27.541  1.00  0.00     0.040 A 
ATOM     75  C   UNL A   1      42.535  22.143  25.399  1.00  0.00     0.040 A 
ATOM     76  F   UNL A   1      43.030  24.433  25.252  1.00  0.00    -0.206 F 
ATOM     77  C   UNL A   1      42.224  21.020  26.162  1.00  0.00     0.006 A 
ENDBRANCH  49  70
BRANCH  61  78
ATOM     78  C   UNL A   1      48.067  26.489  30.483  1.00  0.00     0.057 A 
ATOM     79  C   UNL A   1      48.406  25.773  31.638  1.00  0.00     0.134 A 
ATOM     80  C   UNL A   1      49.081  26.714  29.542  1.00  0.00     0.134 A 
ATOM     81  F   UNL A   1      47.486  25.534  32.585  1.00  0.00    -0.206 F 
ATOM     82  C   UNL A   1      49.708  25.319  31.859  1.00  0.00     0.040 A 
ATOM     83  C   UNL A   1      50.379  26.240  29.737  1.00  0.00     0.040 A 
ATOM     84  F   UNL A   1      48.822  27.384  28.409  1.00  0.00    -0.206 F 
ATOM     85  C   UNL A   1      50.697  25.546  30.903  1.00  0.00     0.006 A 
ENDBRANCH  61  78
ENDBRANCH  35  36
ENDBRANCH  27  30
ENDBRANCH  25  26
ENDBRANCH  24  25
ENDBRANCH   1  24
TORSDOF 14
ENDMDL
