MODEL 1
REMARK VINA RESULT:     -12.8      0.000      0.000
REMARK SMILES C[C@H](NS(=O)(=O)c1ccc(-c2cc(-c3ccccc3)c3cc([N+](=O)[O-])ccc3n2)cc1)C(=O)NCCCCNC(=O)c1ccc(-c2c3nc(c(-c4c(F)cccc4F)c4ccc([nH]4)c(-c4c(F)cccc4F)c4nc(c(-c5c(F)cccc5F)c5ccc2[nH]5)C=C4)C=C3)cc1
REMARK SMILES IDX 35 1 34 2 32 3 33 4 2 6 1 7 3 8 4 10 5 11 6 12 7 13 8 14
REMARK SMILES IDX 31 15 9 16 30 17 10 18 11 19 12 20 29 21 13 22 28 23 20 24
REMARK SMILES IDX 27 25 21 26 26 27 22 28 14 29 15 30 19 31 16 32 18 33 17 34
REMARK SMILES IDX 23 35 24 36 25 37 36 38 37 39 38 40 39 41 40 42 41 44 42 45
REMARK SMILES IDX 43 46 95 47 44 48 94 49 45 50 46 51 47 52 88 53 48 54 93 55
REMARK SMILES IDX 87 56 89 57 49 58 92 59 86 60 85 61 50 63 76 64 59 65 75 66
REMARK SMILES IDX 60 67 63 68 74 69 90 70 61 71 62 72 73 74 91 75 64 76 51 77
REMARK SMILES IDX 52 78 57 79 53 80 54 81 56 82 58 83 55 84 77 85 78 86 83 87
REMARK SMILES IDX 79 88 80 89 82 90 84 91 81 92 65 93 66 94 71 95 67 96 68 97
REMARK SMILES IDX 70 98 72 99 69 100
REMARK H PARENT 34 5 3 9 39 43 89 62 63 73
REMARK Flexibility Score: inf
ROOT
ATOM      1  C   UNL A   1      34.553  29.708  27.334  1.00  0.00     0.116 C 
ENDROOT
BRANCH   1   2
ATOM      2  N   UNL A   1      33.315  29.028  27.672  1.00  0.00    -0.355 N 
ATOM      3  C   UNL A   1      32.225  28.764  26.895  1.00  0.00     0.237 C 
ATOM      4  O   UNL A   1      31.252  28.219  27.420  1.00  0.00    -0.273 OA
ATOM      5  H   UNL A   1      33.251  28.710  28.602  1.00  0.00     0.163 HD
BRANCH   3   6
ATOM      6  C   UNL A   1      32.209  29.153  25.416  1.00  0.00     0.155 C 
ATOM      7  C   UNL A   1      31.028  30.065  25.112  1.00  0.00     0.036 C 
BRANCH   6   8
ATOM      8  N   UNL A   1      32.233  27.912  24.626  1.00  0.00    -0.199 NA
ATOM      9  H   UNL A   1      31.818  28.139  23.722  1.00  0.00     0.142 HD
BRANCH   8  10
ATOM     10  S   UNL A   1      33.651  27.118  24.303  1.00  0.00     0.241 S 
ATOM     11  O   UNL A   1      34.392  27.979  23.404  1.00  0.00    -0.207 OA
ATOM     12  O   UNL A   1      34.230  26.672  25.547  1.00  0.00    -0.207 OA
BRANCH  10  13
ATOM     13  C   UNL A   1      33.119  25.692  23.384  1.00  0.00     0.082 A 
ATOM     14  C   UNL A   1      31.752  25.502  23.164  1.00  0.00     0.022 A 
ATOM     15  C   UNL A   1      34.027  24.663  23.141  1.00  0.00     0.022 A 
ATOM     16  C   UNL A   1      31.267  24.216  22.924  1.00  0.00     0.012 A 
ATOM     17  C   UNL A   1      33.534  23.379  22.893  1.00  0.00     0.012 A 
ATOM     18  C   UNL A   1      32.145  23.123  23.041  1.00  0.00     0.000 A 
BRANCH  18  19
ATOM     19  C   UNL A   1      31.763  22.090  24.088  1.00  0.00     0.072 A 
ATOM     20  C   UNL A   1      31.902  20.733  23.839  1.00  0.00     0.038 A 
ATOM     21  N   UNL A   1      32.220  22.561  25.277  1.00  0.00    -0.248 NA
ATOM     22  C   UNL A   1      32.961  20.080  24.481  1.00  0.00    -0.007 A 
ATOM     23  C   UNL A   1      33.440  22.148  25.605  1.00  0.00     0.072 A 
ATOM     24  C   UNL A   1      33.908  20.923  25.115  1.00  0.00     0.015 A 
ATOM     25  C   UNL A   1      34.314  23.019  26.243  1.00  0.00     0.036 A 
ATOM     26  C   UNL A   1      35.298  20.671  25.125  1.00  0.00     0.096 A 
ATOM     27  C   UNL A   1      35.693  22.794  26.219  1.00  0.00     0.088 A 
ATOM     28  C   UNL A   1      36.181  21.643  25.601  1.00  0.00     0.270 A 
BRANCH  22  29
ATOM     29  C   UNL A   1      33.146  18.613  24.493  1.00  0.00    -0.018 A 
ATOM     30  C   UNL A   1      32.698  17.888  25.622  1.00  0.00     0.009 A 
ATOM     31  C   UNL A   1      33.724  17.884  23.449  1.00  0.00     0.009 A 
ATOM     32  C   UNL A   1      32.897  16.516  25.748  1.00  0.00     0.001 A 
ATOM     33  C   UNL A   1      33.905  16.497  23.564  1.00  0.00     0.001 A 
ATOM     34  C   UNL A   1      33.510  15.821  24.718  1.00  0.00     0.000 A 
ENDBRANCH  22  29
BRANCH  28  35
ATOM     35  N   UNL A   1      37.617  21.506  25.329  1.00  0.00     0.062 N 
ATOM     36  O   UNL A   1      38.378  22.341  25.841  1.00  0.00    -0.258 OA
ATOM     37  O   UNL A   1      37.986  20.556  24.629  1.00  0.00    -0.258 OA
ENDBRANCH  28  35
ENDBRANCH  18  19
ENDBRANCH  10  13
ENDBRANCH   8  10
ENDBRANCH   6   8
ENDBRANCH   3   6
ENDBRANCH   1   2
BRANCH   1  38
ATOM     38  C   UNL A   1      34.603  31.109  27.935  1.00  0.00     0.023 C 
BRANCH  38  39
ATOM     39  C   UNL A   1      33.281  31.870  27.861  1.00  0.00     0.023 C 
BRANCH  39  40
ATOM     40  C   UNL A   1      33.367  33.231  27.184  1.00  0.00     0.116 C 
BRANCH  40  41
ATOM     41  N   UNL A   1      32.833  34.305  28.009  1.00  0.00    -0.352 N 
ATOM     42  C   UNL A   1      33.275  34.748  29.231  1.00  0.00     0.251 C 
ATOM     43  H   UNL A   1      32.051  34.776  27.642  1.00  0.00     0.163 HD
ATOM     44  O   UNL A   1      32.625  35.566  29.872  1.00  0.00    -0.269 OA
BRANCH  42  45
ATOM     45  C   UNL A   1      34.530  34.200  29.782  1.00  0.00     0.039 A 
ATOM     46  C   UNL A   1      34.470  33.368  30.902  1.00  0.00     0.014 A 
ATOM     47  C   UNL A   1      35.753  34.470  29.163  1.00  0.00     0.014 A 
ATOM     48  C   UNL A   1      35.634  32.751  31.360  1.00  0.00     0.010 A 
ATOM     49  C   UNL A   1      36.894  33.786  29.566  1.00  0.00     0.010 A 
ATOM     50  C   UNL A   1      36.847  32.923  30.671  1.00  0.00    -0.014 A 
BRANCH  50  51
ATOM     51  C   UNL A   1      38.076  32.204  31.091  1.00  0.00     0.031 A 
ATOM     52  C   UNL A   1      38.918  32.741  32.215  1.00  0.00     0.074 A 
ATOM     53  C   UNL A   1      38.468  31.103  30.420  1.00  0.00     0.049 A 
ATOM     54  N   UNL A   1      40.050  32.288  32.689  1.00  0.00    -0.248 NA
ATOM     55  C   UNL A   1      38.437  33.965  32.876  1.00  0.00     0.031 C 
ATOM     56  C   UNL A   1      37.764  30.511  29.280  1.00  0.00     0.029 A 
ATOM     57  N   UNL A   1      39.559  30.289  30.595  1.00  0.00    -0.354 N 
ATOM     58  C   UNL A   1      40.421  33.175  33.692  1.00  0.00     0.074 A 
ATOM     59  C   UNL A   1      39.427  34.225  33.716  1.00  0.00     0.031 C 
ATOM     60  C   UNL A   1      38.423  29.412  28.880  1.00  0.00     0.029 A 
ATOM     61  C   UNL A   1      39.618  29.247  29.700  1.00  0.00     0.049 A 
ATOM     62  H   UNL A   1      40.235  30.438  31.295  1.00  0.00     0.167 HD
ATOM     63  C   UNL A   1      41.479  33.107  34.534  1.00  0.00     0.037 A 
ATOM     64  C   UNL A   1      40.537  28.274  29.554  1.00  0.00     0.037 A 
ATOM     65  C   UNL A   1      42.457  32.050  34.516  1.00  0.00     0.049 A 
ATOM     66  C   UNL A   1      41.717  28.235  30.485  1.00  0.00     0.074 A 
ATOM     67  C   UNL A   1      43.534  31.860  35.364  1.00  0.00     0.029 A 
ATOM     68  N   UNL A   1      42.482  31.012  33.597  1.00  0.00    -0.354 N 
ATOM     69  N   UNL A   1      42.017  29.038  31.477  1.00  0.00    -0.248 NA
ATOM     70  C   UNL A   1      42.686  27.149  30.280  1.00  0.00     0.031 C 
ATOM     71  C   UNL A   1      44.246  30.740  34.921  1.00  0.00     0.029 A 
ATOM     72  C   UNL A   1      43.575  30.195  33.837  1.00  0.00     0.049 A 
ATOM     73  H   UNL A   1      41.822  30.876  32.880  1.00  0.00     0.167 HD
ATOM     74  C   UNL A   1      43.186  28.538  32.035  1.00  0.00     0.074 A 
ATOM     75  C   UNL A   1      43.534  27.353  31.277  1.00  0.00     0.031 C 
ATOM     76  C   UNL A   1      43.907  29.014  33.080  1.00  0.00     0.037 A 
BRANCH  63  77
ATOM     77  C   UNL A   1      41.636  34.210  35.542  1.00  0.00     0.057 A 
ATOM     78  C   UNL A   1      42.377  35.367  35.266  1.00  0.00     0.134 A 
ATOM     79  C   UNL A   1      41.015  34.128  36.794  1.00  0.00     0.134 A 
ATOM     80  F   UNL A   1      43.008  35.508  34.089  1.00  0.00    -0.206 F 
ATOM     81  C   UNL A   1      42.521  36.387  36.209  1.00  0.00     0.040 A 
ATOM     82  C   UNL A   1      41.124  35.154  37.734  1.00  0.00     0.040 A 
ATOM     83  F   UNL A   1      40.285  33.052  37.124  1.00  0.00    -0.206 F 
ATOM     84  C   UNL A   1      41.886  36.285  37.445  1.00  0.00     0.006 A 
ENDBRANCH  63  77
BRANCH  64  85
ATOM     85  C   UNL A   1      40.371  27.246  28.495  1.00  0.00     0.057 A 
ATOM     86  C   UNL A   1      39.551  26.128  28.695  1.00  0.00     0.134 A 
ATOM     87  C   UNL A   1      41.032  27.346  27.264  1.00  0.00     0.134 A 
ATOM     88  F   UNL A   1      38.905  25.966  29.859  1.00  0.00    -0.206 F 
ATOM     89  C   UNL A   1      39.413  25.137  27.722  1.00  0.00     0.040 A 
ATOM     90  C   UNL A   1      40.880  26.378  26.271  1.00  0.00     0.040 A 
ATOM     91  F   UNL A   1      41.825  28.397  27.005  1.00  0.00    -0.206 F 
ATOM     92  C   UNL A   1      40.075  25.264  26.503  1.00  0.00     0.006 A 
ENDBRANCH  64  85
BRANCH  76  93
ATOM     93  C   UNL A   1      45.121  28.233  33.494  1.00  0.00     0.057 A 
ATOM     94  C   UNL A   1      46.389  28.485  32.954  1.00  0.00     0.134 A 
ATOM     95  C   UNL A   1      45.024  27.241  34.479  1.00  0.00     0.134 A 
ATOM     96  F   UNL A   1      46.549  29.413  31.999  1.00  0.00    -0.206 F 
ATOM     97  C   UNL A   1      47.511  27.760  33.358  1.00  0.00     0.040 A 
ATOM     98  C   UNL A   1      46.145  26.532  34.914  1.00  0.00     0.040 A 
ATOM     99  F   UNL A   1      43.843  26.955  35.046  1.00  0.00    -0.206 F 
ATOM    100  C   UNL A   1      47.391  26.786  34.348  1.00  0.00     0.006 A 
ENDBRANCH  76  93
ENDBRANCH  50  51
ENDBRANCH  42  45
ENDBRANCH  40  41
ENDBRANCH  39  40
ENDBRANCH  38  39
ENDBRANCH   1  38
TORSDOF 17
ENDMDL
MODEL 2
REMARK VINA RESULT:     -12.7      2.185      6.360
REMARK SMILES C[C@H](NS(=O)(=O)c1ccc(-c2cc(-c3ccccc3)c3cc([N+](=O)[O-])ccc3n2)cc1)C(=O)NCCCCNC(=O)c1ccc(-c2c3nc(c(-c4c(F)cccc4F)c4ccc([nH]4)c(-c4c(F)cccc4F)c4nc(c(-c5c(F)cccc5F)c5ccc2[nH]5)C=C4)C=C3)cc1
REMARK SMILES IDX 35 1 34 2 32 3 33 4 2 6 1 7 3 8 4 10 5 11 6 12 7 13 8 14
REMARK SMILES IDX 31 15 9 16 30 17 10 18 11 19 12 20 29 21 13 22 28 23 20 24
REMARK SMILES IDX 27 25 21 26 26 27 22 28 14 29 15 30 19 31 16 32 18 33 17 34
REMARK SMILES IDX 23 35 24 36 25 37 36 38 37 39 38 40 39 41 40 42 41 44 42 45
REMARK SMILES IDX 43 46 95 47 44 48 94 49 45 50 46 51 47 52 88 53 48 54 93 55
REMARK SMILES IDX 87 56 89 57 49 58 92 59 86 60 85 61 50 63 76 64 59 65 75 66
REMARK SMILES IDX 60 67 63 68 74 69 90 70 61 71 62 72 73 74 91 75 64 76 51 77
REMARK SMILES IDX 52 78 57 79 53 80 54 81 56 82 58 83 55 84 77 85 78 86 83 87
REMARK SMILES IDX 79 88 80 89 82 90 84 91 81 92 65 93 66 94 71 95 67 96 68 97
REMARK SMILES IDX 70 98 72 99 69 100
REMARK H PARENT 34 5 3 9 39 43 89 62 63 73
REMARK Flexibility Score: inf
ROOT
ATOM      1  C   UNL A   1      31.341  30.521  25.001  1.00  0.00     0.116 C 
ENDROOT
BRANCH   1   2
ATOM      2  N   UNL A   1      30.031  31.097  24.753  1.00  0.00    -0.355 N 
ATOM      3  C   UNL A   1      29.221  30.983  23.661  1.00  0.00     0.237 C 
ATOM      4  O   UNL A   1      28.164  31.618  23.651  1.00  0.00    -0.273 OA
ATOM      5  H   UNL A   1      29.673  31.654  25.482  1.00  0.00     0.163 HD
BRANCH   3   6
ATOM      6  C   UNL A   1      29.627  30.105  22.477  1.00  0.00     0.155 C 
ATOM      7  C   UNL A   1      28.839  30.484  21.230  1.00  0.00     0.036 C 
BRANCH   6   8
ATOM      8  N   UNL A   1      29.471  28.700  22.885  1.00  0.00    -0.199 NA
ATOM      9  H   UNL A   1      28.786  28.290  22.250  1.00  0.00     0.142 HD
BRANCH   8  10
ATOM     10  S   UNL A   1      30.760  27.660  22.917  1.00  0.00     0.241 S 
ATOM     11  O   UNL A   1      30.577  26.765  21.793  1.00  0.00    -0.207 OA
ATOM     12  O   UNL A   1      31.974  28.426  23.064  1.00  0.00    -0.207 OA
BRANCH  10  13
ATOM     13  C   UNL A   1      30.496  26.729  24.409  1.00  0.00     0.082 A 
ATOM     14  C   UNL A   1      31.022  27.215  25.609  1.00  0.00     0.022 A 
ATOM     15  C   UNL A   1      30.020  25.422  24.320  1.00  0.00     0.022 A 
ATOM     16  C   UNL A   1      31.286  26.328  26.653  1.00  0.00     0.012 A 
ATOM     17  C   UNL A   1      30.282  24.541  25.372  1.00  0.00     0.012 A 
ATOM     18  C   UNL A   1      31.143  24.947  26.426  1.00  0.00     0.000 A 
BRANCH  18  19
ATOM     19  C   UNL A   1      32.406  24.122  26.615  1.00  0.00     0.072 A 
ATOM     20  C   UNL A   1      32.425  22.766  26.326  1.00  0.00     0.038 A 
ATOM     21  N   UNL A   1      33.432  24.879  26.147  1.00  0.00    -0.248 NA
ATOM     22  C   UNL A   1      33.092  22.379  25.158  1.00  0.00    -0.007 A 
ATOM     23  C   UNL A   1      33.731  24.676  24.867  1.00  0.00     0.072 A 
ATOM     24  C   UNL A   1      33.460  23.434  24.284  1.00  0.00     0.015 A 
ATOM     25  C   UNL A   1      34.103  25.751  24.068  1.00  0.00     0.036 A 
ATOM     26  C   UNL A   1      33.402  23.339  22.875  1.00  0.00     0.096 A 
ATOM     27  C   UNL A   1      34.008  25.674  22.677  1.00  0.00     0.088 A 
ATOM     28  C   UNL A   1      33.595  24.478  22.090  1.00  0.00     0.270 A 
BRANCH  22  29
ATOM     29  C   UNL A   1      33.384  20.976  24.795  1.00  0.00    -0.018 A 
ATOM     30  C   UNL A   1      32.346  20.199  24.229  1.00  0.00     0.009 A 
ATOM     31  C   UNL A   1      34.630  20.363  24.959  1.00  0.00     0.009 A 
ATOM     32  C   UNL A   1      32.511  18.851  23.926  1.00  0.00     0.001 A 
ATOM     33  C   UNL A   1      34.806  19.011  24.631  1.00  0.00     0.001 A 
ATOM     34  C   UNL A   1      33.745  18.254  24.135  1.00  0.00     0.000 A 
ENDBRANCH  22  29
BRANCH  28  35
ATOM     35  N   UNL A   1      33.235  24.441  20.668  1.00  0.00     0.062 N 
ATOM     36  O   UNL A   1      32.993  25.522  20.111  1.00  0.00    -0.258 OA
ATOM     37  O   UNL A   1      33.217  23.341  20.103  1.00  0.00    -0.258 OA
ENDBRANCH  28  35
ENDBRANCH  18  19
ENDBRANCH  10  13
ENDBRANCH   8  10
ENDBRANCH   6   8
ENDBRANCH   3   6
ENDBRANCH   1   2
BRANCH   1  38
ATOM     38  C   UNL A   1      31.811  30.793  26.427  1.00  0.00     0.023 C 
BRANCH  38  39
ATOM     39  C   UNL A   1      31.507  32.204  26.927  1.00  0.00     0.023 C 
BRANCH  39  40
ATOM     40  C   UNL A   1      32.709  32.951  27.491  1.00  0.00     0.116 C 
BRANCH  40  41
ATOM     41  N   UNL A   1      32.429  34.355  27.748  1.00  0.00    -0.352 N 
ATOM     42  C   UNL A   1      33.017  35.192  28.665  1.00  0.00     0.251 C 
ATOM     43  H   UNL A   1      31.726  34.760  27.192  1.00  0.00     0.163 HD
ATOM     44  O   UNL A   1      32.566  36.314  28.866  1.00  0.00    -0.269 OA
BRANCH  42  45
ATOM     45  C   UNL A   1      34.182  34.711  29.432  1.00  0.00     0.039 A 
ATOM     46  C   UNL A   1      33.983  34.216  30.723  1.00  0.00     0.014 A 
ATOM     47  C   UNL A   1      35.455  34.704  28.858  1.00  0.00     0.014 A 
ATOM     48  C   UNL A   1      35.055  33.651  31.413  1.00  0.00     0.010 A 
ATOM     49  C   UNL A   1      36.501  34.062  29.511  1.00  0.00     0.010 A 
ATOM     50  C   UNL A   1      36.313  33.532  30.797  1.00  0.00    -0.014 A 
BRANCH  50  51
ATOM     51  C   UNL A   1      37.442  32.854  31.482  1.00  0.00     0.031 A 
ATOM     52  C   UNL A   1      38.108  31.667  30.843  1.00  0.00     0.074 A 
ATOM     53  C   UNL A   1      37.825  33.268  32.705  1.00  0.00     0.049 A 
ATOM     54  N   UNL A   1      39.069  30.911  31.307  1.00  0.00    -0.248 NA
ATOM     55  C   UNL A   1      37.610  31.260  29.520  1.00  0.00     0.031 C 
ATOM     56  C   UNL A   1      37.226  34.376  33.451  1.00  0.00     0.029 A 
ATOM     57  N   UNL A   1      38.809  32.800  33.541  1.00  0.00    -0.354 N 
ATOM     58  C   UNL A   1      39.281  29.935  30.341  1.00  0.00     0.074 A 
ATOM     59  C   UNL A   1      38.308  30.157  29.295  1.00  0.00     0.031 C 
ATOM     60  C   UNL A   1      37.874  34.522  34.618  1.00  0.00     0.029 A 
ATOM     61  C   UNL A   1      38.901  33.491  34.725  1.00  0.00     0.049 A 
ATOM     62  H   UNL A   1      39.391  32.040  33.313  1.00  0.00     0.167 HD
ATOM     63  C   UNL A   1      40.219  28.959  30.315  1.00  0.00     0.037 A 
ATOM     64  C   UNL A   1      39.717  33.310  35.780  1.00  0.00     0.037 A 
ATOM     65  C   UNL A   1      41.196  28.752  31.353  1.00  0.00     0.049 A 
ATOM     66  C   UNL A   1      40.733  32.202  35.738  1.00  0.00     0.074 A 
ATOM     67  C   UNL A   1      42.225  27.827  31.394  1.00  0.00     0.029 A 
ATOM     68  N   UNL A   1      41.260  29.474  32.535  1.00  0.00    -0.354 N 
ATOM     69  N   UNL A   1      40.972  31.333  34.786  1.00  0.00    -0.248 NA
ATOM     70  C   UNL A   1      41.598  32.052  36.917  1.00  0.00     0.031 C 
ATOM     71  C   UNL A   1      42.873  27.949  32.627  1.00  0.00     0.029 A 
ATOM     72  C   UNL A   1      42.290  28.994  33.327  1.00  0.00     0.049 A 
ATOM     73  H   UNL A   1      40.661  30.217  32.776  1.00  0.00     0.167 HD
ATOM     74  C   UNL A   1      42.033  30.557  35.235  1.00  0.00     0.074 A 
ATOM     75  C   UNL A   1      42.401  31.068  36.539  1.00  0.00     0.031 C 
ATOM     76  C   UNL A   1      42.650  29.516  34.622  1.00  0.00     0.037 A 
BRANCH  63  77
ATOM     77  C   UNL A   1      40.228  28.036  29.130  1.00  0.00     0.057 A 
ATOM     78  C   UNL A   1      40.980  28.313  27.980  1.00  0.00     0.134 A 
ATOM     79  C   UNL A   1      39.496  26.842  29.148  1.00  0.00     0.134 A 
ATOM     80  F   UNL A   1      41.696  29.445  27.890  1.00  0.00    -0.206 F 
ATOM     81  C   UNL A   1      40.981  27.452  26.881  1.00  0.00     0.040 A 
ATOM     82  C   UNL A   1      39.514  25.957  28.068  1.00  0.00     0.040 A 
ATOM     83  F   UNL A   1      38.759  26.510  30.218  1.00  0.00    -0.206 F 
ATOM     84  C   UNL A   1      40.251  26.266  26.927  1.00  0.00     0.006 A 
ENDBRANCH  63  77
BRANCH  64  85
ATOM     85  C   UNL A   1      39.621  34.208  36.959  1.00  0.00     0.057 A 
ATOM     86  C   UNL A   1      40.255  35.456  36.971  1.00  0.00     0.134 A 
ATOM     87  C   UNL A   1      38.906  33.840  38.106  1.00  0.00     0.134 A 
ATOM     88  F   UNL A   1      40.970  35.859  35.910  1.00  0.00    -0.206 F 
ATOM     89  C   UNL A   1      40.201  36.295  38.085  1.00  0.00     0.040 A 
ATOM     90  C   UNL A   1      38.819  34.681  39.216  1.00  0.00     0.040 A 
ATOM     91  F   UNL A   1      38.268  32.661  38.156  1.00  0.00    -0.206 F 
ATOM     92  C   UNL A   1      39.477  35.909  39.210  1.00  0.00     0.006 A 
ENDBRANCH  64  85
BRANCH  76  93
ATOM     93  C   UNL A   1      43.812  28.886  35.335  1.00  0.00     0.057 A 
ATOM     94  C   UNL A   1      45.130  29.313  35.133  1.00  0.00     0.134 A 
ATOM     95  C   UNL A   1      43.600  27.862  36.269  1.00  0.00     0.134 A 
ATOM     96  F   UNL A   1      45.403  30.281  34.245  1.00  0.00    -0.206 F 
ATOM     97  C   UNL A   1      46.199  28.727  35.813  1.00  0.00     0.040 A 
ATOM     98  C   UNL A   1      44.658  27.291  36.978  1.00  0.00     0.040 A 
ATOM     99  F   UNL A   1      42.363  27.412  36.519  1.00  0.00    -0.206 F 
ATOM    100  C   UNL A   1      45.963  27.718  36.745  1.00  0.00     0.006 A 
ENDBRANCH  76  93
ENDBRANCH  50  51
ENDBRANCH  42  45
ENDBRANCH  40  41
ENDBRANCH  39  40
ENDBRANCH  38  39
ENDBRANCH   1  38
TORSDOF 17
ENDMDL
MODEL 3
REMARK VINA RESULT:     -12.6      2.005      3.055
REMARK SMILES C[C@H](NS(=O)(=O)c1ccc(-c2cc(-c3ccccc3)c3cc([N+](=O)[O-])ccc3n2)cc1)C(=O)NCCCCNC(=O)c1ccc(-c2c3nc(c(-c4c(F)cccc4F)c4ccc([nH]4)c(-c4c(F)cccc4F)c4nc(c(-c5c(F)cccc5F)c5ccc2[nH]5)C=C4)C=C3)cc1
REMARK SMILES IDX 35 1 34 2 32 3 33 4 2 6 1 7 3 8 4 10 5 11 6 12 7 13 8 14
REMARK SMILES IDX 31 15 9 16 30 17 10 18 11 19 12 20 29 21 13 22 28 23 20 24
REMARK SMILES IDX 27 25 21 26 26 27 22 28 14 29 15 30 19 31 16 32 18 33 17 34
REMARK SMILES IDX 23 35 24 36 25 37 36 38 37 39 38 40 39 41 40 42 41 44 42 45
REMARK SMILES IDX 43 46 95 47 44 48 94 49 45 50 46 51 47 52 88 53 48 54 93 55
REMARK SMILES IDX 87 56 89 57 49 58 92 59 86 60 85 61 50 63 76 64 59 65 75 66
REMARK SMILES IDX 60 67 63 68 74 69 90 70 61 71 62 72 73 74 91 75 64 76 51 77
REMARK SMILES IDX 52 78 57 79 53 80 54 81 56 82 58 83 55 84 77 85 78 86 83 87
REMARK SMILES IDX 79 88 80 89 82 90 84 91 81 92 65 93 66 94 71 95 67 96 68 97
REMARK SMILES IDX 70 98 72 99 69 100
REMARK H PARENT 34 5 3 9 39 43 89 62 63 73
REMARK Flexibility Score: inf
ROOT
ATOM      1  C   UNL A   1      31.231  30.796  24.814  1.00  0.00     0.116 C 
ENDROOT
BRANCH   1   2
ATOM      2  N   UNL A   1      29.835  31.162  24.650  1.00  0.00    -0.355 N 
ATOM      3  C   UNL A   1      29.003  30.972  23.585  1.00  0.00     0.237 C 
ATOM      4  O   UNL A   1      27.859  31.425  23.651  1.00  0.00    -0.273 OA
ATOM      5  H   UNL A   1      29.426  31.615  25.423  1.00  0.00     0.163 HD
BRANCH   3   6
ATOM      6  C   UNL A   1      29.489  30.234  22.337  1.00  0.00     0.155 C 
ATOM      7  C   UNL A   1      28.733  30.708  21.103  1.00  0.00     0.036 C 
BRANCH   6   8
ATOM      8  N   UNL A   1      29.376  28.791  22.597  1.00  0.00    -0.199 NA
ATOM      9  H   UNL A   1      28.838  28.400  21.824  1.00  0.00     0.142 HD
BRANCH   8  10
ATOM     10  S   UNL A   1      30.719  27.834  22.762  1.00  0.00     0.241 S 
ATOM     11  O   UNL A   1      30.666  26.883  21.671  1.00  0.00    -0.207 OA
ATOM     12  O   UNL A   1      31.873  28.678  22.954  1.00  0.00    -0.207 OA
BRANCH  10  13
ATOM     13  C   UNL A   1      30.407  26.951  24.275  1.00  0.00     0.082 A 
ATOM     14  C   UNL A   1      30.901  27.473  25.473  1.00  0.00     0.022 A 
ATOM     15  C   UNL A   1      29.927  25.645  24.213  1.00  0.00     0.022 A 
ATOM     16  C   UNL A   1      31.131  26.618  26.551  1.00  0.00     0.012 A 
ATOM     17  C   UNL A   1      30.154  24.795  25.299  1.00  0.00     0.012 A 
ATOM     18  C   UNL A   1      30.987  25.231  26.364  1.00  0.00     0.000 A 
BRANCH  18  19
ATOM     19  C   UNL A   1      32.239  24.406  26.614  1.00  0.00     0.072 A 
ATOM     20  C   UNL A   1      32.255  23.040  26.376  1.00  0.00     0.038 A 
ATOM     21  N   UNL A   1      33.281  25.138  26.144  1.00  0.00    -0.248 NA
ATOM     22  C   UNL A   1      32.949  22.606  25.240  1.00  0.00    -0.007 A 
ATOM     23  C   UNL A   1      33.610  24.887  24.881  1.00  0.00     0.072 A 
ATOM     24  C   UNL A   1      33.345  23.625  24.337  1.00  0.00     0.015 A 
ATOM     25  C   UNL A   1      34.009  25.929  24.052  1.00  0.00     0.036 A 
ATOM     26  C   UNL A   1      33.321  23.478  22.932  1.00  0.00     0.096 A 
ATOM     27  C   UNL A   1      33.947  25.801  22.662  1.00  0.00     0.088 A 
ATOM     28  C   UNL A   1      33.541  24.586  22.110  1.00  0.00     0.270 A 
BRANCH  22  29
ATOM     29  C   UNL A   1      33.240  21.189  24.937  1.00  0.00    -0.018 A 
ATOM     30  C   UNL A   1      34.564  20.722  25.111  1.00  0.00     0.009 A 
ATOM     31  C   UNL A   1      32.285  20.265  24.501  1.00  0.00     0.009 A 
ATOM     32  C   UNL A   1      34.941  19.424  24.781  1.00  0.00     0.001 A 
ATOM     33  C   UNL A   1      32.658  18.949  24.189  1.00  0.00     0.001 A 
ATOM     34  C   UNL A   1      33.985  18.537  24.311  1.00  0.00     0.000 A 
ENDBRANCH  22  29
BRANCH  28  35
ATOM     35  N   UNL A   1      33.215  24.498  20.682  1.00  0.00     0.062 N 
ATOM     36  O   UNL A   1      32.995  25.560  20.079  1.00  0.00    -0.258 OA
ATOM     37  O   UNL A   1      33.204  23.378  20.158  1.00  0.00    -0.258 OA
ENDBRANCH  28  35
ENDBRANCH  18  19
ENDBRANCH  10  13
ENDBRANCH   8  10
ENDBRANCH   6   8
ENDBRANCH   3   6
ENDBRANCH   1   2
BRANCH   1  38
ATOM     38  C   UNL A   1      31.655  30.851  26.278  1.00  0.00     0.023 C 
BRANCH  38  39
ATOM     39  C   UNL A   1      31.405  32.199  26.951  1.00  0.00     0.023 C 
BRANCH  39  40
ATOM     40  C   UNL A   1      32.665  32.942  27.374  1.00  0.00     0.116 C 
BRANCH  40  41
ATOM     41  N   UNL A   1      32.408  34.329  27.732  1.00  0.00    -0.352 N 
ATOM     42  C   UNL A   1      33.046  35.105  28.668  1.00  0.00     0.251 C 
ATOM     43  H   UNL A   1      31.681  34.770  27.236  1.00  0.00     0.163 HD
ATOM     44  O   UNL A   1      32.613  36.214  28.960  1.00  0.00    -0.269 OA
BRANCH  42  45
ATOM     45  C   UNL A   1      34.243  34.572  29.347  1.00  0.00     0.039 A 
ATOM     46  C   UNL A   1      34.093  33.930  30.578  1.00  0.00     0.014 A 
ATOM     47  C   UNL A   1      35.500  34.665  28.743  1.00  0.00     0.014 A 
ATOM     48  C   UNL A   1      35.197  33.321  31.171  1.00  0.00     0.010 A 
ATOM     49  C   UNL A   1      36.579  33.982  29.293  1.00  0.00     0.010 A 
ATOM     50  C   UNL A   1      36.439  33.306  30.514  1.00  0.00    -0.014 A 
BRANCH  50  51
ATOM     51  C   UNL A   1      37.604  32.586  31.089  1.00  0.00     0.031 A 
ATOM     52  C   UNL A   1      38.232  33.066  32.367  1.00  0.00     0.074 A 
ATOM     53  C   UNL A   1      38.133  31.538  30.427  1.00  0.00     0.049 A 
ATOM     54  N   UNL A   1      39.284  32.606  32.995  1.00  0.00    -0.248 NA
ATOM     55  C   UNL A   1      37.613  34.235  33.011  1.00  0.00     0.031 C 
ATOM     56  C   UNL A   1      37.644  31.007  29.153  1.00  0.00     0.029 A 
ATOM     57  N   UNL A   1      39.204  30.735  30.732  1.00  0.00    -0.354 N 
ATOM     58  C   UNL A   1      39.458  33.434  34.097  1.00  0.00     0.074 A 
ATOM     59  C   UNL A   1      38.443  34.461  34.019  1.00  0.00     0.031 C 
ATOM     60  C   UNL A   1      38.393  29.948  28.802  1.00  0.00     0.029 A 
ATOM     61  C   UNL A   1      39.441  29.755  29.799  1.00  0.00     0.049 A 
ATOM     62  H   UNL A   1      39.750  30.852  31.542  1.00  0.00     0.167 HD
ATOM     63  C   UNL A   1      40.364  33.332  35.098  1.00  0.00     0.037 A 
ATOM     64  C   UNL A   1      40.400  28.812  29.749  1.00  0.00     0.037 A 
ATOM     65  C   UNL A   1      41.363  32.298  35.179  1.00  0.00     0.049 A 
ATOM     66  C   UNL A   1      41.411  28.735  30.859  1.00  0.00     0.074 A 
ATOM     67  C   UNL A   1      42.291  32.074  36.181  1.00  0.00     0.029 A 
ATOM     68  N   UNL A   1      41.570  31.321  34.216  1.00  0.00    -0.354 N 
ATOM     69  N   UNL A   1      41.519  29.478  31.934  1.00  0.00    -0.248 NA
ATOM     70  C   UNL A   1      42.433  27.684  30.754  1.00  0.00     0.031 C 
ATOM     71  C   UNL A   1      43.098  30.999  35.797  1.00  0.00     0.029 A 
ATOM     72  C   UNL A   1      42.632  30.511  34.585  1.00  0.00     0.049 A 
ATOM     73  H   UNL A   1      41.041  31.218  33.392  1.00  0.00     0.167 HD
ATOM     74  C   UNL A   1      42.595  28.966  32.647  1.00  0.00     0.074 A 
ATOM     75  C   UNL A   1      43.098  27.840  31.888  1.00  0.00     0.031 C 
ATOM     76  C   UNL A   1      43.119  29.389  33.824  1.00  0.00     0.037 A 
BRANCH  63  77
ATOM     77  C   UNL A   1      40.320  34.371  36.182  1.00  0.00     0.057 A 
ATOM     78  C   UNL A   1      39.520  34.219  37.323  1.00  0.00     0.134 A 
ATOM     79  C   UNL A   1      41.108  35.525  36.098  1.00  0.00     0.134 A 
ATOM     80  F   UNL A   1      38.731  33.143  37.463  1.00  0.00    -0.206 F 
ATOM     81  C   UNL A   1      39.482  35.191  38.325  1.00  0.00     0.040 A 
ATOM     82  C   UNL A   1      41.105  36.489  37.108  1.00  0.00     0.040 A 
ATOM     83  F   UNL A   1      41.903  35.733  35.037  1.00  0.00    -0.206 F 
ATOM     84  C   UNL A   1      40.283  36.327  38.222  1.00  0.00     0.006 A 
ENDBRANCH  63  77
BRANCH  64  85
ATOM     85  C   UNL A   1      40.441  27.850  28.617  1.00  0.00     0.057 A 
ATOM     86  C   UNL A   1      41.163  28.136  27.452  1.00  0.00     0.134 A 
ATOM     87  C   UNL A   1      39.755  26.631  28.665  1.00  0.00     0.134 A 
ATOM     88  F   UNL A   1      41.827  29.296  27.337  1.00  0.00    -0.206 F 
ATOM     89  C   UNL A   1      41.182  27.258  26.368  1.00  0.00     0.040 A 
ATOM     90  C   UNL A   1      39.789  25.730  27.600  1.00  0.00     0.040 A 
ATOM     91  F   UNL A   1      39.052  26.291  29.756  1.00  0.00    -0.206 F 
ATOM     92  C   UNL A   1      40.497  26.047  26.443  1.00  0.00     0.006 A 
ENDBRANCH  64  85
BRANCH  76  93
ATOM     93  C   UNL A   1      44.271  28.606  34.386  1.00  0.00     0.057 A 
ATOM     94  C   UNL A   1      45.604  28.962  34.142  1.00  0.00     0.134 A 
ATOM     95  C   UNL A   1      44.040  27.503  35.220  1.00  0.00     0.134 A 
ATOM     96  F   UNL A   1      45.895  30.000  33.343  1.00  0.00    -0.206 F 
ATOM     97  C   UNL A   1      46.665  28.233  34.682  1.00  0.00     0.040 A 
ATOM     98  C   UNL A   1      45.092  26.787  35.792  1.00  0.00     0.040 A 
ATOM     99  F   UNL A   1      42.789  27.114  35.505  1.00  0.00    -0.206 F 
ATOM    100  C   UNL A   1      46.409  27.148  35.518  1.00  0.00     0.006 A 
ENDBRANCH  76  93
ENDBRANCH  50  51
ENDBRANCH  42  45
ENDBRANCH  40  41
ENDBRANCH  39  40
ENDBRANCH  38  39
ENDBRANCH   1  38
TORSDOF 17
ENDMDL
