MODEL 1
REMARK VINA RESULT:     -13.0      0.000      0.000
REMARK SMILES NS(=O)(=O)c1ccc(-n2nc(NC(=O)NCCCC(=O)NCCCCNC(=O)c3ccc(-c4c5nc(c(-c6c(F)cccc6F)c6ccc([nH]6)c(-c6c(F)cccc6F)c6nc(c(-c7c(F)cccc7F)c7ccc4[nH]7)C=C6)C=C5)cc3)cc2-c2ccccc2)cc1
REMARK SMILES IDX 19 1 20 2 21 3 18 5 17 6 16 7 15 8 12 9 13 10 14 12 11 14
REMARK SMILES IDX 9 15 10 16 84 17 83 18 8 19 5 20 6 21 92 22 7 23 91 24 2 25
REMARK SMILES IDX 3 26 4 27 1 28 85 31 86 32 90 33 87 34 89 35 88 36 22 37
REMARK SMILES IDX 23 38 24 39 25 40 26 41 27 42 28 44 29 45 30 46 82 47 31 48
REMARK SMILES IDX 81 49 32 50 33 51 34 52 75 53 35 54 80 55 74 56 76 57 36 58
REMARK SMILES IDX 79 59 73 60 72 61 37 63 63 64 46 65 62 66 47 67 50 68 61 69
REMARK SMILES IDX 77 70 48 71 49 72 60 74 78 75 51 76 38 77 39 78 44 79 40 80
REMARK SMILES IDX 41 81 43 82 45 83 42 84 64 85 65 86 70 87 66 88 67 89 69 90
REMARK SMILES IDX 71 91 68 92 52 93 53 94 58 95 54 96 55 97 57 98 59 99 56 100
REMARK H PARENT 21 4 12 11 15 13 1 29 1 30 26 43 76 62 50 73
REMARK Flexibility Score: inf
ROOT
ATOM      1  C   UNL A   1      37.155  23.016  25.522  1.00  0.00     0.220 C 
ATOM      2  O   UNL A   1      36.859  24.117  25.992  1.00  0.00    -0.275 OA
ATOM      3  N   UNL A   1      38.171  22.326  26.113  1.00  0.00    -0.356 N 
ATOM      4  H   UNL A   1      38.491  22.714  26.959  1.00  0.00     0.163 HD
ENDROOT
BRANCH   1   5
ATOM      5  C   UNL A   1      36.376  22.441  24.349  1.00  0.00     0.102 C 
BRANCH   5   6
ATOM      6  C   UNL A   1      35.840  23.482  23.364  1.00  0.00     0.031 C 
BRANCH   6   7
ATOM      7  C   UNL A   1      34.324  23.549  23.280  1.00  0.00     0.118 C 
BRANCH   7   8
ATOM      8  N   UNL A   1      33.648  22.299  22.986  1.00  0.00    -0.338 N 
ATOM      9  N   UNL A   1      31.673  22.394  24.332  1.00  0.00    -0.291 N 
ATOM     10  C   UNL A   1      32.480  21.787  23.434  1.00  0.00     0.320 C 
ATOM     11  H   UNL A   1      31.035  21.788  24.773  1.00  0.00     0.173 HD
ATOM     12  O   UNL A   1      32.194  20.642  23.070  1.00  0.00    -0.248 OA
ATOM     13  H   UNL A   1      34.125  21.721  22.347  1.00  0.00     0.165 HD
BRANCH   9  14
ATOM     14  C   UNL A   1      31.579  23.701  24.742  1.00  0.00     0.157 A 
ATOM     15  N   UNL A   1      30.982  25.732  24.734  1.00  0.00    -0.231 N 
ATOM     16  N   UNL A   1      30.531  24.486  24.523  1.00  0.00    -0.149 NA
ATOM     17  C   UNL A   1      32.109  25.710  25.541  1.00  0.00     0.076 A 
ATOM     18  C   UNL A   1      32.529  24.389  25.530  1.00  0.00     0.078 A 
BRANCH  15  19
ATOM     19  C   UNL A   1      30.357  26.827  24.076  1.00  0.00     0.065 A 
ATOM     20  C   UNL A   1      29.121  28.959  22.772  1.00  0.00     0.082 A 
ATOM     21  C   UNL A   1      30.510  28.953  22.924  1.00  0.00     0.024 A 
ATOM     22  C   UNL A   1      28.347  27.894  23.239  1.00  0.00     0.024 A 
ATOM     23  C   UNL A   1      31.128  27.889  23.583  1.00  0.00     0.030 A 
ATOM     24  C   UNL A   1      28.970  26.818  23.875  1.00  0.00     0.030 A 
BRANCH  20  25
ATOM     25  S   UNL A   1      28.314  30.360  22.060  1.00  0.00     0.238 S 
ATOM     26  O   UNL A   1      27.326  30.858  22.982  1.00  0.00    -0.207 OA
ATOM     27  O   UNL A   1      28.028  30.076  20.670  1.00  0.00    -0.207 OA
BRANCH  25  28
ATOM     28  N   UNL A   1      29.523  31.532  22.052  1.00  0.00    -0.225 NA
ATOM     29  H   UNL A   1      30.310  31.205  21.492  1.00  0.00     0.137 HD
ATOM     30  H   UNL A   1      29.834  31.707  23.008  1.00  0.00     0.137 HD
ENDBRANCH  25  28
ENDBRANCH  20  25
ENDBRANCH  15  19
BRANCH  17  31
ATOM     31  C   UNL A   1      32.622  26.892  26.215  1.00  0.00     0.000 A 
ATOM     32  C   UNL A   1      31.775  27.611  27.074  1.00  0.00     0.010 A 
ATOM     33  C   UNL A   1      33.903  27.376  25.945  1.00  0.00     0.010 A 
ATOM     34  C   UNL A   1      32.185  28.825  27.616  1.00  0.00     0.001 A 
ATOM     35  C   UNL A   1      34.312  28.594  26.493  1.00  0.00     0.001 A 
ATOM     36  C   UNL A   1      33.451  29.320  27.318  1.00  0.00     0.000 A 
ENDBRANCH  17  31
ENDBRANCH   9  14
ENDBRANCH   7   8
ENDBRANCH   6   7
ENDBRANCH   5   6
ENDBRANCH   1   5
BRANCH   3  37
ATOM     37  C   UNL A   1      38.861  21.111  25.705  1.00  0.00     0.116 C 
BRANCH  37  38
ATOM     38  C   UNL A   1      40.159  20.918  26.493  1.00  0.00     0.023 C 
BRANCH  38  39
ATOM     39  C   UNL A   1      41.142  19.852  26.005  1.00  0.00     0.023 C 
BRANCH  39  40
ATOM     40  C   UNL A   1      42.467  19.839  26.743  1.00  0.00     0.116 C 
BRANCH  40  41
ATOM     41  N   UNL A   1      43.596  19.481  25.883  1.00  0.00    -0.352 N 
ATOM     42  C   UNL A   1      44.315  20.320  25.056  1.00  0.00     0.251 C 
ATOM     43  H   UNL A   1      43.872  18.536  25.896  1.00  0.00     0.163 HD
ATOM     44  O   UNL A   1      44.941  19.893  24.093  1.00  0.00    -0.269 OA
BRANCH  42  45
ATOM     45  C   UNL A   1      44.318  21.755  25.373  1.00  0.00     0.039 A 
ATOM     46  C   UNL A   1      43.391  22.627  24.799  1.00  0.00     0.014 A 
ATOM     47  C   UNL A   1      45.222  22.193  26.341  1.00  0.00     0.014 A 
ATOM     48  C   UNL A   1      43.314  23.927  25.287  1.00  0.00     0.010 A 
ATOM     49  C   UNL A   1      45.051  23.429  26.915  1.00  0.00     0.010 A 
ATOM     50  C   UNL A   1      44.123  24.312  26.372  1.00  0.00    -0.014 A 
BRANCH  50  51
ATOM     51  C   UNL A   1      43.883  25.580  27.056  1.00  0.00     0.031 A 
ATOM     52  C   UNL A   1      44.870  26.643  26.717  1.00  0.00     0.074 A 
ATOM     53  C   UNL A   1      42.765  25.846  27.768  1.00  0.00     0.049 A 
ATOM     54  N   UNL A   1      45.791  27.124  27.483  1.00  0.00    -0.248 NA
ATOM     55  C   UNL A   1      44.959  27.110  25.322  1.00  0.00     0.031 C 
ATOM     56  C   UNL A   1      41.570  25.008  27.924  1.00  0.00     0.029 A 
ATOM     57  N   UNL A   1      42.415  26.981  28.437  1.00  0.00    -0.354 N 
ATOM     58  C   UNL A   1      46.422  28.123  26.745  1.00  0.00     0.074 A 
ATOM     59  C   UNL A   1      46.013  27.928  25.380  1.00  0.00     0.031 C 
ATOM     60  C   UNL A   1      40.557  25.746  28.431  1.00  0.00     0.029 A 
ATOM     61  C   UNL A   1      41.073  27.051  28.801  1.00  0.00     0.049 A 
ATOM     62  H   UNL A   1      43.062  27.694  28.648  1.00  0.00     0.167 HD
ATOM     63  C   UNL A   1      47.004  29.182  27.375  1.00  0.00     0.037 A 
ATOM     64  C   UNL A   1      40.429  28.109  29.355  1.00  0.00     0.037 A 
ATOM     65  C   UNL A   1      47.163  28.908  28.784  1.00  0.00     0.049 A 
ATOM     66  C   UNL A   1      41.464  28.992  29.940  1.00  0.00     0.074 A 
ATOM     67  C   UNL A   1      47.831  27.962  29.534  1.00  0.00     0.029 A 
ATOM     68  N   UNL A   1      46.234  29.472  29.624  1.00  0.00    -0.354 N 
ATOM     69  N   UNL A   1      42.181  28.680  30.982  1.00  0.00    -0.248 NA
ATOM     70  C   UNL A   1      42.009  30.044  29.099  1.00  0.00     0.031 C 
ATOM     71  C   UNL A   1      46.971  27.691  30.640  1.00  0.00     0.029 A 
ATOM     72  C   UNL A   1      45.866  28.537  30.551  1.00  0.00     0.049 A 
ATOM     73  H   UNL A   1      45.893  30.394  29.567  1.00  0.00     0.167 HD
ATOM     74  C   UNL A   1      43.452  29.138  30.677  1.00  0.00     0.074 A 
ATOM     75  C   UNL A   1      43.260  30.067  29.564  1.00  0.00     0.031 C 
ATOM     76  C   UNL A   1      44.555  28.494  31.159  1.00  0.00     0.037 A 
BRANCH  63  77
ATOM     77  C   UNL A   1      47.012  30.604  26.852  1.00  0.00     0.057 A 
ATOM     78  C   UNL A   1      48.207  31.347  26.941  1.00  0.00     0.134 A 
ATOM     79  C   UNL A   1      45.859  31.368  26.583  1.00  0.00     0.134 A 
ATOM     80  F   UNL A   1      49.378  30.742  27.191  1.00  0.00    -0.206 F 
ATOM     81  C   UNL A   1      48.232  32.746  26.879  1.00  0.00     0.040 A 
ATOM     82  C   UNL A   1      45.882  32.762  26.469  1.00  0.00     0.040 A 
ATOM     83  F   UNL A   1      44.636  30.833  26.517  1.00  0.00    -0.206 F 
ATOM     84  C   UNL A   1      47.064  33.460  26.655  1.00  0.00     0.006 A 
ENDBRANCH  63  77
BRANCH  64  85
ATOM     85  C   UNL A   1      39.025  28.559  29.207  1.00  0.00     0.057 A 
ATOM     86  C   UNL A   1      38.160  28.607  30.312  1.00  0.00     0.134 A 
ATOM     87  C   UNL A   1      38.591  29.239  28.056  1.00  0.00     0.134 A 
ATOM     88  F   UNL A   1      38.499  28.018  31.469  1.00  0.00    -0.206 F 
ATOM     89  C   UNL A   1      36.955  29.324  30.289  1.00  0.00     0.040 A 
ATOM     90  C   UNL A   1      37.389  29.955  28.020  1.00  0.00     0.040 A 
ATOM     91  F   UNL A   1      39.364  29.311  26.964  1.00  0.00    -0.206 F 
ATOM     92  C   UNL A   1      36.575  30.015  29.144  1.00  0.00     0.006 A 
ENDBRANCH  64  85
BRANCH  76  93
ATOM     93  C   UNL A   1      44.360  27.505  32.275  1.00  0.00     0.057 A 
ATOM     94  C   UNL A   1      44.159  26.127  32.102  1.00  0.00     0.134 A 
ATOM     95  C   UNL A   1      44.517  27.960  33.589  1.00  0.00     0.134 A 
ATOM     96  F   UNL A   1      44.089  25.580  30.882  1.00  0.00    -0.206 F 
ATOM     97  C   UNL A   1      44.074  25.253  33.192  1.00  0.00     0.040 A 
ATOM     98  C   UNL A   1      44.472  27.094  34.682  1.00  0.00     0.040 A 
ATOM     99  F   UNL A   1      44.762  29.259  33.830  1.00  0.00    -0.206 F 
ATOM    100  C   UNL A   1      44.239  25.736  34.487  1.00  0.00     0.006 A 
ENDBRANCH  76  93
ENDBRANCH  50  51
ENDBRANCH  42  45
ENDBRANCH  40  41
ENDBRANCH  39  40
ENDBRANCH  38  39
ENDBRANCH  37  38
ENDBRANCH   3  37
TORSDOF 19
ENDMDL
MODEL 2
REMARK VINA RESULT:     -12.5      1.782      5.514
REMARK SMILES NS(=O)(=O)c1ccc(-n2nc(NC(=O)NCCCC(=O)NCCCCNC(=O)c3ccc(-c4c5nc(c(-c6c(F)cccc6F)c6ccc([nH]6)c(-c6c(F)cccc6F)c6nc(c(-c7c(F)cccc7F)c7ccc4[nH]7)C=C6)C=C5)cc3)cc2-c2ccccc2)cc1
REMARK SMILES IDX 19 1 20 2 21 3 18 5 17 6 16 7 15 8 12 9 13 10 14 12 11 14
REMARK SMILES IDX 9 15 10 16 84 17 83 18 8 19 5 20 6 21 92 22 7 23 91 24 2 25
REMARK SMILES IDX 3 26 4 27 1 28 85 31 86 32 90 33 87 34 89 35 88 36 22 37
REMARK SMILES IDX 23 38 24 39 25 40 26 41 27 42 28 44 29 45 30 46 82 47 31 48
REMARK SMILES IDX 81 49 32 50 33 51 34 52 75 53 35 54 80 55 74 56 76 57 36 58
REMARK SMILES IDX 79 59 73 60 72 61 37 63 63 64 46 65 62 66 47 67 50 68 61 69
REMARK SMILES IDX 77 70 48 71 49 72 60 74 78 75 51 76 38 77 39 78 44 79 40 80
REMARK SMILES IDX 41 81 43 82 45 83 42 84 64 85 65 86 70 87 66 88 67 89 69 90
REMARK SMILES IDX 71 91 68 92 52 93 53 94 58 95 54 96 55 97 57 98 59 99 56 100
REMARK H PARENT 21 4 12 11 15 13 1 29 1 30 26 43 76 62 50 73
REMARK Flexibility Score: inf
ROOT
ATOM      1  C   UNL A   1      34.487  21.886  27.000  1.00  0.00     0.220 C 
ATOM      2  O   UNL A   1      34.429  22.616  27.992  1.00  0.00    -0.275 OA
ATOM      3  N   UNL A   1      35.720  21.608  26.489  1.00  0.00    -0.356 N 
ATOM      4  H   UNL A   1      36.472  21.909  27.048  1.00  0.00     0.163 HD
ENDROOT
BRANCH   1   5
ATOM      5  C   UNL A   1      33.223  21.290  26.402  1.00  0.00     0.102 C 
BRANCH   5   6
ATOM      6  C   UNL A   1      31.992  22.196  26.470  1.00  0.00     0.031 C 
BRANCH   6   7
ATOM      7  C   UNL A   1      31.086  22.124  25.253  1.00  0.00     0.118 C 
BRANCH   7   8
ATOM      8  N   UNL A   1      31.643  21.470  24.084  1.00  0.00    -0.338 N 
ATOM      9  N   UNL A   1      31.807  23.231  22.474  1.00  0.00    -0.291 N 
ATOM     10  C   UNL A   1      31.972  21.948  22.863  1.00  0.00     0.320 C 
ATOM     11  H   UNL A   1      31.810  23.359  21.497  1.00  0.00     0.173 HD
ATOM     12  O   UNL A   1      32.352  21.126  22.023  1.00  0.00    -0.248 OA
ATOM     13  H   UNL A   1      31.809  20.507  24.200  1.00  0.00     0.165 HD
BRANCH   9  14
ATOM     14  C   UNL A   1      31.636  24.391  23.190  1.00  0.00     0.157 A 
ATOM     15  N   UNL A   1      30.926  26.327  23.666  1.00  0.00    -0.231 N 
ATOM     16  N   UNL A   1      30.547  25.150  23.147  1.00  0.00    -0.149 NA
ATOM     17  C   UNL A   1      32.046  26.166  24.466  1.00  0.00     0.076 A 
ATOM     18  C   UNL A   1      32.540  24.913  24.142  1.00  0.00     0.078 A 
BRANCH  15  19
ATOM     19  C   UNL A   1      30.246  27.515  23.283  1.00  0.00     0.065 A 
ATOM     20  C   UNL A   1      28.925  29.858  22.544  1.00  0.00     0.082 A 
ATOM     21  C   UNL A   1      28.195  28.788  23.070  1.00  0.00     0.024 A 
ATOM     22  C   UNL A   1      30.313  29.778  22.414  1.00  0.00     0.024 A 
ATOM     23  C   UNL A   1      28.855  27.613  23.433  1.00  0.00     0.030 A 
ATOM     24  C   UNL A   1      30.975  28.611  22.801  1.00  0.00     0.030 A 
BRANCH  20  25
ATOM     25  S   UNL A   1      28.088  31.298  21.958  1.00  0.00     0.238 S 
ATOM     26  O   UNL A   1      27.219  31.796  22.993  1.00  0.00    -0.207 OA
ATOM     27  O   UNL A   1      27.645  31.060  20.600  1.00  0.00    -0.207 OA
BRANCH  25  28
ATOM     28  N   UNL A   1      29.322  32.438  21.847  1.00  0.00    -0.225 NA
ATOM     29  H   UNL A   1      30.082  32.178  22.476  1.00  0.00     0.137 HD
ATOM     30  H   UNL A   1      28.963  33.356  22.108  1.00  0.00     0.137 HD
ENDBRANCH  25  28
ENDBRANCH  20  25
ENDBRANCH  15  19
BRANCH  17  31
ATOM     31  C   UNL A   1      32.487  27.173  25.420  1.00  0.00     0.000 A 
ATOM     32  C   UNL A   1      33.706  27.835  25.200  1.00  0.00     0.010 A 
ATOM     33  C   UNL A   1      31.771  27.417  26.593  1.00  0.00     0.010 A 
ATOM     34  C   UNL A   1      34.228  28.692  26.165  1.00  0.00     0.001 A 
ATOM     35  C   UNL A   1      32.297  28.279  27.557  1.00  0.00     0.001 A 
ATOM     36  C   UNL A   1      33.526  28.906  27.347  1.00  0.00     0.000 A 
ENDBRANCH  17  31
ENDBRANCH   9  14
ENDBRANCH   7   8
ENDBRANCH   6   7
ENDBRANCH   5   6
ENDBRANCH   1   5
BRANCH   3  37
ATOM     37  C   UNL A   1      36.112  20.941  25.256  1.00  0.00     0.116 C 
BRANCH  37  38
ATOM     38  C   UNL A   1      37.607  21.115  24.980  1.00  0.00     0.023 C 
BRANCH  38  39
ATOM     39  C   UNL A   1      38.509  19.886  25.118  1.00  0.00     0.023 C 
BRANCH  39  40
ATOM     40  C   UNL A   1      39.616  20.036  26.145  1.00  0.00     0.116 C 
BRANCH  40  41
ATOM     41  N   UNL A   1      40.800  19.237  25.827  1.00  0.00    -0.352 N 
ATOM     42  C   UNL A   1      42.098  19.686  25.682  1.00  0.00     0.251 C 
ATOM     43  H   UNL A   1      40.655  18.272  25.702  1.00  0.00     0.163 HD
ATOM     44  O   UNL A   1      42.926  19.062  25.031  1.00  0.00    -0.269 OA
BRANCH  42  45
ATOM     45  C   UNL A   1      42.464  20.944  26.349  1.00  0.00     0.039 A 
ATOM     46  C   UNL A   1      42.584  22.136  25.633  1.00  0.00     0.014 A 
ATOM     47  C   UNL A   1      42.594  20.916  27.737  1.00  0.00     0.014 A 
ATOM     48  C   UNL A   1      42.734  23.323  26.343  1.00  0.00     0.010 A 
ATOM     49  C   UNL A   1      42.602  22.097  28.438  1.00  0.00     0.010 A 
ATOM     50  C   UNL A   1      42.705  23.301  27.749  1.00  0.00    -0.014 A 
BRANCH  50  51
ATOM     51  C   UNL A   1      42.609  24.548  28.503  1.00  0.00     0.031 A 
ATOM     52  C   UNL A   1      41.335  25.288  28.279  1.00  0.00     0.074 A 
ATOM     53  C   UNL A   1      43.483  24.908  29.470  1.00  0.00     0.049 A 
ATOM     54  N   UNL A   1      41.182  26.397  27.636  1.00  0.00    -0.248 NA
ATOM     55  C   UNL A   1      40.065  24.649  28.664  1.00  0.00     0.031 C 
ATOM     56  C   UNL A   1      44.602  24.130  30.014  1.00  0.00     0.029 A 
ATOM     57  N   UNL A   1      43.498  26.027  30.248  1.00  0.00    -0.354 N 
ATOM     58  C   UNL A   1      39.830  26.718  27.740  1.00  0.00     0.074 A 
ATOM     59  C   UNL A   1      39.172  25.523  28.195  1.00  0.00     0.031 C 
ATOM     60  C   UNL A   1      45.028  24.689  31.169  1.00  0.00     0.029 A 
ATOM     61  C   UNL A   1      44.339  25.952  31.356  1.00  0.00     0.049 A 
ATOM     62  H   UNL A   1      42.957  26.825  30.043  1.00  0.00     0.167 HD
ATOM     63  C   UNL A   1      39.426  28.018  27.703  1.00  0.00     0.037 A 
ATOM     64  C   UNL A   1      44.452  26.858  32.360  1.00  0.00     0.037 A 
ATOM     65  C   UNL A   1      40.486  28.864  27.208  1.00  0.00     0.049 A 
ATOM     66  C   UNL A   1      43.901  28.137  31.858  1.00  0.00     0.074 A 
ATOM     67  C   UNL A   1      41.213  28.950  26.037  1.00  0.00     0.029 A 
ATOM     68  N   UNL A   1      41.199  29.563  28.149  1.00  0.00    -0.354 N 
ATOM     69  N   UNL A   1      44.465  28.857  30.932  1.00  0.00    -0.248 NA
ATOM     70  C   UNL A   1      42.488  28.397  32.078  1.00  0.00     0.031 C 
ATOM     71  C   UNL A   1      42.533  29.302  26.446  1.00  0.00     0.029 A 
ATOM     72  C   UNL A   1      42.527  29.490  27.829  1.00  0.00     0.049 A 
ATOM     73  H   UNL A   1      40.819  30.038  28.924  1.00  0.00     0.167 HD
ATOM     74  C   UNL A   1      43.412  29.302  30.149  1.00  0.00     0.074 A 
ATOM     75  C   UNL A   1      42.219  29.085  30.967  1.00  0.00     0.031 C 
ATOM     76  C   UNL A   1      43.585  29.520  28.813  1.00  0.00     0.037 A 
BRANCH  63  77
ATOM     77  C   UNL A   1      38.284  28.595  28.517  1.00  0.00     0.057 A 
ATOM     78  C   UNL A   1      37.446  29.556  27.914  1.00  0.00     0.134 A 
ATOM     79  C   UNL A   1      38.174  28.509  29.919  1.00  0.00     0.134 A 
ATOM     80  F   UNL A   1      37.452  29.739  26.585  1.00  0.00    -0.206 F 
ATOM     81  C   UNL A   1      36.649  30.434  28.658  1.00  0.00     0.040 A 
ATOM     82  C   UNL A   1      37.341  29.348  30.666  1.00  0.00     0.040 A 
ATOM     83  F   UNL A   1      38.930  27.689  30.656  1.00  0.00    -0.206 F 
ATOM     84  C   UNL A   1      36.604  30.340  30.042  1.00  0.00     0.006 A 
ENDBRANCH  63  77
BRANCH  64  85
ATOM     85  C   UNL A   1      44.758  26.660  33.796  1.00  0.00     0.057 A 
ATOM     86  C   UNL A   1      44.033  25.740  34.570  1.00  0.00     0.134 A 
ATOM     87  C   UNL A   1      45.954  27.132  34.363  1.00  0.00     0.134 A 
ATOM     88  F   UNL A   1      42.895  25.203  34.104  1.00  0.00    -0.206 F 
ATOM     89  C   UNL A   1      44.489  25.283  35.814  1.00  0.00     0.040 A 
ATOM     90  C   UNL A   1      46.419  26.687  35.607  1.00  0.00     0.040 A 
ATOM     91  F   UNL A   1      46.756  27.965  33.687  1.00  0.00    -0.206 F 
ATOM     92  C   UNL A   1      45.696  25.745  36.328  1.00  0.00     0.006 A 
ENDBRANCH  64  85
BRANCH  76  93
ATOM     93  C   UNL A   1      44.993  29.591  28.289  1.00  0.00     0.057 A 
ATOM     94  C   UNL A   1      45.740  28.491  27.841  1.00  0.00     0.134 A 
ATOM     95  C   UNL A   1      45.563  30.857  28.110  1.00  0.00     0.134 A 
ATOM     96  F   UNL A   1      45.246  27.248  27.883  1.00  0.00    -0.206 F 
ATOM     97  C   UNL A   1      47.014  28.646  27.282  1.00  0.00     0.040 A 
ATOM     98  C   UNL A   1      46.816  31.027  27.520  1.00  0.00     0.040 A 
ATOM     99  F   UNL A   1      44.886  31.960  28.469  1.00  0.00    -0.206 F 
ATOM    100  C   UNL A   1      47.552  29.918  27.113  1.00  0.00     0.006 A 
ENDBRANCH  76  93
ENDBRANCH  50  51
ENDBRANCH  42  45
ENDBRANCH  40  41
ENDBRANCH  39  40
ENDBRANCH  38  39
ENDBRANCH  37  38
ENDBRANCH   3  37
TORSDOF 19
ENDMDL
MODEL 3
REMARK VINA RESULT:     -12.1      2.279      3.289
REMARK SMILES NS(=O)(=O)c1ccc(-n2nc(NC(=O)NCCCC(=O)NCCCCNC(=O)c3ccc(-c4c5nc(c(-c6c(F)cccc6F)c6ccc([nH]6)c(-c6c(F)cccc6F)c6nc(c(-c7c(F)cccc7F)c7ccc4[nH]7)C=C6)C=C5)cc3)cc2-c2ccccc2)cc1
REMARK SMILES IDX 19 1 20 2 21 3 18 5 17 6 16 7 15 8 12 9 13 10 14 12 11 14
REMARK SMILES IDX 9 15 10 16 84 17 83 18 8 19 5 20 6 21 92 22 7 23 91 24 2 25
REMARK SMILES IDX 3 26 4 27 1 28 85 31 86 32 90 33 87 34 89 35 88 36 22 37
REMARK SMILES IDX 23 38 24 39 25 40 26 41 27 42 28 44 29 45 30 46 82 47 31 48
REMARK SMILES IDX 81 49 32 50 33 51 34 52 75 53 35 54 80 55 74 56 76 57 36 58
REMARK SMILES IDX 79 59 73 60 72 61 37 63 63 64 46 65 62 66 47 67 50 68 61 69
REMARK SMILES IDX 77 70 48 71 49 72 60 74 78 75 51 76 38 77 39 78 44 79 40 80
REMARK SMILES IDX 41 81 43 82 45 83 42 84 64 85 65 86 70 87 66 88 67 89 69 90
REMARK SMILES IDX 71 91 68 92 52 93 53 94 58 95 54 96 55 97 57 98 59 99 56 100
REMARK H PARENT 21 4 12 11 15 13 1 29 1 30 26 43 76 62 50 73
REMARK Flexibility Score: inf
ROOT
ATOM      1  C   UNL A   1      34.463  21.971  27.055  1.00  0.00     0.220 C 
ATOM      2  O   UNL A   1      34.398  22.683  28.060  1.00  0.00    -0.275 OA
ATOM      3  N   UNL A   1      35.693  21.759  26.506  1.00  0.00    -0.356 N 
ATOM      4  H   UNL A   1      36.446  22.089  27.049  1.00  0.00     0.163 HD
ENDROOT
BRANCH   1   5
ATOM      5  C   UNL A   1      33.212  21.322  26.483  1.00  0.00     0.102 C 
BRANCH   5   6
ATOM      6  C   UNL A   1      31.969  22.214  26.488  1.00  0.00     0.031 C 
BRANCH   6   7
ATOM      7  C   UNL A   1      31.119  22.120  25.232  1.00  0.00     0.118 C 
BRANCH   7   8
ATOM      8  N   UNL A   1      31.745  21.485  24.087  1.00  0.00    -0.338 N 
ATOM      9  N   UNL A   1      31.946  23.259  22.496  1.00  0.00    -0.291 N 
ATOM     10  C   UNL A   1      32.121  21.978  22.886  1.00  0.00     0.320 C 
ATOM     11  H   UNL A   1      31.992  23.393  21.521  1.00  0.00     0.173 HD
ATOM     12  O   UNL A   1      32.557  21.168  22.061  1.00  0.00    -0.248 OA
ATOM     13  H   UNL A   1      31.926  20.525  24.206  1.00  0.00     0.165 HD
BRANCH   9  14
ATOM     14  C   UNL A   1      31.717  24.410  23.209  1.00  0.00     0.157 A 
ATOM     15  N   UNL A   1      30.947  26.329  23.659  1.00  0.00    -0.231 N 
ATOM     16  N   UNL A   1      30.617  25.149  23.114  1.00  0.00    -0.149 NA
ATOM     17  C   UNL A   1      32.027  26.185  24.515  1.00  0.00     0.076 A 
ATOM     18  C   UNL A   1      32.561  24.943  24.209  1.00  0.00     0.078 A 
BRANCH  15  19
ATOM     19  C   UNL A   1      30.264  27.508  23.248  1.00  0.00     0.065 A 
ATOM     20  C   UNL A   1      28.910  29.805  22.434  1.00  0.00     0.082 A 
ATOM     21  C   UNL A   1      30.258  29.644  22.105  1.00  0.00     0.024 A 
ATOM     22  C   UNL A   1      28.224  28.813  23.140  1.00  0.00     0.024 A 
ATOM     23  C   UNL A   1      30.938  28.497  22.519  1.00  0.00     0.030 A 
ATOM     24  C   UNL A   1      28.899  27.655  23.530  1.00  0.00     0.030 A 
BRANCH  20  25
ATOM     25  S   UNL A   1      28.074  31.309  22.033  1.00  0.00     0.238 S 
ATOM     26  O   UNL A   1      27.172  31.650  23.103  1.00  0.00    -0.207 OA
ATOM     27  O   UNL A   1      27.672  31.262  20.643  1.00  0.00    -0.207 OA
BRANCH  25  28
ATOM     28  N   UNL A   1      29.299  32.460  22.120  1.00  0.00    -0.225 NA
ATOM     29  H   UNL A   1      30.030  32.231  21.447  1.00  0.00     0.137 HD
ATOM     30  H   UNL A   1      29.693  32.468  23.061  1.00  0.00     0.137 HD
ENDBRANCH  25  28
ENDBRANCH  20  25
ENDBRANCH  15  19
BRANCH  17  31
ATOM     31  C   UNL A   1      32.400  27.193  25.495  1.00  0.00     0.000 A 
ATOM     32  C   UNL A   1      31.480  27.544  26.497  1.00  0.00     0.010 A 
ATOM     33  C   UNL A   1      33.610  27.881  25.398  1.00  0.00     0.010 A 
ATOM     34  C   UNL A   1      31.745  28.606  27.357  1.00  0.00     0.001 A 
ATOM     35  C   UNL A   1      33.873  28.944  26.264  1.00  0.00     0.001 A 
ATOM     36  C   UNL A   1      32.938  29.311  27.233  1.00  0.00     0.000 A 
ENDBRANCH  17  31
ENDBRANCH   9  14
ENDBRANCH   7   8
ENDBRANCH   6   7
ENDBRANCH   5   6
ENDBRANCH   1   5
BRANCH   3  37
ATOM     37  C   UNL A   1      36.082  21.129  25.253  1.00  0.00     0.116 C 
BRANCH  37  38
ATOM     38  C   UNL A   1      37.467  21.597  24.801  1.00  0.00     0.023 C 
BRANCH  38  39
ATOM     39  C   UNL A   1      38.690  20.962  25.465  1.00  0.00     0.023 C 
BRANCH  39  40
ATOM     40  C   UNL A   1      39.527  21.926  26.285  1.00  0.00     0.116 C 
BRANCH  40  41
ATOM     41  N   UNL A   1      40.939  21.925  25.900  1.00  0.00    -0.352 N 
ATOM     42  C   UNL A   1      41.807  22.998  25.904  1.00  0.00     0.251 C 
ATOM     43  H   UNL A   1      41.310  21.063  25.605  1.00  0.00     0.163 HD
ATOM     44  O   UNL A   1      42.810  23.017  25.201  1.00  0.00    -0.269 OA
BRANCH  42  45
ATOM     45  C   UNL A   1      41.495  24.127  26.793  1.00  0.00     0.039 A 
ATOM     46  C   UNL A   1      42.088  24.244  28.051  1.00  0.00     0.014 A 
ATOM     47  C   UNL A   1      40.657  25.122  26.291  1.00  0.00     0.014 A 
ATOM     48  C   UNL A   1      41.910  25.428  28.759  1.00  0.00     0.010 A 
ATOM     49  C   UNL A   1      40.597  26.338  26.927  1.00  0.00     0.010 A 
ATOM     50  C   UNL A   1      41.192  26.487  28.175  1.00  0.00    -0.014 A 
BRANCH  50  51
ATOM     51  C   UNL A   1      41.207  27.813  28.788  1.00  0.00     0.031 A 
ATOM     52  C   UNL A   1      42.352  28.662  28.355  1.00  0.00     0.074 A 
ATOM     53  C   UNL A   1      40.183  28.313  29.515  1.00  0.00     0.049 A 
ATOM     54  N   UNL A   1      43.373  29.013  29.062  1.00  0.00    -0.248 NA
ATOM     55  C   UNL A   1      42.466  29.029  26.932  1.00  0.00     0.031 C 
ATOM     56  C   UNL A   1      38.866  27.712  29.757  1.00  0.00     0.029 A 
ATOM     57  N   UNL A   1      40.067  29.527  30.124  1.00  0.00    -0.354 N 
ATOM     58  C   UNL A   1      44.140  29.841  28.246  1.00  0.00     0.074 A 
ATOM     59  C   UNL A   1      43.648  29.647  26.908  1.00  0.00     0.031 C 
ATOM     60  C   UNL A   1      38.021  28.645  30.249  1.00  0.00     0.029 A 
ATOM     61  C   UNL A   1      38.773  29.855  30.523  1.00  0.00     0.049 A 
ATOM     62  H   UNL A   1      40.837  30.124  30.271  1.00  0.00     0.167 HD
ATOM     63  C   UNL A   1      44.924  30.812  28.792  1.00  0.00     0.037 A 
ATOM     64  C   UNL A   1      38.349  31.040  31.031  1.00  0.00     0.037 A 
ATOM     65  C   UNL A   1      45.089  30.592  30.210  1.00  0.00     0.049 A 
ATOM     66  C   UNL A   1      39.546  31.755  31.529  1.00  0.00     0.074 A 
ATOM     67  C   UNL A   1      45.610  29.584  30.996  1.00  0.00     0.029 A 
ATOM     68  N   UNL A   1      44.310  31.357  31.041  1.00  0.00    -0.354 N 
ATOM     69  N   UNL A   1      40.238  31.377  32.566  1.00  0.00    -0.248 NA
ATOM     70  C   UNL A   1      40.234  32.645  30.609  1.00  0.00     0.031 C 
ATOM     71  C   UNL A   1      44.761  29.531  32.141  1.00  0.00     0.029 A 
ATOM     72  C   UNL A   1      43.820  30.555  32.034  1.00  0.00     0.049 A 
ATOM     73  H   UNL A   1      44.135  32.321  30.939  1.00  0.00     0.167 HD
ATOM     74  C   UNL A   1      41.557  31.584  32.196  1.00  0.00     0.074 A 
ATOM     75  C   UNL A   1      41.487  32.470  31.034  1.00  0.00     0.031 C 
ATOM     76  C   UNL A   1      42.547  30.780  32.682  1.00  0.00     0.037 A 
BRANCH  63  77
ATOM     77  C   UNL A   1      45.163  32.179  28.183  1.00  0.00     0.057 A 
ATOM     78  C   UNL A   1      44.052  33.015  27.949  1.00  0.00     0.134 A 
ATOM     79  C   UNL A   1      46.347  32.570  27.526  1.00  0.00     0.134 A 
ATOM     80  F   UNL A   1      42.863  32.757  28.516  1.00  0.00    -0.206 F 
ATOM     81  C   UNL A   1      44.090  34.085  27.048  1.00  0.00     0.040 A 
ATOM     82  C   UNL A   1      46.407  33.669  26.663  1.00  0.00     0.040 A 
ATOM     83  F   UNL A   1      47.480  31.864  27.596  1.00  0.00    -0.206 F 
ATOM     84  C   UNL A   1      45.269  34.408  26.390  1.00  0.00     0.006 A 
ENDBRANCH  63  77
BRANCH  64  85
ATOM     85  C   UNL A   1      37.042  31.724  30.897  1.00  0.00     0.057 A 
ATOM     86  C   UNL A   1      36.153  31.804  31.981  1.00  0.00     0.134 A 
ATOM     87  C   UNL A   1      36.768  32.575  29.813  1.00  0.00     0.134 A 
ATOM     88  F   UNL A   1      36.347  31.058  33.078  1.00  0.00    -0.206 F 
ATOM     89  C   UNL A   1      35.080  32.706  32.005  1.00  0.00     0.040 A 
ATOM     90  C   UNL A   1      35.697  33.478  29.823  1.00  0.00     0.040 A 
ATOM     91  F   UNL A   1      37.585  32.628  28.752  1.00  0.00    -0.206 F 
ATOM     92  C   UNL A   1      34.860  33.559  30.928  1.00  0.00     0.006 A 
ENDBRANCH  64  85
BRANCH  76  93
ATOM     93  C   UNL A   1      42.226  29.905  33.863  1.00  0.00     0.057 A 
ATOM     94  C   UNL A   1      41.779  28.578  33.780  1.00  0.00     0.134 A 
ATOM     95  C   UNL A   1      42.514  30.396  35.141  1.00  0.00     0.134 A 
ATOM     96  F   UNL A   1      41.564  27.985  32.598  1.00  0.00    -0.206 F 
ATOM     97  C   UNL A   1      41.585  27.793  34.923  1.00  0.00     0.040 A 
ATOM     98  C   UNL A   1      42.361  29.613  36.286  1.00  0.00     0.040 A 
ATOM     99  F   UNL A   1      42.994  31.641  35.295  1.00  0.00    -0.206 F 
ATOM    100  C   UNL A   1      41.884  28.309  36.181  1.00  0.00     0.006 A 
ENDBRANCH  76  93
ENDBRANCH  50  51
ENDBRANCH  42  45
ENDBRANCH  40  41
ENDBRANCH  39  40
ENDBRANCH  38  39
ENDBRANCH  37  38
ENDBRANCH   3  37
TORSDOF 19
ENDMDL
