MODEL 1
REMARK VINA RESULT:     -10.8      0.000      0.000
REMARK SMILES CCC[C@@]1(C(=O)N[C@@](C)(C(=O)NCCCCNC(=O)c2ccc(-c3c4nc(c(-c5c(F)cccc5F)c5ccc([nH]5)c(-c5c(F)cccc5F)c5nc(c(-c6c(F)cccc6F)c6ccc3[nH]6)C=C5)C=C4)cc2)C(F)(F)F)CC[NH2+]C1
REMARK SMILES IDX 13 1 12 2 10 3 11 4 8 6 9 7 7 8 5 9 6 10 4 12 78 13 81 14
REMARK SMILES IDX 79 15 80 16 3 19 2 20 1 21 74 22 75 23 76 24 77 25 14 26
REMARK SMILES IDX 15 27 16 28 17 29 18 30 19 32 20 33 21 34 73 35 22 36 72 37
REMARK SMILES IDX 23 38 24 39 25 40 66 41 26 42 71 43 65 44 67 45 27 46 70 47
REMARK SMILES IDX 64 48 63 49 28 51 54 52 37 53 53 54 38 55 41 56 52 57 68 58
REMARK SMILES IDX 39 59 40 60 51 62 69 63 42 64 29 65 30 66 35 67 31 68 32 69
REMARK SMILES IDX 34 70 36 71 33 72 55 73 56 74 61 75 57 76 58 77 60 78 62 79
REMARK SMILES IDX 59 80 43 81 44 82 49 83 45 84 46 85 48 86 50 87 47 88
REMARK H PARENT 12 5 7 11 80 17 80 18 17 31 67 50 41 61
REMARK Flexibility Score: inf
ROOT
ATOM      1  C   UNL A   1      32.722  29.582  25.375  1.00  0.00     0.116 C 
ENDROOT
BRANCH   1   2
ATOM      2  N   UNL A   1      32.042  29.587  24.091  1.00  0.00    -0.354 N 
ATOM      3  C   UNL A   1      31.609  28.582  23.268  1.00  0.00     0.254 C 
ATOM      4  O   UNL A   1      30.778  28.936  22.427  1.00  0.00    -0.272 OA
ATOM      5  H   UNL A   1      31.859  30.490  23.744  1.00  0.00     0.163 HD
BRANCH   3   6
ATOM      6  C   UNL A   1      32.074  27.108  23.395  1.00  0.00     0.212 C 
ATOM      7  C   UNL A   1      31.366  26.228  22.336  1.00  0.00     0.056 C 
BRANCH   6   8
ATOM      8  N   UNL A   1      31.650  26.592  24.745  1.00  0.00    -0.334 N 
ATOM      9  C   UNL A   1      31.967  25.721  25.713  1.00  0.00     0.233 C 
ATOM     10  O   UNL A   1      31.593  26.170  26.815  1.00  0.00    -0.274 OA
ATOM     11  H   UNL A   1      30.836  27.074  25.019  1.00  0.00     0.164 HD
BRANCH   9  12
ATOM     12  C   UNL A   1      32.678  24.343  25.701  1.00  0.00     0.103 C 
ATOM     13  C   UNL A   1      32.406  23.289  24.638  1.00  0.00     0.084 C 
ATOM     14  C   UNL A   1      32.033  23.593  26.942  1.00  0.00     0.277 C 
ATOM     15  C   UNL A   1      31.072  22.686  25.009  1.00  0.00     0.261 C 
ATOM     16  N   UNL A   1      31.214  22.465  26.443  1.00  0.00    -0.345 N 
ATOM     17  H   UNL A   1      31.684  21.577  26.620  1.00  0.00     0.346 HD
ATOM     18  H   UNL A   1      30.308  22.422  26.910  1.00  0.00     0.346 HD
BRANCH  12  19
ATOM     19  C   UNL A   1      34.196  24.578  25.988  1.00  0.00     0.023 C 
BRANCH  19  20
ATOM     20  C   UNL A   1      35.247  24.044  25.003  1.00  0.00    -0.002 C 
ATOM     21  C   UNL A   1      36.612  23.739  25.596  1.00  0.00     0.004 C 
ENDBRANCH  19  20
ENDBRANCH  12  19
ENDBRANCH   9  12
ENDBRANCH   6   8
BRANCH   6  22
ATOM     22  C   UNL A   1      33.561  27.060  23.020  1.00  0.00     0.420 C 
ATOM     23  F   UNL A   1      33.916  27.965  22.092  1.00  0.00    -0.168 F 
ATOM     24  F   UNL A   1      34.325  27.283  24.124  1.00  0.00    -0.168 F 
ATOM     25  F   UNL A   1      33.935  25.843  22.555  1.00  0.00    -0.168 F 
ENDBRANCH   6  22
ENDBRANCH   3   6
ENDBRANCH   1   2
BRANCH   1  26
ATOM     26  C   UNL A   1      31.853  30.065  26.532  1.00  0.00     0.023 C 
BRANCH  26  27
ATOM     27  C   UNL A   1      31.678  31.577  26.662  1.00  0.00     0.023 C 
BRANCH  27  28
ATOM     28  C   UNL A   1      32.851  32.337  27.273  1.00  0.00     0.116 C 
BRANCH  28  29
ATOM     29  N   UNL A   1      32.516  33.695  27.672  1.00  0.00    -0.352 N 
ATOM     30  C   UNL A   1      33.167  34.539  28.542  1.00  0.00     0.251 C 
ATOM     31  H   UNL A   1      31.703  34.065  27.257  1.00  0.00     0.163 HD
ATOM     32  O   UNL A   1      32.677  35.620  28.833  1.00  0.00    -0.269 OA
BRANCH  30  33
ATOM     33  C   UNL A   1      34.443  34.113  29.155  1.00  0.00     0.039 A 
ATOM     34  C   UNL A   1      34.405  33.425  30.370  1.00  0.00     0.014 A 
ATOM     35  C   UNL A   1      35.663  34.364  28.524  1.00  0.00     0.014 A 
ATOM     36  C   UNL A   1      35.587  32.919  30.913  1.00  0.00     0.010 A 
ATOM     37  C   UNL A   1      36.828  33.790  29.024  1.00  0.00     0.010 A 
ATOM     38  C   UNL A   1      36.802  33.060  30.222  1.00  0.00    -0.014 A 
BRANCH  38  39
ATOM     39  C   UNL A   1      38.052  32.445  30.736  1.00  0.00     0.031 A 
ATOM     40  C   UNL A   1      38.579  31.177  30.124  1.00  0.00     0.074 A 
ATOM     41  C   UNL A   1      38.679  32.996  31.794  1.00  0.00     0.049 A 
ATOM     42  N   UNL A   1      39.623  30.467  30.464  1.00  0.00    -0.248 NA
ATOM     43  C   UNL A   1      37.816  30.618  28.996  1.00  0.00     0.031 C 
ATOM     44  C   UNL A   1      38.240  34.197  32.508  1.00  0.00     0.029 A 
ATOM     45  N   UNL A   1      39.818  32.616  32.458  1.00  0.00    -0.354 N 
ATOM     46  C   UNL A   1      39.634  29.375  29.605  1.00  0.00     0.074 A 
ATOM     47  C   UNL A   1      38.462  29.486  28.765  1.00  0.00     0.031 C 
ATOM     48  C   UNL A   1      39.114  34.472  33.489  1.00  0.00     0.029 A 
ATOM     49  C   UNL A   1      40.153  33.447  33.501  1.00  0.00     0.049 A 
ATOM     50  H   UNL A   1      40.345  31.821  32.211  1.00  0.00     0.167 HD
ATOM     51  C   UNL A   1      40.551  28.382  29.508  1.00  0.00     0.037 A 
ATOM     52  C   UNL A   1      41.178  33.385  34.371  1.00  0.00     0.037 A 
ATOM     53  C   UNL A   1      41.729  28.289  30.331  1.00  0.00     0.049 A 
ATOM     54  C   UNL A   1      42.175  32.264  34.250  1.00  0.00     0.074 A 
ATOM     55  C   UNL A   1      42.752  27.359  30.267  1.00  0.00     0.029 A 
ATOM     56  N   UNL A   1      42.036  29.154  31.372  1.00  0.00    -0.354 N 
ATOM     57  N   UNL A   1      42.216  31.282  33.381  1.00  0.00    -0.248 NA
ATOM     58  C   UNL A   1      43.272  32.247  35.227  1.00  0.00     0.031 C 
ATOM     59  C   UNL A   1      43.652  27.629  31.304  1.00  0.00     0.029 A 
ATOM     60  C   UNL A   1      43.219  28.761  31.976  1.00  0.00     0.049 A 
ATOM     61  H   UNL A   1      41.494  29.930  31.641  1.00  0.00     0.167 HD
ATOM     62  C   UNL A   1      43.356  30.551  33.687  1.00  0.00     0.074 A 
ATOM     63  C   UNL A   1      43.987  31.212  34.810  1.00  0.00     0.031 C 
ATOM     64  C   UNL A   1      43.839  29.434  33.090  1.00  0.00     0.037 A 
BRANCH  51  65
ATOM     65  C   UNL A   1      40.316  27.319  28.475  1.00  0.00     0.057 A 
ATOM     66  C   UNL A   1      40.908  27.374  27.206  1.00  0.00     0.134 A 
ATOM     67  C   UNL A   1      39.517  26.205  28.765  1.00  0.00     0.134 A 
ATOM     68  F   UNL A   1      41.676  28.418  26.858  1.00  0.00    -0.206 F 
ATOM     69  C   UNL A   1      40.692  26.375  26.254  1.00  0.00     0.040 A 
ATOM     70  C   UNL A   1      39.317  25.187  27.833  1.00  0.00     0.040 A 
ATOM     71  F   UNL A   1      38.923  26.086  29.962  1.00  0.00    -0.206 F 
ATOM     72  C   UNL A   1      39.900  25.273  26.571  1.00  0.00     0.006 A 
ENDBRANCH  51  65
BRANCH  52  73
ATOM     73  C   UNL A   1      41.334  34.425  35.419  1.00  0.00     0.057 A 
ATOM     74  C   UNL A   1      40.724  34.284  36.673  1.00  0.00     0.134 A 
ATOM     75  C   UNL A   1      42.076  35.590  35.193  1.00  0.00     0.134 A 
ATOM     76  F   UNL A   1      39.985  33.198  36.944  1.00  0.00    -0.206 F 
ATOM     77  C   UNL A   1      40.825  35.273  37.652  1.00  0.00     0.040 A 
ATOM     78  C   UNL A   1      42.209  36.575  36.173  1.00  0.00     0.040 A 
ATOM     79  F   UNL A   1      42.692  35.784  34.017  1.00  0.00    -0.206 F 
ATOM     80  C   UNL A   1      41.574  36.422  37.405  1.00  0.00     0.006 A 
ENDBRANCH  52  73
BRANCH  64  81
ATOM     81  C   UNL A   1      45.131  28.878  33.615  1.00  0.00     0.057 A 
ATOM     82  C   UNL A   1      45.165  27.897  34.613  1.00  0.00     0.134 A 
ATOM     83  C   UNL A   1      46.355  29.305  33.085  1.00  0.00     0.134 A 
ATOM     84  F   UNL A   1      44.029  27.454  35.171  1.00  0.00    -0.206 F 
ATOM     85  C   UNL A   1      46.373  27.379  35.086  1.00  0.00     0.040 A 
ATOM     86  C   UNL A   1      47.568  28.773  33.528  1.00  0.00     0.040 A 
ATOM     87  F   UNL A   1      46.394  30.234  32.119  1.00  0.00    -0.206 F 
ATOM     88  C   UNL A   1      47.578  27.812  34.536  1.00  0.00     0.006 A 
ENDBRANCH  64  81
ENDBRANCH  38  39
ENDBRANCH  30  33
ENDBRANCH  28  29
ENDBRANCH  27  28
ENDBRANCH  26  27
ENDBRANCH   1  26
TORSDOF 16
ENDMDL
MODEL 2
REMARK VINA RESULT:     -10.8      1.659      6.377
REMARK SMILES CCC[C@@]1(C(=O)N[C@@](C)(C(=O)NCCCCNC(=O)c2ccc(-c3c4nc(c(-c5c(F)cccc5F)c5ccc([nH]5)c(-c5c(F)cccc5F)c5nc(c(-c6c(F)cccc6F)c6ccc3[nH]6)C=C5)C=C4)cc2)C(F)(F)F)CC[NH2+]C1
REMARK SMILES IDX 13 1 12 2 10 3 11 4 8 6 9 7 7 8 5 9 6 10 4 12 78 13 81 14
REMARK SMILES IDX 79 15 80 16 3 19 2 20 1 21 74 22 75 23 76 24 77 25 14 26
REMARK SMILES IDX 15 27 16 28 17 29 18 30 19 32 20 33 21 34 73 35 22 36 72 37
REMARK SMILES IDX 23 38 24 39 25 40 66 41 26 42 71 43 65 44 67 45 27 46 70 47
REMARK SMILES IDX 64 48 63 49 28 51 54 52 37 53 53 54 38 55 41 56 52 57 68 58
REMARK SMILES IDX 39 59 40 60 51 62 69 63 42 64 29 65 30 66 35 67 31 68 32 69
REMARK SMILES IDX 34 70 36 71 33 72 55 73 56 74 61 75 57 76 58 77 60 78 62 79
REMARK SMILES IDX 59 80 43 81 44 82 49 83 45 84 46 85 48 86 50 87 47 88
REMARK H PARENT 12 5 7 11 80 17 80 18 17 31 67 50 41 61
REMARK Flexibility Score: inf
ROOT
ATOM      1  C   UNL A   1      32.973  29.993  26.008  1.00  0.00     0.116 C 
ENDROOT
BRANCH   1   2
ATOM      2  N   UNL A   1      33.312  29.707  24.624  1.00  0.00    -0.354 N 
ATOM      3  C   UNL A   1      33.200  28.578  23.857  1.00  0.00     0.254 C 
ATOM      4  O   UNL A   1      33.266  28.781  22.641  1.00  0.00    -0.272 OA
ATOM      5  H   UNL A   1      33.699  30.475  24.145  1.00  0.00     0.163 HD
BRANCH   3   6
ATOM      6  C   UNL A   1      32.960  27.162  24.443  1.00  0.00     0.212 C 
ATOM      7  C   UNL A   1      33.584  27.054  25.856  1.00  0.00     0.056 C 
BRANCH   6   8
ATOM      8  N   UNL A   1      33.674  26.162  23.572  1.00  0.00    -0.334 N 
ATOM      9  C   UNL A   1      34.008  24.869  23.470  1.00  0.00     0.233 C 
ATOM     10  O   UNL A   1      34.075  24.550  22.266  1.00  0.00    -0.274 OA
ATOM     11  H   UNL A   1      34.028  26.635  22.784  1.00  0.00     0.164 HD
BRANCH   9  12
ATOM     12  C   UNL A   1      34.301  23.768  24.522  1.00  0.00     0.103 C 
ATOM     13  C   UNL A   1      35.337  23.941  25.623  1.00  0.00     0.084 C 
ATOM     14  C   UNL A   1      35.044  22.648  23.677  1.00  0.00     0.277 C 
ATOM     15  C   UNL A   1      36.673  23.757  24.943  1.00  0.00     0.261 C 
ATOM     16  N   UNL A   1      36.451  22.567  24.130  1.00  0.00    -0.345 N 
ATOM     17  H   UNL A   1      36.599  21.724  24.686  1.00  0.00     0.346 HD
ATOM     18  H   UNL A   1      37.098  22.522  23.342  1.00  0.00     0.346 HD
BRANCH  12  19
ATOM     19  C   UNL A   1      32.934  23.197  25.021  1.00  0.00     0.023 C 
BRANCH  19  20
ATOM     20  C   UNL A   1      32.472  23.480  26.459  1.00  0.00    -0.002 C 
ATOM     21  C   UNL A   1      30.987  23.750  26.633  1.00  0.00     0.004 C 
ENDBRANCH  19  20
ENDBRANCH  12  19
ENDBRANCH   9  12
ENDBRANCH   6   8
BRANCH   6  22
ATOM     22  C   UNL A   1      31.450  27.005  24.664  1.00  0.00     0.420 C 
ATOM     23  F   UNL A   1      30.937  25.884  24.128  1.00  0.00    -0.168 F 
ATOM     24  F   UNL A   1      31.177  26.984  25.997  1.00  0.00    -0.168 F 
ATOM     25  F   UNL A   1      30.745  28.047  24.160  1.00  0.00    -0.168 F 
ENDBRANCH   6  22
ENDBRANCH   3   6
ENDBRANCH   1   2
BRANCH   1  26
ATOM     26  C   UNL A   1      31.545  30.495  26.199  1.00  0.00     0.023 C 
BRANCH  26  27
ATOM     27  C   UNL A   1      31.392  31.932  26.694  1.00  0.00     0.023 C 
BRANCH  27  28
ATOM     28  C   UNL A   1      32.663  32.603  27.205  1.00  0.00     0.116 C 
BRANCH  28  29
ATOM     29  N   UNL A   1      32.463  33.982  27.620  1.00  0.00    -0.352 N 
ATOM     30  C   UNL A   1      33.145  34.725  28.556  1.00  0.00     0.251 C 
ATOM     31  H   UNL A   1      31.730  34.455  27.162  1.00  0.00     0.163 HD
ATOM     32  O   UNL A   1      32.767  35.850  28.844  1.00  0.00    -0.269 OA
BRANCH  30  33
ATOM     33  C   UNL A   1      34.316  34.137  29.241  1.00  0.00     0.039 A 
ATOM     34  C   UNL A   1      34.098  33.282  30.324  1.00  0.00     0.014 A 
ATOM     35  C   UNL A   1      35.615  34.403  28.802  1.00  0.00     0.014 A 
ATOM     36  C   UNL A   1      35.181  32.631  30.917  1.00  0.00     0.010 A 
ATOM     37  C   UNL A   1      36.682  33.692  29.341  1.00  0.00     0.010 A 
ATOM     38  C   UNL A   1      36.477  32.798  30.403  1.00  0.00    -0.014 A 
BRANCH  38  39
ATOM     39  C   UNL A   1      37.626  32.039  30.958  1.00  0.00     0.031 A 
ATOM     40  C   UNL A   1      38.156  32.361  32.327  1.00  0.00     0.074 A 
ATOM     41  C   UNL A   1      38.230  31.099  30.204  1.00  0.00     0.049 A 
ATOM     42  N   UNL A   1      39.176  31.843  32.962  1.00  0.00    -0.248 NA
ATOM     43  C   UNL A   1      37.464  33.425  33.072  1.00  0.00     0.031 C 
ATOM     44  C   UNL A   1      37.841  30.728  28.840  1.00  0.00     0.029 A 
ATOM     45  N   UNL A   1      39.302  30.286  30.473  1.00  0.00    -0.354 N 
ATOM     46  C   UNL A   1      39.256  32.525  34.170  1.00  0.00     0.074 A 
ATOM     47  C   UNL A   1      38.218  33.532  34.156  1.00  0.00     0.031 C 
ATOM     48  C   UNL A   1      38.643  29.743  28.406  1.00  0.00     0.029 A 
ATOM     49  C   UNL A   1      39.626  29.438  29.441  1.00  0.00     0.049 A 
ATOM     50  H   UNL A   1      39.793  30.309  31.326  1.00  0.00     0.167 HD
ATOM     51  C   UNL A   1      40.103  32.316  35.206  1.00  0.00     0.037 A 
ATOM     52  C   UNL A   1      40.609  28.523  29.339  1.00  0.00     0.037 A 
ATOM     53  C   UNL A   1      41.119  31.297  35.224  1.00  0.00     0.049 A 
ATOM     54  C   UNL A   1      41.544  28.320  30.500  1.00  0.00     0.074 A 
ATOM     55  C   UNL A   1      41.984  30.962  36.252  1.00  0.00     0.029 A 
ATOM     56  N   UNL A   1      41.412  30.454  34.162  1.00  0.00    -0.354 N 
ATOM     57  N   UNL A   1      41.557  28.919  31.667  1.00  0.00    -0.248 NA
ATOM     58  C   UNL A   1      42.597  27.310  30.332  1.00  0.00     0.031 C 
ATOM     59  C   UNL A   1      42.836  29.951  35.792  1.00  0.00     0.029 A 
ATOM     60  C   UNL A   1      42.463  29.618  34.500  1.00  0.00     0.049 A 
ATOM     61  H   UNL A   1      40.942  30.451  33.297  1.00  0.00     0.167 HD
ATOM     62  C   UNL A   1      42.596  28.337  32.381  1.00  0.00     0.074 A 
ATOM     63  C   UNL A   1      43.179  27.327  31.522  1.00  0.00     0.031 C 
ATOM     64  C   UNL A   1      43.028  28.612  33.637  1.00  0.00     0.037 A 
BRANCH  51  65
ATOM     65  C   UNL A   1      39.963  33.206  36.407  1.00  0.00     0.057 A 
ATOM     66  C   UNL A   1      40.714  34.380  36.551  1.00  0.00     0.134 A 
ATOM     67  C   UNL A   1      39.038  32.906  37.415  1.00  0.00     0.134 A 
ATOM     68  F   UNL A   1      41.628  34.721  35.629  1.00  0.00    -0.206 F 
ATOM     69  C   UNL A   1      40.571  35.208  37.667  1.00  0.00     0.040 A 
ATOM     70  C   UNL A   1      38.864  33.741  38.520  1.00  0.00     0.040 A 
ATOM     71  F   UNL A   1      38.281  31.801  37.339  1.00  0.00    -0.206 F 
ATOM     72  C   UNL A   1      39.637  34.892  38.651  1.00  0.00     0.006 A 
ENDBRANCH  51  65
BRANCH  52  73
ATOM     73  C   UNL A   1      40.748  27.710  28.105  1.00  0.00     0.057 A 
ATOM     74  C   UNL A   1      40.136  26.455  27.994  1.00  0.00     0.134 A 
ATOM     75  C   UNL A   1      41.507  28.153  27.015  1.00  0.00     0.134 A 
ATOM     76  F   UNL A   1      39.411  25.967  29.011  1.00  0.00    -0.206 F 
ATOM     77  C   UNL A   1      40.295  25.660  26.858  1.00  0.00     0.040 A 
ATOM     78  C   UNL A   1      41.651  27.381  25.861  1.00  0.00     0.040 A 
ATOM     79  F   UNL A   1      42.113  29.349  27.053  1.00  0.00    -0.206 F 
ATOM     80  C   UNL A   1      41.051  26.125  25.784  1.00  0.00     0.006 A 
ENDBRANCH  52  73
BRANCH  64  81
ATOM     81  C   UNL A   1      44.161  27.784  34.170  1.00  0.00     0.057 A 
ATOM     82  C   UNL A   1      43.946  26.563  34.820  1.00  0.00     0.134 A 
ATOM     83  C   UNL A   1      45.488  28.201  33.997  1.00  0.00     0.134 A 
ATOM     84  F   UNL A   1      42.700  26.113  35.029  1.00  0.00    -0.206 F 
ATOM     85  C   UNL A   1      45.009  25.797  35.302  1.00  0.00     0.040 A 
ATOM     86  C   UNL A   1      46.560  27.429  34.448  1.00  0.00     0.040 A 
ATOM     87  F   UNL A   1      45.765  29.356  33.375  1.00  0.00    -0.206 F 
ATOM     88  C   UNL A   1      46.321  26.226  35.109  1.00  0.00     0.006 A 
ENDBRANCH  64  81
ENDBRANCH  38  39
ENDBRANCH  30  33
ENDBRANCH  28  29
ENDBRANCH  27  28
ENDBRANCH  26  27
ENDBRANCH   1  26
TORSDOF 16
ENDMDL
MODEL 3
REMARK VINA RESULT:     -10.7      0.717      6.191
REMARK SMILES CCC[C@@]1(C(=O)N[C@@](C)(C(=O)NCCCCNC(=O)c2ccc(-c3c4nc(c(-c5c(F)cccc5F)c5ccc([nH]5)c(-c5c(F)cccc5F)c5nc(c(-c6c(F)cccc6F)c6ccc3[nH]6)C=C5)C=C4)cc2)C(F)(F)F)CC[NH2+]C1
REMARK SMILES IDX 13 1 12 2 10 3 11 4 8 6 9 7 7 8 5 9 6 10 4 12 78 13 81 14
REMARK SMILES IDX 79 15 80 16 3 19 2 20 1 21 74 22 75 23 76 24 77 25 14 26
REMARK SMILES IDX 15 27 16 28 17 29 18 30 19 32 20 33 21 34 73 35 22 36 72 37
REMARK SMILES IDX 23 38 24 39 25 40 66 41 26 42 71 43 65 44 67 45 27 46 70 47
REMARK SMILES IDX 64 48 63 49 28 51 54 52 37 53 53 54 38 55 41 56 52 57 68 58
REMARK SMILES IDX 39 59 40 60 51 62 69 63 42 64 29 65 30 66 35 67 31 68 32 69
REMARK SMILES IDX 34 70 36 71 33 72 55 73 56 74 61 75 57 76 58 77 60 78 62 79
REMARK SMILES IDX 59 80 43 81 44 82 49 83 45 84 46 85 48 86 50 87 47 88
REMARK H PARENT 12 5 7 11 80 17 80 18 17 31 67 50 41 61
REMARK Flexibility Score: inf
ROOT
ATOM      1  C   UNL A   1      32.572  29.671  25.603  1.00  0.00     0.116 C 
ENDROOT
BRANCH   1   2
ATOM      2  N   UNL A   1      31.984  29.762  24.277  1.00  0.00    -0.354 N 
ATOM      3  C   UNL A   1      31.586  28.814  23.373  1.00  0.00     0.254 C 
ATOM      4  O   UNL A   1      30.825  29.235  22.497  1.00  0.00    -0.272 OA
ATOM      5  H   UNL A   1      31.848  30.687  23.968  1.00  0.00     0.163 HD
BRANCH   3   6
ATOM      6  C   UNL A   1      32.005  27.323  23.452  1.00  0.00     0.212 C 
ATOM      7  C   UNL A   1      31.228  26.490  22.403  1.00  0.00     0.056 C 
BRANCH   6   8
ATOM      8  N   UNL A   1      31.616  26.792  24.807  1.00  0.00    -0.334 N 
ATOM      9  C   UNL A   1      31.983  25.944  25.776  1.00  0.00     0.233 C 
ATOM     10  O   UNL A   1      31.592  26.377  26.879  1.00  0.00    -0.274 OA
ATOM     11  H   UNL A   1      30.779  27.232  25.082  1.00  0.00     0.164 HD
BRANCH   9  12
ATOM     12  C   UNL A   1      32.765  24.605  25.767  1.00  0.00     0.103 C 
ATOM     13  C   UNL A   1      32.514  23.515  24.735  1.00  0.00     0.084 C 
ATOM     14  C   UNL A   1      32.203  23.849  27.045  1.00  0.00     0.277 C 
ATOM     15  C   UNL A   1      31.227  22.852  25.164  1.00  0.00     0.261 C 
ATOM     16  N   UNL A   1      31.429  22.669  26.596  1.00  0.00    -0.345 N 
ATOM     17  H   UNL A   1      31.951  21.811  26.775  1.00  0.00     0.346 HD
ATOM     18  H   UNL A   1      30.542  22.589  27.095  1.00  0.00     0.346 HD
BRANCH  12  19
ATOM     19  C   UNL A   1      34.278  24.925  25.997  1.00  0.00     0.023 C 
BRANCH  19  20
ATOM     20  C   UNL A   1      35.340  24.249  25.116  1.00  0.00    -0.002 C 
ATOM     21  C   UNL A   1      36.224  23.230  25.815  1.00  0.00     0.004 C 
ENDBRANCH  19  20
ENDBRANCH  12  19
ENDBRANCH   9  12
ENDBRANCH   6   8
BRANCH   6  22
ATOM     22  C   UNL A   1      33.474  27.234  23.018  1.00  0.00     0.420 C 
ATOM     23  F   UNL A   1      33.768  27.982  21.941  1.00  0.00    -0.168 F 
ATOM     24  F   UNL A   1      34.282  27.641  24.034  1.00  0.00    -0.168 F 
ATOM     25  F   UNL A   1      33.851  25.962  22.736  1.00  0.00    -0.168 F 
ENDBRANCH   6  22
ENDBRANCH   3   6
ENDBRANCH   1   2
BRANCH   1  26
ATOM     26  C   UNL A   1      31.675  30.212  26.711  1.00  0.00     0.023 C 
BRANCH  26  27
ATOM     27  C   UNL A   1      31.519  31.731  26.776  1.00  0.00     0.023 C 
BRANCH  27  28
ATOM     28  C   UNL A   1      32.770  32.516  27.154  1.00  0.00     0.116 C 
BRANCH  28  29
ATOM     29  N   UNL A   1      32.484  33.839  27.687  1.00  0.00    -0.352 N 
ATOM     30  C   UNL A   1      33.194  34.593  28.593  1.00  0.00     0.251 C 
ATOM     31  H   UNL A   1      31.659  34.257  27.348  1.00  0.00     0.163 HD
ATOM     32  O   UNL A   1      32.742  35.652  29.002  1.00  0.00    -0.269 OA
BRANCH  30  33
ATOM     33  C   UNL A   1      34.490  34.093  29.100  1.00  0.00     0.039 A 
ATOM     34  C   UNL A   1      34.507  33.368  30.293  1.00  0.00     0.014 A 
ATOM     35  C   UNL A   1      35.673  34.314  28.391  1.00  0.00     0.014 A 
ATOM     36  C   UNL A   1      35.701  32.795  30.734  1.00  0.00     0.010 A 
ATOM     37  C   UNL A   1      36.843  33.676  28.789  1.00  0.00     0.010 A 
ATOM     38  C   UNL A   1      36.870  32.908  29.963  1.00  0.00    -0.014 A 
BRANCH  38  39
ATOM     39  C   UNL A   1      38.124  32.224  30.367  1.00  0.00     0.031 A 
ATOM     40  C   UNL A   1      39.050  32.865  31.363  1.00  0.00     0.074 A 
ATOM     41  C   UNL A   1      38.458  31.052  29.791  1.00  0.00     0.049 A 
ATOM     42  N   UNL A   1      40.209  32.446  31.803  1.00  0.00    -0.248 NA
ATOM     43  C   UNL A   1      38.631  34.162  31.918  1.00  0.00     0.031 C 
ATOM     44  C   UNL A   1      37.668  30.352  28.774  1.00  0.00     0.029 A 
ATOM     45  N   UNL A   1      39.552  30.243  29.973  1.00  0.00    -0.354 N 
ATOM     46  C   UNL A   1      40.661  33.431  32.672  1.00  0.00     0.074 A 
ATOM     47  C   UNL A   1      39.680  34.494  32.654  1.00  0.00     0.031 C 
ATOM     48  C   UNL A   1      38.287  29.207  28.446  1.00  0.00     0.029 A 
ATOM     49  C   UNL A   1      39.535  29.109  29.196  1.00  0.00     0.049 A 
ATOM     50  H   UNL A   1      40.280  30.457  30.600  1.00  0.00     0.167 HD
ATOM     51  C   UNL A   1      41.781  33.438  33.434  1.00  0.00     0.037 A 
ATOM     52  C   UNL A   1      40.429  28.107  29.097  1.00  0.00     0.037 A 
ATOM     53  C   UNL A   1      42.743  32.368  33.466  1.00  0.00     0.049 A 
ATOM     54  C   UNL A   1      41.671  28.146  29.945  1.00  0.00     0.074 A 
ATOM     55  C   UNL A   1      43.875  32.250  34.252  1.00  0.00     0.029 A 
ATOM     56  N   UNL A   1      42.688  31.232  32.670  1.00  0.00    -0.354 N 
ATOM     57  N   UNL A   1      42.047  29.047  30.822  1.00  0.00    -0.248 NA
ATOM     58  C   UNL A   1      42.611  27.028  29.794  1.00  0.00     0.031 C 
ATOM     59  C   UNL A   1      44.535  31.069  33.895  1.00  0.00     0.029 A 
ATOM     60  C   UNL A   1      43.782  30.424  32.927  1.00  0.00     0.049 A 
ATOM     61  H   UNL A   1      41.977  31.032  32.019  1.00  0.00     0.167 HD
ATOM     62  C   UNL A   1      43.247  28.588  31.348  1.00  0.00     0.074 A 
ATOM     63  C   UNL A   1      43.528  27.321  30.704  1.00  0.00     0.031 C 
ATOM     64  C   UNL A   1      44.044  29.162  32.283  1.00  0.00     0.037 A 
BRANCH  51  65
ATOM     65  C   UNL A   1      42.025  34.642  34.298  1.00  0.00     0.057 A 
ATOM     66  C   UNL A   1      42.741  35.754  33.836  1.00  0.00     0.134 A 
ATOM     67  C   UNL A   1      41.504  34.707  35.597  1.00  0.00     0.134 A 
ATOM     68  F   UNL A   1      43.278  35.754  32.606  1.00  0.00    -0.206 F 
ATOM     69  C   UNL A   1      42.955  36.873  34.642  1.00  0.00     0.040 A 
ATOM     70  C   UNL A   1      41.685  35.832  36.402  1.00  0.00     0.040 A 
ATOM     71  F   UNL A   1      40.803  33.680  36.102  1.00  0.00    -0.206 F 
ATOM     72  C   UNL A   1      42.419  36.917  35.927  1.00  0.00     0.006 A 
ENDBRANCH  51  65
BRANCH  52  73
ATOM     73  C   UNL A   1      40.176  26.967  28.180  1.00  0.00     0.057 A 
ATOM     74  C   UNL A   1      40.726  26.941  26.892  1.00  0.00     0.134 A 
ATOM     75  C   UNL A   1      39.368  25.887  28.556  1.00  0.00     0.134 A 
ATOM     76  F   UNL A   1      41.494  27.954  26.466  1.00  0.00    -0.206 F 
ATOM     77  C   UNL A   1      40.461  25.898  26.003  1.00  0.00     0.040 A 
ATOM     78  C   UNL A   1      39.118  24.823  27.688  1.00  0.00     0.040 A 
ATOM     79  F   UNL A   1      38.817  25.846  29.778  1.00  0.00    -0.206 F 
ATOM     80  C   UNL A   1      39.657  24.832  26.403  1.00  0.00     0.006 A 
ENDBRANCH  52  73
BRANCH  64  81
ATOM     81  C   UNL A   1      45.276  28.407  32.692  1.00  0.00     0.057 A 
ATOM     82  C   UNL A   1      45.251  27.436  33.700  1.00  0.00     0.134 A 
ATOM     83  C   UNL A   1      46.496  28.633  32.040  1.00  0.00     0.134 A 
ATOM     84  F   UNL A   1      44.119  27.181  34.372  1.00  0.00    -0.206 F 
ATOM     85  C   UNL A   1      46.402  26.733  34.064  1.00  0.00     0.040 A 
ATOM     86  C   UNL A   1      47.646  27.915  32.375  1.00  0.00     0.040 A 
ATOM     87  F   UNL A   1      46.588  29.542  31.059  1.00  0.00    -0.206 F 
ATOM     88  C   UNL A   1      47.602  26.967  33.395  1.00  0.00     0.006 A 
ENDBRANCH  64  81
ENDBRANCH  38  39
ENDBRANCH  30  33
ENDBRANCH  28  29
ENDBRANCH  27  28
ENDBRANCH  26  27
ENDBRANCH   1  26
TORSDOF 16
ENDMDL
