MODEL 1
REMARK VINA RESULT:     -11.6      0.000      0.000
REMARK SMILES C[C@H](C1CC1)n1c(SCC(=O)NCCCCNC(=O)c2ccc(-c3c4nc(c(-c5c(F)cccc5F)c5ccc([nH]5)c(-c5c(F)cccc5F)c5nc(c(-c6c(F)cccc6F)c6ccc3[nH]6)C=C5)C=C4)cc2)nc2cc(Cl)c(Cl)cc21
REMARK SMILES IDX 13 1 12 2 10 3 11 4 9 6 8 7 7 8 6 9 82 10 74 11 75 12 81 13
REMARK SMILES IDX 76 14 79 15 77 16 80 17 78 18 2 19 1 20 3 21 4 22 5 23 14 24
REMARK SMILES IDX 15 25 16 26 17 27 18 28 19 30 20 31 21 32 73 33 22 34 72 35
REMARK SMILES IDX 23 36 24 37 25 38 66 39 26 40 71 41 65 42 67 43 27 44 70 45
REMARK SMILES IDX 64 46 63 47 28 49 54 50 37 51 53 52 38 53 41 54 52 55 68 56
REMARK SMILES IDX 39 57 40 58 51 60 69 61 42 62 29 63 30 64 35 65 31 66 32 67
REMARK SMILES IDX 34 68 36 69 33 70 55 71 56 72 61 73 57 74 58 75 60 76 62 77
REMARK SMILES IDX 59 78 43 79 44 80 49 81 45 82 46 83 48 84 50 85 47 86
REMARK H PARENT 12 5 17 29 67 48 41 59
REMARK Flexibility Score: inf
ROOT
ATOM      1  C   UNL A   1      39.833  21.889  26.525  1.00  0.00     0.116 C 
ENDROOT
BRANCH   1   2
ATOM      2  N   UNL A   1      38.901  20.988  25.884  1.00  0.00    -0.355 N 
ATOM      3  C   UNL A   1      37.804  21.245  25.146  1.00  0.00     0.230 C 
ATOM      4  O   UNL A   1      37.234  20.265  24.654  1.00  0.00    -0.274 OA
ATOM      5  H   UNL A   1      39.100  20.033  26.007  1.00  0.00     0.163 HD
BRANCH   3   6
ATOM      6  C   UNL A   1      37.371  22.640  24.798  1.00  0.00     0.178 C 
BRANCH   6   7
ATOM      7  S   UNL A   1      36.421  22.891  23.326  1.00  0.00    -0.078 SA
BRANCH   7   8
ATOM      8  C   UNL A   1      34.775  23.342  23.594  1.00  0.00     0.169 A 
ATOM      9  N   UNL A   1      33.777  22.882  24.431  1.00  0.00    -0.316 N 
ATOM     10  C   UNL A   1      32.799  23.891  24.452  1.00  0.00     0.071 A 
ATOM     11  N   UNL A   1      34.360  24.394  22.912  1.00  0.00    -0.222 NA
ATOM     12  C   UNL A   1      33.176  24.774  23.454  1.00  0.00     0.091 A 
ATOM     13  C   UNL A   1      31.661  24.121  25.245  1.00  0.00     0.050 A 
ATOM     14  C   UNL A   1      32.390  25.902  23.170  1.00  0.00     0.052 A 
ATOM     15  C   UNL A   1      30.900  25.270  24.983  1.00  0.00     0.061 A 
ATOM     16  C   UNL A   1      31.252  26.144  23.948  1.00  0.00     0.061 A 
ATOM     17  Cl  UNL A   1      29.533  25.552  26.006  1.00  0.00    -0.083 Cl
ATOM     18  Cl  UNL A   1      30.331  27.565  23.591  1.00  0.00    -0.083 Cl
BRANCH   9  19
ATOM     19  C   UNL A   1      33.676  21.726  25.333  1.00  0.00     0.090 C 
ATOM     20  C   UNL A   1      34.297  21.992  26.698  1.00  0.00     0.032 C 
BRANCH  19  21
ATOM     21  C   UNL A   1      33.692  20.325  24.733  1.00  0.00     0.012 C 
ATOM     22  C   UNL A   1      33.047  19.053  25.240  1.00  0.00     0.006 C 
ATOM     23  C   UNL A   1      32.497  19.731  24.013  1.00  0.00     0.006 C 
ENDBRANCH  19  21
ENDBRANCH   9  19
ENDBRANCH   7   8
ENDBRANCH   6   7
ENDBRANCH   3   6
ENDBRANCH   1   2
BRANCH   1  24
ATOM     24  C   UNL A   1      41.170  21.211  26.791  1.00  0.00     0.023 C 
BRANCH  24  25
ATOM     25  C   UNL A   1      41.349  19.843  26.122  1.00  0.00     0.023 C 
BRANCH  25  26
ATOM     26  C   UNL A   1      42.729  19.193  26.274  1.00  0.00     0.116 C 
BRANCH  26  27
ATOM     27  N   UNL A   1      43.640  19.429  25.175  1.00  0.00    -0.352 N 
ATOM     28  C   UNL A   1      44.361  20.506  24.747  1.00  0.00     0.251 C 
ATOM     29  H   UNL A   1      43.769  18.635  24.608  1.00  0.00     0.163 HD
ATOM     30  O   UNL A   1      45.112  20.319  23.786  1.00  0.00    -0.269 OA
BRANCH  28  31
ATOM     31  C   UNL A   1      44.248  21.867  25.322  1.00  0.00     0.039 A 
ATOM     32  C   UNL A   1      44.815  22.268  26.527  1.00  0.00     0.014 A 
ATOM     33  C   UNL A   1      43.463  22.788  24.605  1.00  0.00     0.014 A 
ATOM     34  C   UNL A   1      44.493  23.490  27.082  1.00  0.00     0.010 A 
ATOM     35  C   UNL A   1      43.188  24.046  25.126  1.00  0.00     0.010 A 
ATOM     36  C   UNL A   1      43.660  24.370  26.392  1.00  0.00    -0.014 A 
BRANCH  36  37
ATOM     37  C   UNL A   1      43.401  25.643  27.046  1.00  0.00     0.031 A 
ATOM     38  C   UNL A   1      44.442  26.690  26.819  1.00  0.00     0.074 A 
ATOM     39  C   UNL A   1      42.311  25.885  27.792  1.00  0.00     0.049 A 
ATOM     40  N   UNL A   1      45.209  27.256  27.693  1.00  0.00    -0.248 NA
ATOM     41  C   UNL A   1      44.749  27.050  25.427  1.00  0.00     0.031 C 
ATOM     42  C   UNL A   1      41.097  25.083  27.938  1.00  0.00     0.029 A 
ATOM     43  N   UNL A   1      42.047  26.991  28.539  1.00  0.00    -0.354 N 
ATOM     44  C   UNL A   1      45.998  28.162  26.986  1.00  0.00     0.074 A 
ATOM     45  C   UNL A   1      45.752  27.913  25.589  1.00  0.00     0.031 C 
ATOM     46  C   UNL A   1      40.144  25.831  28.539  1.00  0.00     0.029 A 
ATOM     47  C   UNL A   1      40.729  27.099  28.943  1.00  0.00     0.049 A 
ATOM     48  H   UNL A   1      42.734  27.655  28.773  1.00  0.00     0.167 HD
ATOM     49  C   UNL A   1      46.678  29.166  27.605  1.00  0.00     0.037 A 
ATOM     50  C   UNL A   1      40.154  28.183  29.513  1.00  0.00     0.037 A 
ATOM     51  C   UNL A   1      46.865  28.896  29.004  1.00  0.00     0.049 A 
ATOM     52  C   UNL A   1      41.235  29.022  30.083  1.00  0.00     0.074 A 
ATOM     53  C   UNL A   1      47.533  27.926  29.726  1.00  0.00     0.029 A 
ATOM     54  N   UNL A   1      46.046  29.530  29.905  1.00  0.00    -0.354 N 
ATOM     55  N   UNL A   1      41.941  28.689  31.128  1.00  0.00    -0.248 NA
ATOM     56  C   UNL A   1      41.829  30.044  29.231  1.00  0.00     0.031 C 
ATOM     57  C   UNL A   1      46.729  27.707  30.881  1.00  0.00     0.029 A 
ATOM     58  C   UNL A   1      45.643  28.579  30.804  1.00  0.00     0.049 A 
ATOM     59  H   UNL A   1      45.796  30.482  29.903  1.00  0.00     0.167 HD
ATOM     60  C   UNL A   1      43.223  29.137  30.849  1.00  0.00     0.074 A 
ATOM     61  C   UNL A   1      43.074  30.046  29.715  1.00  0.00     0.031 C 
ATOM     62  C   UNL A   1      44.321  28.524  31.379  1.00  0.00     0.037 A 
BRANCH  49  63
ATOM     63  C   UNL A   1      46.892  30.538  27.018  1.00  0.00     0.057 A 
ATOM     64  C   UNL A   1      48.176  31.114  27.049  1.00  0.00     0.134 A 
ATOM     65  C   UNL A   1      45.844  31.428  26.707  1.00  0.00     0.134 A 
ATOM     66  F   UNL A   1      49.258  30.375  27.337  1.00  0.00    -0.206 F 
ATOM     67  C   UNL A   1      48.387  32.486  26.871  1.00  0.00     0.040 A 
ATOM     68  C   UNL A   1      46.051  32.791  26.479  1.00  0.00     0.040 A 
ATOM     69  F   UNL A   1      44.560  31.052  26.706  1.00  0.00    -0.206 F 
ATOM     70  C   UNL A   1      47.322  33.331  26.596  1.00  0.00     0.006 A 
ENDBRANCH  49  63
BRANCH  50  71
ATOM     71  C   UNL A   1      38.764  28.659  29.355  1.00  0.00     0.057 A 
ATOM     72  C   UNL A   1      37.888  28.728  30.445  1.00  0.00     0.134 A 
ATOM     73  C   UNL A   1      38.339  29.299  28.177  1.00  0.00     0.134 A 
ATOM     74  F   UNL A   1      38.226  28.189  31.625  1.00  0.00    -0.206 F 
ATOM     75  C   UNL A   1      36.664  29.403  30.371  1.00  0.00     0.040 A 
ATOM     76  C   UNL A   1      37.116  29.969  28.086  1.00  0.00     0.040 A 
ATOM     77  F   UNL A   1      39.135  29.368  27.099  1.00  0.00    -0.206 F 
ATOM     78  C   UNL A   1      36.278  30.033  29.191  1.00  0.00     0.006 A 
ENDBRANCH  50  71
BRANCH  62  79
ATOM     79  C   UNL A   1      44.109  27.490  32.446  1.00  0.00     0.057 A 
ATOM     80  C   UNL A   1      44.042  26.114  32.182  1.00  0.00     0.134 A 
ATOM     81  C   UNL A   1      44.188  27.876  33.789  1.00  0.00     0.134 A 
ATOM     82  F   UNL A   1      44.063  25.650  30.925  1.00  0.00    -0.206 F 
ATOM     83  C   UNL A   1      44.032  25.167  33.209  1.00  0.00     0.040 A 
ATOM     84  C   UNL A   1      44.210  26.939  34.823  1.00  0.00     0.040 A 
ATOM     85  F   UNL A   1      44.316  29.174  34.113  1.00  0.00    -0.206 F 
ATOM     86  C   UNL A   1      44.127  25.579  34.535  1.00  0.00     0.006 A 
ENDBRANCH  62  79
ENDBRANCH  36  37
ENDBRANCH  28  31
ENDBRANCH  26  27
ENDBRANCH  25  26
ENDBRANCH  24  25
ENDBRANCH   1  24
TORSDOF 15
ENDMDL
MODEL 2
REMARK VINA RESULT:     -11.1      2.972      4.413
REMARK SMILES C[C@H](C1CC1)n1c(SCC(=O)NCCCCNC(=O)c2ccc(-c3c4nc(c(-c5c(F)cccc5F)c5ccc([nH]5)c(-c5c(F)cccc5F)c5nc(c(-c6c(F)cccc6F)c6ccc3[nH]6)C=C5)C=C4)cc2)nc2cc(Cl)c(Cl)cc21
REMARK SMILES IDX 13 1 12 2 10 3 11 4 9 6 8 7 7 8 6 9 82 10 74 11 75 12 81 13
REMARK SMILES IDX 76 14 79 15 77 16 80 17 78 18 2 19 1 20 3 21 4 22 5 23 14 24
REMARK SMILES IDX 15 25 16 26 17 27 18 28 19 30 20 31 21 32 73 33 22 34 72 35
REMARK SMILES IDX 23 36 24 37 25 38 66 39 26 40 71 41 65 42 67 43 27 44 70 45
REMARK SMILES IDX 64 46 63 47 28 49 54 50 37 51 53 52 38 53 41 54 52 55 68 56
REMARK SMILES IDX 39 57 40 58 51 60 69 61 42 62 29 63 30 64 35 65 31 66 32 67
REMARK SMILES IDX 34 68 36 69 33 70 55 71 56 72 61 73 57 74 58 75 60 76 62 77
REMARK SMILES IDX 59 78 43 79 44 80 49 81 45 82 46 83 48 84 50 85 47 86
REMARK H PARENT 12 5 17 29 67 48 41 59
REMARK Flexibility Score: inf
ROOT
ATOM      1  C   UNL A   1      36.828  23.785  25.793  1.00  0.00     0.116 C 
ENDROOT
BRANCH   1   2
ATOM      2  N   UNL A   1      36.105  22.560  26.055  1.00  0.00    -0.355 N 
ATOM      3  C   UNL A   1      34.846  22.203  25.738  1.00  0.00     0.230 C 
ATOM      4  O   UNL A   1      34.516  21.048  26.025  1.00  0.00    -0.274 OA
ATOM      5  H   UNL A   1      36.616  21.876  26.543  1.00  0.00     0.163 HD
BRANCH   3   6
ATOM      6  C   UNL A   1      33.930  23.087  24.941  1.00  0.00     0.178 C 
BRANCH   6   7
ATOM      7  S   UNL A   1      32.591  23.892  25.772  1.00  0.00    -0.078 SA
BRANCH   7   8
ATOM      8  C   UNL A   1      32.619  25.618  25.686  1.00  0.00     0.169 A 
ATOM      9  N   UNL A   1      31.675  26.579  25.379  1.00  0.00    -0.316 N 
ATOM     10  C   UNL A   1      32.199  27.795  25.852  1.00  0.00     0.071 A 
ATOM     11  N   UNL A   1      33.757  26.183  26.045  1.00  0.00    -0.222 NA
ATOM     12  C   UNL A   1      33.508  27.508  26.199  1.00  0.00     0.091 A 
ATOM     13  C   UNL A   1      31.658  29.080  26.025  1.00  0.00     0.050 A 
ATOM     14  C   UNL A   1      34.352  28.519  26.684  1.00  0.00     0.052 A 
ATOM     15  C   UNL A   1      32.495  30.079  26.546  1.00  0.00     0.061 A 
ATOM     16  C   UNL A   1      33.831  29.806  26.859  1.00  0.00     0.061 A 
ATOM     17  Cl  UNL A   1      31.788  31.639  26.794  1.00  0.00    -0.083 Cl
ATOM     18  Cl  UNL A   1      34.892  31.015  27.495  1.00  0.00    -0.083 Cl
BRANCH   9  19
ATOM     19  C   UNL A   1      30.300  26.509  24.864  1.00  0.00     0.090 C 
ATOM     20  C   UNL A   1      29.434  25.525  25.639  1.00  0.00     0.032 C 
BRANCH  19  21
ATOM     21  C   UNL A   1      30.062  26.750  23.378  1.00  0.00     0.012 C 
ATOM     22  C   UNL A   1      30.302  27.997  22.554  1.00  0.00     0.006 C 
ATOM     23  C   UNL A   1      31.191  26.795  22.366  1.00  0.00     0.006 C 
ENDBRANCH  19  21
ENDBRANCH   9  19
ENDBRANCH   7   8
ENDBRANCH   6   7
ENDBRANCH   3   6
ENDBRANCH   1   2
BRANCH   1  24
ATOM     24  C   UNL A   1      38.292  23.665  26.192  1.00  0.00     0.023 C 
BRANCH  24  25
ATOM     25  C   UNL A   1      38.863  22.243  26.144  1.00  0.00     0.023 C 
BRANCH  25  26
ATOM     26  C   UNL A   1      40.246  22.048  26.779  1.00  0.00     0.116 C 
BRANCH  26  27
ATOM     27  N   UNL A   1      41.361  22.444  25.946  1.00  0.00    -0.352 N 
ATOM     28  C   UNL A   1      42.086  23.591  25.804  1.00  0.00     0.251 C 
ATOM     29  H   UNL A   1      41.665  21.725  25.347  1.00  0.00     0.163 HD
ATOM     30  O   UNL A   1      43.043  23.544  25.026  1.00  0.00    -0.269 OA
BRANCH  28  31
ATOM     31  C   UNL A   1      41.759  24.873  26.471  1.00  0.00     0.039 A 
ATOM     32  C   UNL A   1      41.106  25.940  25.861  1.00  0.00     0.014 A 
ATOM     33  C   UNL A   1      42.198  25.020  27.799  1.00  0.00     0.014 A 
ATOM     34  C   UNL A   1      41.022  27.165  26.492  1.00  0.00     0.010 A 
ATOM     35  C   UNL A   1      42.057  26.231  28.465  1.00  0.00     0.010 A 
ATOM     36  C   UNL A   1      41.519  27.317  27.785  1.00  0.00    -0.014 A 
BRANCH  36  37
ATOM     37  C   UNL A   1      41.360  28.636  28.375  1.00  0.00     0.031 A 
ATOM     38  C   UNL A   1      42.519  29.557  28.180  1.00  0.00     0.074 A 
ATOM     39  C   UNL A   1      40.259  29.024  29.040  1.00  0.00     0.049 A 
ATOM     40  N   UNL A   1      43.288  30.075  29.082  1.00  0.00    -0.248 NA
ATOM     41  C   UNL A   1      42.947  29.824  26.799  1.00  0.00     0.031 C 
ATOM     42  C   UNL A   1      38.958  28.361  29.134  1.00  0.00     0.029 A 
ATOM     43  N   UNL A   1      40.070  30.181  29.729  1.00  0.00    -0.354 N 
ATOM     44  C   UNL A   1      44.212  30.863  28.396  1.00  0.00     0.074 A 
ATOM     45  C   UNL A   1      44.026  30.582  26.996  1.00  0.00     0.031 C 
ATOM     46  C   UNL A   1      38.056  29.230  29.646  1.00  0.00     0.029 A 
ATOM     47  C   UNL A   1      38.749  30.445  30.042  1.00  0.00     0.049 A 
ATOM     48  H   UNL A   1      40.810  30.779  29.983  1.00  0.00     0.167 HD
ATOM     49  C   UNL A   1      44.957  31.814  29.022  1.00  0.00     0.037 A 
ATOM     50  C   UNL A   1      38.261  31.606  30.534  1.00  0.00     0.037 A 
ATOM     51  C   UNL A   1      45.029  31.585  30.439  1.00  0.00     0.049 A 
ATOM     52  C   UNL A   1      39.390  32.350  31.143  1.00  0.00     0.074 A 
ATOM     53  C   UNL A   1      45.542  30.581  31.237  1.00  0.00     0.029 A 
ATOM     54  N   UNL A   1      44.229  32.339  31.262  1.00  0.00    -0.354 N 
ATOM     55  N   UNL A   1      39.990  31.988  32.243  1.00  0.00    -0.248 NA
ATOM     56  C   UNL A   1      40.141  33.266  30.297  1.00  0.00     0.031 C 
ATOM     57  C   UNL A   1      44.650  30.496  32.343  1.00  0.00     0.029 A 
ATOM     58  C   UNL A   1      43.671  31.475  32.166  1.00  0.00     0.049 A 
ATOM     59  H   UNL A   1      44.084  33.312  31.210  1.00  0.00     0.167 HD
ATOM     60  C   UNL A   1      41.328  32.287  32.033  1.00  0.00     0.074 A 
ATOM     61  C   UNL A   1      41.347  33.158  30.861  1.00  0.00     0.031 C 
ATOM     62  C   UNL A   1      42.319  31.584  32.655  1.00  0.00     0.037 A 
BRANCH  49  63
ATOM     63  C   UNL A   1      45.353  33.130  28.403  1.00  0.00     0.057 A 
ATOM     64  C   UNL A   1      44.355  34.044  28.017  1.00  0.00     0.134 A 
ATOM     65  C   UNL A   1      46.640  33.400  27.895  1.00  0.00     0.134 A 
ATOM     66  F   UNL A   1      43.087  33.896  28.429  1.00  0.00    -0.206 F 
ATOM     67  C   UNL A   1      44.602  35.094  27.125  1.00  0.00     0.040 A 
ATOM     68  C   UNL A   1      46.907  34.475  27.042  1.00  0.00     0.040 A 
ATOM     69  F   UNL A   1      47.682  32.589  28.112  1.00  0.00    -0.206 F 
ATOM     70  C   UNL A   1      45.880  35.306  26.626  1.00  0.00     0.006 A 
ENDBRANCH  49  63
BRANCH  50  71
ATOM     71  C   UNL A   1      36.943  32.219  30.270  1.00  0.00     0.057 A 
ATOM     72  C   UNL A   1      35.855  32.009  31.125  1.00  0.00     0.134 A 
ATOM     73  C   UNL A   1      36.787  33.233  29.307  1.00  0.00     0.134 A 
ATOM     74  F   UNL A   1      35.927  31.096  32.106  1.00  0.00    -0.206 F 
ATOM     75  C   UNL A   1      34.683  32.770  31.037  1.00  0.00     0.040 A 
ATOM     76  C   UNL A   1      35.620  33.995  29.201  1.00  0.00     0.040 A 
ATOM     77  F   UNL A   1      37.796  33.576  28.492  1.00  0.00    -0.206 F 
ATOM     78  C   UNL A   1      34.566  33.772  30.077  1.00  0.00     0.006 A 
ENDBRANCH  50  71
BRANCH  62  79
ATOM     79  C   UNL A   1      41.932  30.624  33.742  1.00  0.00     0.057 A 
ATOM     80  C   UNL A   1      41.579  29.288  33.499  1.00  0.00     0.134 A 
ATOM     81  C   UNL A   1      42.126  30.997  35.076  1.00  0.00     0.134 A 
ATOM     82  F   UNL A   1      41.469  28.818  32.249  1.00  0.00    -0.206 F 
ATOM     83  C   UNL A   1      41.405  28.371  34.539  1.00  0.00     0.040 A 
ATOM     84  C   UNL A   1      41.987  30.084  36.123  1.00  0.00     0.040 A 
ATOM     85  F   UNL A   1      42.525  32.244  35.378  1.00  0.00    -0.206 F 
ATOM     86  C   UNL A   1      41.621  28.767  35.856  1.00  0.00     0.006 A 
ENDBRANCH  62  79
ENDBRANCH  36  37
ENDBRANCH  28  31
ENDBRANCH  26  27
ENDBRANCH  25  26
ENDBRANCH  24  25
ENDBRANCH   1  24
TORSDOF 15
ENDMDL
MODEL 3
REMARK VINA RESULT:     -11.0      2.912      4.591
REMARK SMILES C[C@H](C1CC1)n1c(SCC(=O)NCCCCNC(=O)c2ccc(-c3c4nc(c(-c5c(F)cccc5F)c5ccc([nH]5)c(-c5c(F)cccc5F)c5nc(c(-c6c(F)cccc6F)c6ccc3[nH]6)C=C5)C=C4)cc2)nc2cc(Cl)c(Cl)cc21
REMARK SMILES IDX 13 1 12 2 10 3 11 4 9 6 8 7 7 8 6 9 82 10 74 11 75 12 81 13
REMARK SMILES IDX 76 14 79 15 77 16 80 17 78 18 2 19 1 20 3 21 4 22 5 23 14 24
REMARK SMILES IDX 15 25 16 26 17 27 18 28 19 30 20 31 21 32 73 33 22 34 72 35
REMARK SMILES IDX 23 36 24 37 25 38 66 39 26 40 71 41 65 42 67 43 27 44 70 45
REMARK SMILES IDX 64 46 63 47 28 49 54 50 37 51 53 52 38 53 41 54 52 55 68 56
REMARK SMILES IDX 39 57 40 58 51 60 69 61 42 62 29 63 30 64 35 65 31 66 32 67
REMARK SMILES IDX 34 68 36 69 33 70 55 71 56 72 61 73 57 74 58 75 60 76 62 77
REMARK SMILES IDX 59 78 43 79 44 80 49 81 45 82 46 83 48 84 50 85 47 86
REMARK H PARENT 12 5 17 29 67 48 41 59
REMARK Flexibility Score: inf
ROOT
ATOM      1  C   UNL A   1      35.984  22.962  25.972  1.00  0.00     0.116 C 
ENDROOT
BRANCH   1   2
ATOM      2  N   UNL A   1      34.623  22.892  26.456  1.00  0.00    -0.355 N 
ATOM      3  C   UNL A   1      33.650  23.823  26.467  1.00  0.00     0.230 C 
ATOM      4  O   UNL A   1      32.544  23.454  26.878  1.00  0.00    -0.274 OA
ATOM      5  H   UNL A   1      34.366  22.022  26.837  1.00  0.00     0.163 HD
BRANCH   3   6
ATOM      6  C   UNL A   1      33.831  25.191  25.875  1.00  0.00     0.178 C 
BRANCH   6   7
ATOM      7  S   UNL A   1      33.101  25.538  24.301  1.00  0.00    -0.078 SA
BRANCH   7   8
ATOM      8  C   UNL A   1      31.942  26.819  24.307  1.00  0.00     0.169 A 
ATOM      9  N   UNL A   1      31.740  27.927  25.105  1.00  0.00    -0.316 N 
ATOM     10  C   UNL A   1      30.883  28.772  24.379  1.00  0.00     0.071 A 
ATOM     11  N   UNL A   1      31.079  26.804  23.307  1.00  0.00    -0.222 NA
ATOM     12  C   UNL A   1      30.457  28.010  23.304  1.00  0.00     0.091 A 
ATOM     13  C   UNL A   1      30.468  30.105  24.543  1.00  0.00     0.050 A 
ATOM     14  C   UNL A   1      29.546  28.536  22.376  1.00  0.00     0.052 A 
ATOM     15  C   UNL A   1      29.588  30.641  23.591  1.00  0.00     0.061 A 
ATOM     16  C   UNL A   1      29.121  29.861  22.526  1.00  0.00     0.061 A 
ATOM     17  Cl  UNL A   1      29.133  32.298  23.792  1.00  0.00    -0.083 Cl
ATOM     18  Cl  UNL A   1      28.028  30.487  21.340  1.00  0.00    -0.083 Cl
BRANCH   9  19
ATOM     19  C   UNL A   1      32.350  28.386  26.362  1.00  0.00     0.090 C 
ATOM     20  C   UNL A   1      31.428  28.203  27.561  1.00  0.00     0.032 C 
BRANCH  19  21
ATOM     21  C   UNL A   1      33.344  29.539  26.315  1.00  0.00     0.012 C 
ATOM     22  C   UNL A   1      33.493  30.720  27.251  1.00  0.00     0.006 C 
ATOM     23  C   UNL A   1      34.534  29.631  27.251  1.00  0.00     0.006 C 
ENDBRANCH  19  21
ENDBRANCH   9  19
ENDBRANCH   7   8
ENDBRANCH   6   7
ENDBRANCH   3   6
ENDBRANCH   1   2
BRANCH   1  24
ATOM     24  C   UNL A   1      36.491  21.596  25.530  1.00  0.00     0.023 C 
BRANCH  24  25
ATOM     25  C   UNL A   1      37.997  21.523  25.252  1.00  0.00     0.023 C 
BRANCH  25  26
ATOM     26  C   UNL A   1      38.889  22.412  26.127  1.00  0.00     0.116 C 
BRANCH  26  27
ATOM     27  N   UNL A   1      40.304  22.115  26.056  1.00  0.00    -0.352 N 
ATOM     28  C   UNL A   1      41.438  22.777  26.425  1.00  0.00     0.251 C 
ATOM     29  H   UNL A   1      40.490  21.238  25.650  1.00  0.00     0.163 HD
ATOM     30  O   UNL A   1      42.502  22.171  26.276  1.00  0.00    -0.269 OA
BRANCH  28  31
ATOM     31  C   UNL A   1      41.464  24.172  26.926  1.00  0.00     0.039 A 
ATOM     32  C   UNL A   1      42.137  24.590  28.070  1.00  0.00     0.014 A 
ATOM     33  C   UNL A   1      40.705  25.112  26.206  1.00  0.00     0.014 A 
ATOM     34  C   UNL A   1      41.944  25.862  28.572  1.00  0.00     0.010 A 
ATOM     35  C   UNL A   1      40.559  26.414  26.669  1.00  0.00     0.010 A 
ATOM     36  C   UNL A   1      41.136  26.766  27.884  1.00  0.00    -0.014 A 
BRANCH  36  37
ATOM     37  C   UNL A   1      41.016  28.088  28.477  1.00  0.00     0.031 A 
ATOM     38  C   UNL A   1      42.148  29.016  28.183  1.00  0.00     0.074 A 
ATOM     39  C   UNL A   1      39.970  28.472  29.227  1.00  0.00     0.049 A 
ATOM     40  N   UNL A   1      42.985  29.545  29.016  1.00  0.00    -0.248 NA
ATOM     41  C   UNL A   1      42.461  29.277  26.770  1.00  0.00     0.031 C 
ATOM     42  C   UNL A   1      38.686  27.801  29.431  1.00  0.00     0.029 A 
ATOM     43  N   UNL A   1      39.829  29.633  29.923  1.00  0.00    -0.354 N 
ATOM     44  C   UNL A   1      43.844  30.334  28.253  1.00  0.00     0.074 A 
ATOM     45  C   UNL A   1      43.547  30.043  26.874  1.00  0.00     0.031 C 
ATOM     46  C   UNL A   1      37.822  28.667  30.009  1.00  0.00     0.029 A 
ATOM     47  C   UNL A   1      38.536  29.889  30.341  1.00  0.00     0.049 A 
ATOM     48  H   UNL A   1      40.583  30.237  30.112  1.00  0.00     0.167 HD
ATOM     49  C   UNL A   1      44.631  31.294  28.811  1.00  0.00     0.037 A 
ATOM     50  C   UNL A   1      38.081  31.051  30.864  1.00  0.00     0.037 A 
ATOM     51  C   UNL A   1      44.819  31.075  30.218  1.00  0.00     0.049 A 
ATOM     52  C   UNL A   1      39.251  31.806  31.375  1.00  0.00     0.074 A 
ATOM     53  C   UNL A   1      45.403  30.079  30.978  1.00  0.00     0.029 A 
ATOM     54  N   UNL A   1      44.083  31.828  31.099  1.00  0.00    -0.354 N 
ATOM     55  N   UNL A   1      39.941  31.455  32.425  1.00  0.00    -0.248 NA
ATOM     56  C   UNL A   1      39.924  32.722  30.465  1.00  0.00     0.031 C 
ATOM     57  C   UNL A   1      44.605  29.996  32.154  1.00  0.00     0.029 A 
ATOM     58  C   UNL A   1      43.608  30.966  32.051  1.00  0.00     0.049 A 
ATOM     59  H   UNL A   1      43.928  32.800  31.054  1.00  0.00     0.167 HD
ATOM     60  C   UNL A   1      41.255  31.761  32.105  1.00  0.00     0.074 A 
ATOM     61  C   UNL A   1      41.173  32.625  30.930  1.00  0.00     0.031 C 
ATOM     62  C   UNL A   1      42.299  31.069  32.648  1.00  0.00     0.037 A 
BRANCH  49  63
ATOM     63  C   UNL A   1      44.966  32.608  28.154  1.00  0.00     0.057 A 
ATOM     64  C   UNL A   1      43.963  33.586  28.004  1.00  0.00     0.134 A 
ATOM     65  C   UNL A   1      46.134  32.831  27.397  1.00  0.00     0.134 A 
ATOM     66  F   UNL A   1      42.800  33.488  28.666  1.00  0.00    -0.206 F 
ATOM     67  C   UNL A   1      44.081  34.651  27.105  1.00  0.00     0.040 A 
ATOM     68  C   UNL A   1      46.281  33.919  26.533  1.00  0.00     0.040 A 
ATOM     69  F   UNL A   1      47.150  31.960  27.375  1.00  0.00    -0.206 F 
ATOM     70  C   UNL A   1      45.239  34.815  26.358  1.00  0.00     0.006 A 
ENDBRANCH  49  63
BRANCH  50  71
ATOM     71  C   UNL A   1      36.742  31.653  30.705  1.00  0.00     0.057 A 
ATOM     72  C   UNL A   1      35.922  31.914  31.809  1.00  0.00     0.134 A 
ATOM     73  C   UNL A   1      36.336  32.223  29.484  1.00  0.00     0.134 A 
ATOM     74  F   UNL A   1      36.252  31.454  33.025  1.00  0.00    -0.206 F 
ATOM     75  C   UNL A   1      34.771  32.704  31.709  1.00  0.00     0.040 A 
ATOM     76  C   UNL A   1      35.185  33.006  29.367  1.00  0.00     0.040 A 
ATOM     77  F   UNL A   1      37.091  32.108  28.381  1.00  0.00    -0.206 F 
ATOM     78  C   UNL A   1      34.403  33.259  30.486  1.00  0.00     0.006 A 
ENDBRANCH  50  71
BRANCH  62  79
ATOM     79  C   UNL A   1      42.008  30.113  33.768  1.00  0.00     0.057 A 
ATOM     80  C   UNL A   1      41.632  28.778  33.562  1.00  0.00     0.134 A 
ATOM     81  C   UNL A   1      42.322  30.490  35.078  1.00  0.00     0.134 A 
ATOM     82  F   UNL A   1      41.410  28.304  32.328  1.00  0.00    -0.206 F 
ATOM     83  C   UNL A   1      41.551  27.865  34.616  1.00  0.00     0.040 A 
ATOM     84  C   UNL A   1      42.274  29.581  36.136  1.00  0.00     0.040 A 
ATOM     85  F   UNL A   1      42.748  31.737  35.339  1.00  0.00    -0.206 F 
ATOM     86  C   UNL A   1      41.884  28.264  35.908  1.00  0.00     0.006 A 
ENDBRANCH  62  79
ENDBRANCH  36  37
ENDBRANCH  28  31
ENDBRANCH  26  27
ENDBRANCH  25  26
ENDBRANCH  24  25
ENDBRANCH   1  24
TORSDOF 15
ENDMDL
