MODEL 1
REMARK VINA RESULT:     -10.7      0.000      0.000
REMARK SMILES C[C@H](C(=O)NCCCCNC(=O)c1ccc(-c2c3nc(c(-c4c(F)cccc4F)c4ccc([nH]4)c(-c4c(F)cccc4F)c4nc(c(-c5c(F)cccc5F)c5ccc2[nH]5)C=C4)C=C3)cc1)n1c(=O)ssc1=O
REMARK SMILES IDX 8 1 7 2 6 3 5 4 3 5 4 6 2 8 1 9 67 10 68 11 72 12 69 13
REMARK SMILES IDX 70 14 71 15 73 16 9 17 10 18 11 19 12 21 13 22 14 23 66 24
REMARK SMILES IDX 15 25 65 26 16 27 17 28 18 29 59 30 19 31 64 32 58 33 60 34
REMARK SMILES IDX 20 35 63 36 57 37 56 38 21 40 47 41 30 42 46 43 31 44 34 45
REMARK SMILES IDX 45 46 61 47 32 48 33 49 44 51 62 52 35 53 22 54 23 55 28 56
REMARK SMILES IDX 24 57 25 58 27 59 29 60 26 61 48 62 49 63 54 64 50 65 51 66
REMARK SMILES IDX 53 67 55 68 52 69 36 70 37 71 42 72 38 73 39 74 41 75 43 76
REMARK SMILES IDX 40 77
REMARK H PARENT 5 7 10 20 60 39 34 50
REMARK Flexibility Score: inf
ROOT
ATOM      1  C   UNL A   1      37.757  19.846  24.997  1.00  0.00     0.023 C 
ENDROOT
BRANCH   1   2
ATOM      2  C   UNL A   1      36.876  21.043  24.626  1.00  0.00     0.023 C 
BRANCH   2   3
ATOM      3  C   UNL A   1      35.895  21.453  25.723  1.00  0.00     0.116 C 
BRANCH   3   4
ATOM      4  N   UNL A   1      34.765  20.550  25.755  1.00  0.00    -0.354 N 
ATOM      5  C   UNL A   1      33.613  20.534  25.025  1.00  0.00     0.243 C 
ATOM      6  O   UNL A   1      32.832  19.611  25.273  1.00  0.00    -0.273 OA
ATOM      7  H   UNL A   1      34.841  19.825  26.416  1.00  0.00     0.163 HD
BRANCH   5   8
ATOM      8  C   UNL A   1      33.355  21.543  23.876  1.00  0.00     0.181 C 
ATOM      9  C   UNL A   1      32.153  21.084  23.038  1.00  0.00     0.042 C 
BRANCH   8  10
ATOM     10  N   UNL A   1      33.252  22.943  24.326  1.00  0.00    -0.244 N 
ATOM     11  C   UNL A   1      32.310  23.317  25.264  1.00  0.00     0.321 A 
ATOM     12  C   UNL A   1      34.021  23.907  23.706  1.00  0.00     0.321 A 
ATOM     13  O   UNL A   1      31.424  22.615  25.722  1.00  0.00    -0.256 OA
ATOM     14  S   UNL A   1      32.449  24.995  25.761  1.00  0.00    -0.014 S 
ATOM     15  S   UNL A   1      33.863  25.504  24.407  1.00  0.00    -0.014 S 
ATOM     16  O   UNL A   1      34.765  23.724  22.751  1.00  0.00    -0.256 OA
ENDBRANCH   8  10
ENDBRANCH   5   8
ENDBRANCH   3   4
ENDBRANCH   2   3
ENDBRANCH   1   2
BRANCH   1  17
ATOM     17  C   UNL A   1      39.028  20.198  25.765  1.00  0.00     0.116 C 
BRANCH  17  18
ATOM     18  N   UNL A   1      40.028  19.141  25.751  1.00  0.00    -0.352 N 
ATOM     19  C   UNL A   1      41.378  19.226  25.991  1.00  0.00     0.251 C 
ATOM     20  H   UNL A   1      39.691  18.241  25.540  1.00  0.00     0.163 HD
ATOM     21  O   UNL A   1      42.094  18.241  25.844  1.00  0.00    -0.269 OA
BRANCH  19  22
ATOM     22  C   UNL A   1      41.970  20.522  26.382  1.00  0.00     0.039 A 
ATOM     23  C   UNL A   1      42.351  21.411  25.376  1.00  0.00     0.014 A 
ATOM     24  C   UNL A   1      42.119  20.871  27.727  1.00  0.00     0.014 A 
ATOM     25  C   UNL A   1      42.808  22.684  25.719  1.00  0.00     0.010 A 
ATOM     26  C   UNL A   1      42.505  22.164  28.066  1.00  0.00     0.010 A 
ATOM     27  C   UNL A   1      42.847  23.085  27.065  1.00  0.00    -0.014 A 
BRANCH  27  28
ATOM     28  C   UNL A   1      43.220  24.473  27.432  1.00  0.00     0.031 A 
ATOM     29  C   UNL A   1      44.658  24.911  27.392  1.00  0.00     0.074 A 
ATOM     30  C   UNL A   1      42.264  25.324  27.853  1.00  0.00     0.049 A 
ATOM     31  N   UNL A   1      45.175  26.073  27.701  1.00  0.00    -0.248 NA
ATOM     32  C   UNL A   1      45.649  23.904  26.976  1.00  0.00     0.031 C 
ATOM     33  C   UNL A   1      40.844  24.995  28.000  1.00  0.00     0.029 A 
ATOM     34  N   UNL A   1      42.340  26.639  28.236  1.00  0.00    -0.354 N 
ATOM     35  C   UNL A   1      46.545  25.937  27.521  1.00  0.00     0.074 A 
ATOM     36  C   UNL A   1      46.787  24.564  27.134  1.00  0.00     0.031 C 
ATOM     37  C   UNL A   1      40.181  26.087  28.413  1.00  0.00     0.029 A 
ATOM     38  C   UNL A   1      41.129  27.182  28.587  1.00  0.00     0.049 A 
ATOM     39  H   UNL A   1      43.184  27.145  28.258  1.00  0.00     0.167 HD
ATOM     40  C   UNL A   1      47.511  26.878  27.638  1.00  0.00     0.037 A 
ATOM     41  C   UNL A   1      40.818  28.425  29.000  1.00  0.00     0.037 A 
ATOM     42  C   UNL A   1      47.265  28.249  27.999  1.00  0.00     0.049 A 
ATOM     43  C   UNL A   1      41.908  29.454  29.103  1.00  0.00     0.074 A 
ATOM     44  C   UNL A   1      48.171  29.292  28.098  1.00  0.00     0.029 A 
ATOM     45  N   UNL A   1      46.020  28.770  28.319  1.00  0.00    -0.354 N 
ATOM     46  N   UNL A   1      43.190  29.328  28.860  1.00  0.00    -0.248 NA
ATOM     47  C   UNL A   1      41.506  30.802  29.527  1.00  0.00     0.031 C 
ATOM     48  C   UNL A   1      47.478  30.436  28.508  1.00  0.00     0.029 A 
ATOM     49  C   UNL A   1      46.136  30.116  28.626  1.00  0.00     0.049 A 
ATOM     50  H   UNL A   1      45.180  28.258  28.326  1.00  0.00     0.167 HD
ATOM     51  C   UNL A   1      43.743  30.582  29.080  1.00  0.00     0.074 A 
ATOM     52  C   UNL A   1      42.653  31.461  29.450  1.00  0.00     0.031 C 
ATOM     53  C   UNL A   1      45.038  30.973  28.989  1.00  0.00     0.037 A 
BRANCH  40  54
ATOM     54  C   UNL A   1      48.924  26.461  27.348  1.00  0.00     0.057 A 
ATOM     55  C   UNL A   1      49.776  26.006  28.362  1.00  0.00     0.134 A 
ATOM     56  C   UNL A   1      49.423  26.470  26.040  1.00  0.00     0.134 A 
ATOM     57  F   UNL A   1      49.363  25.987  29.639  1.00  0.00    -0.206 F 
ATOM     58  C   UNL A   1      51.081  25.594  28.090  1.00  0.00     0.040 A 
ATOM     59  C   UNL A   1      50.718  26.036  25.751  1.00  0.00     0.040 A 
ATOM     60  F   UNL A   1      48.657  26.890  25.021  1.00  0.00    -0.206 F 
ATOM     61  C   UNL A   1      51.552  25.599  26.778  1.00  0.00     0.006 A 
ENDBRANCH  40  54
BRANCH  41  62
ATOM     62  C   UNL A   1      39.412  28.778  29.322  1.00  0.00     0.057 A 
ATOM     63  C   UNL A   1      38.567  29.338  28.356  1.00  0.00     0.134 A 
ATOM     64  C   UNL A   1      38.887  28.592  30.607  1.00  0.00     0.134 A 
ATOM     65  F   UNL A   1      39.019  29.557  27.112  1.00  0.00    -0.206 F 
ATOM     66  C   UNL A   1      37.263  29.727  28.661  1.00  0.00     0.040 A 
ATOM     67  C   UNL A   1      37.576  28.953  30.919  1.00  0.00     0.040 A 
ATOM     68  F   UNL A   1      39.642  28.051  31.575  1.00  0.00    -0.206 F 
ATOM     69  C   UNL A   1      36.763  29.532  29.947  1.00  0.00     0.006 A 
ENDBRANCH  41  62
BRANCH  53  70
ATOM     70  C   UNL A   1      45.333  32.416  29.272  1.00  0.00     0.057 A 
ATOM     71  C   UNL A   1      45.694  32.858  30.551  1.00  0.00     0.134 A 
ATOM     72  C   UNL A   1      45.270  33.372  28.250  1.00  0.00     0.134 A 
ATOM     73  F   UNL A   1      45.759  31.993  31.576  1.00  0.00    -0.206 F 
ATOM     74  C   UNL A   1      45.952  34.204  30.812  1.00  0.00     0.040 A 
ATOM     75  C   UNL A   1      45.551  34.716  28.492  1.00  0.00     0.040 A 
ATOM     76  F   UNL A   1      44.938  33.013  27.000  1.00  0.00    -0.206 F 
ATOM     77  C   UNL A   1      45.886  35.137  29.778  1.00  0.00     0.006 A 
ENDBRANCH  53  70
ENDBRANCH  27  28
ENDBRANCH  19  22
ENDBRANCH  17  18
ENDBRANCH   1  17
TORSDOF 12
ENDMDL
MODEL 2
REMARK VINA RESULT:     -10.6      5.519     10.407
REMARK SMILES C[C@H](C(=O)NCCCCNC(=O)c1ccc(-c2c3nc(c(-c4c(F)cccc4F)c4ccc([nH]4)c(-c4c(F)cccc4F)c4nc(c(-c5c(F)cccc5F)c5ccc2[nH]5)C=C4)C=C3)cc1)n1c(=O)ssc1=O
REMARK SMILES IDX 8 1 7 2 6 3 5 4 3 5 4 6 2 8 1 9 67 10 68 11 72 12 69 13
REMARK SMILES IDX 70 14 71 15 73 16 9 17 10 18 11 19 12 21 13 22 14 23 66 24
REMARK SMILES IDX 15 25 65 26 16 27 17 28 18 29 59 30 19 31 64 32 58 33 60 34
REMARK SMILES IDX 20 35 63 36 57 37 56 38 21 40 47 41 30 42 46 43 31 44 34 45
REMARK SMILES IDX 45 46 61 47 32 48 33 49 44 51 62 52 35 53 22 54 23 55 28 56
REMARK SMILES IDX 24 57 25 58 27 59 29 60 26 61 48 62 49 63 54 64 50 65 51 66
REMARK SMILES IDX 53 67 55 68 52 69 36 70 37 71 42 72 38 73 39 74 41 75 43 76
REMARK SMILES IDX 40 77
REMARK H PARENT 5 7 10 20 60 39 34 50
REMARK Flexibility Score: inf
ROOT
ATOM      1  C   UNL A   1      31.591  31.722  26.675  1.00  0.00     0.023 C 
ENDROOT
BRANCH   1   2
ATOM      2  C   UNL A   1      31.768  30.210  26.839  1.00  0.00     0.023 C 
BRANCH   2   3
ATOM      3  C   UNL A   1      32.631  29.566  25.756  1.00  0.00     0.116 C 
BRANCH   3   4
ATOM      4  N   UNL A   1      32.004  29.703  24.460  1.00  0.00    -0.354 N 
ATOM      5  C   UNL A   1      31.171  28.865  23.777  1.00  0.00     0.243 C 
ATOM      6  O   UNL A   1      30.778  29.274  22.681  1.00  0.00    -0.273 OA
ATOM      7  H   UNL A   1      32.214  30.542  23.991  1.00  0.00     0.163 HD
BRANCH   5   8
ATOM      8  C   UNL A   1      30.657  27.538  24.392  1.00  0.00     0.181 C 
ATOM      9  C   UNL A   1      29.434  27.039  23.610  1.00  0.00     0.042 C 
BRANCH   8  10
ATOM     10  N   UNL A   1      31.704  26.513  24.555  1.00  0.00    -0.244 N 
ATOM     11  C   UNL A   1      32.421  26.057  23.466  1.00  0.00     0.321 A 
ATOM     12  C   UNL A   1      31.876  25.915  25.787  1.00  0.00     0.321 A 
ATOM     13  O   UNL A   1      32.218  26.332  22.296  1.00  0.00    -0.256 OA
ATOM     14  S   UNL A   1      33.709  24.944  23.897  1.00  0.00    -0.014 S 
ATOM     15  S   UNL A   1      33.214  24.788  25.852  1.00  0.00    -0.014 S 
ATOM     16  O   UNL A   1      31.188  26.114  26.780  1.00  0.00    -0.256 OA
ENDBRANCH   8  10
ENDBRANCH   5   8
ENDBRANCH   3   4
ENDBRANCH   2   3
ENDBRANCH   1   2
BRANCH   1  17
ATOM     17  C   UNL A   1      32.785  32.560  27.124  1.00  0.00     0.116 C 
BRANCH  17  18
ATOM     18  N   UNL A   1      32.428  33.911  27.529  1.00  0.00    -0.352 N 
ATOM     19  C   UNL A   1      33.015  34.712  28.478  1.00  0.00     0.251 C 
ATOM     20  H   UNL A   1      31.659  34.306  27.058  1.00  0.00     0.163 HD
ATOM     21  O   UNL A   1      32.522  35.799  28.760  1.00  0.00    -0.269 OA
BRANCH  19  22
ATOM     22  C   UNL A   1      34.218  34.236  29.193  1.00  0.00     0.039 A 
ATOM     23  C   UNL A   1      34.047  33.458  30.339  1.00  0.00     0.014 A 
ATOM     24  C   UNL A   1      35.500  34.526  28.720  1.00  0.00     0.014 A 
ATOM     25  C   UNL A   1      35.163  32.904  30.967  1.00  0.00     0.010 A 
ATOM     26  C   UNL A   1      36.605  33.913  29.302  1.00  0.00     0.010 A 
ATOM     27  C   UNL A   1      36.447  33.091  30.428  1.00  0.00    -0.014 A 
BRANCH  27  28
ATOM     28  C   UNL A   1      37.625  32.412  31.020  1.00  0.00     0.031 A 
ATOM     29  C   UNL A   1      38.233  32.917  32.299  1.00  0.00     0.074 A 
ATOM     30  C   UNL A   1      38.178  31.367  30.374  1.00  0.00     0.049 A 
ATOM     31  N   UNL A   1      39.275  32.469  32.950  1.00  0.00    -0.248 NA
ATOM     32  C   UNL A   1      37.604  34.099  32.913  1.00  0.00     0.031 C 
ATOM     33  C   UNL A   1      37.720  30.828  29.090  1.00  0.00     0.029 A 
ATOM     34  N   UNL A   1      39.247  30.573  30.704  1.00  0.00    -0.354 N 
ATOM     35  C   UNL A   1      39.429  33.311  34.044  1.00  0.00     0.074 A 
ATOM     36  C   UNL A   1      38.411  34.333  33.937  1.00  0.00     0.031 C 
ATOM     37  C   UNL A   1      38.484  29.775  28.759  1.00  0.00     0.029 A 
ATOM     38  C   UNL A   1      39.501  29.582  29.788  1.00  0.00     0.049 A 
ATOM     39  H   UNL A   1      39.781  30.702  31.520  1.00  0.00     0.167 HD
ATOM     40  C   UNL A   1      40.318  33.222  35.061  1.00  0.00     0.037 A 
ATOM     41  C   UNL A   1      40.447  28.624  29.780  1.00  0.00     0.037 A 
ATOM     42  C   UNL A   1      41.315  32.191  35.177  1.00  0.00     0.049 A 
ATOM     43  C   UNL A   1      41.409  28.540  30.931  1.00  0.00     0.074 A 
ATOM     44  C   UNL A   1      42.232  31.987  36.195  1.00  0.00     0.029 A 
ATOM     45  N   UNL A   1      41.523  31.186  34.243  1.00  0.00    -0.354 N 
ATOM     46  N   UNL A   1      41.495  29.301  31.995  1.00  0.00    -0.248 NA
ATOM     47  C   UNL A   1      42.399  27.454  30.887  1.00  0.00     0.031 C 
ATOM     48  C   UNL A   1      43.015  30.877  35.861  1.00  0.00     0.029 A 
ATOM     49  C   UNL A   1      42.561  30.366  34.656  1.00  0.00     0.049 A 
ATOM     50  H   UNL A   1      41.009  31.074  33.412  1.00  0.00     0.167 HD
ATOM     51  C   UNL A   1      42.532  28.775  32.755  1.00  0.00     0.074 A 
ATOM     52  C   UNL A   1      43.026  27.615  32.043  1.00  0.00     0.031 C 
ATOM     53  C   UNL A   1      43.034  29.214  33.934  1.00  0.00     0.037 A 
BRANCH  40  54
ATOM     54  C   UNL A   1      40.238  34.259  36.144  1.00  0.00     0.057 A 
ATOM     55  C   UNL A   1      40.924  35.476  36.045  1.00  0.00     0.134 A 
ATOM     56  C   UNL A   1      39.434  34.060  37.272  1.00  0.00     0.134 A 
ATOM     57  F   UNL A   1      41.723  35.723  34.996  1.00  0.00    -0.206 F 
ATOM     58  C   UNL A   1      40.829  36.451  37.039  1.00  0.00     0.040 A 
ATOM     59  C   UNL A   1      39.310  35.038  38.261  1.00  0.00     0.040 A 
ATOM     60  F   UNL A   1      38.746  32.917  37.426  1.00  0.00    -0.206 F 
ATOM     61  C   UNL A   1      40.012  36.236  38.147  1.00  0.00     0.006 A 
ENDBRANCH  40  54
BRANCH  41  62
ATOM     62  C   UNL A   1      40.517  27.650  28.662  1.00  0.00     0.057 A 
ATOM     63  C   UNL A   1      41.311  27.898  27.535  1.00  0.00     0.134 A 
ATOM     64  C   UNL A   1      39.773  26.464  28.677  1.00  0.00     0.134 A 
ATOM     65  F   UNL A   1      42.032  29.027  27.455  1.00  0.00    -0.206 F 
ATOM     66  C   UNL A   1      41.341  27.020  26.453  1.00  0.00     0.040 A 
ATOM     67  C   UNL A   1      39.814  25.563  27.612  1.00  0.00     0.040 A 
ATOM     68  F   UNL A   1      39.001  26.162  29.731  1.00  0.00    -0.206 F 
ATOM     69  C   UNL A   1      40.592  25.845  26.490  1.00  0.00     0.006 A 
ENDBRANCH  41  62
BRANCH  53  70
ATOM     70  C   UNL A   1      44.158  28.420  34.531  1.00  0.00     0.057 A 
ATOM     71  C   UNL A   1      43.922  27.327  35.375  1.00  0.00     0.134 A 
ATOM     72  C   UNL A   1      45.491  28.744  34.248  1.00  0.00     0.134 A 
ATOM     73  F   UNL A   1      42.668  26.974  35.695  1.00  0.00    -0.206 F 
ATOM     74  C   UNL A   1      44.972  26.603  35.940  1.00  0.00     0.040 A 
ATOM     75  C   UNL A   1      46.548  28.012  34.785  1.00  0.00     0.040 A 
ATOM     76  F   UNL A   1      45.785  29.776  33.441  1.00  0.00    -0.206 F 
ATOM     77  C   UNL A   1      46.290  26.942  35.641  1.00  0.00     0.006 A 
ENDBRANCH  53  70
ENDBRANCH  27  28
ENDBRANCH  19  22
ENDBRANCH  17  18
ENDBRANCH   1  17
TORSDOF 12
ENDMDL
MODEL 3
REMARK VINA RESULT:     -10.6      0.533      6.444
REMARK SMILES C[C@H](C(=O)NCCCCNC(=O)c1ccc(-c2c3nc(c(-c4c(F)cccc4F)c4ccc([nH]4)c(-c4c(F)cccc4F)c4nc(c(-c5c(F)cccc5F)c5ccc2[nH]5)C=C4)C=C3)cc1)n1c(=O)ssc1=O
REMARK SMILES IDX 8 1 7 2 6 3 5 4 3 5 4 6 2 8 1 9 67 10 68 11 72 12 69 13
REMARK SMILES IDX 70 14 71 15 73 16 9 17 10 18 11 19 12 21 13 22 14 23 66 24
REMARK SMILES IDX 15 25 65 26 16 27 17 28 18 29 59 30 19 31 64 32 58 33 60 34
REMARK SMILES IDX 20 35 63 36 57 37 56 38 21 40 47 41 30 42 46 43 31 44 34 45
REMARK SMILES IDX 45 46 61 47 32 48 33 49 44 51 62 52 35 53 22 54 23 55 28 56
REMARK SMILES IDX 24 57 25 58 27 59 29 60 26 61 48 62 49 63 54 64 50 65 51 66
REMARK SMILES IDX 53 67 55 68 52 69 36 70 37 71 42 72 38 73 39 74 41 75 43 76
REMARK SMILES IDX 40 77
REMARK H PARENT 5 7 10 20 60 39 34 50
REMARK Flexibility Score: inf
ROOT
ATOM      1  C   UNL A   1      37.844  19.951  25.001  1.00  0.00     0.023 C 
ENDROOT
BRANCH   1   2
ATOM      2  C   UNL A   1      36.969  21.161  24.659  1.00  0.00     0.023 C 
BRANCH   2   3
ATOM      3  C   UNL A   1      35.884  21.453  25.695  1.00  0.00     0.116 C 
BRANCH   3   4
ATOM      4  N   UNL A   1      34.840  20.454  25.630  1.00  0.00    -0.354 N 
ATOM      5  C   UNL A   1      33.656  20.442  24.953  1.00  0.00     0.243 C 
ATOM      6  O   UNL A   1      32.972  19.422  25.084  1.00  0.00    -0.273 OA
ATOM      7  H   UNL A   1      35.014  19.646  26.165  1.00  0.00     0.163 HD
BRANCH   5   8
ATOM      8  C   UNL A   1      33.249  21.586  23.989  1.00  0.00     0.181 C 
ATOM      9  C   UNL A   1      32.153  21.097  23.032  1.00  0.00     0.042 C 
BRANCH   8  10
ATOM     10  N   UNL A   1      32.908  22.847  24.672  1.00  0.00    -0.244 N 
ATOM     11  C   UNL A   1      31.836  22.912  25.541  1.00  0.00     0.321 A 
ATOM     12  C   UNL A   1      33.590  23.999  24.338  1.00  0.00     0.321 A 
ATOM     13  O   UNL A   1      31.018  22.033  25.751  1.00  0.00    -0.256 OA
ATOM     14  S   UNL A   1      31.689  24.463  26.350  1.00  0.00    -0.014 S 
ATOM     15  S   UNL A   1      33.142  25.396  25.296  1.00  0.00    -0.014 S 
ATOM     16  O   UNL A   1      34.441  24.099  23.463  1.00  0.00    -0.256 OA
ENDBRANCH   8  10
ENDBRANCH   5   8
ENDBRANCH   3   4
ENDBRANCH   2   3
ENDBRANCH   1   2
BRANCH   1  17
ATOM     17  C   UNL A   1      39.131  20.281  25.751  1.00  0.00     0.116 C 
BRANCH  17  18
ATOM     18  N   UNL A   1      40.076  19.175  25.798  1.00  0.00    -0.352 N 
ATOM     19  C   UNL A   1      41.425  19.203  26.059  1.00  0.00     0.251 C 
ATOM     20  H   UNL A   1      39.697  18.285  25.618  1.00  0.00     0.163 HD
ATOM     21  O   UNL A   1      42.093  18.179  25.965  1.00  0.00    -0.269 OA
BRANCH  19  22
ATOM     22  C   UNL A   1      42.075  20.483  26.409  1.00  0.00     0.039 A 
ATOM     23  C   UNL A   1      42.548  21.294  25.375  1.00  0.00     0.014 A 
ATOM     24  C   UNL A   1      42.189  20.895  27.739  1.00  0.00     0.014 A 
ATOM     25  C   UNL A   1      43.064  22.555  25.672  1.00  0.00     0.010 A 
ATOM     26  C   UNL A   1      42.635  22.181  28.027  1.00  0.00     0.010 A 
ATOM     27  C   UNL A   1      43.071  23.026  26.996  1.00  0.00    -0.014 A 
BRANCH  27  28
ATOM     28  C   UNL A   1      43.510  24.408  27.307  1.00  0.00     0.031 A 
ATOM     29  C   UNL A   1      42.513  25.443  27.750  1.00  0.00     0.074 A 
ATOM     30  C   UNL A   1      44.804  24.743  27.140  1.00  0.00     0.049 A 
ATOM     31  N   UNL A   1      42.707  26.704  28.041  1.00  0.00    -0.248 NA
ATOM     32  C   UNL A   1      41.109  25.013  27.853  1.00  0.00     0.031 C 
ATOM     33  C   UNL A   1      45.854  23.845  26.649  1.00  0.00     0.029 A 
ATOM     34  N   UNL A   1      45.459  25.928  27.359  1.00  0.00    -0.354 N 
ATOM     35  C   UNL A   1      41.456  27.217  28.357  1.00  0.00     0.074 A 
ATOM     36  C   UNL A   1      40.500  26.147  28.164  1.00  0.00     0.031 C 
ATOM     37  C   UNL A   1      47.024  24.504  26.635  1.00  0.00     0.029 A 
ATOM     38  C   UNL A   1      46.804  25.874  27.086  1.00  0.00     0.049 A 
ATOM     39  H   UNL A   1      45.008  26.740  27.683  1.00  0.00     0.167 HD
ATOM     40  C   UNL A   1      41.136  28.456  28.797  1.00  0.00     0.037 A 
ATOM     41  C   UNL A   1      47.754  26.823  27.189  1.00  0.00     0.037 A 
ATOM     42  C   UNL A   1      42.091  29.511  29.010  1.00  0.00     0.049 A 
ATOM     43  C   UNL A   1      47.372  28.184  27.697  1.00  0.00     0.074 A 
ATOM     44  C   UNL A   1      41.873  30.787  29.500  1.00  0.00     0.029 A 
ATOM     45  N   UNL A   1      43.450  29.409  28.749  1.00  0.00    -0.354 N 
ATOM     46  N   UNL A   1      46.195  28.632  28.061  1.00  0.00    -0.248 NA
ATOM     47  C   UNL A   1      48.454  29.170  27.822  1.00  0.00     0.031 C 
ATOM     48  C   UNL A   1      43.095  31.468  29.505  1.00  0.00     0.029 A 
ATOM     49  C   UNL A   1      44.080  30.604  29.058  1.00  0.00     0.049 A 
ATOM     50  H   UNL A   1      43.898  28.607  28.398  1.00  0.00     0.167 HD
ATOM     51  C   UNL A   1      46.398  29.941  28.476  1.00  0.00     0.074 A 
ATOM     52  C   UNL A   1      47.815  30.207  28.345  1.00  0.00     0.031 C 
ATOM     53  C   UNL A   1      45.493  30.846  28.922  1.00  0.00     0.037 A 
BRANCH  40  54
ATOM     54  C   UNL A   1      39.692  28.732  29.100  1.00  0.00     0.057 A 
ATOM     55  C   UNL A   1      39.163  28.539  30.383  1.00  0.00     0.134 A 
ATOM     56  C   UNL A   1      38.834  29.239  28.117  1.00  0.00     0.134 A 
ATOM     57  F   UNL A   1      39.929  28.042  31.366  1.00  0.00    -0.206 F 
ATOM     58  C   UNL A   1      37.827  28.820  30.673  1.00  0.00     0.040 A 
ATOM     59  C   UNL A   1      37.502  29.549  28.401  1.00  0.00     0.040 A 
ATOM     60  F   UNL A   1      39.278  29.452  26.869  1.00  0.00    -0.206 F 
ATOM     61  C   UNL A   1      36.995  29.336  29.681  1.00  0.00     0.006 A 
ENDBRANCH  40  54
BRANCH  41  62
ATOM     62  C   UNL A   1      49.161  26.516  26.831  1.00  0.00     0.057 A 
ATOM     63  C   UNL A   1      49.639  26.726  25.532  1.00  0.00     0.134 A 
ATOM     64  C   UNL A   1      50.054  25.979  27.767  1.00  0.00     0.134 A 
ATOM     65  F   UNL A   1      48.826  27.221  24.586  1.00  0.00    -0.206 F 
ATOM     66  C   UNL A   1      50.942  26.388  25.168  1.00  0.00     0.040 A 
ATOM     67  C   UNL A   1      51.368  25.660  27.423  1.00  0.00     0.040 A 
ATOM     68  F   UNL A   1      49.661  25.763  29.031  1.00  0.00    -0.206 F 
ATOM     69  C   UNL A   1      51.813  25.854  26.117  1.00  0.00     0.006 A 
ENDBRANCH  41  62
BRANCH  53  70
ATOM     70  C   UNL A   1      46.019  32.193  29.320  1.00  0.00     0.057 A 
ATOM     71  C   UNL A   1      46.463  32.458  30.622  1.00  0.00     0.134 A 
ATOM     72  C   UNL A   1      46.095  33.233  28.385  1.00  0.00     0.134 A 
ATOM     73  F   UNL A   1      46.402  31.506  31.566  1.00  0.00    -0.206 F 
ATOM     74  C   UNL A   1      46.936  33.718  30.988  1.00  0.00     0.040 A 
ATOM     75  C   UNL A   1      46.591  34.489  28.732  1.00  0.00     0.040 A 
ATOM     76  F   UNL A   1      45.694  33.043  27.118  1.00  0.00    -0.206 F 
ATOM     77  C   UNL A   1      47.005  34.737  30.040  1.00  0.00     0.006 A 
ENDBRANCH  53  70
ENDBRANCH  27  28
ENDBRANCH  19  22
ENDBRANCH  17  18
ENDBRANCH   1  17
TORSDOF 12
ENDMDL
