MODEL 1
REMARK VINA RESULT:     -12.4      0.000      0.000
REMARK SMILES O=C(NCCCCNC(=O)[C@@H](Cc1cccc(F)c1)[C@H]1CCOC2(CCC2)C1)c1ccc(-c2c3nc(c(-c4c(F)cccc4F)c4ccc([nH]4)c(-c4c(F)cccc4F)c4nc(c(-c5c(F)cccc5F)c5ccc2[nH]5)C=C4)C=C3)cc1
REMARK SMILES IDX 5 1 4 2 3 3 1 4 2 5 29 7 30 8 82 9 31 10 81 11 32 12 33 13
REMARK SMILES IDX 34 14 75 15 35 16 80 17 74 18 76 19 36 20 79 21 73 22 72 23
REMARK SMILES IDX 37 25 63 26 46 27 62 28 47 29 50 30 61 31 77 32 48 33 49 34
REMARK SMILES IDX 60 36 78 37 51 38 38 39 39 40 44 41 40 42 41 43 43 44 45 45
REMARK SMILES IDX 42 46 64 47 65 48 70 49 66 50 67 51 69 52 71 53 68 54 52 55
REMARK SMILES IDX 53 56 58 57 54 58 55 59 57 60 59 61 56 62 6 63 7 64 8 65
REMARK SMILES IDX 9 66 10 68 11 69 12 70 13 71 14 72 19 73 15 74 17 75 16 76
REMARK SMILES IDX 18 77 20 78 21 79 28 80 22 81 24 82 23 83 25 84 27 85 26 86
REMARK H PARENT 3 6 76 24 50 35 8 67
REMARK Flexibility Score: inf
ROOT
ATOM      1  C   UNL A   1      34.017  29.067  27.522  1.00  0.00     0.023 C 
ENDROOT
BRANCH   1   2
ATOM      2  C   UNL A   1      34.800  30.362  27.660  1.00  0.00     0.116 C 
BRANCH   2   3
ATOM      3  N   UNL A   1      34.951  30.870  29.015  1.00  0.00    -0.352 N 
ATOM      4  O   UNL A   1      36.004  31.277  30.984  1.00  0.00    -0.269 OA
ATOM      5  C   UNL A   1      36.024  30.750  29.880  1.00  0.00     0.251 C 
ATOM      6  H   UNL A   1      34.179  31.370  29.367  1.00  0.00     0.163 HD
BRANCH   5   7
ATOM      7  C   UNL A   1      37.174  29.902  29.487  1.00  0.00     0.039 A 
ATOM      8  C   UNL A   1      37.863  29.158  30.441  1.00  0.00     0.014 A 
ATOM      9  C   UNL A   1      37.649  29.969  28.174  1.00  0.00     0.014 A 
ATOM     10  C   UNL A   1      39.156  28.740  30.162  1.00  0.00     0.010 A 
ATOM     11  C   UNL A   1      38.894  29.413  27.858  1.00  0.00     0.010 A 
ATOM     12  C   UNL A   1      39.697  28.866  28.869  1.00  0.00    -0.014 A 
BRANCH  12  13
ATOM     13  C   UNL A   1      41.098  28.421  28.621  1.00  0.00     0.031 A 
ATOM     14  C   UNL A   1      41.415  27.010  28.190  1.00  0.00     0.074 A 
ATOM     15  C   UNL A   1      42.090  29.330  28.702  1.00  0.00     0.049 A 
ATOM     16  N   UNL A   1      42.583  26.472  27.932  1.00  0.00    -0.248 NA
ATOM     17  C   UNL A   1      40.287  26.077  28.035  1.00  0.00     0.031 C 
ATOM     18  C   UNL A   1      41.914  30.730  29.097  1.00  0.00     0.029 A 
ATOM     19  N   UNL A   1      43.427  29.235  28.414  1.00  0.00    -0.354 N 
ATOM     20  C   UNL A   1      42.336  25.138  27.632  1.00  0.00     0.074 A 
ATOM     21  C   UNL A   1      40.907  24.941  27.743  1.00  0.00     0.031 C 
ATOM     22  C   UNL A   1      43.070  31.384  28.924  1.00  0.00     0.029 A 
ATOM     23  C   UNL A   1      44.092  30.432  28.508  1.00  0.00     0.049 A 
ATOM     24  H   UNL A   1      43.867  28.390  28.163  1.00  0.00     0.167 HD
ATOM     25  C   UNL A   1      43.221  24.167  27.297  1.00  0.00     0.037 A 
ATOM     26  C   UNL A   1      45.387  30.739  28.304  1.00  0.00     0.037 A 
ATOM     27  C   UNL A   1      44.638  24.378  27.140  1.00  0.00     0.049 A 
ATOM     28  C   UNL A   1      46.344  29.651  27.935  1.00  0.00     0.074 A 
ATOM     29  C   UNL A   1      45.612  23.459  26.786  1.00  0.00     0.029 A 
ATOM     30  N   UNL A   1      45.282  25.594  27.313  1.00  0.00    -0.354 N 
ATOM     31  N   UNL A   1      46.098  28.384  27.704  1.00  0.00    -0.248 NA
ATOM     32  C   UNL A   1      47.761  30.021  27.830  1.00  0.00     0.031 C 
ATOM     33  C   UNL A   1      46.849  24.112  26.777  1.00  0.00     0.029 A 
ATOM     34  C   UNL A   1      46.641  25.446  27.088  1.00  0.00     0.049 A 
ATOM     35  H   UNL A   1      44.839  26.438  27.560  1.00  0.00     0.167 HD
ATOM     36  C   UNL A   1      47.328  27.802  27.439  1.00  0.00     0.074 A 
ATOM     37  C   UNL A   1      48.316  28.861  27.507  1.00  0.00     0.031 C 
ATOM     38  C   UNL A   1      47.612  26.505  27.175  1.00  0.00     0.037 A 
BRANCH  25  39
ATOM     39  C   UNL A   1      42.698  22.775  27.091  1.00  0.00     0.057 A 
ATOM     40  C   UNL A   1      42.486  22.281  25.796  1.00  0.00     0.134 A 
ATOM     41  C   UNL A   1      42.331  21.952  28.162  1.00  0.00     0.134 A 
ATOM     42  F   UNL A   1      42.806  23.021  24.725  1.00  0.00    -0.206 F 
ATOM     43  C   UNL A   1      41.917  21.025  25.575  1.00  0.00     0.040 A 
ATOM     44  C   UNL A   1      41.780  20.686  27.955  1.00  0.00     0.040 A 
ATOM     45  F   UNL A   1      42.516  22.360  29.427  1.00  0.00    -0.206 F 
ATOM     46  C   UNL A   1      41.563  20.223  26.658  1.00  0.00     0.006 A 
ENDBRANCH  25  39
BRANCH  26  47
ATOM     47  C   UNL A   1      45.829  32.145  28.466  1.00  0.00     0.057 A 
ATOM     48  C   UNL A   1      46.250  32.639  29.707  1.00  0.00     0.134 A 
ATOM     49  C   UNL A   1      45.759  33.048  27.400  1.00  0.00     0.134 A 
ATOM     50  F   UNL A   1      46.326  31.822  30.769  1.00  0.00    -0.206 F 
ATOM     51  C   UNL A   1      46.547  33.988  29.894  1.00  0.00     0.040 A 
ATOM     52  C   UNL A   1      46.079  34.396  27.567  1.00  0.00     0.040 A 
ATOM     53  F   UNL A   1      45.378  32.630  26.184  1.00  0.00    -0.206 F 
ATOM     54  C   UNL A   1      46.460  34.872  28.820  1.00  0.00     0.006 A 
ENDBRANCH  26  47
BRANCH  38  55
ATOM     55  C   UNL A   1      49.050  26.156  26.949  1.00  0.00     0.057 A 
ATOM     56  C   UNL A   1      49.860  25.726  28.006  1.00  0.00     0.134 A 
ATOM     57  C   UNL A   1      49.643  26.295  25.688  1.00  0.00     0.134 A 
ATOM     58  F   UNL A   1      49.351  25.580  29.239  1.00  0.00    -0.206 F 
ATOM     59  C   UNL A   1      51.215  25.449  27.818  1.00  0.00     0.040 A 
ATOM     60  C   UNL A   1      50.992  26.004  25.483  1.00  0.00     0.040 A 
ATOM     61  F   UNL A   1      48.915  26.692  24.634  1.00  0.00    -0.206 F 
ATOM     62  C   UNL A   1      51.783  25.586  26.553  1.00  0.00     0.006 A 
ENDBRANCH  38  55
ENDBRANCH  12  13
ENDBRANCH   5   7
ENDBRANCH   2   3
ENDBRANCH   1   2
BRANCH   1  63
ATOM     63  C   UNL A   1      32.604  29.156  26.957  1.00  0.00     0.023 C 
BRANCH  63  64
ATOM     64  C   UNL A   1      32.420  30.093  25.762  1.00  0.00     0.116 C 
BRANCH  64  65
ATOM     65  N   UNL A   1      33.188  29.668  24.611  1.00  0.00    -0.356 N 
ATOM     66  C   UNL A   1      33.000  28.751  23.639  1.00  0.00     0.223 C 
ATOM     67  H   UNL A   1      34.036  30.158  24.516  1.00  0.00     0.163 HD
ATOM     68  O   UNL A   1      33.744  28.874  22.655  1.00  0.00    -0.275 OA
BRANCH  66  69
ATOM     69  C   UNL A   1      32.021  27.572  23.678  1.00  0.00     0.086 C 
BRANCH  69  70
ATOM     70  C   UNL A   1      31.035  27.546  22.482  1.00  0.00     0.049 C 
BRANCH  70  71
ATOM     71  C   UNL A   1      29.849  28.470  22.490  1.00  0.00    -0.044 A 
ATOM     72  C   UNL A   1      29.923  29.762  21.948  1.00  0.00     0.004 A 
ATOM     73  C   UNL A   1      28.636  28.045  23.030  1.00  0.00     0.043 A 
ATOM     74  C   UNL A   1      28.829  30.630  22.027  1.00  0.00     0.003 A 
ATOM     75  C   UNL A   1      27.569  28.926  23.149  1.00  0.00     0.123 A 
ATOM     76  C   UNL A   1      27.656  30.221  22.658  1.00  0.00     0.039 A 
ATOM     77  F   UNL A   1      26.453  28.521  23.769  1.00  0.00    -0.207 F 
ENDBRANCH  70  71
ENDBRANCH  69  70
BRANCH  69  78
ATOM     78  C   UNL A   1      32.480  26.223  24.293  1.00  0.00     0.007 C 
ATOM     79  C   UNL A   1      33.856  26.171  24.973  1.00  0.00     0.033 C 
ATOM     80  C   UNL A   1      31.438  25.684  25.302  1.00  0.00     0.040 C 
ATOM     81  C   UNL A   1      34.185  24.748  25.411  1.00  0.00     0.161 C 
ATOM     82  C   UNL A   1      31.815  24.259  25.722  1.00  0.00     0.069 C 
ATOM     83  O   UNL A   1      33.160  24.255  26.269  1.00  0.00    -0.375 OA
ATOM     84  C   UNL A   1      30.760  23.570  26.637  1.00  0.00     0.035 C 
ATOM     85  C   UNL A   1      31.500  23.139  24.682  1.00  0.00     0.035 C 
ATOM     86  C   UNL A   1      31.023  22.268  25.858  1.00  0.00     0.006 C 
ENDBRANCH  69  78
ENDBRANCH  66  69
ENDBRANCH  64  65
ENDBRANCH  63  64
ENDBRANCH   1  63
TORSDOF 14
ENDMDL
MODEL 2
REMARK VINA RESULT:     -12.4      4.401      6.526
REMARK SMILES O=C(NCCCCNC(=O)[C@@H](Cc1cccc(F)c1)[C@H]1CCOC2(CCC2)C1)c1ccc(-c2c3nc(c(-c4c(F)cccc4F)c4ccc([nH]4)c(-c4c(F)cccc4F)c4nc(c(-c5c(F)cccc5F)c5ccc2[nH]5)C=C4)C=C3)cc1
REMARK SMILES IDX 5 1 4 2 3 3 1 4 2 5 29 7 30 8 82 9 31 10 81 11 32 12 33 13
REMARK SMILES IDX 34 14 75 15 35 16 80 17 74 18 76 19 36 20 79 21 73 22 72 23
REMARK SMILES IDX 37 25 63 26 46 27 62 28 47 29 50 30 61 31 77 32 48 33 49 34
REMARK SMILES IDX 60 36 78 37 51 38 38 39 39 40 44 41 40 42 41 43 43 44 45 45
REMARK SMILES IDX 42 46 64 47 65 48 70 49 66 50 67 51 69 52 71 53 68 54 52 55
REMARK SMILES IDX 53 56 58 57 54 58 55 59 57 60 59 61 56 62 6 63 7 64 8 65
REMARK SMILES IDX 9 66 10 68 11 69 12 70 13 71 14 72 19 73 15 74 17 75 16 76
REMARK SMILES IDX 18 77 20 78 21 79 28 80 22 81 24 82 23 83 25 84 27 85 26 86
REMARK H PARENT 3 6 76 24 50 35 8 67
REMARK Flexibility Score: inf
ROOT
ATOM      1  C   UNL A   1      31.301  31.968  26.847  1.00  0.00     0.023 C 
ENDROOT
BRANCH   1   2
ATOM      2  C   UNL A   1      32.253  33.133  26.627  1.00  0.00     0.116 C 
BRANCH   2   3
ATOM      3  N   UNL A   1      32.187  34.200  27.614  1.00  0.00    -0.352 N 
ATOM      4  O   UNL A   1      32.909  35.501  29.328  1.00  0.00    -0.269 OA
ATOM      5  C   UNL A   1      33.100  34.540  28.598  1.00  0.00     0.251 C 
ATOM      6  H   UNL A   1      31.378  34.760  27.577  1.00  0.00     0.163 HD
BRANCH   5   7
ATOM      7  C   UNL A   1      34.282  33.671  28.814  1.00  0.00     0.039 A 
ATOM      8  C   UNL A   1      34.124  32.355  29.235  1.00  0.00     0.014 A 
ATOM      9  C   UNL A   1      35.560  34.232  28.730  1.00  0.00     0.014 A 
ATOM     10  C   UNL A   1      35.191  31.711  29.846  1.00  0.00     0.010 A 
ATOM     11  C   UNL A   1      36.663  33.518  29.212  1.00  0.00     0.010 A 
ATOM     12  C   UNL A   1      36.477  32.284  29.851  1.00  0.00    -0.014 A 
BRANCH  12  13
ATOM     13  C   UNL A   1      37.589  31.565  30.536  1.00  0.00     0.031 A 
ATOM     14  C   UNL A   1      38.484  30.603  29.795  1.00  0.00     0.074 A 
ATOM     15  C   UNL A   1      37.847  31.853  31.827  1.00  0.00     0.049 A 
ATOM     16  N   UNL A   1      39.495  29.904  30.250  1.00  0.00    -0.248 NA
ATOM     17  C   UNL A   1      38.211  30.385  28.365  1.00  0.00     0.031 C 
ATOM     18  C   UNL A   1      37.064  32.775  32.654  1.00  0.00     0.029 A 
ATOM     19  N   UNL A   1      38.860  31.447  32.657  1.00  0.00    -0.354 N 
ATOM     20  C   UNL A   1      39.946  29.135  29.184  1.00  0.00     0.074 A 
ATOM     21  C   UNL A   1      39.097  29.447  28.054  1.00  0.00     0.031 C 
ATOM     22  C   UNL A   1      37.682  32.944  33.829  1.00  0.00     0.029 A 
ATOM     23  C   UNL A   1      38.844  32.067  33.882  1.00  0.00     0.049 A 
ATOM     24  H   UNL A   1      39.533  30.775  32.400  1.00  0.00     0.167 HD
ATOM     25  C   UNL A   1      40.973  28.251  29.151  1.00  0.00     0.037 A 
ATOM     26  C   UNL A   1      39.660  31.938  34.945  1.00  0.00     0.037 A 
ATOM     27  C   UNL A   1      41.847  27.978  30.264  1.00  0.00     0.049 A 
ATOM     28  C   UNL A   1      40.785  30.955  34.885  1.00  0.00     0.074 A 
ATOM     29  C   UNL A   1      42.925  27.111  30.320  1.00  0.00     0.029 A 
ATOM     30  N   UNL A   1      41.753  28.578  31.510  1.00  0.00    -0.354 N 
ATOM     31  N   UNL A   1      41.165  30.201  33.882  1.00  0.00    -0.248 NA
ATOM     32  C   UNL A   1      41.576  30.777  36.109  1.00  0.00     0.031 C 
ATOM     33  C   UNL A   1      43.462  27.162  31.610  1.00  0.00     0.029 A 
ATOM     34  C   UNL A   1      42.744  28.090  32.346  1.00  0.00     0.049 A 
ATOM     35  H   UNL A   1      41.081  29.252  31.764  1.00  0.00     0.167 HD
ATOM     36  C   UNL A   1      42.230  29.450  34.355  1.00  0.00     0.074 A 
ATOM     37  C   UNL A   1      42.456  29.861  35.726  1.00  0.00     0.031 C 
ATOM     38  C   UNL A   1      42.945  28.497  33.713  1.00  0.00     0.037 A 
BRANCH  25  39
ATOM     39  C   UNL A   1      41.208  27.489  27.878  1.00  0.00     0.057 A 
ATOM     40  C   UNL A   1      41.995  28.040  26.857  1.00  0.00     0.134 A 
ATOM     41  C   UNL A   1      40.600  26.254  27.627  1.00  0.00     0.134 A 
ATOM     42  F   UNL A   1      42.598  29.225  27.028  1.00  0.00    -0.206 F 
ATOM     43  C   UNL A   1      42.158  27.396  25.629  1.00  0.00     0.040 A 
ATOM     44  C   UNL A   1      40.772  25.589  26.411  1.00  0.00     0.040 A 
ATOM     45  F   UNL A   1      39.843  25.666  28.566  1.00  0.00    -0.206 F 
ATOM     46  C   UNL A   1      41.546  26.164  25.404  1.00  0.00     0.006 A 
ENDBRANCH  25  39
BRANCH  26  47
ATOM     47  C   UNL A   1      39.408  32.762  36.151  1.00  0.00     0.057 A 
ATOM     48  C   UNL A   1      38.529  32.338  37.155  1.00  0.00     0.134 A 
ATOM     49  C   UNL A   1      39.977  34.033  36.284  1.00  0.00     0.134 A 
ATOM     50  F   UNL A   1      37.945  31.133  37.076  1.00  0.00    -0.206 F 
ATOM     51  C   UNL A   1      38.193  33.161  38.229  1.00  0.00     0.040 A 
ATOM     52  C   UNL A   1      39.670  34.858  37.367  1.00  0.00     0.040 A 
ATOM     53  F   UNL A   1      40.839  34.488  35.362  1.00  0.00    -0.206 F 
ATOM     54  C   UNL A   1      38.764  34.428  38.335  1.00  0.00     0.006 A 
ENDBRANCH  26  47
BRANCH  38  55
ATOM     55  C   UNL A   1      44.036  27.827  34.489  1.00  0.00     0.057 A 
ATOM     56  C   UNL A   1      45.327  28.364  34.523  1.00  0.00     0.134 A 
ATOM     57  C   UNL A   1      43.814  26.620  35.164  1.00  0.00     0.134 A 
ATOM     58  F   UNL A   1      45.603  29.515  33.890  1.00  0.00    -0.206 F 
ATOM     59  C   UNL A   1      46.365  27.721  35.199  1.00  0.00     0.040 A 
ATOM     60  C   UNL A   1      44.838  25.977  35.859  1.00  0.00     0.040 A 
ATOM     61  F   UNL A   1      42.594  26.063  35.177  1.00  0.00    -0.206 F 
ATOM     62  C   UNL A   1      46.120  26.525  35.871  1.00  0.00     0.006 A 
ENDBRANCH  38  55
ENDBRANCH  12  13
ENDBRANCH   5   7
ENDBRANCH   2   3
ENDBRANCH   1   2
BRANCH   1  63
ATOM     63  C   UNL A   1      31.449  30.756  25.934  1.00  0.00     0.023 C 
BRANCH  63  64
ATOM     64  C   UNL A   1      32.760  29.979  26.066  1.00  0.00     0.116 C 
BRANCH  64  65
ATOM     65  N   UNL A   1      33.338  29.660  24.778  1.00  0.00    -0.356 N 
ATOM     66  C   UNL A   1      32.978  28.856  23.756  1.00  0.00     0.223 C 
ATOM     67  H   UNL A   1      34.182  30.137  24.609  1.00  0.00     0.163 HD
ATOM     68  O   UNL A   1      33.577  29.065  22.691  1.00  0.00    -0.275 OA
BRANCH  66  69
ATOM     69  C   UNL A   1      31.970  27.702  23.817  1.00  0.00     0.086 C 
BRANCH  69  70
ATOM     70  C   UNL A   1      30.970  27.690  22.633  1.00  0.00     0.049 C 
BRANCH  70  71
ATOM     71  C   UNL A   1      29.737  28.547  22.706  1.00  0.00    -0.044 A 
ATOM     72  C   UNL A   1      29.776  29.916  22.402  1.00  0.00     0.004 A 
ATOM     73  C   UNL A   1      28.514  27.982  23.066  1.00  0.00     0.043 A 
ATOM     74  C   UNL A   1      28.632  30.709  22.543  1.00  0.00     0.003 A 
ATOM     75  C   UNL A   1      27.394  28.781  23.251  1.00  0.00     0.123 A 
ATOM     76  C   UNL A   1      27.443  30.144  22.999  1.00  0.00     0.039 A 
ATOM     77  F   UNL A   1      26.261  28.226  23.701  1.00  0.00    -0.207 F 
ENDBRANCH  70  71
ENDBRANCH  69  70
BRANCH  69  78
ATOM     78  C   UNL A   1      32.401  26.348  24.441  1.00  0.00     0.007 C 
ATOM     79  C   UNL A   1      33.721  26.303  25.224  1.00  0.00     0.033 C 
ATOM     80  C   UNL A   1      31.293  25.776  25.357  1.00  0.00     0.040 C 
ATOM     81  C   UNL A   1      34.038  24.876  25.659  1.00  0.00     0.161 C 
ATOM     82  C   UNL A   1      31.659  24.348  25.778  1.00  0.00     0.069 C 
ATOM     83  O   UNL A   1      32.958  24.352  26.427  1.00  0.00    -0.375 OA
ATOM     84  C   UNL A   1      30.548  23.626  26.596  1.00  0.00     0.035 C 
ATOM     85  C   UNL A   1      31.443  23.244  24.697  1.00  0.00     0.035 C 
ATOM     86  C   UNL A   1      30.890  22.343  25.816  1.00  0.00     0.006 C 
ENDBRANCH  69  78
ENDBRANCH  66  69
ENDBRANCH  64  65
ENDBRANCH  63  64
ENDBRANCH   1  63
TORSDOF 14
ENDMDL
MODEL 3
REMARK VINA RESULT:     -12.4      3.411      8.249
REMARK SMILES O=C(NCCCCNC(=O)[C@@H](Cc1cccc(F)c1)[C@H]1CCOC2(CCC2)C1)c1ccc(-c2c3nc(c(-c4c(F)cccc4F)c4ccc([nH]4)c(-c4c(F)cccc4F)c4nc(c(-c5c(F)cccc5F)c5ccc2[nH]5)C=C4)C=C3)cc1
REMARK SMILES IDX 5 1 4 2 3 3 1 4 2 5 29 7 30 8 82 9 31 10 81 11 32 12 33 13
REMARK SMILES IDX 34 14 75 15 35 16 80 17 74 18 76 19 36 20 79 21 73 22 72 23
REMARK SMILES IDX 37 25 63 26 46 27 62 28 47 29 50 30 61 31 77 32 48 33 49 34
REMARK SMILES IDX 60 36 78 37 51 38 38 39 39 40 44 41 40 42 41 43 43 44 45 45
REMARK SMILES IDX 42 46 64 47 65 48 70 49 66 50 67 51 69 52 71 53 68 54 52 55
REMARK SMILES IDX 53 56 58 57 54 58 55 59 57 60 59 61 56 62 6 63 7 64 8 65
REMARK SMILES IDX 9 66 10 68 11 69 12 70 13 71 14 72 19 73 15 74 17 75 16 76
REMARK SMILES IDX 18 77 20 78 21 79 28 80 22 81 24 82 23 83 25 84 27 85 26 86
REMARK H PARENT 3 6 76 24 50 35 8 67
REMARK Flexibility Score: inf
ROOT
ATOM      1  C   UNL A   1      37.562  21.051  25.020  1.00  0.00     0.023 C 
ENDROOT
BRANCH   1   2
ATOM      2  C   UNL A   1      38.889  21.121  25.758  1.00  0.00     0.116 C 
BRANCH   2   3
ATOM      3  N   UNL A   1      39.748  19.953  25.629  1.00  0.00    -0.352 N 
ATOM      4  O   UNL A   1      41.635  18.716  25.874  1.00  0.00    -0.269 OA
ATOM      5  C   UNL A   1      41.065  19.788  26.021  1.00  0.00     0.251 C 
ATOM      6  H   UNL A   1      39.332  19.169  25.203  1.00  0.00     0.163 HD
BRANCH   5   7
ATOM      7  C   UNL A   1      41.811  20.955  26.548  1.00  0.00     0.039 A 
ATOM      8  C   UNL A   1      41.907  21.172  27.919  1.00  0.00     0.014 A 
ATOM      9  C   UNL A   1      42.293  21.914  25.652  1.00  0.00     0.014 A 
ATOM     10  C   UNL A   1      42.202  22.448  28.379  1.00  0.00     0.010 A 
ATOM     11  C   UNL A   1      42.734  23.152  26.131  1.00  0.00     0.010 A 
ATOM     12  C   UNL A   1      42.614  23.461  27.494  1.00  0.00    -0.014 A 
BRANCH  12  13
ATOM     13  C   UNL A   1      42.902  24.822  28.031  1.00  0.00     0.031 A 
ATOM     14  C   UNL A   1      41.797  25.813  28.305  1.00  0.00     0.074 A 
ATOM     15  C   UNL A   1      44.172  25.135  28.357  1.00  0.00     0.049 A 
ATOM     16  N   UNL A   1      41.887  27.034  28.775  1.00  0.00    -0.248 NA
ATOM     17  C   UNL A   1      40.418  25.393  28.008  1.00  0.00     0.031 C 
ATOM     18  C   UNL A   1      45.329  24.260  28.153  1.00  0.00     0.029 A 
ATOM     19  N   UNL A   1      44.699  26.241  28.970  1.00  0.00    -0.354 N 
ATOM     20  C   UNL A   1      40.592  27.539  28.787  1.00  0.00     0.074 A 
ATOM     21  C   UNL A   1      39.731  26.497  28.273  1.00  0.00     0.031 C 
ATOM     22  C   UNL A   1      46.405  24.815  28.725  1.00  0.00     0.029 A 
ATOM     23  C   UNL A   1      46.040  26.127  29.243  1.00  0.00     0.049 A 
ATOM     24  H   UNL A   1      44.168  27.040  29.194  1.00  0.00     0.167 HD
ATOM     25  C   UNL A   1      40.163  28.761  29.188  1.00  0.00     0.037 A 
ATOM     26  C   UNL A   1      46.896  26.986  29.828  1.00  0.00     0.037 A 
ATOM     27  C   UNL A   1      41.017  29.780  29.745  1.00  0.00     0.049 A 
ATOM     28  C   UNL A   1      46.399  28.328  30.262  1.00  0.00     0.074 A 
ATOM     29  C   UNL A   1      40.670  31.042  30.196  1.00  0.00     0.029 A 
ATOM     30  N   UNL A   1      42.384  29.649  29.940  1.00  0.00    -0.354 N 
ATOM     31  N   UNL A   1      45.179  28.806  30.219  1.00  0.00    -0.248 NA
ATOM     32  C   UNL A   1      47.397  29.264  30.795  1.00  0.00     0.031 C 
ATOM     33  C   UNL A   1      41.832  31.687  30.633  1.00  0.00     0.029 A 
ATOM     34  C   UNL A   1      42.897  30.811  30.491  1.00  0.00     0.049 A 
ATOM     35  H   UNL A   1      42.911  28.847  29.719  1.00  0.00     0.167 HD
ATOM     36  C   UNL A   1      45.262  30.101  30.706  1.00  0.00     0.074 A 
ATOM     37  C   UNL A   1      46.648  30.324  31.068  1.00  0.00     0.031 C 
ATOM     38  C   UNL A   1      44.280  31.024  30.829  1.00  0.00     0.037 A 
BRANCH  25  39
ATOM     39  C   UNL A   1      38.706  29.085  29.028  1.00  0.00     0.057 A 
ATOM     40  C   UNL A   1      38.208  29.522  27.791  1.00  0.00     0.134 A 
ATOM     41  C   UNL A   1      37.811  29.043  30.103  1.00  0.00     0.134 A 
ATOM     42  F   UNL A   1      39.014  29.595  26.722  1.00  0.00    -0.206 F 
ATOM     43  C   UNL A   1      36.878  29.915  27.635  1.00  0.00     0.040 A 
ATOM     44  C   UNL A   1      36.473  29.414  29.955  1.00  0.00     0.040 A 
ATOM     45  F   UNL A   1      38.220  28.625  31.311  1.00  0.00    -0.206 F 
ATOM     46  C   UNL A   1      36.005  29.861  28.720  1.00  0.00     0.006 A 
ENDBRANCH  25  39
BRANCH  26  47
ATOM     47  C   UNL A   1      48.311  26.582  30.010  1.00  0.00     0.057 A 
ATOM     48  C   UNL A   1      49.274  26.833  29.024  1.00  0.00     0.134 A 
ATOM     49  C   UNL A   1      48.712  25.859  31.137  1.00  0.00     0.134 A 
ATOM     50  F   UNL A   1      48.944  27.513  27.915  1.00  0.00    -0.206 F 
ATOM     51  C   UNL A   1      50.576  26.347  29.134  1.00  0.00     0.040 A 
ATOM     52  C   UNL A   1      50.019  25.388  31.273  1.00  0.00     0.040 A 
ATOM     53  F   UNL A   1      47.838  25.601  32.122  1.00  0.00    -0.206 F 
ATOM     54  C   UNL A   1      50.951  25.619  30.262  1.00  0.00     0.006 A 
ENDBRANCH  26  47
BRANCH  38  55
ATOM     55  C   UNL A   1      44.670  32.364  31.371  1.00  0.00     0.057 A 
ATOM     56  C   UNL A   1      44.612  32.628  32.743  1.00  0.00     0.134 A 
ATOM     57  C   UNL A   1      45.058  33.408  30.521  1.00  0.00     0.134 A 
ATOM     58  F   UNL A   1      44.242  31.670  33.607  1.00  0.00    -0.206 F 
ATOM     59  C   UNL A   1      44.923  33.889  33.255  1.00  0.00     0.040 A 
ATOM     60  C   UNL A   1      45.388  34.667  31.022  1.00  0.00     0.040 A 
ATOM     61  F   UNL A   1      45.143  33.210  29.197  1.00  0.00    -0.206 F 
ATOM     62  C   UNL A   1      45.315  34.911  32.393  1.00  0.00     0.006 A 
ENDBRANCH  38  55
ENDBRANCH  12  13
ENDBRANCH   5   7
ENDBRANCH   2   3
ENDBRANCH   1   2
BRANCH   1  63
ATOM     63  C   UNL A   1      36.915  22.369  24.610  1.00  0.00     0.023 C 
BRANCH  63  64
ATOM     64  C   UNL A   1      36.487  23.288  25.755  1.00  0.00     0.116 C 
BRANCH  64  65
ATOM     65  N   UNL A   1      35.563  22.639  26.661  1.00  0.00    -0.356 N 
ATOM     66  C   UNL A   1      34.390  21.990  26.505  1.00  0.00     0.223 C 
ATOM     67  H   UNL A   1      35.856  22.679  27.599  1.00  0.00     0.163 HD
ATOM     68  O   UNL A   1      34.034  21.314  27.482  1.00  0.00    -0.275 OA
BRANCH  66  69
ATOM     69  C   UNL A   1      33.461  22.067  25.288  1.00  0.00     0.086 C 
BRANCH  69  70
ATOM     70  C   UNL A   1      32.486  20.868  25.175  1.00  0.00     0.049 C 
BRANCH  70  71
ATOM     71  C   UNL A   1      32.907  19.653  24.395  1.00  0.00    -0.044 A 
ATOM     72  C   UNL A   1      32.200  19.230  23.259  1.00  0.00     0.004 A 
ATOM     73  C   UNL A   1      34.031  18.927  24.786  1.00  0.00     0.043 A 
ATOM     74  C   UNL A   1      32.567  18.059  22.588  1.00  0.00     0.003 A 
ATOM     75  C   UNL A   1      34.362  17.740  24.146  1.00  0.00     0.123 A 
ATOM     76  C   UNL A   1      33.634  17.293  23.052  1.00  0.00     0.039 A 
ATOM     77  F   UNL A   1      35.383  17.009  24.611  1.00  0.00    -0.207 F 
ENDBRANCH  70  71
ENDBRANCH  69  70
BRANCH  69  78
ATOM     78  C   UNL A   1      32.994  23.456  24.775  1.00  0.00     0.007 C 
ATOM     79  C   UNL A   1      31.772  23.508  23.848  1.00  0.00     0.033 C 
ATOM     80  C   UNL A   1      32.733  24.428  25.951  1.00  0.00     0.040 C 
ATOM     81  C   UNL A   1      31.534  24.932  23.354  1.00  0.00     0.161 C 
ATOM     82  C   UNL A   1      32.488  25.840  25.407  1.00  0.00     0.069 C 
ATOM     83  O   UNL A   1      31.384  25.812  24.465  1.00  0.00    -0.375 OA
ATOM     84  C   UNL A   1      32.344  26.926  26.514  1.00  0.00     0.035 C 
ATOM     85  C   UNL A   1      33.757  26.620  24.945  1.00  0.00     0.035 C 
ATOM     86  C   UNL A   1      33.155  27.871  25.608  1.00  0.00     0.006 C 
ENDBRANCH  69  78
ENDBRANCH  66  69
ENDBRANCH  64  65
ENDBRANCH  63  64
ENDBRANCH   1  63
TORSDOF 14
ENDMDL
