MODEL 1
REMARK VINA RESULT:     -10.2      0.000      0.000
REMARK SMILES Cn1c(SCC(=O)NCCCCNC(=O)c2ccc(-c3c4nc(c(-c5c(F)cccc5F)c5ccc([nH]5)c(-c5c(F)cccc5F)c5nc(c(-c6c(F)cccc6F)c6ccc3[nH]6)C=C5)C=C4)cc2)nnc1-c1ccccc1Br
REMARK SMILES IDX 10 1 9 2 8 3 6 4 7 5 5 7 4 8 3 9 1 10 2 11 72 12 70 13 71 14
REMARK SMILES IDX 73 15 74 16 78 17 75 18 77 19 79 20 76 21 11 22 12 23 13 24
REMARK SMILES IDX 14 25 15 27 16 28 17 29 69 30 18 31 68 32 19 33 20 34 21 35
REMARK SMILES IDX 62 36 22 37 67 38 61 39 63 40 23 41 66 42 60 43 59 44 24 46
REMARK SMILES IDX 50 47 33 48 49 49 34 50 37 51 48 52 64 53 35 54 36 55 47 57
REMARK SMILES IDX 65 58 38 59 25 60 26 61 31 62 27 63 28 64 30 65 32 66 29 67
REMARK SMILES IDX 51 68 52 69 57 70 53 71 54 72 56 73 58 74 55 75 39 76 40 77
REMARK SMILES IDX 45 78 41 79 42 80 44 81 46 82 43 83
REMARK H PARENT 8 6 13 26 63 45 37 56
REMARK Flexibility Score: inf
ROOT
ATOM      1  C   UNL A   1      34.556  34.859  28.073  1.00  0.00     0.023 C 
ENDROOT
BRANCH   1   2
ATOM      2  C   UNL A   1      33.173  34.891  28.716  1.00  0.00     0.116 C 
BRANCH   2   3
ATOM      3  N   UNL A   1      32.941  36.131  29.431  1.00  0.00    -0.355 N 
ATOM      4  C   UNL A   1      33.094  36.415  30.749  1.00  0.00     0.230 C 
ATOM      5  O   UNL A   1      32.889  37.578  31.107  1.00  0.00    -0.274 OA
ATOM      6  H   UNL A   1      32.625  36.879  28.875  1.00  0.00     0.163 HD
BRANCH   4   7
ATOM      7  C   UNL A   1      33.601  35.391  31.736  1.00  0.00     0.178 C 
BRANCH   7   8
ATOM      8  S   UNL A   1      34.775  35.950  32.962  1.00  0.00    -0.076 SA
BRANCH   8   9
ATOM      9  C   UNL A   1      35.734  34.659  33.586  1.00  0.00     0.191 A 
ATOM     10  C   UNL A   1      37.293  33.988  31.686  1.00  0.00     0.154 C 
ATOM     11  N   UNL A   1      36.711  33.902  32.998  1.00  0.00    -0.305 N 
ATOM     12  C   UNL A   1      37.044  32.928  33.927  1.00  0.00     0.165 A 
ATOM     13  N   UNL A   1      35.471  34.160  34.777  1.00  0.00    -0.123 NA
ATOM     14  N   UNL A   1      36.276  33.074  34.986  1.00  0.00    -0.129 NA
BRANCH  12  15
ATOM     15  C   UNL A   1      38.031  31.871  33.731  1.00  0.00     0.034 A 
ATOM     16  C   UNL A   1      37.588  30.632  33.237  1.00  0.00     0.013 A 
ATOM     17  C   UNL A   1      39.399  32.046  33.991  1.00  0.00     0.029 A 
ATOM     18  C   UNL A   1      38.496  29.607  32.965  1.00  0.00     0.001 A 
ATOM     19  C   UNL A   1      40.306  31.018  33.714  1.00  0.00     0.016 A 
ATOM     20  Br  UNL A   1      40.095  33.650  34.740  1.00  0.00    -0.050 Br
ATOM     21  C   UNL A   1      39.856  29.804  33.194  1.00  0.00     0.001 A 
ENDBRANCH  12  15
ENDBRANCH   8   9
ENDBRANCH   7   8
ENDBRANCH   4   7
ENDBRANCH   2   3
ENDBRANCH   1   2
BRANCH   1  22
ATOM     22  C   UNL A   1      35.416  33.643  28.439  1.00  0.00     0.023 C 
BRANCH  22  23
ATOM     23  C   UNL A   1      34.754  32.604  29.341  1.00  0.00     0.116 C 
BRANCH  23  24
ATOM     24  N   UNL A   1      34.039  31.577  28.602  1.00  0.00    -0.352 N 
ATOM     25  C   UNL A   1      34.491  30.395  28.077  1.00  0.00     0.251 C 
ATOM     26  H   UNL A   1      33.081  31.758  28.457  1.00  0.00     0.163 HD
ATOM     27  O   UNL A   1      33.733  29.711  27.386  1.00  0.00    -0.269 OA
BRANCH  25  28
ATOM     28  C   UNL A   1      35.882  29.942  28.298  1.00  0.00     0.039 A 
ATOM     29  C   UNL A   1      36.800  30.086  27.253  1.00  0.00     0.014 A 
ATOM     30  C   UNL A   1      36.285  29.356  29.501  1.00  0.00     0.014 A 
ATOM     31  C   UNL A   1      38.129  29.693  27.433  1.00  0.00     0.010 A 
ATOM     32  C   UNL A   1      37.627  29.031  29.705  1.00  0.00     0.010 A 
ATOM     33  C   UNL A   1      38.562  29.192  28.671  1.00  0.00    -0.014 A 
BRANCH  33  34
ATOM     34  C   UNL A   1      39.991  28.844  28.887  1.00  0.00     0.031 A 
ATOM     35  C   UNL A   1      40.932  29.823  29.536  1.00  0.00     0.074 A 
ATOM     36  C   UNL A   1      40.452  27.650  28.469  1.00  0.00     0.049 A 
ATOM     37  N   UNL A   1      42.205  29.687  29.813  1.00  0.00    -0.248 NA
ATOM     38  C   UNL A   1      40.377  31.136  29.901  1.00  0.00     0.031 C 
ATOM     39  C   UNL A   1      39.658  26.632  27.776  1.00  0.00     0.029 A 
ATOM     40  N   UNL A   1      41.700  27.086  28.567  1.00  0.00    -0.354 N 
ATOM     41  C   UNL A   1      42.602  30.893  30.378  1.00  0.00     0.074 A 
ATOM     42  C   UNL A   1      41.451  31.768  30.350  1.00  0.00     0.031 C 
ATOM     43  C   UNL A   1      40.427  25.557  27.544  1.00  0.00     0.029 A 
ATOM     44  C   UNL A   1      41.774  25.819  28.040  1.00  0.00     0.049 A 
ATOM     45  H   UNL A   1      42.468  27.545  28.975  1.00  0.00     0.167 HD
ATOM     46  C   UNL A   1      43.808  31.231  30.896  1.00  0.00     0.037 A 
ATOM     47  C   UNL A   1      42.809  24.961  27.971  1.00  0.00     0.037 A 
ATOM     48  C   UNL A   1      44.949  30.353  30.937  1.00  0.00     0.049 A 
ATOM     49  C   UNL A   1      44.135  25.360  28.556  1.00  0.00     0.074 A 
ATOM     50  C   UNL A   1      46.197  30.586  31.487  1.00  0.00     0.029 A 
ATOM     51  N   UNL A   1      44.982  29.074  30.402  1.00  0.00    -0.354 N 
ATOM     52  N   UNL A   1      44.475  26.475  29.153  1.00  0.00    -0.248 NA
ATOM     53  C   UNL A   1      45.219  24.371  28.467  1.00  0.00     0.031 C 
ATOM     54  C   UNL A   1      47.000  29.465  31.247  1.00  0.00     0.029 A 
ATOM     55  C   UNL A   1      46.235  28.514  30.593  1.00  0.00     0.049 A 
ATOM     56  H   UNL A   1      44.227  28.630  29.953  1.00  0.00     0.167 HD
ATOM     57  C   UNL A   1      45.801  26.314  29.536  1.00  0.00     0.074 A 
ATOM     58  C   UNL A   1      46.196  24.984  29.119  1.00  0.00     0.031 C 
ATOM     59  C   UNL A   1      46.617  27.188  30.174  1.00  0.00     0.037 A 
BRANCH  46  60
ATOM     60  C   UNL A   1      43.951  32.614  31.466  1.00  0.00     0.057 A 
ATOM     61  C   UNL A   1      44.232  33.722  30.656  1.00  0.00     0.134 A 
ATOM     62  C   UNL A   1      43.771  32.847  32.836  1.00  0.00     0.134 A 
ATOM     63  F   UNL A   1      44.426  33.568  29.337  1.00  0.00    -0.206 F 
ATOM     64  C   UNL A   1      44.357  35.006  31.189  1.00  0.00     0.040 A 
ATOM     65  C   UNL A   1      43.865  34.130  33.377  1.00  0.00     0.040 A 
ATOM     66  F   UNL A   1      43.492  31.833  33.670  1.00  0.00    -0.206 F 
ATOM     67  C   UNL A   1      44.166  35.214  32.554  1.00  0.00     0.006 A 
ENDBRANCH  46  60
BRANCH  47  68
ATOM     68  C   UNL A   1      42.627  23.623  27.352  1.00  0.00     0.057 A 
ATOM     69  C   UNL A   1      42.790  23.436  25.975  1.00  0.00     0.134 A 
ATOM     70  C   UNL A   1      42.275  22.505  28.118  1.00  0.00     0.134 A 
ATOM     71  F   UNL A   1      43.107  24.473  25.186  1.00  0.00    -0.206 F 
ATOM     72  C   UNL A   1      42.588  22.191  25.376  1.00  0.00     0.040 A 
ATOM     73  C   UNL A   1      42.098  21.248  27.537  1.00  0.00     0.040 A 
ATOM     74  F   UNL A   1      42.112  22.617  29.444  1.00  0.00    -0.206 F 
ATOM     75  C   UNL A   1      42.247  21.091  26.160  1.00  0.00     0.006 A 
ENDBRANCH  47  68
BRANCH  59  76
ATOM     76  C   UNL A   1      48.008  26.718  30.489  1.00  0.00     0.057 A 
ATOM     77  C   UNL A   1      48.305  26.009  31.661  1.00  0.00     0.134 A 
ATOM     78  C   UNL A   1      49.063  26.968  29.602  1.00  0.00     0.134 A 
ATOM     79  F   UNL A   1      47.343  25.747  32.560  1.00  0.00    -0.206 F 
ATOM     80  C   UNL A   1      49.606  25.598  31.954  1.00  0.00     0.040 A 
ATOM     81  C   UNL A   1      50.361  26.536  29.870  1.00  0.00     0.040 A 
ATOM     82  F   UNL A   1      48.846  27.632  28.456  1.00  0.00    -0.206 F 
ATOM     83  C   UNL A   1      50.638  25.857  31.054  1.00  0.00     0.006 A 
ENDBRANCH  59  76
ENDBRANCH  33  34
ENDBRANCH  25  28
ENDBRANCH  23  24
ENDBRANCH  22  23
ENDBRANCH   1  22
TORSDOF 14
ENDMDL
MODEL 2
REMARK VINA RESULT:     -10.1      5.291      8.333
REMARK SMILES Cn1c(SCC(=O)NCCCCNC(=O)c2ccc(-c3c4nc(c(-c5c(F)cccc5F)c5ccc([nH]5)c(-c5c(F)cccc5F)c5nc(c(-c6c(F)cccc6F)c6ccc3[nH]6)C=C5)C=C4)cc2)nnc1-c1ccccc1Br
REMARK SMILES IDX 10 1 9 2 8 3 6 4 7 5 5 7 4 8 3 9 1 10 2 11 72 12 70 13 71 14
REMARK SMILES IDX 73 15 74 16 78 17 75 18 77 19 79 20 76 21 11 22 12 23 13 24
REMARK SMILES IDX 14 25 15 27 16 28 17 29 69 30 18 31 68 32 19 33 20 34 21 35
REMARK SMILES IDX 62 36 22 37 67 38 61 39 63 40 23 41 66 42 60 43 59 44 24 46
REMARK SMILES IDX 50 47 33 48 49 49 34 50 37 51 48 52 64 53 35 54 36 55 47 57
REMARK SMILES IDX 65 58 38 59 25 60 26 61 31 62 27 63 28 64 30 65 32 66 29 67
REMARK SMILES IDX 51 68 52 69 57 70 53 71 54 72 56 73 58 74 55 75 39 76 40 77
REMARK SMILES IDX 45 78 41 79 42 80 44 81 46 82 43 83
REMARK H PARENT 8 6 13 26 63 45 37 56
REMARK Flexibility Score: inf
ROOT
ATOM      1  C   UNL A   1      31.405  30.700  25.712  1.00  0.00     0.023 C 
ENDROOT
BRANCH   1   2
ATOM      2  C   UNL A   1      32.697  29.906  25.881  1.00  0.00     0.116 C 
BRANCH   2   3
ATOM      3  N   UNL A   1      33.361  29.683  24.612  1.00  0.00    -0.355 N 
ATOM      4  C   UNL A   1      33.101  28.766  23.646  1.00  0.00     0.230 C 
ATOM      5  O   UNL A   1      33.777  28.821  22.615  1.00  0.00    -0.274 OA
ATOM      6  H   UNL A   1      34.114  30.288  24.423  1.00  0.00     0.163 HD
BRANCH   4   7
ATOM      7  C   UNL A   1      31.961  27.783  23.760  1.00  0.00     0.178 C 
BRANCH   7   8
ATOM      8  S   UNL A   1      31.505  26.886  22.282  1.00  0.00    -0.076 SA
BRANCH   8   9
ATOM      9  C   UNL A   1      32.155  25.288  22.260  1.00  0.00     0.191 A 
ATOM     10  C   UNL A   1      30.795  23.976  23.969  1.00  0.00     0.154 C 
ATOM     11  N   UNL A   1      31.830  24.178  22.992  1.00  0.00    -0.305 N 
ATOM     12  C   UNL A   1      32.764  23.213  22.647  1.00  0.00     0.165 A 
ATOM     13  N   UNL A   1      33.230  25.025  21.546  1.00  0.00    -0.123 NA
ATOM     14  N   UNL A   1      33.619  23.737  21.795  1.00  0.00    -0.129 NA
BRANCH  12  15
ATOM     15  C   UNL A   1      32.831  21.862  23.198  1.00  0.00     0.034 A 
ATOM     16  C   UNL A   1      32.115  20.844  22.547  1.00  0.00     0.013 A 
ATOM     17  C   UNL A   1      33.594  21.537  24.329  1.00  0.00     0.029 A 
ATOM     18  C   UNL A   1      32.197  19.522  22.988  1.00  0.00     0.001 A 
ATOM     19  C   UNL A   1      33.676  20.211  24.766  1.00  0.00     0.016 A 
ATOM     20  Br  UNL A   1      34.532  22.851  25.336  1.00  0.00    -0.050 Br
ATOM     21  C   UNL A   1      32.986  19.204  24.092  1.00  0.00     0.001 A 
ENDBRANCH  12  15
ENDBRANCH   8   9
ENDBRANCH   7   8
ENDBRANCH   4   7
ENDBRANCH   2   3
ENDBRANCH   1   2
BRANCH   1  22
ATOM     22  C   UNL A   1      31.284  31.944  26.601  1.00  0.00     0.023 C 
BRANCH  22  23
ATOM     23  C   UNL A   1      32.599  32.563  27.066  1.00  0.00     0.116 C 
BRANCH  23  24
ATOM     24  N   UNL A   1      32.444  33.907  27.596  1.00  0.00    -0.352 N 
ATOM     25  C   UNL A   1      33.173  34.565  28.552  1.00  0.00     0.251 C 
ATOM     26  H   UNL A   1      31.702  34.426  27.207  1.00  0.00     0.163 HD
ATOM     27  O   UNL A   1      32.803  35.677  28.934  1.00  0.00    -0.269 OA
BRANCH  25  28
ATOM     28  C   UNL A   1      34.376  33.951  29.156  1.00  0.00     0.039 A 
ATOM     29  C   UNL A   1      34.199  32.948  30.114  1.00  0.00     0.014 A 
ATOM     30  C   UNL A   1      35.667  34.364  28.812  1.00  0.00     0.014 A 
ATOM     31  C   UNL A   1      35.311  32.327  30.687  1.00  0.00     0.010 A 
ATOM     32  C   UNL A   1      36.775  33.694  29.331  1.00  0.00     0.010 A 
ATOM     33  C   UNL A   1      36.609  32.671  30.278  1.00  0.00    -0.014 A 
BRANCH  33  34
ATOM     34  C   UNL A   1      37.790  31.958  30.832  1.00  0.00     0.031 A 
ATOM     35  C   UNL A   1      38.305  32.278  32.208  1.00  0.00     0.074 A 
ATOM     36  C   UNL A   1      38.420  31.036  30.079  1.00  0.00     0.049 A 
ATOM     37  N   UNL A   1      39.314  31.750  32.857  1.00  0.00    -0.248 NA
ATOM     38  C   UNL A   1      37.613  33.346  32.946  1.00  0.00     0.031 C 
ATOM     39  C   UNL A   1      38.055  30.672  28.707  1.00  0.00     0.029 A 
ATOM     40  N   UNL A   1      39.498  30.234  30.359  1.00  0.00    -0.354 N 
ATOM     41  C   UNL A   1      39.379  32.423  34.071  1.00  0.00     0.074 A 
ATOM     42  C   UNL A   1      38.347  33.436  34.045  1.00  0.00     0.031 C 
ATOM     43  C   UNL A   1      38.872  29.696  28.280  1.00  0.00     0.029 A 
ATOM     44  C   UNL A   1      39.836  29.387  29.331  1.00  0.00     0.049 A 
ATOM     45  H   UNL A   1      39.984  30.263  31.214  1.00  0.00     0.167 HD
ATOM     46  C   UNL A   1      40.206  32.201  35.122  1.00  0.00     0.037 A 
ATOM     47  C   UNL A   1      40.809  28.461  29.246  1.00  0.00     0.037 A 
ATOM     48  C   UNL A   1      41.224  31.182  35.152  1.00  0.00     0.049 A 
ATOM     49  C   UNL A   1      41.711  28.232  30.427  1.00  0.00     0.074 A 
ATOM     50  C   UNL A   1      42.076  30.845  36.189  1.00  0.00     0.029 A 
ATOM     51  N   UNL A   1      41.529  30.337  34.096  1.00  0.00    -0.354 N 
ATOM     52  N   UNL A   1      41.713  28.825  31.595  1.00  0.00    -0.248 NA
ATOM     53  C   UNL A   1      42.740  27.193  30.279  1.00  0.00     0.031 C 
ATOM     54  C   UNL A   1      42.927  29.826  35.745  1.00  0.00     0.029 A 
ATOM     55  C   UNL A   1      42.570  29.493  34.449  1.00  0.00     0.049 A 
ATOM     56  H   UNL A   1      41.074  30.337  33.223  1.00  0.00     0.167 HD
ATOM     57  C   UNL A   1      42.720  28.214  32.331  1.00  0.00     0.074 A 
ATOM     58  C   UNL A   1      43.295  27.191  31.482  1.00  0.00     0.031 C 
ATOM     59  C   UNL A   1      43.133  28.477  33.596  1.00  0.00     0.037 A 
BRANCH  46  60
ATOM     60  C   UNL A   1      40.039  33.077  36.330  1.00  0.00     0.057 A 
ATOM     61  C   UNL A   1      40.798  34.241  36.509  1.00  0.00     0.134 A 
ATOM     62  C   UNL A   1      39.083  32.776  37.309  1.00  0.00     0.134 A 
ATOM     63  F   UNL A   1      41.737  34.585  35.615  1.00  0.00    -0.206 F 
ATOM     64  C   UNL A   1      40.634  35.058  37.630  1.00  0.00     0.040 A 
ATOM     65  C   UNL A   1      38.890  33.598  38.420  1.00  0.00     0.040 A 
ATOM     66  F   UNL A   1      38.316  31.680  37.198  1.00  0.00    -0.206 F 
ATOM     67  C   UNL A   1      39.672  34.740  38.586  1.00  0.00     0.006 A 
ENDBRANCH  46  60
BRANCH  47  68
ATOM     68  C   UNL A   1      40.963  27.654  28.009  1.00  0.00     0.057 A 
ATOM     69  C   UNL A   1      41.745  28.109  26.942  1.00  0.00     0.134 A 
ATOM     70  C   UNL A   1      40.325  26.417  27.859  1.00  0.00     0.134 A 
ATOM     71  F   UNL A   1      42.366  29.296  27.018  1.00  0.00    -0.206 F 
ATOM     72  C   UNL A   1      41.870  27.376  25.761  1.00  0.00     0.040 A 
ATOM     73  C   UNL A   1      40.463  25.660  26.694  1.00  0.00     0.040 A 
ATOM     74  F   UNL A   1      39.567  25.921  28.848  1.00  0.00    -0.206 F 
ATOM     75  C   UNL A   1      41.232  26.144  25.637  1.00  0.00     0.006 A 
ENDBRANCH  47  68
BRANCH  59  76
ATOM     76  C   UNL A   1      44.237  27.621  34.145  1.00  0.00     0.057 A 
ATOM     77  C   UNL A   1      45.582  28.007  34.072  1.00  0.00     0.134 A 
ATOM     78  C   UNL A   1      43.949  26.399  34.766  1.00  0.00     0.134 A 
ATOM     79  F   UNL A   1      45.928  29.160  33.478  1.00  0.00    -0.206 F 
ATOM     80  C   UNL A   1      46.603  27.192  34.565  1.00  0.00     0.040 A 
ATOM     81  C   UNL A   1      44.958  25.589  35.289  1.00  0.00     0.040 A 
ATOM     82  F   UNL A   1      42.682  25.975  34.879  1.00  0.00    -0.206 F 
ATOM     83  C   UNL A   1      46.290  25.981  35.180  1.00  0.00     0.006 A 
ENDBRANCH  59  76
ENDBRANCH  33  34
ENDBRANCH  25  28
ENDBRANCH  23  24
ENDBRANCH  22  23
ENDBRANCH   1  22
TORSDOF 14
ENDMDL
MODEL 3
REMARK VINA RESULT:     -10.1      4.861     10.212
REMARK SMILES Cn1c(SCC(=O)NCCCCNC(=O)c2ccc(-c3c4nc(c(-c5c(F)cccc5F)c5ccc([nH]5)c(-c5c(F)cccc5F)c5nc(c(-c6c(F)cccc6F)c6ccc3[nH]6)C=C5)C=C4)cc2)nnc1-c1ccccc1Br
REMARK SMILES IDX 10 1 9 2 8 3 6 4 7 5 5 7 4 8 3 9 1 10 2 11 72 12 70 13 71 14
REMARK SMILES IDX 73 15 74 16 78 17 75 18 77 19 79 20 76 21 11 22 12 23 13 24
REMARK SMILES IDX 14 25 15 27 16 28 17 29 69 30 18 31 68 32 19 33 20 34 21 35
REMARK SMILES IDX 62 36 22 37 67 38 61 39 63 40 23 41 66 42 60 43 59 44 24 46
REMARK SMILES IDX 50 47 33 48 49 49 34 50 37 51 48 52 64 53 35 54 36 55 47 57
REMARK SMILES IDX 65 58 38 59 25 60 26 61 31 62 27 63 28 64 30 65 32 66 29 67
REMARK SMILES IDX 51 68 52 69 57 70 53 71 54 72 56 73 58 74 55 75 39 76 40 77
REMARK SMILES IDX 45 78 41 79 42 80 44 81 46 82 43 83
REMARK H PARENT 8 6 13 26 63 45 37 56
REMARK Flexibility Score: inf
ROOT
ATOM      1  C   UNL A   1      36.723  19.206  24.989  1.00  0.00     0.023 C 
ENDROOT
BRANCH   1   2
ATOM      2  C   UNL A   1      35.501  20.120  25.004  1.00  0.00     0.116 C 
BRANCH   2   3
ATOM      3  N   UNL A   1      34.266  19.366  25.098  1.00  0.00    -0.355 N 
ATOM      4  C   UNL A   1      32.980  19.799  25.067  1.00  0.00     0.230 C 
ATOM      5  O   UNL A   1      32.092  18.942  25.102  1.00  0.00    -0.274 OA
ATOM      6  H   UNL A   1      34.379  18.394  25.199  1.00  0.00     0.163 HD
BRANCH   4   7
ATOM      7  C   UNL A   1      32.629  21.256  24.885  1.00  0.00     0.178 C 
BRANCH   7   8
ATOM      8  S   UNL A   1      32.628  22.285  26.346  1.00  0.00    -0.076 SA
BRANCH   8   9
ATOM      9  C   UNL A   1      31.739  23.745  26.118  1.00  0.00     0.191 A 
ATOM     10  C   UNL A   1      32.798  24.879  24.097  1.00  0.00     0.154 C 
ATOM     11  N   UNL A   1      31.888  24.752  25.203  1.00  0.00    -0.305 N 
ATOM     12  C   UNL A   1      30.978  25.732  25.570  1.00  0.00     0.165 A 
ATOM     13  N   UNL A   1      30.825  24.103  26.997  1.00  0.00    -0.123 NA
ATOM     14  N   UNL A   1      30.360  25.346  26.665  1.00  0.00    -0.129 NA
BRANCH  12  15
ATOM     15  C   UNL A   1      30.794  27.014  24.895  1.00  0.00     0.034 A 
ATOM     16  C   UNL A   1      29.847  27.089  23.860  1.00  0.00     0.013 A 
ATOM     17  C   UNL A   1      31.503  28.172  25.250  1.00  0.00     0.029 A 
ATOM     18  C   UNL A   1      29.579  28.303  23.225  1.00  0.00     0.001 A 
ATOM     19  C   UNL A   1      31.229  29.387  24.614  1.00  0.00     0.016 A 
ATOM     20  Br  UNL A   1      32.866  28.164  26.575  1.00  0.00    -0.050 Br
ATOM     21  C   UNL A   1      30.263  29.454  23.610  1.00  0.00     0.001 A 
ENDBRANCH  12  15
ENDBRANCH   8   9
ENDBRANCH   7   8
ENDBRANCH   4   7
ENDBRANCH   2   3
ENDBRANCH   1   2
BRANCH   1  22
ATOM     22  C   UNL A   1      38.051  19.900  24.665  1.00  0.00     0.023 C 
BRANCH  22  23
ATOM     23  C   UNL A   1      39.013  20.082  25.836  1.00  0.00     0.116 C 
BRANCH  23  24
ATOM     24  N   UNL A   1      40.207  19.261  25.730  1.00  0.00    -0.352 N 
ATOM     25  C   UNL A   1      41.513  19.567  26.011  1.00  0.00     0.251 C 
ATOM     26  H   UNL A   1      40.054  18.343  25.407  1.00  0.00     0.163 HD
ATOM     27  O   UNL A   1      42.396  18.748  25.747  1.00  0.00    -0.269 OA
BRANCH  25  28
ATOM     28  C   UNL A   1      41.884  20.874  26.596  1.00  0.00     0.039 A 
ATOM     29  C   UNL A   1      42.280  21.899  25.731  1.00  0.00     0.014 A 
ATOM     30  C   UNL A   1      41.873  21.095  27.976  1.00  0.00     0.014 A 
ATOM     31  C   UNL A   1      42.613  23.155  26.244  1.00  0.00     0.010 A 
ATOM     32  C   UNL A   1      42.136  22.369  28.482  1.00  0.00     0.010 A 
ATOM     33  C   UNL A   1      42.513  23.412  27.621  1.00  0.00    -0.014 A 
BRANCH  33  34
ATOM     34  C   UNL A   1      42.794  24.768  28.159  1.00  0.00     0.031 A 
ATOM     35  C   UNL A   1      44.195  25.174  28.528  1.00  0.00     0.074 A 
ATOM     36  C   UNL A   1      41.777  25.631  28.344  1.00  0.00     0.049 A 
ATOM     37  N   UNL A   1      44.627  26.318  28.999  1.00  0.00    -0.248 NA
ATOM     38  C   UNL A   1      45.246  24.158  28.368  1.00  0.00     0.031 C 
ATOM     39  C   UNL A   1      40.365  25.343  28.079  1.00  0.00     0.029 A 
ATOM     40  N   UNL A   1      41.771  26.927  28.796  1.00  0.00    -0.354 N 
ATOM     41  C   UNL A   1      45.993  26.155  29.197  1.00  0.00     0.074 A 
ATOM     42  C   UNL A   1      46.308  24.787  28.849  1.00  0.00     0.031 C 
ATOM     43  C   UNL A   1      39.636  26.439  28.339  1.00  0.00     0.029 A 
ATOM     44  C   UNL A   1      40.520  27.497  28.819  1.00  0.00     0.049 A 
ATOM     45  H   UNL A   1      42.584  27.403  29.078  1.00  0.00     0.167 HD
ATOM     46  C   UNL A   1      46.907  27.070  29.605  1.00  0.00     0.037 A 
ATOM     47  C   UNL A   1      40.130  28.734  29.180  1.00  0.00     0.037 A 
ATOM     48  C   UNL A   1      46.595  28.437  29.936  1.00  0.00     0.049 A 
ATOM     49  C   UNL A   1      41.164  29.730  29.626  1.00  0.00     0.074 A 
ATOM     50  C   UNL A   1      47.458  29.452  30.309  1.00  0.00     0.029 A 
ATOM     51  N   UNL A   1      45.319  28.978  29.938  1.00  0.00    -0.354 N 
ATOM     52  N   UNL A   1      42.461  29.584  29.736  1.00  0.00    -0.248 NA
ATOM     53  C   UNL A   1      40.677  31.069  29.986  1.00  0.00     0.031 C 
ATOM     54  C   UNL A   1      46.699  30.596  30.580  1.00  0.00     0.029 A 
ATOM     55  C   UNL A   1      45.369  30.308  30.324  1.00  0.00     0.049 A 
ATOM     56  H   UNL A   1      44.498  28.490  29.700  1.00  0.00     0.167 HD
ATOM     57  C   UNL A   1      42.950  30.817  30.150  1.00  0.00     0.074 A 
ATOM     58  C   UNL A   1      41.809  31.704  30.252  1.00  0.00     0.031 C 
ATOM     59  C   UNL A   1      44.227  31.182  30.421  1.00  0.00     0.037 A 
BRANCH  46  60
ATOM     60  C   UNL A   1      48.336  26.619  29.711  1.00  0.00     0.057 A 
ATOM     61  C   UNL A   1      48.821  25.961  30.849  1.00  0.00     0.134 A 
ATOM     62  C   UNL A   1      49.230  26.811  28.649  1.00  0.00     0.134 A 
ATOM     63  F   UNL A   1      48.020  25.753  31.906  1.00  0.00    -0.206 F 
ATOM     64  C   UNL A   1      50.148  25.537  30.941  1.00  0.00     0.040 A 
ATOM     65  C   UNL A   1      50.551  26.366  28.717  1.00  0.00     0.040 A 
ATOM     66  F   UNL A   1      48.832  27.427  27.526  1.00  0.00    -0.206 F 
ATOM     67  C   UNL A   1      51.015  25.733  29.869  1.00  0.00     0.006 A 
ENDBRANCH  46  60
BRANCH  47  68
ATOM     68  C   UNL A   1      38.697  29.114  29.102  1.00  0.00     0.057 A 
ATOM     69  C   UNL A   1      38.134  29.568  27.904  1.00  0.00     0.134 A 
ATOM     70  C   UNL A   1      37.860  29.043  30.222  1.00  0.00     0.134 A 
ATOM     71  F   UNL A   1      38.890  29.677  26.802  1.00  0.00    -0.206 F 
ATOM     72  C   UNL A   1      36.797  29.961  27.826  1.00  0.00     0.040 A 
ATOM     73  C   UNL A   1      36.513  29.406  30.152  1.00  0.00     0.040 A 
ATOM     74  F   UNL A   1      38.336  28.608  31.397  1.00  0.00    -0.206 F 
ATOM     75  C   UNL A   1      35.981  29.874  28.952  1.00  0.00     0.006 A 
ENDBRANCH  47  68
BRANCH  59  76
ATOM     76  C   UNL A   1      44.458  32.610  30.823  1.00  0.00     0.057 A 
ATOM     77  C   UNL A   1      44.693  33.618  29.878  1.00  0.00     0.134 A 
ATOM     78  C   UNL A   1      44.434  32.984  32.172  1.00  0.00     0.134 A 
ATOM     79  F   UNL A   1      44.742  33.326  28.569  1.00  0.00    -0.206 F 
ATOM     80  C   UNL A   1      44.931  34.938  30.264  1.00  0.00     0.040 A 
ATOM     81  C   UNL A   1      44.640  34.306  32.568  1.00  0.00     0.040 A 
ATOM     82  F   UNL A   1      44.204  32.071  33.128  1.00  0.00    -0.206 F 
ATOM     83  C   UNL A   1      44.900  35.286  31.613  1.00  0.00     0.006 A 
ENDBRANCH  59  76
ENDBRANCH  33  34
ENDBRANCH  25  28
ENDBRANCH  23  24
ENDBRANCH  22  23
ENDBRANCH   1  22
TORSDOF 14
ENDMDL
