MODEL 1
REMARK VINA RESULT:     -12.4      0.000      0.000
REMARK SMILES Cc1nc(S[C@@H](C(=O)NCCCCNC(=O)c2ccc(-c3c4nc(c(-c5c(F)cccc5F)c5ccc([nH]5)c(-c5c(F)cccc5F)c5nc(c(-c6c(F)cccc6F)c6ccc3[nH]6)C=C5)C=C4)cc2)c2ccccc2)nc2ccccc12
REMARK SMILES IDX 11 1 10 2 9 3 7 4 8 5 6 7 5 8 4 9 1 10 2 11 3 12 83 13 78 14
REMARK SMILES IDX 82 15 77 16 79 17 81 18 80 19 71 20 72 21 76 22 73 23 75 24
REMARK SMILES IDX 74 25 12 26 13 27 14 28 15 29 16 31 17 32 18 33 70 34 19 35
REMARK SMILES IDX 69 36 20 37 21 38 22 39 63 40 23 41 68 42 62 43 64 44 24 45
REMARK SMILES IDX 67 46 61 47 60 48 25 50 51 51 34 52 50 53 35 54 38 55 49 56
REMARK SMILES IDX 65 57 36 58 37 59 48 61 66 62 39 63 26 64 27 65 32 66 28 67
REMARK SMILES IDX 29 68 31 69 33 70 30 71 52 72 53 73 58 74 54 75 55 76 57 77
REMARK SMILES IDX 59 78 56 79 40 80 41 81 46 82 42 83 43 84 45 85 47 86 44 87
REMARK H PARENT 9 6 14 30 64 49 38 60
REMARK Flexibility Score: inf
ROOT
ATOM      1  C   UNL A   1      36.957  21.411  24.251  1.00  0.00     0.023 C 
ENDROOT
BRANCH   1   2
ATOM      2  C   UNL A   1      36.387  22.511  25.147  1.00  0.00     0.116 C 
BRANCH   2   3
ATOM      3  N   UNL A   1      35.613  21.962  26.245  1.00  0.00    -0.355 N 
ATOM      4  C   UNL A   1      34.333  21.471  26.294  1.00  0.00     0.238 C 
ATOM      5  O   UNL A   1      33.984  21.063  27.406  1.00  0.00    -0.273 OA
ATOM      6  H   UNL A   1      36.090  21.939  27.106  1.00  0.00     0.163 HD
BRANCH   4   7
ATOM      7  C   UNL A   1      33.495  21.333  25.005  1.00  0.00     0.174 C 
BRANCH   7   8
ATOM      8  S   UNL A   1      31.874  22.194  25.099  1.00  0.00    -0.068 SA
BRANCH   8   9
ATOM      9  C   UNL A   1      32.237  23.832  24.547  1.00  0.00     0.189 A 
ATOM     10  C   UNL A   1      32.707  25.576  21.395  1.00  0.00     0.067 C 
ATOM     11  C   UNL A   1      32.652  25.351  22.879  1.00  0.00     0.050 A 
ATOM     12  N   UNL A   1      32.236  24.120  23.247  1.00  0.00    -0.227 NA
ATOM     13  C   UNL A   1      33.072  26.312  23.808  1.00  0.00     0.022 A 
ATOM     14  C   UNL A   1      32.967  25.917  25.147  1.00  0.00     0.075 A 
ATOM     15  C   UNL A   1      33.579  27.600  23.499  1.00  0.00     0.012 A 
ATOM     16  N   UNL A   1      32.552  24.702  25.515  1.00  0.00    -0.222 NA
ATOM     17  C   UNL A   1      33.330  26.819  26.139  1.00  0.00     0.029 A 
ATOM     18  C   UNL A   1      33.951  28.482  24.512  1.00  0.00     0.001 A 
ATOM     19  C   UNL A   1      33.819  28.093  25.838  1.00  0.00     0.002 A 
ENDBRANCH   8   9
ENDBRANCH   7   8
BRANCH   7  20
ATOM     20  C   UNL A   1      33.375  19.955  24.352  1.00  0.00    -0.025 A 
ATOM     21  C   UNL A   1      32.388  19.623  23.412  1.00  0.00     0.005 A 
ATOM     22  C   UNL A   1      34.326  18.965  24.672  1.00  0.00     0.005 A 
ATOM     23  C   UNL A   1      32.339  18.357  22.824  1.00  0.00     0.000 A 
ATOM     24  C   UNL A   1      34.280  17.699  24.082  1.00  0.00     0.000 A 
ATOM     25  C   UNL A   1      33.285  17.394  23.159  1.00  0.00     0.000 A 
ENDBRANCH   7  20
ENDBRANCH   4   7
ENDBRANCH   2   3
ENDBRANCH   1   2
BRANCH   1  26
ATOM     26  C   UNL A   1      37.632  20.256  24.997  1.00  0.00     0.023 C 
BRANCH  26  27
ATOM     27  C   UNL A   1      38.902  20.621  25.756  1.00  0.00     0.116 C 
BRANCH  27  28
ATOM     28  N   UNL A   1      39.931  19.595  25.686  1.00  0.00    -0.352 N 
ATOM     29  C   UNL A   1      41.265  19.686  26.014  1.00  0.00     0.251 C 
ATOM     30  H   UNL A   1      39.633  18.716  25.359  1.00  0.00     0.163 HD
ATOM     31  O   UNL A   1      42.023  18.748  25.791  1.00  0.00    -0.269 OA
BRANCH  29  32
ATOM     32  C   UNL A   1      41.789  20.939  26.598  1.00  0.00     0.039 A 
ATOM     33  C   UNL A   1      41.804  21.129  27.981  1.00  0.00     0.014 A 
ATOM     34  C   UNL A   1      42.235  21.953  25.744  1.00  0.00     0.014 A 
ATOM     35  C   UNL A   1      42.100  22.385  28.499  1.00  0.00     0.010 A 
ATOM     36  C   UNL A   1      42.612  23.191  26.275  1.00  0.00     0.010 A 
ATOM     37  C   UNL A   1      42.498  23.434  27.652  1.00  0.00    -0.014 A 
BRANCH  37  38
ATOM     38  C   UNL A   1      42.777  24.770  28.239  1.00  0.00     0.031 A 
ATOM     39  C   UNL A   1      44.183  25.193  28.571  1.00  0.00     0.074 A 
ATOM     40  C   UNL A   1      41.759  25.634  28.411  1.00  0.00     0.049 A 
ATOM     41  N   UNL A   1      44.614  26.345  29.024  1.00  0.00    -0.248 NA
ATOM     42  C   UNL A   1      45.245  24.194  28.378  1.00  0.00     0.031 C 
ATOM     43  C   UNL A   1      40.351  25.343  28.135  1.00  0.00     0.029 A 
ATOM     44  N   UNL A   1      41.753  26.940  28.830  1.00  0.00    -0.354 N 
ATOM     45  C   UNL A   1      45.986  26.205  29.184  1.00  0.00     0.074 A 
ATOM     46  C   UNL A   1      46.316  24.845  28.812  1.00  0.00     0.031 C 
ATOM     47  C   UNL A   1      39.626  26.453  28.335  1.00  0.00     0.029 A 
ATOM     48  C   UNL A   1      40.507  27.516  28.803  1.00  0.00     0.049 A 
ATOM     49  H   UNL A   1      42.563  27.417  29.121  1.00  0.00     0.167 HD
ATOM     50  C   UNL A   1      46.893  27.126  29.592  1.00  0.00     0.037 A 
ATOM     51  C   UNL A   1      40.114  28.762  29.124  1.00  0.00     0.037 A 
ATOM     52  C   UNL A   1      46.571  28.486  29.945  1.00  0.00     0.049 A 
ATOM     53  C   UNL A   1      41.136  29.756  29.596  1.00  0.00     0.074 A 
ATOM     54  C   UNL A   1      47.426  29.505  30.330  1.00  0.00     0.029 A 
ATOM     55  N   UNL A   1      45.290  29.015  29.958  1.00  0.00    -0.354 N 
ATOM     56  N   UNL A   1      42.434  29.616  29.712  1.00  0.00    -0.248 NA
ATOM     57  C   UNL A   1      40.633  31.080  29.987  1.00  0.00     0.031 C 
ATOM     58  C   UNL A   1      46.656  30.639  30.617  1.00  0.00     0.029 A 
ATOM     59  C   UNL A   1      45.327  30.339  30.370  1.00  0.00     0.049 A 
ATOM     60  H   UNL A   1      44.473  28.524  29.711  1.00  0.00     0.167 HD
ATOM     61  C   UNL A   1      42.905  30.832  30.186  1.00  0.00     0.074 A 
ATOM     62  C   UNL A   1      41.756  31.707  30.306  1.00  0.00     0.031 C 
ATOM     63  C   UNL A   1      44.173  31.190  30.502  1.00  0.00     0.037 A 
BRANCH  50  64
ATOM     64  C   UNL A   1      48.325  26.686  29.694  1.00  0.00     0.057 A 
ATOM     65  C   UNL A   1      49.202  26.855  28.614  1.00  0.00     0.134 A 
ATOM     66  C   UNL A   1      48.833  26.075  30.847  1.00  0.00     0.134 A 
ATOM     67  F   UNL A   1      48.778  27.428  27.476  1.00  0.00    -0.206 F 
ATOM     68  C   UNL A   1      50.531  26.435  28.678  1.00  0.00     0.040 A 
ATOM     69  C   UNL A   1      50.168  25.671  30.932  1.00  0.00     0.040 A 
ATOM     70  F   UNL A   1      48.050  25.894  31.921  1.00  0.00    -0.206 F 
ATOM     71  C   UNL A   1      51.019  25.846  29.843  1.00  0.00     0.006 A 
ENDBRANCH  50  64
BRANCH  51  72
ATOM     72  C   UNL A   1      38.684  29.138  29.012  1.00  0.00     0.057 A 
ATOM     73  C   UNL A   1      38.139  29.569  27.796  1.00  0.00     0.134 A 
ATOM     74  C   UNL A   1      37.832  29.078  30.119  1.00  0.00     0.134 A 
ATOM     75  F   UNL A   1      38.909  29.652  26.701  1.00  0.00    -0.206 F 
ATOM     76  C   UNL A   1      36.800  29.940  27.688  1.00  0.00     0.040 A 
ATOM     77  C   UNL A   1      36.484  29.422  30.020  1.00  0.00     0.040 A 
ATOM     78  F   UNL A   1      38.294  28.654  31.304  1.00  0.00    -0.206 F 
ATOM     79  C   UNL A   1      35.966  29.861  28.802  1.00  0.00     0.006 A 
ENDBRANCH  51  72
BRANCH  63  80
ATOM     80  C   UNL A   1      44.372  32.589  31.004  1.00  0.00     0.057 A 
ATOM     81  C   UNL A   1      44.347  32.868  32.376  1.00  0.00     0.134 A 
ATOM     82  C   UNL A   1      44.592  33.659  30.127  1.00  0.00     0.134 A 
ATOM     83  F   UNL A   1      44.136  31.889  33.268  1.00  0.00    -0.206 F 
ATOM     84  C   UNL A   1      44.541  34.163  32.858  1.00  0.00     0.040 A 
ATOM     85  C   UNL A   1      44.811  34.955  30.599  1.00  0.00     0.040 A 
ATOM     86  F   UNL A   1      44.646  33.452  28.803  1.00  0.00    -0.206 F 
ATOM     87  C   UNL A   1      44.782  35.210  31.968  1.00  0.00     0.006 A 
ENDBRANCH  63  80
ENDBRANCH  37  38
ENDBRANCH  29  32
ENDBRANCH  27  28
ENDBRANCH  26  27
ENDBRANCH   1  26
TORSDOF 14
ENDMDL
MODEL 2
REMARK VINA RESULT:     -12.3      1.151      6.220
REMARK SMILES Cc1nc(S[C@@H](C(=O)NCCCCNC(=O)c2ccc(-c3c4nc(c(-c5c(F)cccc5F)c5ccc([nH]5)c(-c5c(F)cccc5F)c5nc(c(-c6c(F)cccc6F)c6ccc3[nH]6)C=C5)C=C4)cc2)c2ccccc2)nc2ccccc12
REMARK SMILES IDX 11 1 10 2 9 3 7 4 8 5 6 7 5 8 4 9 1 10 2 11 3 12 83 13 78 14
REMARK SMILES IDX 82 15 77 16 79 17 81 18 80 19 71 20 72 21 76 22 73 23 75 24
REMARK SMILES IDX 74 25 12 26 13 27 14 28 15 29 16 31 17 32 18 33 70 34 19 35
REMARK SMILES IDX 69 36 20 37 21 38 22 39 63 40 23 41 68 42 62 43 64 44 24 45
REMARK SMILES IDX 67 46 61 47 60 48 25 50 51 51 34 52 50 53 35 54 38 55 49 56
REMARK SMILES IDX 65 57 36 58 37 59 48 61 66 62 39 63 26 64 27 65 32 66 28 67
REMARK SMILES IDX 29 68 31 69 33 70 30 71 52 72 53 73 58 74 54 75 55 76 57 77
REMARK SMILES IDX 59 78 56 79 40 80 41 81 46 82 42 83 43 84 45 85 47 86 44 87
REMARK H PARENT 9 6 14 30 64 49 38 60
REMARK Flexibility Score: inf
ROOT
ATOM      1  C   UNL A   1      36.184  21.781  24.436  1.00  0.00     0.023 C 
ENDROOT
BRANCH   1   2
ATOM      2  C   UNL A   1      35.924  22.916  25.427  1.00  0.00     0.116 C 
BRANCH   2   3
ATOM      3  N   UNL A   1      35.226  22.449  26.609  1.00  0.00    -0.355 N 
ATOM      4  C   UNL A   1      33.888  22.382  26.903  1.00  0.00     0.238 C 
ATOM      5  O   UNL A   1      33.631  21.911  28.015  1.00  0.00    -0.273 OA
ATOM      6  H   UNL A   1      35.816  22.124  27.327  1.00  0.00     0.163 HD
BRANCH   4   7
ATOM      7  C   UNL A   1      32.831  22.747  25.839  1.00  0.00     0.174 C 
BRANCH   7   8
ATOM      8  S   UNL A   1      31.263  23.377  26.561  1.00  0.00    -0.068 SA
BRANCH   8   9
ATOM      9  C   UNL A   1      31.181  25.048  25.991  1.00  0.00     0.189 A 
ATOM     10  C   UNL A   1      30.855  26.808  22.831  1.00  0.00     0.067 C 
ATOM     11  C   UNL A   1      31.037  26.597  24.306  1.00  0.00     0.050 A 
ATOM     12  N   UNL A   1      30.954  25.309  24.706  1.00  0.00    -0.227 NA
ATOM     13  C   UNL A   1      31.346  27.641  25.189  1.00  0.00     0.022 A 
ATOM     14  C   UNL A   1      31.500  27.250  26.525  1.00  0.00     0.075 A 
ATOM     15  C   UNL A   1      31.512  29.004  24.837  1.00  0.00     0.012 A 
ATOM     16  N   UNL A   1      31.414  25.979  26.925  1.00  0.00    -0.222 NA
ATOM     17  C   UNL A   1      31.775  28.224  27.477  1.00  0.00     0.029 A 
ATOM     18  C   UNL A   1      31.802  29.961  25.809  1.00  0.00     0.001 A 
ATOM     19  C   UNL A   1      31.926  29.570  27.135  1.00  0.00     0.002 A 
ENDBRANCH   8   9
ENDBRANCH   7   8
BRANCH   7  20
ATOM     20  C   UNL A   1      32.580  21.769  24.689  1.00  0.00    -0.025 A 
ATOM     21  C   UNL A   1      32.239  22.169  23.389  1.00  0.00     0.005 A 
ATOM     22  C   UNL A   1      32.735  20.388  24.923  1.00  0.00     0.005 A 
ATOM     23  C   UNL A   1      32.048  21.236  22.366  1.00  0.00     0.000 A 
ATOM     24  C   UNL A   1      32.547  19.454  23.901  1.00  0.00     0.000 A 
ATOM     25  C   UNL A   1      32.202  19.878  22.622  1.00  0.00     0.000 A 
ENDBRANCH   7  20
ENDBRANCH   4   7
ENDBRANCH   2   3
ENDBRANCH   1   2
BRANCH   1  26
ATOM     26  C   UNL A   1      37.006  20.614  24.994  1.00  0.00     0.023 C 
BRANCH  26  27
ATOM     27  C   UNL A   1      38.388  20.980  25.519  1.00  0.00     0.116 C 
BRANCH  27  28
ATOM     28  N   UNL A   1      39.305  19.852  25.566  1.00  0.00    -0.352 N 
ATOM     29  C   UNL A   1      40.615  19.821  25.987  1.00  0.00     0.251 C 
ATOM     30  H   UNL A   1      38.939  18.994  25.253  1.00  0.00     0.163 HD
ATOM     31  O   UNL A   1      41.284  18.801  25.858  1.00  0.00    -0.269 OA
BRANCH  29  32
ATOM     32  C   UNL A   1      41.227  21.040  26.558  1.00  0.00     0.039 A 
ATOM     33  C   UNL A   1      41.145  21.306  27.926  1.00  0.00     0.014 A 
ATOM     34  C   UNL A   1      41.859  21.949  25.703  1.00  0.00     0.014 A 
ATOM     35  C   UNL A   1      41.537  22.548  28.410  1.00  0.00     0.010 A 
ATOM     36  C   UNL A   1      42.329  23.165  26.208  1.00  0.00     0.010 A 
ATOM     37  C   UNL A   1      42.124  23.497  27.555  1.00  0.00    -0.014 A 
BRANCH  37  38
ATOM     38  C   UNL A   1      42.504  24.826  28.103  1.00  0.00     0.031 A 
ATOM     39  C   UNL A   1      41.467  25.891  28.343  1.00  0.00     0.074 A 
ATOM     40  C   UNL A   1      43.785  25.048  28.449  1.00  0.00     0.049 A 
ATOM     41  N   UNL A   1      41.612  27.079  28.877  1.00  0.00    -0.248 NA
ATOM     42  C   UNL A   1      40.090  25.591  27.923  1.00  0.00     0.031 C 
ATOM     43  C   UNL A   1      44.885  24.100  28.261  1.00  0.00     0.029 A 
ATOM     44  N   UNL A   1      44.375  26.126  29.058  1.00  0.00    -0.354 N 
ATOM     45  C   UNL A   1      40.356  27.670  28.844  1.00  0.00     0.074 A 
ATOM     46  C   UNL A   1      39.464  26.724  28.206  1.00  0.00     0.031 C 
ATOM     47  C   UNL A   1      46.002  24.613  28.795  1.00  0.00     0.029 A 
ATOM     48  C   UNL A   1      45.711  25.944  29.316  1.00  0.00     0.049 A 
ATOM     49  H   UNL A   1      43.888  26.950  29.287  1.00  0.00     0.167 HD
ATOM     50  C   UNL A   1      39.975  28.884  29.311  1.00  0.00     0.037 A 
ATOM     51  C   UNL A   1      46.607  26.760  29.902  1.00  0.00     0.037 A 
ATOM     52  C   UNL A   1      40.856  29.819  29.963  1.00  0.00     0.049 A 
ATOM     53  C   UNL A   1      46.163  28.108  30.389  1.00  0.00     0.074 A 
ATOM     54  C   UNL A   1      40.555  31.057  30.507  1.00  0.00     0.029 A 
ATOM     55  N   UNL A   1      42.214  29.621  30.155  1.00  0.00    -0.354 N 
ATOM     56  N   UNL A   1      44.965  28.639  30.377  1.00  0.00    -0.248 NA
ATOM     57  C   UNL A   1      47.201  28.972  30.966  1.00  0.00     0.031 C 
ATOM     58  C   UNL A   1      41.739  31.624  30.992  1.00  0.00     0.029 A 
ATOM     59  C   UNL A   1      42.771  30.723  30.787  1.00  0.00     0.049 A 
ATOM     60  H   UNL A   1      42.712  28.816  29.883  1.00  0.00     0.167 HD
ATOM     61  C   UNL A   1      45.103  29.897  30.945  1.00  0.00     0.074 A 
ATOM     62  C   UNL A   1      46.496  30.037  31.320  1.00  0.00     0.031 C 
ATOM     63  C   UNL A   1      44.162  30.855  31.135  1.00  0.00     0.037 A 
BRANCH  50  64
ATOM     64  C   UNL A   1      38.538  29.277  29.119  1.00  0.00     0.057 A 
ATOM     65  C   UNL A   1      38.077  29.706  27.867  1.00  0.00     0.134 A 
ATOM     66  C   UNL A   1      37.616  29.257  30.173  1.00  0.00     0.134 A 
ATOM     67  F   UNL A   1      38.910  29.756  26.815  1.00  0.00    -0.206 F 
ATOM     68  C   UNL A   1      36.752  30.095  27.670  1.00  0.00     0.040 A 
ATOM     69  C   UNL A   1      36.281  29.622  29.983  1.00  0.00     0.040 A 
ATOM     70  F   UNL A   1      37.990  28.846  31.394  1.00  0.00    -0.206 F 
ATOM     71  C   UNL A   1      35.848  30.048  28.730  1.00  0.00     0.006 A 
ENDBRANCH  50  64
BRANCH  51  72
ATOM     72  C   UNL A   1      48.014  26.320  30.057  1.00  0.00     0.057 A 
ATOM     73  C   UNL A   1      48.947  26.493  29.026  1.00  0.00     0.134 A 
ATOM     74  C   UNL A   1      48.458  25.715  31.237  1.00  0.00     0.134 A 
ATOM     75  F   UNL A   1      48.579  27.062  27.869  1.00  0.00    -0.206 F 
ATOM     76  C   UNL A   1      50.268  26.065  29.159  1.00  0.00     0.040 A 
ATOM     77  C   UNL A   1      49.782  25.306  31.393  1.00  0.00     0.040 A 
ATOM     78  F   UNL A   1      47.614  25.543  32.265  1.00  0.00    -0.206 F 
ATOM     79  C   UNL A   1      50.690  25.475  30.349  1.00  0.00     0.006 A 
ENDBRANCH  51  72
BRANCH  63  80
ATOM     80  C   UNL A   1      44.620  32.131  31.775  1.00  0.00     0.057 A 
ATOM     81  C   UNL A   1      45.063  33.206  30.994  1.00  0.00     0.134 A 
ATOM     82  C   UNL A   1      44.619  32.295  33.166  1.00  0.00     0.134 A 
ATOM     83  F   UNL A   1      45.093  33.111  29.657  1.00  0.00    -0.206 F 
ATOM     84  C   UNL A   1      45.482  34.403  31.576  1.00  0.00     0.040 A 
ATOM     85  C   UNL A   1      45.014  33.496  33.758  1.00  0.00     0.040 A 
ATOM     86  F   UNL A   1      44.189  31.308  33.967  1.00  0.00    -0.206 F 
ATOM     87  C   UNL A   1      45.450  34.553  32.962  1.00  0.00     0.006 A 
ENDBRANCH  63  80
ENDBRANCH  37  38
ENDBRANCH  29  32
ENDBRANCH  27  28
ENDBRANCH  26  27
ENDBRANCH   1  26
TORSDOF 14
ENDMDL
MODEL 3
REMARK VINA RESULT:     -12.2      1.009      1.984
REMARK SMILES Cc1nc(S[C@@H](C(=O)NCCCCNC(=O)c2ccc(-c3c4nc(c(-c5c(F)cccc5F)c5ccc([nH]5)c(-c5c(F)cccc5F)c5nc(c(-c6c(F)cccc6F)c6ccc3[nH]6)C=C5)C=C4)cc2)c2ccccc2)nc2ccccc12
REMARK SMILES IDX 11 1 10 2 9 3 7 4 8 5 6 7 5 8 4 9 1 10 2 11 3 12 83 13 78 14
REMARK SMILES IDX 82 15 77 16 79 17 81 18 80 19 71 20 72 21 76 22 73 23 75 24
REMARK SMILES IDX 74 25 12 26 13 27 14 28 15 29 16 31 17 32 18 33 70 34 19 35
REMARK SMILES IDX 69 36 20 37 21 38 22 39 63 40 23 41 68 42 62 43 64 44 24 45
REMARK SMILES IDX 67 46 61 47 60 48 25 50 51 51 34 52 50 53 35 54 38 55 49 56
REMARK SMILES IDX 65 57 36 58 37 59 48 61 66 62 39 63 26 64 27 65 32 66 28 67
REMARK SMILES IDX 29 68 31 69 33 70 30 71 52 72 53 73 58 74 54 75 55 76 57 77
REMARK SMILES IDX 59 78 56 79 40 80 41 81 46 82 42 83 43 84 45 85 47 86 44 87
REMARK H PARENT 9 6 14 30 64 49 38 60
REMARK Flexibility Score: inf
ROOT
ATOM      1  C   UNL A   1      36.385  21.616  24.397  1.00  0.00     0.023 C 
ENDROOT
BRANCH   1   2
ATOM      2  C   UNL A   1      36.070  22.722  25.404  1.00  0.00     0.116 C 
BRANCH   2   3
ATOM      3  N   UNL A   1      35.381  22.205  26.572  1.00  0.00    -0.355 N 
ATOM      4  C   UNL A   1      34.045  22.103  26.865  1.00  0.00     0.238 C 
ATOM      5  O   UNL A   1      33.799  21.594  27.962  1.00  0.00    -0.273 OA
ATOM      6  H   UNL A   1      35.978  21.869  27.279  1.00  0.00     0.163 HD
BRANCH   4   7
ATOM      7  C   UNL A   1      32.980  22.481  25.813  1.00  0.00     0.174 C 
BRANCH   7   8
ATOM      8  S   UNL A   1      31.419  23.106  26.553  1.00  0.00    -0.068 SA
BRANCH   8   9
ATOM      9  C   UNL A   1      31.352  24.792  26.028  1.00  0.00     0.189 A 
ATOM     10  C   UNL A   1      29.344  26.847  23.805  1.00  0.00     0.067 C 
ATOM     11  C   UNL A   1      30.442  26.471  24.758  1.00  0.00     0.050 A 
ATOM     12  N   UNL A   1      30.366  25.210  25.236  1.00  0.00    -0.227 NA
ATOM     13  C   UNL A   1      31.503  27.332  25.068  1.00  0.00     0.022 A 
ATOM     14  C   UNL A   1      32.444  26.802  25.960  1.00  0.00     0.075 A 
ATOM     15  C   UNL A   1      31.686  28.643  24.560  1.00  0.00     0.012 A 
ATOM     16  N   UNL A   1      32.371  25.557  26.439  1.00  0.00    -0.222 NA
ATOM     17  C   UNL A   1      33.515  27.597  26.351  1.00  0.00     0.029 A 
ATOM     18  C   UNL A   1      32.776  29.415  24.956  1.00  0.00     0.001 A 
ATOM     19  C   UNL A   1      33.690  28.893  25.861  1.00  0.00     0.002 A 
ENDBRANCH   8   9
ENDBRANCH   7   8
BRANCH   7  20
ATOM     20  C   UNL A   1      32.719  21.515  24.655  1.00  0.00    -0.025 A 
ATOM     21  C   UNL A   1      32.789  20.120  24.775  1.00  0.00     0.005 A 
ATOM     22  C   UNL A   1      32.345  22.040  23.402  1.00  0.00     0.005 A 
ATOM     23  C   UNL A   1      32.513  19.280  23.693  1.00  0.00     0.000 A 
ATOM     24  C   UNL A   1      32.066  21.203  22.319  1.00  0.00     0.000 A 
ATOM     25  C   UNL A   1      32.152  19.822  22.464  1.00  0.00     0.000 A 
ENDBRANCH   7  20
ENDBRANCH   4   7
ENDBRANCH   2   3
ENDBRANCH   1   2
BRANCH   1  26
ATOM     26  C   UNL A   1      37.191  20.441  24.960  1.00  0.00     0.023 C 
BRANCH  26  27
ATOM     27  C   UNL A   1      38.521  20.809  25.605  1.00  0.00     0.116 C 
BRANCH  27  28
ATOM     28  N   UNL A   1      39.500  19.734  25.562  1.00  0.00    -0.352 N 
ATOM     29  C   UNL A   1      40.823  19.755  25.943  1.00  0.00     0.251 C 
ATOM     30  H   UNL A   1      39.172  18.874  25.214  1.00  0.00     0.163 HD
ATOM     31  O   UNL A   1      41.542  18.784  25.738  1.00  0.00    -0.269 OA
BRANCH  29  32
ATOM     32  C   UNL A   1      41.384  20.975  26.561  1.00  0.00     0.039 A 
ATOM     33  C   UNL A   1      41.335  21.161  27.944  1.00  0.00     0.014 A 
ATOM     34  C   UNL A   1      41.934  21.964  25.739  1.00  0.00     0.014 A 
ATOM     35  C   UNL A   1      41.673  22.397  28.484  1.00  0.00     0.010 A 
ATOM     36  C   UNL A   1      42.352  23.177  26.296  1.00  0.00     0.010 A 
ATOM     37  C   UNL A   1      42.176  23.423  27.666  1.00  0.00    -0.014 A 
BRANCH  37  38
ATOM     38  C   UNL A   1      42.498  24.740  28.274  1.00  0.00     0.031 A 
ATOM     39  C   UNL A   1      43.915  25.104  28.631  1.00  0.00     0.074 A 
ATOM     40  C   UNL A   1      41.512  25.641  28.444  1.00  0.00     0.049 A 
ATOM     41  N   UNL A   1      44.383  26.232  29.105  1.00  0.00    -0.248 NA
ATOM     42  C   UNL A   1      44.940  24.066  28.440  1.00  0.00     0.031 C 
ATOM     43  C   UNL A   1      40.098  25.408  28.144  1.00  0.00     0.029 A 
ATOM     44  N   UNL A   1      41.551  26.940  28.879  1.00  0.00    -0.354 N 
ATOM     45  C   UNL A   1      45.747  26.037  29.282  1.00  0.00     0.074 A 
ATOM     46  C   UNL A   1      46.029  24.670  28.896  1.00  0.00     0.031 C 
ATOM     47  C   UNL A   1      39.414  26.543  28.349  1.00  0.00     0.029 A 
ATOM     48  C   UNL A   1      40.329  27.565  28.843  1.00  0.00     0.049 A 
ATOM     49  H   UNL A   1      42.375  27.382  29.188  1.00  0.00     0.167 HD
ATOM     50  C   UNL A   1      46.683  26.917  29.715  1.00  0.00     0.037 A 
ATOM     51  C   UNL A   1      39.980  28.821  29.175  1.00  0.00     0.037 A 
ATOM     52  C   UNL A   1      46.408  28.283  30.081  1.00  0.00     0.049 A 
ATOM     53  C   UNL A   1      41.032  29.769  29.674  1.00  0.00     0.074 A 
ATOM     54  C   UNL A   1      47.297  29.263  30.492  1.00  0.00     0.029 A 
ATOM     55  N   UNL A   1      45.149  28.862  30.084  1.00  0.00    -0.354 N 
ATOM     56  N   UNL A   1      42.322  29.576  29.807  1.00  0.00    -0.248 NA
ATOM     57  C   UNL A   1      40.576  31.105  30.075  1.00  0.00     0.031 C 
ATOM     58  C   UNL A   1      46.568  30.422  30.783  1.00  0.00     0.029 A 
ATOM     59  C   UNL A   1      45.232  30.177  30.513  1.00  0.00     0.049 A 
ATOM     60  H   UNL A   1      44.317  28.405  29.819  1.00  0.00     0.167 HD
ATOM     61  C   UNL A   1      42.833  30.766  30.303  1.00  0.00     0.074 A 
ATOM     62  C   UNL A   1      41.718  31.685  30.418  1.00  0.00     0.031 C 
ATOM     63  C   UNL A   1      44.110  31.071  30.641  1.00  0.00     0.037 A 
BRANCH  50  64
ATOM     64  C   UNL A   1      48.095  26.420  29.830  1.00  0.00     0.057 A 
ATOM     65  C   UNL A   1      48.547  25.823  31.015  1.00  0.00     0.134 A 
ATOM     66  C   UNL A   1      49.016  26.552  28.783  1.00  0.00     0.134 A 
ATOM     67  F   UNL A   1      47.719  25.672  32.060  1.00  0.00    -0.206 F 
ATOM     68  C   UNL A   1      49.861  25.373  31.152  1.00  0.00     0.040 A 
ATOM     69  C   UNL A   1      50.327  26.084  28.899  1.00  0.00     0.040 A 
ATOM     70  F   UNL A   1      48.645  27.103  27.617  1.00  0.00    -0.206 F 
ATOM     71  C   UNL A   1      50.754  25.497  30.089  1.00  0.00     0.006 A 
ENDBRANCH  50  64
BRANCH  51  72
ATOM     72  C   UNL A   1      38.568  29.253  29.049  1.00  0.00     0.057 A 
ATOM     73  C   UNL A   1      37.702  29.240  30.150  1.00  0.00     0.134 A 
ATOM     74  C   UNL A   1      38.050  29.685  27.823  1.00  0.00     0.134 A 
ATOM     75  F   UNL A   1      38.139  28.832  31.350  1.00  0.00    -0.206 F 
ATOM     76  C   UNL A   1      36.367  29.628  30.033  1.00  0.00     0.040 A 
ATOM     77  C   UNL A   1      36.724  30.099  27.697  1.00  0.00     0.040 A 
ATOM     78  F   UNL A   1      38.838  29.737  26.739  1.00  0.00    -0.206 F 
ATOM     79  C   UNL A   1      35.877  30.065  28.804  1.00  0.00     0.006 A 
ENDBRANCH  51  72
BRANCH  63  80
ATOM     80  C   UNL A   1      44.355  32.455  31.165  1.00  0.00     0.057 A 
ATOM     81  C   UNL A   1      44.632  33.514  30.292  1.00  0.00     0.134 A 
ATOM     82  C   UNL A   1      44.313  32.737  32.536  1.00  0.00     0.134 A 
ATOM     83  F   UNL A   1      44.691  33.309  28.968  1.00  0.00    -0.206 F 
ATOM     84  C   UNL A   1      44.851  34.808  30.765  1.00  0.00     0.040 A 
ATOM     85  C   UNL A   1      44.507  34.033  33.020  1.00  0.00     0.040 A 
ATOM     86  F   UNL A   1      44.035  31.769  33.422  1.00  0.00    -0.206 F 
ATOM     87  C   UNL A   1      44.781  35.071  32.133  1.00  0.00     0.006 A 
ENDBRANCH  63  80
ENDBRANCH  37  38
ENDBRANCH  29  32
ENDBRANCH  27  28
ENDBRANCH  26  27
ENDBRANCH   1  26
TORSDOF 14
ENDMDL
