MODEL 1
REMARK VINA RESULT:     -11.0      0.000      0.000
REMARK SMILES O=C(CC[C@H]1CCCC[N@H+]1C[C@@H]1COc2ccccc21)NCCCCNC(=O)c1ccc(-c2c3nc(c(-c4c(F)cccc4F)c4ccc([nH]4)c(-c4c(F)cccc4F)c4nc(c(-c5c(F)cccc5F)c5ccc2[nH]5)C=C4)C=C3)cc1
REMARK SMILES IDX 22 1 21 2 1 3 2 4 3 6 4 7 5 8 6 9 10 10 7 11 9 12 8 14 11 15
REMARK SMILES IDX 12 16 13 17 20 18 14 19 15 20 19 21 16 22 18 23 17 24 23 25
REMARK SMILES IDX 24 26 25 27 26 28 27 29 28 31 29 32 30 33 82 34 31 35 81 36
REMARK SMILES IDX 32 37 33 38 34 39 75 40 35 41 80 42 74 43 76 44 36 45 79 46
REMARK SMILES IDX 73 47 72 48 37 50 63 51 46 52 62 53 47 54 50 55 61 56 77 57
REMARK SMILES IDX 48 58 49 59 60 61 78 62 51 63 38 64 39 65 44 66 40 67 41 68
REMARK SMILES IDX 43 69 45 70 42 71 64 72 65 73 70 74 66 75 67 76 69 77 71 78
REMARK SMILES IDX 68 79 52 80 53 81 58 82 54 83 55 84 57 85 59 86 56 87
REMARK H PARENT 21 5 10 13 26 30 76 49 50 60
REMARK Flexibility Score: inf
ROOT
ATOM      1  C   UNL A   1      31.075  29.294  24.287  1.00  0.00     0.116 C 
ENDROOT
BRANCH   1   2
ATOM      2  N   UNL A   1      30.736  27.886  24.328  1.00  0.00    -0.356 N 
ATOM      3  O   UNL A   1      30.712  27.568  22.045  1.00  0.00    -0.275 OA
ATOM      4  C   UNL A   1      30.609  27.115  23.177  1.00  0.00     0.220 C 
ATOM      5  H   UNL A   1      30.590  27.459  25.204  1.00  0.00     0.163 HD
BRANCH   4   6
ATOM      6  C   UNL A   1      30.273  25.666  23.466  1.00  0.00     0.106 C 
BRANCH   6   7
ATOM      7  C   UNL A   1      31.336  24.769  24.104  1.00  0.00     0.075 C 
BRANCH   7   8
ATOM      8  C   UNL A   1      31.828  25.118  25.536  1.00  0.00     0.184 C 
ATOM      9  C   UNL A   1      30.723  24.836  26.582  1.00  0.00     0.065 C 
ATOM     10  N   UNL A   1      33.070  24.502  25.950  1.00  0.00    -0.332 N 
ATOM     11  C   UNL A   1      30.416  23.359  26.678  1.00  0.00     0.012 C 
ATOM     12  C   UNL A   1      33.017  23.223  26.641  1.00  0.00     0.262 C 
ATOM     13  H   UNL A   1      32.864  25.479  26.158  1.00  0.00     0.348 HD
ATOM     14  C   UNL A   1      31.668  22.565  26.985  1.00  0.00     0.062 C 
BRANCH  10  15
ATOM     15  C   UNL A   1      34.425  24.967  25.629  1.00  0.00     0.274 C 
BRANCH  15  16
ATOM     16  C   UNL A   1      35.432  24.391  24.594  1.00  0.00     0.116 C 
ATOM     17  C   UNL A   1      34.847  23.479  23.511  1.00  0.00     0.244 C 
ATOM     18  C   UNL A   1      36.588  23.576  25.047  1.00  0.00     0.006 A 
ATOM     19  O   UNL A   1      35.602  22.246  23.435  1.00  0.00    -0.492 OA
ATOM     20  C   UNL A   1      36.597  22.373  24.365  1.00  0.00     0.123 A 
ATOM     21  C   UNL A   1      37.587  23.863  25.971  1.00  0.00     0.008 A 
ATOM     22  C   UNL A   1      37.530  21.388  24.629  1.00  0.00     0.047 A 
ATOM     23  C   UNL A   1      38.514  22.863  26.286  1.00  0.00     0.001 A 
ATOM     24  C   UNL A   1      38.480  21.628  25.624  1.00  0.00     0.004 A 
ENDBRANCH  15  16
ENDBRANCH  10  15
ENDBRANCH   7   8
ENDBRANCH   6   7
ENDBRANCH   4   6
ENDBRANCH   1   2
BRANCH   1  25
ATOM     25  C   UNL A   1      32.295  29.674  25.140  1.00  0.00     0.023 C 
BRANCH  25  26
ATOM     26  C   UNL A   1      33.235  28.555  25.617  1.00  0.00     0.023 C 
BRANCH  26  27
ATOM     27  C   UNL A   1      33.745  28.630  27.058  1.00  0.00     0.116 C 
BRANCH  27  28
ATOM     28  N   UNL A   1      33.671  29.953  27.642  1.00  0.00    -0.352 N 
ATOM     29  C   UNL A   1      34.615  30.699  28.306  1.00  0.00     0.251 C 
ATOM     30  H   UNL A   1      32.795  30.392  27.546  1.00  0.00     0.163 HD
ATOM     31  O   UNL A   1      34.300  31.804  28.734  1.00  0.00    -0.269 OA
BRANCH  29  32
ATOM     32  C   UNL A   1      35.991  30.196  28.566  1.00  0.00     0.039 A 
ATOM     33  C   UNL A   1      36.910  30.262  27.511  1.00  0.00     0.014 A 
ATOM     34  C   UNL A   1      36.379  29.600  29.771  1.00  0.00     0.014 A 
ATOM     35  C   UNL A   1      38.217  29.791  27.675  1.00  0.00     0.010 A 
ATOM     36  C   UNL A   1      37.704  29.171  29.949  1.00  0.00     0.010 A 
ATOM     37  C   UNL A   1      38.642  29.269  28.908  1.00  0.00    -0.014 A 
BRANCH  37  38
ATOM     38  C   UNL A   1      40.066  28.868  29.105  1.00  0.00     0.031 A 
ATOM     39  C   UNL A   1      41.065  29.801  29.738  1.00  0.00     0.074 A 
ATOM     40  C   UNL A   1      40.477  27.650  28.691  1.00  0.00     0.049 A 
ATOM     41  N   UNL A   1      42.341  29.614  29.970  1.00  0.00    -0.248 NA
ATOM     42  C   UNL A   1      40.567  31.119  30.154  1.00  0.00     0.031 C 
ATOM     43  C   UNL A   1      39.627  26.649  28.044  1.00  0.00     0.029 A 
ATOM     44  N   UNL A   1      41.711  27.047  28.750  1.00  0.00    -0.354 N 
ATOM     45  C   UNL A   1      42.801  30.789  30.553  1.00  0.00     0.074 A 
ATOM     46  C   UNL A   1      41.674  31.698  30.599  1.00  0.00     0.031 C 
ATOM     47  C   UNL A   1      40.357  25.554  27.786  1.00  0.00     0.029 A 
ATOM     48  C   UNL A   1      41.735  25.784  28.208  1.00  0.00     0.049 A 
ATOM     49  H   UNL A   1      42.503  27.480  29.144  1.00  0.00     0.167 HD
ATOM     50  C   UNL A   1      44.041  31.080  31.021  1.00  0.00     0.037 A 
ATOM     51  C   UNL A   1      42.750  24.911  28.056  1.00  0.00     0.037 A 
ATOM     52  C   UNL A   1      45.165  30.176  30.984  1.00  0.00     0.049 A 
ATOM     53  C   UNL A   1      44.125  25.273  28.548  1.00  0.00     0.074 A 
ATOM     54  C   UNL A   1      46.444  30.372  31.479  1.00  0.00     0.029 A 
ATOM     55  N   UNL A   1      45.150  28.913  30.412  1.00  0.00    -0.354 N 
ATOM     56  N   UNL A   1      44.525  26.364  29.151  1.00  0.00    -0.248 NA
ATOM     57  C   UNL A   1      45.188  24.279  28.339  1.00  0.00     0.031 C 
ATOM     58  C   UNL A   1      47.218  29.251  31.157  1.00  0.00     0.029 A 
ATOM     59  C   UNL A   1      46.405  28.331  30.515  1.00  0.00     0.049 A 
ATOM     60  H   UNL A   1      44.365  28.491  29.995  1.00  0.00     0.167 HD
ATOM     61  C   UNL A   1      45.875  26.175  29.423  1.00  0.00     0.074 A 
ATOM     62  C   UNL A   1      46.222  24.859  28.931  1.00  0.00     0.031 C 
ATOM     63  C   UNL A   1      46.747  27.018  30.029  1.00  0.00     0.037 A 
BRANCH  50  64
ATOM     64  C   UNL A   1      44.259  32.446  31.611  1.00  0.00     0.057 A 
ATOM     65  C   UNL A   1      44.140  32.685  32.987  1.00  0.00     0.134 A 
ATOM     66  C   UNL A   1      44.645  33.522  30.802  1.00  0.00     0.134 A 
ATOM     67  F   UNL A   1      43.771  31.700  33.819  1.00  0.00    -0.206 F 
ATOM     68  C   UNL A   1      44.369  33.951  33.531  1.00  0.00     0.040 A 
ATOM     69  C   UNL A   1      44.904  34.785  31.338  1.00  0.00     0.040 A 
ATOM     70  F   UNL A   1      44.793  33.361  29.478  1.00  0.00    -0.206 F 
ATOM     71  C   UNL A   1      44.759  35.003  32.707  1.00  0.00     0.006 A 
ENDBRANCH  50  64
BRANCH  51  72
ATOM     72  C   UNL A   1      42.507  23.593  27.412  1.00  0.00     0.057 A 
ATOM     73  C   UNL A   1      42.213  22.456  28.174  1.00  0.00     0.134 A 
ATOM     74  C   UNL A   1      42.581  23.434  26.022  1.00  0.00     0.134 A 
ATOM     75  F   UNL A   1      42.151  22.538  29.512  1.00  0.00    -0.206 F 
ATOM     76  C   UNL A   1      42.024  21.206  27.583  1.00  0.00     0.040 A 
ATOM     77  C   UNL A   1      42.365  22.196  25.415  1.00  0.00     0.040 A 
ATOM     78  F   UNL A   1      42.853  24.484  25.234  1.00  0.00    -0.206 F 
ATOM     79  C   UNL A   1      42.094  21.075  26.197  1.00  0.00     0.006 A 
ENDBRANCH  51  72
BRANCH  63  80
ATOM     80  C   UNL A   1      48.154  26.531  30.231  1.00  0.00     0.057 A 
ATOM     81  C   UNL A   1      48.537  25.809  31.369  1.00  0.00     0.134 A 
ATOM     82  C   UNL A   1      49.133  26.758  29.255  1.00  0.00     0.134 A 
ATOM     83  F   UNL A   1      47.653  25.568  32.350  1.00  0.00    -0.206 F 
ATOM     84  C   UNL A   1      49.847  25.354  31.541  1.00  0.00     0.040 A 
ATOM     85  C   UNL A   1      50.438  26.283  29.401  1.00  0.00     0.040 A 
ATOM     86  F   UNL A   1      48.835  27.435  28.135  1.00  0.00    -0.206 F 
ATOM     87  C   UNL A   1      50.800  25.585  30.551  1.00  0.00     0.006 A 
ENDBRANCH  63  80
ENDBRANCH  37  38
ENDBRANCH  29  32
ENDBRANCH  27  28
ENDBRANCH  26  27
ENDBRANCH  25  26
ENDBRANCH   1  25
TORSDOF 15
ENDMDL
MODEL 2
REMARK VINA RESULT:     -10.9      3.527      5.358
REMARK SMILES O=C(CC[C@H]1CCCC[N@H+]1C[C@@H]1COc2ccccc21)NCCCCNC(=O)c1ccc(-c2c3nc(c(-c4c(F)cccc4F)c4ccc([nH]4)c(-c4c(F)cccc4F)c4nc(c(-c5c(F)cccc5F)c5ccc2[nH]5)C=C4)C=C3)cc1
REMARK SMILES IDX 22 1 21 2 1 3 2 4 3 6 4 7 5 8 6 9 10 10 7 11 9 12 8 14 11 15
REMARK SMILES IDX 12 16 13 17 20 18 14 19 15 20 19 21 16 22 18 23 17 24 23 25
REMARK SMILES IDX 24 26 25 27 26 28 27 29 28 31 29 32 30 33 82 34 31 35 81 36
REMARK SMILES IDX 32 37 33 38 34 39 75 40 35 41 80 42 74 43 76 44 36 45 79 46
REMARK SMILES IDX 73 47 72 48 37 50 63 51 46 52 62 53 47 54 50 55 61 56 77 57
REMARK SMILES IDX 48 58 49 59 60 61 78 62 51 63 38 64 39 65 44 66 40 67 41 68
REMARK SMILES IDX 43 69 45 70 42 71 64 72 65 73 70 74 66 75 67 76 69 77 71 78
REMARK SMILES IDX 68 79 52 80 53 81 58 82 54 83 55 84 57 85 59 86 56 87
REMARK H PARENT 21 5 10 13 26 30 76 49 50 60
REMARK Flexibility Score: inf
ROOT
ATOM      1  C   UNL A   1      32.140  29.795  27.235  1.00  0.00     0.116 C 
ENDROOT
BRANCH   1   2
ATOM      2  N   UNL A   1      32.491  28.502  26.688  1.00  0.00    -0.356 N 
ATOM      3  O   UNL A   1      34.755  28.908  26.525  1.00  0.00    -0.275 OA
ATOM      4  C   UNL A   1      33.806  28.146  26.400  1.00  0.00     0.220 C 
ATOM      5  H   UNL A   1      31.774  27.849  26.514  1.00  0.00     0.163 HD
BRANCH   4   6
ATOM      6  C   UNL A   1      33.935  26.736  25.859  1.00  0.00     0.106 C 
BRANCH   6   7
ATOM      7  C   UNL A   1      32.747  25.780  25.981  1.00  0.00     0.075 C 
BRANCH   7   8
ATOM      8  C   UNL A   1      32.823  24.414  25.244  1.00  0.00     0.184 C 
ATOM      9  C   UNL A   1      33.465  23.336  26.151  1.00  0.00     0.065 C 
ATOM     10  N   UNL A   1      31.583  23.919  24.690  1.00  0.00    -0.332 N 
ATOM     11  C   UNL A   1      32.594  23.030  27.348  1.00  0.00     0.012 C 
ATOM     12  C   UNL A   1      30.750  23.052  25.509  1.00  0.00     0.262 C 
ATOM     13  H   UNL A   1      32.461  23.852  24.175  1.00  0.00     0.348 HD
ATOM     14  C   UNL A   1      31.205  22.616  26.914  1.00  0.00     0.062 C 
BRANCH  10  15
ATOM     15  C   UNL A   1      30.985  24.306  23.406  1.00  0.00     0.274 C 
BRANCH  15  16
ATOM     16  C   UNL A   1      31.596  25.173  22.270  1.00  0.00     0.116 C 
ATOM     17  C   UNL A   1      32.915  24.676  21.669  1.00  0.00     0.244 C 
ATOM     18  C   UNL A   1      31.923  26.602  22.511  1.00  0.00     0.006 A 
ATOM     19  O   UNL A   1      33.889  25.747  21.647  1.00  0.00    -0.492 OA
ATOM     20  C   UNL A   1      33.240  26.837  22.160  1.00  0.00     0.123 A 
ATOM     21  C   UNL A   1      31.129  27.643  22.979  1.00  0.00     0.008 A 
ATOM     22  C   UNL A   1      33.837  28.071  22.337  1.00  0.00     0.047 A 
ATOM     23  C   UNL A   1      31.724  28.888  23.208  1.00  0.00     0.001 A 
ATOM     24  C   UNL A   1      33.075  29.099  22.897  1.00  0.00     0.004 A 
ENDBRANCH  15  16
ENDBRANCH  10  15
ENDBRANCH   7   8
ENDBRANCH   6   7
ENDBRANCH   4   6
ENDBRANCH   1   2
BRANCH   1  25
ATOM     25  C   UNL A   1      31.372  30.704  26.263  1.00  0.00     0.023 C 
BRANCH  25  26
ATOM     26  C   UNL A   1      31.340  32.215  26.540  1.00  0.00     0.023 C 
BRANCH  26  27
ATOM     27  C   UNL A   1      32.644  32.876  26.993  1.00  0.00     0.116 C 
BRANCH  27  28
ATOM     28  N   UNL A   1      32.456  34.120  27.711  1.00  0.00    -0.352 N 
ATOM     29  C   UNL A   1      33.194  34.702  28.714  1.00  0.00     0.251 C 
ATOM     30  H   UNL A   1      31.664  34.635  27.434  1.00  0.00     0.163 HD
ATOM     31  O   UNL A   1      32.812  35.767  29.186  1.00  0.00    -0.269 OA
BRANCH  29  32
ATOM     32  C   UNL A   1      34.413  34.064  29.281  1.00  0.00     0.039 A 
ATOM     33  C   UNL A   1      34.225  33.039  30.216  1.00  0.00     0.014 A 
ATOM     34  C   UNL A   1      35.713  34.487  28.985  1.00  0.00     0.014 A 
ATOM     35  C   UNL A   1      35.323  32.404  30.807  1.00  0.00     0.010 A 
ATOM     36  C   UNL A   1      36.815  33.818  29.543  1.00  0.00     0.010 A 
ATOM     37  C   UNL A   1      36.635  32.762  30.453  1.00  0.00    -0.014 A 
BRANCH  37  38
ATOM     38  C   UNL A   1      37.797  32.009  31.008  1.00  0.00     0.031 A 
ATOM     39  C   UNL A   1      38.352  32.316  32.375  1.00  0.00     0.074 A 
ATOM     40  C   UNL A   1      38.378  31.043  30.267  1.00  0.00     0.049 A 
ATOM     41  N   UNL A   1      39.364  31.767  33.000  1.00  0.00    -0.248 NA
ATOM     42  C   UNL A   1      37.691  33.388  33.131  1.00  0.00     0.031 C 
ATOM     43  C   UNL A   1      37.962  30.649  28.920  1.00  0.00     0.029 A 
ATOM     44  N   UNL A   1      39.444  30.217  30.537  1.00  0.00    -0.354 N 
ATOM     45  C   UNL A   1      39.466  32.426  34.219  1.00  0.00     0.074 A 
ATOM     46  C   UNL A   1      38.438  33.447  34.226  1.00  0.00     0.031 C 
ATOM     47  C   UNL A   1      38.746  29.649  28.491  1.00  0.00     0.029 A 
ATOM     48  C   UNL A   1      39.748  29.354  29.512  1.00  0.00     0.049 A 
ATOM     49  H   UNL A   1      39.942  30.242  31.386  1.00  0.00     0.167 HD
ATOM     50  C   UNL A   1      40.324  32.196  35.244  1.00  0.00     0.037 A 
ATOM     51  C   UNL A   1      40.729  28.436  29.394  1.00  0.00     0.037 A 
ATOM     52  C   UNL A   1      41.345  31.176  35.247  1.00  0.00     0.049 A 
ATOM     53  C   UNL A   1      41.692  28.227  30.531  1.00  0.00     0.074 A 
ATOM     54  C   UNL A   1      42.226  30.841  36.262  1.00  0.00     0.029 A 
ATOM     55  N   UNL A   1      41.629  30.334  34.182  1.00  0.00    -0.354 N 
ATOM     56  N   UNL A   1      41.733  28.818  31.699  1.00  0.00    -0.248 NA
ATOM     57  C   UNL A   1      42.743  27.218  30.331  1.00  0.00     0.031 C 
ATOM     58  C   UNL A   1      43.080  29.838  35.791  1.00  0.00     0.029 A 
ATOM     59  C   UNL A   1      42.692  29.504  34.505  1.00  0.00     0.049 A 
ATOM     60  H   UNL A   1      41.148  30.328  33.323  1.00  0.00     0.167 HD
ATOM     61  C   UNL A   1      42.791  28.232  32.384  1.00  0.00     0.074 A 
ATOM     62  C   UNL A   1      43.356  27.229  31.507  1.00  0.00     0.031 C 
ATOM     63  C   UNL A   1      43.249  28.502  33.631  1.00  0.00     0.037 A 
BRANCH  50  64
ATOM     64  C   UNL A   1      40.207  33.072  36.461  1.00  0.00     0.057 A 
ATOM     65  C   UNL A   1      39.281  32.805  37.478  1.00  0.00     0.134 A 
ATOM     66  C   UNL A   1      41.066  34.164  36.642  1.00  0.00     0.134 A 
ATOM     67  F   UNL A   1      38.426  31.778  37.369  1.00  0.00    -0.206 F 
ATOM     68  C   UNL A   1      39.196  33.610  38.618  1.00  0.00     0.040 A 
ATOM     69  C   UNL A   1      41.009  34.958  37.789  1.00  0.00     0.040 A 
ATOM     70  F   UNL A   1      41.986  34.468  35.715  1.00  0.00    -0.206 F 
ATOM     71  C   UNL A   1      40.066  34.685  38.778  1.00  0.00     0.006 A 
ENDBRANCH  50  64
BRANCH  51  72
ATOM     72  C   UNL A   1      40.848  27.631  28.151  1.00  0.00     0.057 A 
ATOM     73  C   UNL A   1      41.576  28.100  27.050  1.00  0.00     0.134 A 
ATOM     74  C   UNL A   1      40.223  26.384  28.025  1.00  0.00     0.134 A 
ATOM     75  F   UNL A   1      42.179  29.296  27.101  1.00  0.00    -0.206 F 
ATOM     76  C   UNL A   1      41.661  27.370  25.863  1.00  0.00     0.040 A 
ATOM     77  C   UNL A   1      40.323  25.630  26.854  1.00  0.00     0.040 A 
ATOM     78  F   UNL A   1      39.515  25.875  29.043  1.00  0.00    -0.206 F 
ATOM     79  C   UNL A   1      41.036  26.128  25.765  1.00  0.00     0.006 A 
ENDBRANCH  51  72
BRANCH  63  80
ATOM     80  C   UNL A   1      44.397  27.675  34.141  1.00  0.00     0.057 A 
ATOM     81  C   UNL A   1      45.728  28.087  34.008  1.00  0.00     0.134 A 
ATOM     82  C   UNL A   1      44.161  26.464  34.805  1.00  0.00     0.134 A 
ATOM     83  F   UNL A   1      46.026  29.230  33.371  1.00  0.00    -0.206 F 
ATOM     84  C   UNL A   1      46.785  27.314  34.495  1.00  0.00     0.040 A 
ATOM     85  C   UNL A   1      45.207  25.696  35.321  1.00  0.00     0.040 A 
ATOM     86  F   UNL A   1      42.909  26.011  34.976  1.00  0.00    -0.206 F 
ATOM     87  C   UNL A   1      46.525  26.117  35.160  1.00  0.00     0.006 A 
ENDBRANCH  63  80
ENDBRANCH  37  38
ENDBRANCH  29  32
ENDBRANCH  27  28
ENDBRANCH  26  27
ENDBRANCH  25  26
ENDBRANCH   1  25
TORSDOF 15
ENDMDL
MODEL 3
REMARK VINA RESULT:     -10.9      2.142      7.635
REMARK SMILES O=C(CC[C@H]1CCCC[N@H+]1C[C@@H]1COc2ccccc21)NCCCCNC(=O)c1ccc(-c2c3nc(c(-c4c(F)cccc4F)c4ccc([nH]4)c(-c4c(F)cccc4F)c4nc(c(-c5c(F)cccc5F)c5ccc2[nH]5)C=C4)C=C3)cc1
REMARK SMILES IDX 22 1 21 2 1 3 2 4 3 6 4 7 5 8 6 9 10 10 7 11 9 12 8 14 11 15
REMARK SMILES IDX 12 16 13 17 20 18 14 19 15 20 19 21 16 22 18 23 17 24 23 25
REMARK SMILES IDX 24 26 25 27 26 28 27 29 28 31 29 32 30 33 82 34 31 35 81 36
REMARK SMILES IDX 32 37 33 38 34 39 75 40 35 41 80 42 74 43 76 44 36 45 79 46
REMARK SMILES IDX 73 47 72 48 37 50 63 51 46 52 62 53 47 54 50 55 61 56 77 57
REMARK SMILES IDX 48 58 49 59 60 61 78 62 51 63 38 64 39 65 44 66 40 67 41 68
REMARK SMILES IDX 43 69 45 70 42 71 64 72 65 73 70 74 66 75 67 76 69 77 71 78
REMARK SMILES IDX 68 79 52 80 53 81 58 82 54 83 55 84 57 85 59 86 56 87
REMARK H PARENT 21 5 10 13 26 30 76 49 50 60
REMARK Flexibility Score: inf
ROOT
ATOM      1  C   UNL A   1      37.351  22.004  24.227  1.00  0.00     0.116 C 
ENDROOT
BRANCH   1   2
ATOM      2  N   UNL A   1      36.279  22.956  24.431  1.00  0.00    -0.356 N 
ATOM      3  O   UNL A   1      37.068  23.796  26.427  1.00  0.00    -0.275 OA
ATOM      4  C   UNL A   1      36.241  23.815  25.525  1.00  0.00     0.220 C 
ATOM      5  H   UNL A   1      35.549  22.997  23.770  1.00  0.00     0.163 HD
BRANCH   4   6
ATOM      6  C   UNL A   1      35.040  24.738  25.516  1.00  0.00     0.106 C 
BRANCH   6   7
ATOM      7  C   UNL A   1      34.277  24.953  24.207  1.00  0.00     0.075 C 
BRANCH   7   8
ATOM      8  C   UNL A   1      32.892  25.654  24.271  1.00  0.00     0.184 C 
ATOM      9  C   UNL A   1      33.027  27.168  23.975  1.00  0.00     0.065 C 
ATOM     10  N   UNL A   1      31.850  25.081  23.448  1.00  0.00    -0.332 N 
ATOM     11  C   UNL A   1      33.470  27.415  22.551  1.00  0.00     0.012 C 
ATOM     12  C   UNL A   1      31.671  25.588  22.096  1.00  0.00     0.262 C 
ATOM     13  H   UNL A   1      31.664  25.396  24.400  1.00  0.00     0.348 HD
ATOM     14  C   UNL A   1      32.528  26.753  21.569  1.00  0.00     0.062 C 
BRANCH  10  15
ATOM     15  C   UNL A   1      31.011  23.922  23.782  1.00  0.00     0.274 C 
BRANCH  15  16
ATOM     16  C   UNL A   1      30.826  23.220  25.156  1.00  0.00     0.116 C 
ATOM     17  C   UNL A   1      30.405  24.114  26.327  1.00  0.00     0.244 C 
ATOM     18  C   UNL A   1      31.951  22.470  25.771  1.00  0.00     0.006 A 
ATOM     19  O   UNL A   1      31.279  23.897  27.461  1.00  0.00    -0.492 OA
ATOM     20  C   UNL A   1      32.159  22.930  27.060  1.00  0.00     0.123 A 
ATOM     21  C   UNL A   1      32.731  21.437  25.264  1.00  0.00     0.008 A 
ATOM     22  C   UNL A   1      33.186  22.452  27.851  1.00  0.00     0.047 A 
ATOM     23  C   UNL A   1      33.804  20.970  26.031  1.00  0.00     0.001 A 
ATOM     24  C   UNL A   1      34.036  21.482  27.316  1.00  0.00     0.004 A 
ENDBRANCH  15  16
ENDBRANCH  10  15
ENDBRANCH   7   8
ENDBRANCH   6   7
ENDBRANCH   4   6
ENDBRANCH   1   2
BRANCH   1  25
ATOM     25  C   UNL A   1      37.087  20.617  24.835  1.00  0.00     0.023 C 
BRANCH  25  26
ATOM     26  C   UNL A   1      38.227  19.586  24.834  1.00  0.00     0.023 C 
BRANCH  26  27
ATOM     27  C   UNL A   1      39.151  19.557  26.053  1.00  0.00     0.116 C 
BRANCH  27  28
ATOM     28  N   UNL A   1      40.451  18.973  25.793  1.00  0.00    -0.352 N 
ATOM     29  C   UNL A   1      41.716  19.488  25.942  1.00  0.00     0.251 C 
ATOM     30  H   UNL A   1      40.422  18.050  25.452  1.00  0.00     0.163 HD
ATOM     31  O   UNL A   1      42.677  18.793  25.627  1.00  0.00    -0.269 OA
BRANCH  29  32
ATOM     32  C   UNL A   1      41.962  20.873  26.424  1.00  0.00     0.039 A 
ATOM     33  C   UNL A   1      41.792  21.116  27.793  1.00  0.00     0.014 A 
ATOM     34  C   UNL A   1      42.275  21.941  25.577  1.00  0.00     0.014 A 
ATOM     35  C   UNL A   1      41.988  22.398  28.319  1.00  0.00     0.010 A 
ATOM     36  C   UNL A   1      42.516  23.217  26.112  1.00  0.00     0.010 A 
ATOM     37  C   UNL A   1      42.385  23.460  27.490  1.00  0.00    -0.014 A 
BRANCH  37  38
ATOM     38  C   UNL A   1      42.693  24.798  28.075  1.00  0.00     0.031 A 
ATOM     39  C   UNL A   1      44.088  25.160  28.515  1.00  0.00     0.074 A 
ATOM     40  C   UNL A   1      41.701  25.699  28.234  1.00  0.00     0.049 A 
ATOM     41  N   UNL A   1      44.523  26.272  29.056  1.00  0.00    -0.248 NA
ATOM     42  C   UNL A   1      45.125  24.136  28.335  1.00  0.00     0.031 C 
ATOM     43  C   UNL A   1      40.299  25.481  27.871  1.00  0.00     0.029 A 
ATOM     44  N   UNL A   1      41.716  26.977  28.741  1.00  0.00    -0.354 N 
ATOM     45  C   UNL A   1      45.880  26.082  29.285  1.00  0.00     0.074 A 
ATOM     46  C   UNL A   1      46.187  24.730  28.864  1.00  0.00     0.031 C 
ATOM     47  C   UNL A   1      39.596  26.590  28.148  1.00  0.00     0.029 A 
ATOM     48  C   UNL A   1      40.483  27.584  28.744  1.00  0.00     0.049 A 
ATOM     49  H   UNL A   1      42.534  27.415  29.070  1.00  0.00     0.167 HD
ATOM     50  C   UNL A   1      46.792  26.954  29.785  1.00  0.00     0.037 A 
ATOM     51  C   UNL A   1      40.101  28.799  29.187  1.00  0.00     0.037 A 
ATOM     52  C   UNL A   1      46.494  28.304  30.198  1.00  0.00     0.049 A 
ATOM     53  C   UNL A   1      41.124  29.733  29.773  1.00  0.00     0.074 A 
ATOM     54  C   UNL A   1      47.365  29.272  30.671  1.00  0.00     0.029 A 
ATOM     55  N   UNL A   1      45.230  28.873  30.200  1.00  0.00    -0.354 N 
ATOM     56  N   UNL A   1      42.413  29.557  29.924  1.00  0.00    -0.248 NA
ATOM     57  C   UNL A   1      40.637  31.037  30.247  1.00  0.00     0.031 C 
ATOM     58  C   UNL A   1      46.621  30.406  31.012  1.00  0.00     0.029 A 
ATOM     59  C   UNL A   1      45.294  30.168  30.695  1.00  0.00     0.049 A 
ATOM     60  H   UNL A   1      44.408  28.425  29.896  1.00  0.00     0.167 HD
ATOM     61  C   UNL A   1      42.895  30.737  30.479  1.00  0.00     0.074 A 
ATOM     62  C   UNL A   1      41.763  31.626  30.624  1.00  0.00     0.031 C 
ATOM     63  C   UNL A   1      44.165  31.054  30.833  1.00  0.00     0.037 A 
BRANCH  50  64
ATOM     64  C   UNL A   1      48.210  26.475  29.924  1.00  0.00     0.057 A 
ATOM     65  C   UNL A   1      49.165  26.687  28.920  1.00  0.00     0.134 A 
ATOM     66  C   UNL A   1      48.640  25.842  31.098  1.00  0.00     0.134 A 
ATOM     67  F   UNL A   1      48.821  27.284  27.769  1.00  0.00    -0.206 F 
ATOM     68  C   UNL A   1      50.487  26.261  29.068  1.00  0.00     0.040 A 
ATOM     69  C   UNL A   1      49.965  25.438  31.269  1.00  0.00     0.040 A 
ATOM     70  F   UNL A   1      47.783  25.621  32.106  1.00  0.00    -0.206 F 
ATOM     71  C   UNL A   1      50.892  25.641  30.248  1.00  0.00     0.006 A 
ENDBRANCH  50  64
BRANCH  51  72
ATOM     72  C   UNL A   1      38.677  29.213  29.086  1.00  0.00     0.057 A 
ATOM     73  C   UNL A   1      37.830  29.172  30.200  1.00  0.00     0.134 A 
ATOM     74  C   UNL A   1      38.124  29.639  27.872  1.00  0.00     0.134 A 
ATOM     75  F   UNL A   1      38.294  28.750  31.386  1.00  0.00    -0.206 F 
ATOM     76  C   UNL A   1      36.481  29.519  30.108  1.00  0.00     0.040 A 
ATOM     77  C   UNL A   1      36.784  30.017  27.771  1.00  0.00     0.040 A 
ATOM     78  F   UNL A   1      38.883  29.707  26.769  1.00  0.00    -0.206 F 
ATOM     79  C   UNL A   1      35.956  29.949  28.890  1.00  0.00     0.006 A 
ENDBRANCH  51  72
BRANCH  63  80
ATOM     80  C   UNL A   1      44.409  32.433  31.378  1.00  0.00     0.057 A 
ATOM     81  C   UNL A   1      44.670  33.528  30.544  1.00  0.00     0.134 A 
ATOM     82  C   UNL A   1      44.347  32.676  32.757  1.00  0.00     0.134 A 
ATOM     83  F   UNL A   1      44.757  33.364  29.214  1.00  0.00    -0.206 F 
ATOM     84  C   UNL A   1      44.886  34.807  31.062  1.00  0.00     0.040 A 
ATOM     85  C   UNL A   1      44.532  33.955  33.284  1.00  0.00     0.040 A 
ATOM     86  F   UNL A   1      44.092  31.675  33.614  1.00  0.00    -0.206 F 
ATOM     87  C   UNL A   1      44.809  35.024  32.436  1.00  0.00     0.006 A 
ENDBRANCH  63  80
ENDBRANCH  37  38
ENDBRANCH  29  32
ENDBRANCH  27  28
ENDBRANCH  26  27
ENDBRANCH  25  26
ENDBRANCH   1  25
TORSDOF 15
ENDMDL
