MODEL 1
REMARK VINA RESULT:     -11.3      0.000      0.000
REMARK SMILES C[C@H](CNS(=O)(=O)c1ccc(C(=O)NCCCCNC(=O)c2ccc(-c3c4nc(c(-c5c(F)cccc5F)c5ccc([nH]5)c(-c5c(F)cccc5F)c5nc(c(-c6c(F)cccc6F)c6ccc3[nH]6)C=C5)C=C4)cc2)cc1F)[NH+](C)C
REMARK SMILES IDX 15 1 14 2 12 3 13 4 11 6 8 7 9 8 77 9 10 10 76 11 78 12 5 13
REMARK SMILES IDX 6 14 7 15 4 16 3 18 2 19 1 20 79 21 80 22 81 23 16 25 17 26
REMARK SMILES IDX 18 27 19 28 20 29 21 31 22 32 23 33 75 34 24 35 74 36 25 37
REMARK SMILES IDX 26 38 27 39 68 40 28 41 73 42 67 43 69 44 29 45 72 46 66 47
REMARK SMILES IDX 65 48 30 50 56 51 39 52 55 53 40 54 43 55 54 56 70 57 41 58
REMARK SMILES IDX 42 59 53 61 71 62 44 63 31 64 32 65 37 66 33 67 34 68 36 69
REMARK SMILES IDX 38 70 35 71 57 72 58 73 63 74 59 75 60 76 62 77 64 78 61 79
REMARK SMILES IDX 45 80 46 81 51 82 47 83 48 84 50 85 52 86 49 87
REMARK H PARENT 14 5 4 17 79 24 19 30 69 49 43 60
REMARK Flexibility Score: inf
ROOT
ATOM      1  C   UNL A   1      32.905  30.093  25.994  1.00  0.00     0.116 C 
ENDROOT
BRANCH   1   2
ATOM      2  N   UNL A   1      33.301  29.615  24.686  1.00  0.00    -0.352 N 
ATOM      3  C   UNL A   1      33.285  28.363  24.135  1.00  0.00     0.251 C 
ATOM      4  O   UNL A   1      33.733  28.225  22.998  1.00  0.00    -0.269 OA
ATOM      5  H   UNL A   1      33.642  30.317  24.086  1.00  0.00     0.163 HD
BRANCH   3   6
ATOM      6  C   UNL A   1      32.679  27.189  24.817  1.00  0.00     0.042 A 
ATOM      7  C   UNL A   1      31.745  24.871  26.085  1.00  0.00     0.118 A 
ATOM      8  C   UNL A   1      33.109  25.185  26.116  1.00  0.00     0.026 A 
ATOM      9  C   UNL A   1      30.856  25.719  25.444  1.00  0.00     0.144 A 
ATOM     10  C   UNL A   1      33.567  26.345  25.498  1.00  0.00     0.015 A 
ATOM     11  C   UNL A   1      31.314  26.888  24.835  1.00  0.00     0.054 A 
ATOM     12  F   UNL A   1      29.543  25.463  25.396  1.00  0.00    -0.205 F 
BRANCH   7  13
ATOM     13  S   UNL A   1      31.205  23.375  26.833  1.00  0.00     0.243 S 
ATOM     14  O   UNL A   1      29.846  23.572  27.299  1.00  0.00    -0.207 OA
ATOM     15  O   UNL A   1      32.219  22.873  27.727  1.00  0.00    -0.207 OA
BRANCH  13  16
ATOM     16  N   UNL A   1      31.145  22.303  25.529  1.00  0.00    -0.205 NA
ATOM     17  H   UNL A   1      30.338  21.697  25.671  1.00  0.00     0.141 HD
BRANCH  16  18
ATOM     18  C   UNL A   1      32.317  21.435  25.303  1.00  0.00     0.163 C 
BRANCH  18  19
ATOM     19  C   UNL A   1      33.095  21.712  23.980  1.00  0.00     0.195 C 
ATOM     20  C   UNL A   1      32.494  22.810  23.092  1.00  0.00     0.076 C 
BRANCH  19  21
ATOM     21  N   UNL A   1      34.547  21.852  24.248  1.00  0.00    -0.337 N 
ATOM     22  C   UNL A   1      35.131  23.026  23.598  1.00  0.00     0.332 C 
ATOM     23  C   UNL A   1      34.904  21.828  25.668  1.00  0.00     0.332 C 
ATOM     24  H   UNL A   1      34.955  21.015  23.830  1.00  0.00     0.347 HD
ENDBRANCH  19  21
ENDBRANCH  18  19
ENDBRANCH  16  18
ENDBRANCH  13  16
ENDBRANCH   7  13
ENDBRANCH   3   6
ENDBRANCH   1   2
BRANCH   1  25
ATOM     25  C   UNL A   1      31.479  30.640  25.931  1.00  0.00     0.023 C 
BRANCH  25  26
ATOM     26  C   UNL A   1      31.334  32.049  26.512  1.00  0.00     0.023 C 
BRANCH  26  27
ATOM     27  C   UNL A   1      32.569  32.564  27.240  1.00  0.00     0.116 C 
BRANCH  27  28
ATOM     28  N   UNL A   1      32.444  33.952  27.653  1.00  0.00    -0.352 N 
ATOM     29  C   UNL A   1      33.197  34.646  28.566  1.00  0.00     0.251 C 
ATOM     30  H   UNL A   1      31.722  34.463  27.220  1.00  0.00     0.163 HD
ATOM     31  O   UNL A   1      32.872  35.780  28.900  1.00  0.00    -0.269 OA
BRANCH  29  32
ATOM     32  C   UNL A   1      34.383  34.006  29.165  1.00  0.00     0.039 A 
ATOM     33  C   UNL A   1      34.198  32.896  29.990  1.00  0.00     0.014 A 
ATOM     34  C   UNL A   1      35.669  34.493  28.911  1.00  0.00     0.014 A 
ATOM     35  C   UNL A   1      35.308  32.250  30.530  1.00  0.00     0.010 A 
ATOM     36  C   UNL A   1      36.777  33.797  29.379  1.00  0.00     0.010 A 
ATOM     37  C   UNL A   1      36.608  32.681  30.209  1.00  0.00    -0.014 A 
BRANCH  37  38
ATOM     38  C   UNL A   1      37.792  31.979  30.761  1.00  0.00     0.031 A 
ATOM     39  C   UNL A   1      38.279  32.294  32.148  1.00  0.00     0.074 A 
ATOM     40  C   UNL A   1      38.437  31.072  30.004  1.00  0.00     0.049 A 
ATOM     41  N   UNL A   1      39.282  31.771  32.807  1.00  0.00    -0.248 NA
ATOM     42  C   UNL A   1      37.566  33.351  32.884  1.00  0.00     0.031 C 
ATOM     43  C   UNL A   1      38.090  30.721  28.626  1.00  0.00     0.029 A 
ATOM     44  N   UNL A   1      39.514  30.271  30.290  1.00  0.00    -0.354 N 
ATOM     45  C   UNL A   1      39.318  32.433  34.028  1.00  0.00     0.074 A 
ATOM     46  C   UNL A   1      38.284  33.443  33.993  1.00  0.00     0.031 C 
ATOM     47  C   UNL A   1      38.906  29.743  28.203  1.00  0.00     0.029 A 
ATOM     48  C   UNL A   1      39.855  29.423  29.264  1.00  0.00     0.049 A 
ATOM     49  H   UNL A   1      39.995  30.299  31.148  1.00  0.00     0.167 HD
ATOM     50  C   UNL A   1      40.118  32.198  35.093  1.00  0.00     0.037 A 
ATOM     51  C   UNL A   1      40.819  28.485  29.192  1.00  0.00     0.037 A 
ATOM     52  C   UNL A   1      41.130  31.177  35.129  1.00  0.00     0.049 A 
ATOM     53  C   UNL A   1      41.693  28.240  30.390  1.00  0.00     0.074 A 
ATOM     54  C   UNL A   1      41.963  30.829  36.178  1.00  0.00     0.029 A 
ATOM     55  N   UNL A   1      41.445  30.337  34.070  1.00  0.00    -0.354 N 
ATOM     56  N   UNL A   1      41.677  28.833  31.559  1.00  0.00    -0.248 NA
ATOM     57  C   UNL A   1      42.710  27.187  30.263  1.00  0.00     0.031 C 
ATOM     58  C   UNL A   1      42.817  29.814  35.737  1.00  0.00     0.029 A 
ATOM     59  C   UNL A   1      42.474  29.485  34.436  1.00  0.00     0.049 A 
ATOM     60  H   UNL A   1      41.005  30.347  33.191  1.00  0.00     0.167 HD
ATOM     61  C   UNL A   1      42.659  28.208  32.317  1.00  0.00     0.074 A 
ATOM     62  C   UNL A   1      43.241  27.180  31.478  1.00  0.00     0.031 C 
ATOM     63  C   UNL A   1      43.041  28.462  33.592  1.00  0.00     0.037 A 
BRANCH  50  64
ATOM     64  C   UNL A   1      39.925  33.050  36.314  1.00  0.00     0.057 A 
ATOM     65  C   UNL A   1      40.737  34.168  36.546  1.00  0.00     0.134 A 
ATOM     66  C   UNL A   1      38.976  32.729  37.295  1.00  0.00     0.134 A 
ATOM     67  F   UNL A   1      41.668  34.530  35.651  1.00  0.00    -0.206 F 
ATOM     68  C   UNL A   1      40.621  34.926  37.712  1.00  0.00     0.040 A 
ATOM     69  C   UNL A   1      38.831  33.497  38.452  1.00  0.00     0.040 A 
ATOM     70  F   UNL A   1      38.156  31.680  37.131  1.00  0.00    -0.206 F 
ATOM     71  C   UNL A   1      39.663  34.593  38.668  1.00  0.00     0.006 A 
ENDBRANCH  50  64
BRANCH  51  72
ATOM     72  C   UNL A   1      40.962  27.676  27.955  1.00  0.00     0.057 A 
ATOM     73  C   UNL A   1      40.309  26.446  27.805  1.00  0.00     0.134 A 
ATOM     74  C   UNL A   1      41.784  28.101  26.905  1.00  0.00     0.134 A 
ATOM     75  F   UNL A   1      39.515  25.978  28.779  1.00  0.00    -0.206 F 
ATOM     76  C   UNL A   1      40.482  25.660  26.664  1.00  0.00     0.040 A 
ATOM     77  C   UNL A   1      41.946  27.338  25.747  1.00  0.00     0.040 A 
ATOM     78  F   UNL A   1      42.425  29.277  26.983  1.00  0.00    -0.206 F 
ATOM     79  C   UNL A   1      41.300  26.109  25.629  1.00  0.00     0.006 A 
ENDBRANCH  51  72
BRANCH  63  80
ATOM     80  C   UNL A   1      44.117  27.596  34.180  1.00  0.00     0.057 A 
ATOM     81  C   UNL A   1      43.790  26.395  34.825  1.00  0.00     0.134 A 
ATOM     82  C   UNL A   1      45.466  27.975  34.167  1.00  0.00     0.134 A 
ATOM     83  F   UNL A   1      42.516  25.979  34.887  1.00  0.00    -0.206 F 
ATOM     84  C   UNL A   1      44.763  25.608  35.442  1.00  0.00     0.040 A 
ATOM     85  C   UNL A   1      46.452  27.180  34.753  1.00  0.00     0.040 A 
ATOM     86  F   UNL A   1      45.848  29.108  33.560  1.00  0.00    -0.206 F 
ATOM     87  C   UNL A   1      46.100  25.997  35.402  1.00  0.00     0.006 A 
ENDBRANCH  63  80
ENDBRANCH  37  38
ENDBRANCH  29  32
ENDBRANCH  27  28
ENDBRANCH  26  27
ENDBRANCH  25  26
ENDBRANCH   1  25
TORSDOF 16
ENDMDL
MODEL 2
REMARK VINA RESULT:     -11.0      1.030      6.248
REMARK SMILES C[C@H](CNS(=O)(=O)c1ccc(C(=O)NCCCCNC(=O)c2ccc(-c3c4nc(c(-c5c(F)cccc5F)c5ccc([nH]5)c(-c5c(F)cccc5F)c5nc(c(-c6c(F)cccc6F)c6ccc3[nH]6)C=C5)C=C4)cc2)cc1F)[NH+](C)C
REMARK SMILES IDX 15 1 14 2 12 3 13 4 11 6 8 7 9 8 77 9 10 10 76 11 78 12 5 13
REMARK SMILES IDX 6 14 7 15 4 16 3 18 2 19 1 20 79 21 80 22 81 23 16 25 17 26
REMARK SMILES IDX 18 27 19 28 20 29 21 31 22 32 23 33 75 34 24 35 74 36 25 37
REMARK SMILES IDX 26 38 27 39 68 40 28 41 73 42 67 43 69 44 29 45 72 46 66 47
REMARK SMILES IDX 65 48 30 50 56 51 39 52 55 53 40 54 43 55 54 56 70 57 41 58
REMARK SMILES IDX 42 59 53 61 71 62 44 63 31 64 32 65 37 66 33 67 34 68 36 69
REMARK SMILES IDX 38 70 35 71 57 72 58 73 63 74 59 75 60 76 62 77 64 78 61 79
REMARK SMILES IDX 45 80 46 81 51 82 47 83 48 84 50 85 52 86 49 87
REMARK H PARENT 14 5 4 17 79 24 19 30 69 49 43 60
REMARK Flexibility Score: inf
ROOT
ATOM      1  C   UNL A   1      32.762  29.857  26.119  1.00  0.00     0.116 C 
ENDROOT
BRANCH   1   2
ATOM      2  N   UNL A   1      32.586  29.605  24.704  1.00  0.00    -0.352 N 
ATOM      3  C   UNL A   1      32.382  28.445  24.007  1.00  0.00     0.251 C 
ATOM      4  O   UNL A   1      32.313  28.511  22.781  1.00  0.00    -0.269 OA
ATOM      5  H   UNL A   1      32.617  30.414  24.143  1.00  0.00     0.163 HD
BRANCH   3   6
ATOM      6  C   UNL A   1      32.162  27.134  24.671  1.00  0.00     0.042 A 
ATOM      7  C   UNL A   1      31.532  24.735  25.975  1.00  0.00     0.118 A 
ATOM      8  C   UNL A   1      30.511  25.532  25.444  1.00  0.00     0.026 A 
ATOM      9  C   UNL A   1      32.854  25.123  25.836  1.00  0.00     0.144 A 
ATOM     10  C   UNL A   1      30.829  26.716  24.784  1.00  0.00     0.015 A 
ATOM     11  C   UNL A   1      33.174  26.304  25.163  1.00  0.00     0.054 A 
ATOM     12  F   UNL A   1      33.863  24.388  26.320  1.00  0.00    -0.205 F 
BRANCH   7  13
ATOM     13  S   UNL A   1      31.095  23.271  26.844  1.00  0.00     0.243 S 
ATOM     14  O   UNL A   1      29.723  23.408  27.293  1.00  0.00    -0.207 OA
ATOM     15  O   UNL A   1      32.137  22.916  27.776  1.00  0.00    -0.207 OA
BRANCH  13  16
ATOM     16  N   UNL A   1      31.116  22.094  25.633  1.00  0.00    -0.205 NA
ATOM     17  H   UNL A   1      30.361  21.439  25.830  1.00  0.00     0.141 HD
BRANCH  16  18
ATOM     18  C   UNL A   1      32.353  21.305  25.468  1.00  0.00     0.163 C 
BRANCH  18  19
ATOM     19  C   UNL A   1      33.203  21.671  24.213  1.00  0.00     0.195 C 
ATOM     20  C   UNL A   1      32.487  22.546  23.175  1.00  0.00     0.076 C 
BRANCH  19  21
ATOM     21  N   UNL A   1      34.547  22.154  24.615  1.00  0.00    -0.337 N 
ATOM     22  C   UNL A   1      35.272  21.188  25.441  1.00  0.00     0.332 C 
ATOM     23  C   UNL A   1      35.386  22.599  23.501  1.00  0.00     0.332 C 
ATOM     24  H   UNL A   1      34.351  22.980  25.181  1.00  0.00     0.347 HD
ENDBRANCH  19  21
ENDBRANCH  18  19
ENDBRANCH  16  18
ENDBRANCH  13  16
ENDBRANCH   7  13
ENDBRANCH   3   6
ENDBRANCH   1   2
BRANCH   1  25
ATOM     25  C   UNL A   1      31.479  30.452  26.699  1.00  0.00     0.023 C 
BRANCH  25  26
ATOM     26  C   UNL A   1      31.415  31.979  26.612  1.00  0.00     0.023 C 
BRANCH  26  27
ATOM     27  C   UNL A   1      32.665  32.694  27.112  1.00  0.00     0.116 C 
BRANCH  27  28
ATOM     28  N   UNL A   1      32.393  34.040  27.588  1.00  0.00    -0.352 N 
ATOM     29  C   UNL A   1      33.020  34.739  28.589  1.00  0.00     0.251 C 
ATOM     30  H   UNL A   1      31.661  34.514  27.133  1.00  0.00     0.163 HD
ATOM     31  O   UNL A   1      32.576  35.819  28.960  1.00  0.00    -0.269 OA
BRANCH  29  32
ATOM     32  C   UNL A   1      34.214  34.164  29.237  1.00  0.00     0.039 A 
ATOM     33  C   UNL A   1      34.038  33.339  30.349  1.00  0.00     0.014 A 
ATOM     34  C   UNL A   1      35.496  34.431  28.748  1.00  0.00     0.014 A 
ATOM     35  C   UNL A   1      35.150  32.750  30.948  1.00  0.00     0.010 A 
ATOM     36  C   UNL A   1      36.594  33.775  29.293  1.00  0.00     0.010 A 
ATOM     37  C   UNL A   1      36.435  32.944  30.410  1.00  0.00    -0.014 A 
BRANCH  37  38
ATOM     38  C   UNL A   1      37.617  32.298  31.030  1.00  0.00     0.031 A 
ATOM     39  C   UNL A   1      38.246  31.094  30.385  1.00  0.00     0.074 A 
ATOM     40  C   UNL A   1      38.111  32.787  32.184  1.00  0.00     0.049 A 
ATOM     41  N   UNL A   1      39.293  30.409  30.767  1.00  0.00    -0.248 NA
ATOM     42  C   UNL A   1      37.603  30.575  29.167  1.00  0.00     0.031 C 
ATOM     43  C   UNL A   1      37.553  33.917  32.930  1.00  0.00     0.029 A 
ATOM     44  N   UNL A   1      39.200  32.403  32.925  1.00  0.00    -0.354 N 
ATOM     45  C   UNL A   1      39.431  29.384  29.841  1.00  0.00     0.074 A 
ATOM     46  C   UNL A   1      38.323  29.492  28.919  1.00  0.00     0.031 C 
ATOM     47  C   UNL A   1      38.330  34.164  33.996  1.00  0.00     0.029 A 
ATOM     48  C   UNL A   1      39.418  33.191  34.029  1.00  0.00     0.049 A 
ATOM     49  H   UNL A   1      39.771  31.637  32.688  1.00  0.00     0.167 HD
ATOM     50  C   UNL A   1      40.412  28.456  29.748  1.00  0.00     0.037 A 
ATOM     51  C   UNL A   1      40.392  33.142  34.958  1.00  0.00     0.037 A 
ATOM     52  C   UNL A   1      41.525  28.367  30.655  1.00  0.00     0.049 A 
ATOM     53  C   UNL A   1      41.472  32.104  34.830  1.00  0.00     0.074 A 
ATOM     54  C   UNL A   1      42.595  27.492  30.619  1.00  0.00     0.029 A 
ATOM     55  N   UNL A   1      41.711  29.184  31.760  1.00  0.00    -0.354 N 
ATOM     56  N   UNL A   1      41.624  31.178  33.915  1.00  0.00    -0.248 NA
ATOM     57  C   UNL A   1      42.523  32.114  35.856  1.00  0.00     0.031 C 
ATOM     58  C   UNL A   1      43.402  27.744  31.731  1.00  0.00     0.029 A 
ATOM     59  C   UNL A   1      42.871  28.819  32.425  1.00  0.00     0.049 A 
ATOM     60  H   UNL A   1      41.110  29.913  32.032  1.00  0.00     0.167 HD
ATOM     61  C   UNL A   1      42.800  30.513  34.237  1.00  0.00     0.074 A 
ATOM     62  C   UNL A   1      43.329  31.153  35.423  1.00  0.00     0.031 C 
ATOM     63  C   UNL A   1      43.389  29.469  33.603  1.00  0.00     0.037 A 
BRANCH  50  64
ATOM     64  C   UNL A   1      40.336  27.470  28.617  1.00  0.00     0.057 A 
ATOM     65  C   UNL A   1      39.621  26.273  28.756  1.00  0.00     0.134 A 
ATOM     66  C   UNL A   1      41.024  27.673  27.413  1.00  0.00     0.134 A 
ATOM     67  F   UNL A   1      38.943  26.011  29.883  1.00  0.00    -0.206 F 
ATOM     68  C   UNL A   1      39.603  25.312  27.744  1.00  0.00     0.040 A 
ATOM     69  C   UNL A   1      40.989  26.732  26.382  1.00  0.00     0.040 A 
ATOM     70  F   UNL A   1      41.718  28.803  27.209  1.00  0.00    -0.206 F 
ATOM     71  C   UNL A   1      40.286  25.542  26.551  1.00  0.00     0.006 A 
ENDBRANCH  50  64
BRANCH  51  72
ATOM     72  C   UNL A   1      40.411  34.144  36.053  1.00  0.00     0.057 A 
ATOM     73  C   UNL A   1      39.760  33.909  37.271  1.00  0.00     0.134 A 
ATOM     74  C   UNL A   1      41.056  35.375  35.895  1.00  0.00     0.134 A 
ATOM     75  F   UNL A   1      39.115  32.752  37.482  1.00  0.00    -0.206 F 
ATOM     76  C   UNL A   1      39.733  34.870  38.283  1.00  0.00     0.040 A 
ATOM     77  C   UNL A   1      41.060  36.335  36.908  1.00  0.00     0.040 A 
ATOM     78  F   UNL A   1      41.709  35.654  34.757  1.00  0.00    -0.206 F 
ATOM     79  C   UNL A   1      40.389  36.086  38.104  1.00  0.00     0.006 A 
ENDBRANCH  51  72
BRANCH  63  80
ATOM     80  C   UNL A   1      44.692  28.967  34.156  1.00  0.00     0.057 A 
ATOM     81  C   UNL A   1      44.708  27.973  35.145  1.00  0.00     0.134 A 
ATOM     82  C   UNL A   1      45.923  29.506  33.761  1.00  0.00     0.134 A 
ATOM     83  F   UNL A   1      43.564  27.424  35.578  1.00  0.00    -0.206 F 
ATOM     84  C   UNL A   1      45.900  27.541  35.726  1.00  0.00     0.040 A 
ATOM     85  C   UNL A   1      47.124  29.058  34.312  1.00  0.00     0.040 A 
ATOM     86  F   UNL A   1      45.978  30.454  32.814  1.00  0.00    -0.206 F 
ATOM     87  C   UNL A   1      47.114  28.080  35.305  1.00  0.00     0.006 A 
ENDBRANCH  63  80
ENDBRANCH  37  38
ENDBRANCH  29  32
ENDBRANCH  27  28
ENDBRANCH  26  27
ENDBRANCH  25  26
ENDBRANCH   1  25
TORSDOF 16
ENDMDL
MODEL 3
REMARK VINA RESULT:     -10.9      4.222      9.376
REMARK SMILES C[C@H](CNS(=O)(=O)c1ccc(C(=O)NCCCCNC(=O)c2ccc(-c3c4nc(c(-c5c(F)cccc5F)c5ccc([nH]5)c(-c5c(F)cccc5F)c5nc(c(-c6c(F)cccc6F)c6ccc3[nH]6)C=C5)C=C4)cc2)cc1F)[NH+](C)C
REMARK SMILES IDX 15 1 14 2 12 3 13 4 11 6 8 7 9 8 77 9 10 10 76 11 78 12 5 13
REMARK SMILES IDX 6 14 7 15 4 16 3 18 2 19 1 20 79 21 80 22 81 23 16 25 17 26
REMARK SMILES IDX 18 27 19 28 20 29 21 31 22 32 23 33 75 34 24 35 74 36 25 37
REMARK SMILES IDX 26 38 27 39 68 40 28 41 73 42 67 43 69 44 29 45 72 46 66 47
REMARK SMILES IDX 65 48 30 50 56 51 39 52 55 53 40 54 43 55 54 56 70 57 41 58
REMARK SMILES IDX 42 59 53 61 71 62 44 63 31 64 32 65 37 66 33 67 34 68 36 69
REMARK SMILES IDX 38 70 35 71 57 72 58 73 63 74 59 75 60 76 62 77 64 78 61 79
REMARK SMILES IDX 45 80 46 81 51 82 47 83 48 84 50 85 52 86 49 87
REMARK H PARENT 14 5 4 17 79 24 19 30 69 49 43 60
REMARK Flexibility Score: inf
ROOT
ATOM      1  C   UNL A   1      35.593  20.483  25.000  1.00  0.00     0.116 C 
ENDROOT
BRANCH   1   2
ATOM      2  N   UNL A   1      35.139  21.093  26.232  1.00  0.00    -0.352 N 
ATOM      3  C   UNL A   1      34.537  22.295  26.481  1.00  0.00     0.251 C 
ATOM      4  O   UNL A   1      34.296  22.592  27.651  1.00  0.00    -0.269 OA
ATOM      5  H   UNL A   1      35.291  20.542  27.034  1.00  0.00     0.163 HD
BRANCH   3   6
ATOM      6  C   UNL A   1      34.092  23.214  25.401  1.00  0.00     0.042 A 
ATOM      7  C   UNL A   1      33.291  25.122  23.511  1.00  0.00     0.118 A 
ATOM      8  C   UNL A   1      34.167  25.482  24.542  1.00  0.00     0.026 A 
ATOM      9  C   UNL A   1      32.838  23.817  23.415  1.00  0.00     0.144 A 
ATOM     10  C   UNL A   1      34.574  24.528  25.470  1.00  0.00     0.015 A 
ATOM     11  C   UNL A   1      33.256  22.857  24.338  1.00  0.00     0.054 A 
ATOM     12  F   UNL A   1      32.006  23.425  22.441  1.00  0.00    -0.205 F 
BRANCH   7  13
ATOM     13  S   UNL A   1      32.758  26.361  22.384  1.00  0.00     0.243 S 
ATOM     14  O   UNL A   1      31.378  26.086  22.034  1.00  0.00    -0.207 OA
ATOM     15  O   UNL A   1      33.749  26.555  21.354  1.00  0.00    -0.207 OA
BRANCH  13  16
ATOM     16  N   UNL A   1      32.773  27.760  23.329  1.00  0.00    -0.205 NA
ATOM     17  H   UNL A   1      33.443  27.612  24.083  1.00  0.00     0.141 HD
BRANCH  16  18
ATOM     18  C   UNL A   1      31.500  28.182  23.946  1.00  0.00     0.163 C 
BRANCH  18  19
ATOM     19  C   UNL A   1      31.506  28.221  25.504  1.00  0.00     0.195 C 
ATOM     20  C   UNL A   1      31.210  26.879  26.188  1.00  0.00     0.076 C 
BRANCH  19  21
ATOM     21  N   UNL A   1      32.713  28.922  26.005  1.00  0.00    -0.337 N 
ATOM     22  C   UNL A   1      32.460  30.329  26.321  1.00  0.00     0.332 C 
ATOM     23  C   UNL A   1      33.372  28.260  27.132  1.00  0.00     0.332 C 
ATOM     24  H   UNL A   1      33.364  28.880  25.221  1.00  0.00     0.347 HD
ENDBRANCH  19  21
ENDBRANCH  18  19
ENDBRANCH  16  18
ENDBRANCH  13  16
ENDBRANCH   7  13
ENDBRANCH   3   6
ENDBRANCH   1   2
BRANCH   1  25
ATOM     25  C   UNL A   1      37.036  20.902  24.720  1.00  0.00     0.023 C 
BRANCH  25  26
ATOM     26  C   UNL A   1      38.055  19.780  24.937  1.00  0.00     0.023 C 
BRANCH  26  27
ATOM     27  C   UNL A   1      39.138  20.098  25.961  1.00  0.00     0.116 C 
BRANCH  27  28
ATOM     28  N   UNL A   1      40.305  19.240  25.834  1.00  0.00    -0.352 N 
ATOM     29  C   UNL A   1      41.623  19.547  26.057  1.00  0.00     0.251 C 
ATOM     30  H   UNL A   1      40.125  18.315  25.549  1.00  0.00     0.163 HD
ATOM     31  O   UNL A   1      42.502  18.742  25.770  1.00  0.00    -0.269 OA
BRANCH  29  32
ATOM     32  C   UNL A   1      41.977  20.866  26.614  1.00  0.00     0.039 A 
ATOM     33  C   UNL A   1      42.309  21.896  25.732  1.00  0.00     0.014 A 
ATOM     34  C   UNL A   1      41.975  21.088  27.994  1.00  0.00     0.014 A 
ATOM     35  C   UNL A   1      42.603  23.162  26.236  1.00  0.00     0.010 A 
ATOM     36  C   UNL A   1      42.183  22.370  28.488  1.00  0.00     0.010 A 
ATOM     37  C   UNL A   1      42.519  23.415  27.617  1.00  0.00    -0.014 A 
BRANCH  37  38
ATOM     38  C   UNL A   1      42.805  24.767  28.154  1.00  0.00     0.031 A 
ATOM     39  C   UNL A   1      44.219  25.171  28.470  1.00  0.00     0.074 A 
ATOM     40  C   UNL A   1      41.789  25.622  28.373  1.00  0.00     0.049 A 
ATOM     41  N   UNL A   1      44.665  26.314  28.926  1.00  0.00    -0.248 NA
ATOM     42  C   UNL A   1      45.265  24.155  28.275  1.00  0.00     0.031 C 
ATOM     43  C   UNL A   1      40.372  25.324  28.154  1.00  0.00     0.029 A 
ATOM     44  N   UNL A   1      41.791  26.920  28.817  1.00  0.00    -0.354 N 
ATOM     45  C   UNL A   1      46.037  26.152  29.070  1.00  0.00     0.074 A 
ATOM     46  C   UNL A   1      46.342  24.782  28.723  1.00  0.00     0.031 C 
ATOM     47  C   UNL A   1      39.647  26.422  28.419  1.00  0.00     0.029 A 
ATOM     48  C   UNL A   1      40.541  27.488  28.860  1.00  0.00     0.049 A 
ATOM     49  H   UNL A   1      42.610  27.400  29.079  1.00  0.00     0.167 HD
ATOM     50  C   UNL A   1      46.963  27.071  29.429  1.00  0.00     0.037 A 
ATOM     51  C   UNL A   1      40.159  28.733  29.205  1.00  0.00     0.037 A 
ATOM     52  C   UNL A   1      46.657  28.439  29.752  1.00  0.00     0.049 A 
ATOM     53  C   UNL A   1      41.207  29.738  29.596  1.00  0.00     0.074 A 
ATOM     54  C   UNL A   1      47.529  29.460  30.083  1.00  0.00     0.029 A 
ATOM     55  N   UNL A   1      45.378  28.977  29.783  1.00  0.00    -0.354 N 
ATOM     56  N   UNL A   1      42.507  29.588  29.671  1.00  0.00    -0.248 NA
ATOM     57  C   UNL A   1      40.736  31.086  29.937  1.00  0.00     0.031 C 
ATOM     58  C   UNL A   1      46.775  30.603  30.365  1.00  0.00     0.029 A 
ATOM     59  C   UNL A   1      45.438  30.312  30.147  1.00  0.00     0.049 A 
ATOM     60  H   UNL A   1      44.552  28.483  29.578  1.00  0.00     0.167 HD
ATOM     61  C   UNL A   1      43.013  30.828  30.039  1.00  0.00     0.074 A 
ATOM     62  C   UNL A   1      41.880  31.722  30.157  1.00  0.00     0.031 C 
ATOM     63  C   UNL A   1      44.301  31.192  30.256  1.00  0.00     0.037 A 
BRANCH  50  64
ATOM     64  C   UNL A   1      48.399  26.634  29.477  1.00  0.00     0.057 A 
ATOM     65  C   UNL A   1      49.219  26.740  28.346  1.00  0.00     0.134 A 
ATOM     66  C   UNL A   1      48.955  26.050  30.623  1.00  0.00     0.134 A 
ATOM     67  F   UNL A   1      48.751  27.285  27.213  1.00  0.00    -0.206 F 
ATOM     68  C   UNL A   1      50.534  26.269  28.351  1.00  0.00     0.040 A 
ATOM     69  C   UNL A   1      50.277  25.602  30.649  1.00  0.00     0.040 A 
ATOM     70  F   UNL A   1      48.230  25.930  31.746  1.00  0.00    -0.206 F 
ATOM     71  C   UNL A   1      51.067  25.701  29.506  1.00  0.00     0.006 A 
ENDBRANCH  50  64
BRANCH  51  72
ATOM     72  C   UNL A   1      38.723  29.104  29.139  1.00  0.00     0.057 A 
ATOM     73  C   UNL A   1      38.146  29.591  27.960  1.00  0.00     0.134 A 
ATOM     74  C   UNL A   1      37.900  29.009  30.267  1.00  0.00     0.134 A 
ATOM     75  F   UNL A   1      38.883  29.716  26.846  1.00  0.00    -0.206 F 
ATOM     76  C   UNL A   1      36.809  29.988  27.910  1.00  0.00     0.040 A 
ATOM     77  C   UNL A   1      36.555  29.377  30.225  1.00  0.00     0.040 A 
ATOM     78  F   UNL A   1      38.391  28.536  31.423  1.00  0.00    -0.206 F 
ATOM     79  C   UNL A   1      36.008  29.877  29.045  1.00  0.00     0.006 A 
ENDBRANCH  51  72
BRANCH  63  80
ATOM     80  C   UNL A   1      44.566  32.626  30.612  1.00  0.00     0.057 A 
ATOM     81  C   UNL A   1      44.508  33.049  31.948  1.00  0.00     0.134 A 
ATOM     82  C   UNL A   1      44.815  33.600  29.637  1.00  0.00     0.134 A 
ATOM     83  F   UNL A   1      44.260  32.171  32.930  1.00  0.00    -0.206 F 
ATOM     84  C   UNL A   1      44.679  34.389  32.298  1.00  0.00     0.040 A 
ATOM     85  C   UNL A   1      45.020  34.938  29.978  1.00  0.00     0.040 A 
ATOM     86  F   UNL A   1      44.891  33.262  28.341  1.00  0.00    -0.206 F 
ATOM     87  C   UNL A   1      44.942  35.337  31.312  1.00  0.00     0.006 A 
ENDBRANCH  63  80
ENDBRANCH  37  38
ENDBRANCH  29  32
ENDBRANCH  27  28
ENDBRANCH  26  27
ENDBRANCH  25  26
ENDBRANCH   1  25
TORSDOF 16
ENDMDL
