MODEL 1
REMARK VINA RESULT:     -12.3      0.000      0.000
REMARK SMILES CCCc1cc(S(F)(F)(F)(F)F)cc2c1O[C@@H](C(F)(F)F)C(C(=O)NCCCCNC(=O)c1ccc(-c3c4nc(c(-c5c(F)cccc5F)c5ccc([nH]5)c(-c5c(F)cccc5F)c5nc(c(-c6c(F)cccc6F)c6ccc3[nH]6)C=C5)C=C4)cc1)=C2
REMARK SMILES IDX 27 1 26 2 25 3 23 4 24 5 22 7 4 8 5 9 15 10 6 11 14 12 16 13
REMARK SMILES IDX 13 14 87 15 17 16 3 17 2 18 1 19 7 20 8 21 9 22 10 23 11 24
REMARK SMILES IDX 12 25 18 26 19 27 20 28 21 29 28 30 29 31 30 32 31 33 32 35
REMARK SMILES IDX 33 36 34 37 86 38 35 39 85 40 36 41 37 42 38 43 79 44 39 45
REMARK SMILES IDX 84 46 78 47 80 48 40 49 83 50 77 51 76 52 41 54 67 55 50 56
REMARK SMILES IDX 66 57 51 58 54 59 65 60 81 61 52 62 53 63 64 65 82 66 55 67
REMARK SMILES IDX 42 68 43 69 48 70 44 71 45 72 47 73 49 74 46 75 68 76 69 77
REMARK SMILES IDX 74 78 70 79 71 80 73 81 75 82 72 83 56 84 57 85 62 86 58 87
REMARK SMILES IDX 59 88 61 89 63 90 60 91
REMARK H PARENT 25 6 30 34 80 53 54 64
REMARK Flexibility Score: inf
ROOT
ATOM      1  C   UNL A   1      37.134  21.427  24.219  1.00  0.00     0.023 C 
ENDROOT
BRANCH   1   2
ATOM      2  C   UNL A   1      36.193  22.183  25.141  1.00  0.00     0.116 C 
BRANCH   2   3
ATOM      3  N   UNL A   1      35.397  21.226  25.922  1.00  0.00    -0.352 N 
ATOM      4  C   UNL A   1      33.995  21.528  26.245  1.00  0.00     0.251 C 
ATOM      5  O   UNL A   1      33.306  20.700  26.920  1.00  0.00    -0.270 OA
ATOM      6  H   UNL A   1      35.802  20.383  26.229  1.00  0.00     0.163 HD
BRANCH   4   7
ATOM      7  C   UNL A   1      33.368  22.828  25.770  1.00  0.00     0.067 C 
ATOM      8  C   UNL A   1      31.944  26.361  24.056  1.00  0.00    -0.004 A 
ATOM      9  C   UNL A   1      32.219  27.578  24.654  1.00  0.00     0.032 A 
ATOM     10  C   UNL A   1      32.469  25.220  24.612  1.00  0.00     0.131 A 
ATOM     11  C   UNL A   1      33.002  27.651  25.775  1.00  0.00     0.108 A 
ATOM     12  C   UNL A   1      33.249  25.253  25.754  1.00  0.00     0.019 A 
ATOM     13  O   UNL A   1      32.282  24.034  23.944  1.00  0.00    -0.475 OA
ATOM     14  C   UNL A   1      33.509  26.493  26.327  1.00  0.00     0.036 A 
ATOM     15  C   UNL A   1      33.790  23.996  26.241  1.00  0.00     0.025 C 
ATOM     16  C   UNL A   1      32.240  22.821  24.747  1.00  0.00     0.314 C 
BRANCH   8  17
ATOM     17  C   UNL A   1      31.060  26.285  22.821  1.00  0.00     0.039 C 
BRANCH  17  18
ATOM     18  C   UNL A   1      29.836  27.163  23.020  1.00  0.00     0.001 C 
ATOM     19  C   UNL A   1      28.859  26.466  23.953  1.00  0.00     0.004 C 
ENDBRANCH  17  18
ENDBRANCH   8  17
BRANCH  11  20
ATOM     20  S   UNL A   1      33.369  29.256  26.528  1.00  0.00     0.310 S 
ATOM     21  F   UNL A   1      33.936  28.754  27.922  1.00  0.00    -0.094 F 
ATOM     22  F   UNL A   1      31.945  29.300  27.201  1.00  0.00    -0.094 F 
ATOM     23  F   UNL A   1      33.667  30.707  26.999  1.00  0.00    -0.094 F 
ATOM     24  F   UNL A   1      34.842  29.142  25.969  1.00  0.00    -0.094 F 
ATOM     25  F   UNL A   1      33.121  27.743  26.143  1.00  0.00    -0.094 F 
ENDBRANCH  11  20
BRANCH  16  26
ATOM     26  C   UNL A   1      32.407  21.616  23.835  1.00  0.00     0.429 C 
ATOM     27  F   UNL A   1      32.020  20.517  24.476  1.00  0.00    -0.167 F 
ATOM     28  F   UNL A   1      31.662  21.779  22.744  1.00  0.00    -0.167 F 
ATOM     29  F   UNL A   1      33.684  21.500  23.484  1.00  0.00    -0.167 F 
ENDBRANCH  16  26
ENDBRANCH   4   7
ENDBRANCH   2   3
ENDBRANCH   1   2
BRANCH   1  30
ATOM     30  C   UNL A   1      37.607  20.158  24.908  1.00  0.00     0.023 C 
BRANCH  30  31
ATOM     31  C   UNL A   1      38.813  20.472  25.778  1.00  0.00     0.116 C 
BRANCH  31  32
ATOM     32  N   UNL A   1      39.776  19.365  25.702  1.00  0.00    -0.352 N 
ATOM     33  C   UNL A   1      41.179  19.584  26.080  1.00  0.00     0.251 C 
ATOM     34  H   UNL A   1      39.482  18.477  25.396  1.00  0.00     0.163 HD
ATOM     35  O   UNL A   1      42.012  18.626  26.013  1.00  0.00    -0.269 OA
BRANCH  33  36
ATOM     36  C   UNL A   1      41.634  20.956  26.551  1.00  0.00     0.039 A 
ATOM     37  C   UNL A   1      42.063  21.944  25.681  1.00  0.00     0.014 A 
ATOM     38  C   UNL A   1      41.548  21.178  27.858  1.00  0.00     0.014 A 
ATOM     39  C   UNL A   1      42.660  23.055  26.324  1.00  0.00     0.010 A 
ATOM     40  C   UNL A   1      42.029  22.345  28.401  1.00  0.00     0.010 A 
ATOM     41  C   UNL A   1      42.523  23.341  27.605  1.00  0.00    -0.014 A 
BRANCH  41  42
ATOM     42  C   UNL A   1      42.893  24.704  28.166  1.00  0.00     0.031 A 
ATOM     43  C   UNL A   1      41.837  25.604  28.324  1.00  0.00     0.074 A 
ATOM     44  C   UNL A   1      44.219  25.015  28.415  1.00  0.00     0.049 A 
ATOM     45  N   UNL A   1      41.900  26.864  28.758  1.00  0.00    -0.248 NA
ATOM     46  C   UNL A   1      40.433  25.287  28.027  1.00  0.00     0.031 C 
ATOM     47  C   UNL A   1      45.288  24.110  28.266  1.00  0.00     0.029 A 
ATOM     48  N   UNL A   1      44.740  26.217  28.841  1.00  0.00    -0.354 N 
ATOM     49  C   UNL A   1      40.680  27.401  28.793  1.00  0.00     0.074 A 
ATOM     50  C   UNL A   1      39.718  26.396  28.317  1.00  0.00     0.031 C 
ATOM     51  C   UNL A   1      46.438  24.761  28.585  1.00  0.00     0.029 A 
ATOM     52  C   UNL A   1      46.108  26.082  28.940  1.00  0.00     0.049 A 
ATOM     53  H   UNL A   1      44.225  27.031  29.039  1.00  0.00     0.167 HD
ATOM     54  C   UNL A   1      40.329  28.688  29.205  1.00  0.00     0.037 A 
ATOM     55  C   UNL A   1      47.030  27.045  29.315  1.00  0.00     0.037 A 
ATOM     56  C   UNL A   1      41.248  29.638  29.622  1.00  0.00     0.049 A 
ATOM     57  C   UNL A   1      46.685  28.351  29.672  1.00  0.00     0.074 A 
ATOM     58  C   UNL A   1      40.912  30.937  30.047  1.00  0.00     0.029 A 
ATOM     59  N   UNL A   1      42.618  29.511  29.697  1.00  0.00    -0.354 N 
ATOM     60  N   UNL A   1      45.461  28.876  29.743  1.00  0.00    -0.248 NA
ATOM     61  C   UNL A   1      47.657  29.390  30.039  1.00  0.00     0.031 C 
ATOM     62  C   UNL A   1      42.062  31.588  30.366  1.00  0.00     0.029 A 
ATOM     63  C   UNL A   1      43.136  30.706  30.144  1.00  0.00     0.049 A 
ATOM     64  H   UNL A   1      43.136  28.705  29.471  1.00  0.00     0.167 HD
ATOM     65  C   UNL A   1      45.528  30.148  30.139  1.00  0.00     0.074 A 
ATOM     66  C   UNL A   1      46.943  30.500  30.327  1.00  0.00     0.031 C 
ATOM     67  C   UNL A   1      44.468  31.031  30.353  1.00  0.00     0.037 A 
BRANCH  54  68
ATOM     68  C   UNL A   1      38.858  29.068  29.196  1.00  0.00     0.057 A 
ATOM     69  C   UNL A   1      38.312  29.647  28.062  1.00  0.00     0.134 A 
ATOM     70  C   UNL A   1      38.119  28.840  30.275  1.00  0.00     0.134 A 
ATOM     71  F   UNL A   1      38.933  29.665  26.886  1.00  0.00    -0.206 F 
ATOM     72  C   UNL A   1      37.035  30.219  28.268  1.00  0.00     0.040 A 
ATOM     73  C   UNL A   1      36.831  29.311  30.355  1.00  0.00     0.040 A 
ATOM     74  F   UNL A   1      38.632  28.148  31.290  1.00  0.00    -0.206 F 
ATOM     75  C   UNL A   1      36.248  29.946  29.293  1.00  0.00     0.006 A 
ENDBRANCH  54  68
BRANCH  55  76
ATOM     76  C   UNL A   1      48.499  26.659  29.340  1.00  0.00     0.057 A 
ATOM     77  C   UNL A   1      49.281  26.886  28.219  1.00  0.00     0.134 A 
ATOM     78  C   UNL A   1      49.010  26.111  30.437  1.00  0.00     0.134 A 
ATOM     79  F   UNL A   1      48.889  27.652  27.204  1.00  0.00    -0.206 F 
ATOM     80  C   UNL A   1      50.534  26.230  28.251  1.00  0.00     0.040 A 
ATOM     81  C   UNL A   1      50.290  25.611  30.437  1.00  0.00     0.040 A 
ATOM     82  F   UNL A   1      48.276  26.043  31.543  1.00  0.00    -0.206 F 
ATOM     83  C   UNL A   1      51.099  25.748  29.344  1.00  0.00     0.006 A 
ENDBRANCH  55  76
BRANCH  67  84
ATOM     84  C   UNL A   1      44.793  32.432  30.845  1.00  0.00     0.057 A 
ATOM     85  C   UNL A   1      44.914  32.708  32.197  1.00  0.00     0.134 A 
ATOM     86  C   UNL A   1      44.970  33.376  29.929  1.00  0.00     0.134 A 
ATOM     87  F   UNL A   1      44.997  31.761  33.127  1.00  0.00    -0.206 F 
ATOM     88  C   UNL A   1      44.943  34.090  32.499  1.00  0.00     0.040 A 
ATOM     89  C   UNL A   1      45.127  34.690  30.302  1.00  0.00     0.040 A 
ATOM     90  F   UNL A   1      44.995  33.049  28.641  1.00  0.00    -0.206 F 
ATOM     91  C   UNL A   1      45.198  35.043  31.621  1.00  0.00     0.006 A 
ENDBRANCH  67  84
ENDBRANCH  41  42
ENDBRANCH  33  36
ENDBRANCH  31  32
ENDBRANCH  30  31
ENDBRANCH   1  30
TORSDOF 15
ENDMDL
MODEL 2
REMARK VINA RESULT:     -12.3      4.543      9.094
REMARK SMILES CCCc1cc(S(F)(F)(F)(F)F)cc2c1O[C@@H](C(F)(F)F)C(C(=O)NCCCCNC(=O)c1ccc(-c3c4nc(c(-c5c(F)cccc5F)c5ccc([nH]5)c(-c5c(F)cccc5F)c5nc(c(-c6c(F)cccc6F)c6ccc3[nH]6)C=C5)C=C4)cc1)=C2
REMARK SMILES IDX 27 1 26 2 25 3 23 4 24 5 22 7 4 8 5 9 15 10 6 11 14 12 16 13
REMARK SMILES IDX 13 14 87 15 17 16 3 17 2 18 1 19 7 20 8 21 9 22 10 23 11 24
REMARK SMILES IDX 12 25 18 26 19 27 20 28 21 29 28 30 29 31 30 32 31 33 32 35
REMARK SMILES IDX 33 36 34 37 86 38 35 39 85 40 36 41 37 42 38 43 79 44 39 45
REMARK SMILES IDX 84 46 78 47 80 48 40 49 83 50 77 51 76 52 41 54 67 55 50 56
REMARK SMILES IDX 66 57 51 58 54 59 65 60 81 61 52 62 53 63 64 65 82 66 55 67
REMARK SMILES IDX 42 68 43 69 48 70 44 71 45 72 47 73 49 74 46 75 68 76 69 77
REMARK SMILES IDX 74 78 70 79 71 80 73 81 75 82 72 83 56 84 57 85 62 86 58 87
REMARK SMILES IDX 59 88 61 89 63 90 60 91
REMARK H PARENT 25 6 30 34 80 53 54 64
REMARK Flexibility Score: inf
ROOT
ATOM      1  C   UNL A   1      31.779  30.007  26.960  1.00  0.00     0.023 C 
ENDROOT
BRANCH   1   2
ATOM      2  C   UNL A   1      32.820  29.410  26.028  1.00  0.00     0.116 C 
BRANCH   2   3
ATOM      3  N   UNL A   1      32.400  29.603  24.633  1.00  0.00    -0.352 N 
ATOM      4  C   UNL A   1      32.290  28.447  23.732  1.00  0.00     0.251 C 
ATOM      5  O   UNL A   1      31.926  28.615  22.525  1.00  0.00    -0.270 OA
ATOM      6  H   UNL A   1      32.191  30.507  24.303  1.00  0.00     0.163 HD
BRANCH   4   7
ATOM      7  C   UNL A   1      32.610  27.052  24.242  1.00  0.00     0.067 C 
ATOM      8  C   UNL A   1      33.360  23.390  26.104  1.00  0.00    -0.004 A 
ATOM      9  C   UNL A   1      34.654  22.908  26.184  1.00  0.00     0.032 A 
ATOM     10  C   UNL A   1      33.149  24.620  25.534  1.00  0.00     0.131 A 
ATOM     11  C   UNL A   1      35.709  23.642  25.710  1.00  0.00     0.108 A 
ATOM     12  C   UNL A   1      34.187  25.382  25.028  1.00  0.00     0.019 A 
ATOM     13  O   UNL A   1      31.874  25.134  25.564  1.00  0.00    -0.475 OA
ATOM     14  C   UNL A   1      35.476  24.870  25.128  1.00  0.00     0.036 A 
ATOM     15  C   UNL A   1      33.864  26.688  24.479  1.00  0.00     0.025 C 
ATOM     16  C   UNL A   1      31.499  26.040  24.489  1.00  0.00     0.314 C 
BRANCH   8  17
ATOM     17  C   UNL A   1      32.192  22.563  26.618  1.00  0.00     0.039 C 
BRANCH  17  18
ATOM     18  C   UNL A   1      31.446  21.955  25.442  1.00  0.00     0.001 C 
ATOM     19  C   UNL A   1      32.153  20.684  24.997  1.00  0.00     0.004 C 
ENDBRANCH  17  18
ENDBRANCH   8  17
BRANCH  11  20
ATOM     20  S   UNL A   1      37.398  23.004  25.846  1.00  0.00     0.310 S 
ATOM     21  F   UNL A   1      38.144  24.079  24.949  1.00  0.00    -0.094 F 
ATOM     22  F   UNL A   1      37.211  22.144  24.539  1.00  0.00    -0.094 F 
ATOM     23  F   UNL A   1      38.785  22.353  26.110  1.00  0.00    -0.094 F 
ATOM     24  F   UNL A   1      37.628  23.974  27.072  1.00  0.00    -0.094 F 
ATOM     25  F   UNL A   1      36.043  23.754  25.527  1.00  0.00    -0.094 F 
ENDBRANCH  11  20
BRANCH  16  26
ATOM     26  C   UNL A   1      30.232  26.781  24.883  1.00  0.00     0.429 C 
ATOM     27  F   UNL A   1      30.426  27.407  26.040  1.00  0.00    -0.167 F 
ATOM     28  F   UNL A   1      29.928  27.671  23.942  1.00  0.00    -0.167 F 
ATOM     29  F   UNL A   1      29.233  25.913  25.010  1.00  0.00    -0.167 F 
ENDBRANCH  16  26
ENDBRANCH   4   7
ENDBRANCH   2   3
ENDBRANCH   1   2
BRANCH   1  30
ATOM     30  C   UNL A   1      31.439  31.416  26.502  1.00  0.00     0.023 C 
BRANCH  30  31
ATOM     31  C   UNL A   1      32.634  32.326  26.733  1.00  0.00     0.116 C 
BRANCH  31  32
ATOM     32  N   UNL A   1      32.171  33.621  27.250  1.00  0.00    -0.352 N 
ATOM     33  C   UNL A   1      32.931  34.304  28.307  1.00  0.00     0.251 C 
ATOM     34  H   UNL A   1      31.352  34.031  26.891  1.00  0.00     0.163 HD
ATOM     35  O   UNL A   1      32.530  35.424  28.755  1.00  0.00    -0.269 OA
BRANCH  33  36
ATOM     36  C   UNL A   1      34.196  33.671  28.863  1.00  0.00     0.039 A 
ATOM     37  C   UNL A   1      35.447  34.250  28.727  1.00  0.00     0.014 A 
ATOM     38  C   UNL A   1      34.030  32.543  29.544  1.00  0.00     0.014 A 
ATOM     39  C   UNL A   1      36.515  33.402  29.104  1.00  0.00     0.010 A 
ATOM     40  C   UNL A   1      35.115  31.836  30.000  1.00  0.00     0.010 A 
ATOM     41  C   UNL A   1      36.385  32.319  29.847  1.00  0.00    -0.014 A 
BRANCH  41  42
ATOM     42  C   UNL A   1      37.582  31.645  30.498  1.00  0.00     0.031 A 
ATOM     43  C   UNL A   1      38.248  30.700  29.716  1.00  0.00     0.074 A 
ATOM     44  C   UNL A   1      37.905  31.927  31.815  1.00  0.00     0.049 A 
ATOM     45  N   UNL A   1      39.296  29.950  30.062  1.00  0.00    -0.248 NA
ATOM     46  C   UNL A   1      37.884  30.374  28.329  1.00  0.00     0.031 C 
ATOM     47  C   UNL A   1      37.243  32.885  32.607  1.00  0.00     0.029 A 
ATOM     48  N   UNL A   1      38.895  31.355  32.583  1.00  0.00    -0.354 N 
ATOM     49  C   UNL A   1      39.668  29.178  29.040  1.00  0.00     0.074 A 
ATOM     50  C   UNL A   1      38.761  29.434  27.912  1.00  0.00     0.031 C 
ATOM     51  C   UNL A   1      37.818  32.882  33.839  1.00  0.00     0.029 A 
ATOM     52  C   UNL A   1      38.848  31.924  33.837  1.00  0.00     0.049 A 
ATOM     53  H   UNL A   1      39.526  30.660  32.288  1.00  0.00     0.167 HD
ATOM     54  C   UNL A   1      40.728  28.270  29.003  1.00  0.00     0.037 A 
ATOM     55  C   UNL A   1      39.649  31.634  34.930  1.00  0.00     0.037 A 
ATOM     56  C   UNL A   1      41.557  28.013  30.084  1.00  0.00     0.049 A 
ATOM     57  C   UNL A   1      40.673  30.684  34.911  1.00  0.00     0.074 A 
ATOM     58  C   UNL A   1      42.634  27.107  30.061  1.00  0.00     0.029 A 
ATOM     59  N   UNL A   1      41.494  28.563  31.345  1.00  0.00    -0.354 N 
ATOM     60  N   UNL A   1      41.070  29.940  33.877  1.00  0.00    -0.248 NA
ATOM     61  C   UNL A   1      41.507  30.346  36.072  1.00  0.00     0.031 C 
ATOM     62  C   UNL A   1      43.209  27.103  31.293  1.00  0.00     0.029 A 
ATOM     63  C   UNL A   1      42.498  28.006  32.106  1.00  0.00     0.049 A 
ATOM     64  H   UNL A   1      40.845  29.237  31.649  1.00  0.00     0.167 HD
ATOM     65  C   UNL A   1      42.091  29.161  34.236  1.00  0.00     0.074 A 
ATOM     66  C   UNL A   1      42.382  29.405  35.656  1.00  0.00     0.031 C 
ATOM     67  C   UNL A   1      42.795  28.258  33.437  1.00  0.00     0.037 A 
BRANCH  54  68
ATOM     68  C   UNL A   1      40.988  27.524  27.705  1.00  0.00     0.057 A 
ATOM     69  C   UNL A   1      40.398  26.288  27.501  1.00  0.00     0.134 A 
ATOM     70  C   UNL A   1      41.779  28.069  26.788  1.00  0.00     0.134 A 
ATOM     71  F   UNL A   1      39.414  25.820  28.263  1.00  0.00    -0.206 F 
ATOM     72  C   UNL A   1      40.937  25.569  26.409  1.00  0.00     0.040 A 
ATOM     73  C   UNL A   1      42.156  27.356  25.676  1.00  0.00     0.040 A 
ATOM     74  F   UNL A   1      42.209  29.319  26.946  1.00  0.00    -0.206 F 
ATOM     75  C   UNL A   1      41.658  26.104  25.441  1.00  0.00     0.006 A 
ENDBRANCH  54  68
BRANCH  55  76
ATOM     76  C   UNL A   1      39.399  32.393  36.223  1.00  0.00     0.057 A 
ATOM     77  C   UNL A   1      38.407  31.956  37.086  1.00  0.00     0.134 A 
ATOM     78  C   UNL A   1      40.136  33.461  36.504  1.00  0.00     0.134 A 
ATOM     79  F   UNL A   1      37.823  30.766  36.977  1.00  0.00    -0.206 F 
ATOM     80  C   UNL A   1      38.072  32.892  38.093  1.00  0.00     0.040 A 
ATOM     81  C   UNL A   1      39.833  34.255  37.584  1.00  0.00     0.040 A 
ATOM     82  F   UNL A   1      41.175  33.766  35.733  1.00  0.00    -0.206 F 
ATOM     83  C   UNL A   1      38.828  33.916  38.446  1.00  0.00     0.006 A 
ENDBRANCH  55  76
BRANCH  67  84
ATOM     84  C   UNL A   1      43.957  27.504  34.064  1.00  0.00     0.057 A 
ATOM     85  C   UNL A   1      45.240  28.028  34.059  1.00  0.00     0.134 A 
ATOM     86  C   UNL A   1      43.693  26.333  34.630  1.00  0.00     0.134 A 
ATOM     87  F   UNL A   1      45.506  29.291  33.737  1.00  0.00    -0.206 F 
ATOM     88  C   UNL A   1      46.240  27.098  34.427  1.00  0.00     0.040 A 
ATOM     89  C   UNL A   1      44.712  25.535  35.092  1.00  0.00     0.040 A 
ATOM     90  F   UNL A   1      42.433  25.929  34.752  1.00  0.00    -0.206 F 
ATOM     91  C   UNL A   1      46.010  25.964  35.064  1.00  0.00     0.006 A 
ENDBRANCH  67  84
ENDBRANCH  41  42
ENDBRANCH  33  36
ENDBRANCH  31  32
ENDBRANCH  30  31
ENDBRANCH   1  30
TORSDOF 15
ENDMDL
MODEL 3
REMARK VINA RESULT:     -12.3      2.756      7.690
REMARK SMILES CCCc1cc(S(F)(F)(F)(F)F)cc2c1O[C@@H](C(F)(F)F)C(C(=O)NCCCCNC(=O)c1ccc(-c3c4nc(c(-c5c(F)cccc5F)c5ccc([nH]5)c(-c5c(F)cccc5F)c5nc(c(-c6c(F)cccc6F)c6ccc3[nH]6)C=C5)C=C4)cc1)=C2
REMARK SMILES IDX 27 1 26 2 25 3 23 4 24 5 22 7 4 8 5 9 15 10 6 11 14 12 16 13
REMARK SMILES IDX 13 14 87 15 17 16 3 17 2 18 1 19 7 20 8 21 9 22 10 23 11 24
REMARK SMILES IDX 12 25 18 26 19 27 20 28 21 29 28 30 29 31 30 32 31 33 32 35
REMARK SMILES IDX 33 36 34 37 86 38 35 39 85 40 36 41 37 42 38 43 79 44 39 45
REMARK SMILES IDX 84 46 78 47 80 48 40 49 83 50 77 51 76 52 41 54 67 55 50 56
REMARK SMILES IDX 66 57 51 58 54 59 65 60 81 61 52 62 53 63 64 65 82 66 55 67
REMARK SMILES IDX 42 68 43 69 48 70 44 71 45 72 47 73 49 74 46 75 68 76 69 77
REMARK SMILES IDX 74 78 70 79 71 80 73 81 75 82 72 83 56 84 57 85 62 86 58 87
REMARK SMILES IDX 59 88 61 89 63 90 60 91
REMARK H PARENT 25 6 30 34 80 53 54 64
REMARK Flexibility Score: inf
ROOT
ATOM      1  C   UNL A   1      32.053  29.183  25.819  1.00  0.00     0.023 C 
ENDROOT
BRANCH   1   2
ATOM      2  C   UNL A   1      31.244  27.927  25.542  1.00  0.00     0.116 C 
BRANCH   2   3
ATOM      3  N   UNL A   1      30.598  28.039  24.227  1.00  0.00    -0.352 N 
ATOM      4  C   UNL A   1      30.943  27.094  23.155  1.00  0.00     0.251 C 
ATOM      5  O   UNL A   1      30.384  27.192  22.018  1.00  0.00    -0.270 OA
ATOM      6  H   UNL A   1      29.934  28.748  24.063  1.00  0.00     0.163 HD
BRANCH   4   7
ATOM      7  C   UNL A   1      31.965  25.999  23.407  1.00  0.00     0.067 C 
ATOM      8  C   UNL A   1      34.815  22.950  23.594  1.00  0.00    -0.004 A 
ATOM      9  C   UNL A   1      34.462  21.705  24.081  1.00  0.00     0.032 A 
ATOM     10  C   UNL A   1      33.846  23.918  23.494  1.00  0.00     0.131 A 
ATOM     11  C   UNL A   1      33.172  21.434  24.454  1.00  0.00     0.108 A 
ATOM     12  C   UNL A   1      32.536  23.686  23.878  1.00  0.00     0.019 A 
ATOM     13  O   UNL A   1      34.185  25.112  22.904  1.00  0.00    -0.475 OA
ATOM     14  C   UNL A   1      32.215  22.422  24.359  1.00  0.00     0.036 A 
ATOM     15  C   UNL A   1      31.577  24.763  23.696  1.00  0.00     0.025 C 
ATOM     16  C   UNL A   1      33.457  26.295  23.336  1.00  0.00     0.314 C 
BRANCH   8  17
ATOM     17  C   UNL A   1      36.252  23.250  23.197  1.00  0.00     0.039 C 
BRANCH  17  18
ATOM     18  C   UNL A   1      37.191  22.756  24.285  1.00  0.00     0.001 C 
ATOM     19  C   UNL A   1      37.155  23.719  25.461  1.00  0.00     0.004 C 
ENDBRANCH  17  18
ENDBRANCH   8  17
BRANCH  11  20
ATOM     20  S   UNL A   1      32.726  19.790  25.066  1.00  0.00     0.310 S 
ATOM     21  F   UNL A   1      34.093  19.037  24.780  1.00  0.00    -0.094 F 
ATOM     22  F   UNL A   1      32.262  19.346  23.627  1.00  0.00    -0.094 F 
ATOM     23  F   UNL A   1      32.195  18.462  25.677  1.00  0.00    -0.094 F 
ATOM     24  F   UNL A   1      33.324  20.189  26.472  1.00  0.00    -0.094 F 
ATOM     25  F   UNL A   1      33.370  21.090  24.439  1.00  0.00    -0.094 F 
ENDBRANCH  11  20
BRANCH  16  26
ATOM     26  C   UNL A   1      33.692  27.415  22.335  1.00  0.00     0.429 C 
ATOM     27  F   UNL A   1      32.967  28.476  22.677  1.00  0.00    -0.167 F 
ATOM     28  F   UNL A   1      34.982  27.742  22.331  1.00  0.00    -0.167 F 
ATOM     29  F   UNL A   1      33.336  27.006  21.121  1.00  0.00    -0.167 F 
ENDBRANCH  16  26
ENDBRANCH   4   7
ENDBRANCH   2   3
ENDBRANCH   1   2
BRANCH   1  30
ATOM     30  C   UNL A   1      33.532  28.836  25.849  1.00  0.00     0.023 C 
BRANCH  30  31
ATOM     31  C   UNL A   1      34.020  28.820  27.288  1.00  0.00     0.116 C 
BRANCH  31  32
ATOM     32  N   UNL A   1      33.673  30.092  27.938  1.00  0.00    -0.352 N 
ATOM     33  C   UNL A   1      34.709  30.869  28.633  1.00  0.00     0.251 C 
ATOM     34  H   UNL A   1      32.746  30.423  27.909  1.00  0.00     0.163 HD
ATOM     35  O   UNL A   1      34.409  31.968  29.196  1.00  0.00    -0.269 OA
BRANCH  33  36
ATOM     36  C   UNL A   1      36.140  30.358  28.679  1.00  0.00     0.039 A 
ATOM     37  C   UNL A   1      37.015  30.481  27.612  1.00  0.00     0.014 A 
ATOM     38  C   UNL A   1      36.531  29.828  29.832  1.00  0.00     0.014 A 
ATOM     39  C   UNL A   1      38.213  29.743  27.765  1.00  0.00     0.010 A 
ATOM     40  C   UNL A   1      37.768  29.244  29.949  1.00  0.00     0.010 A 
ATOM     41  C   UNL A   1      38.662  29.274  28.915  1.00  0.00    -0.014 A 
BRANCH  41  42
ATOM     42  C   UNL A   1      40.095  28.795  29.080  1.00  0.00     0.031 A 
ATOM     43  C   UNL A   1      41.003  29.744  29.553  1.00  0.00     0.074 A 
ATOM     44  C   UNL A   1      40.445  27.511  28.697  1.00  0.00     0.049 A 
ATOM     45  N   UNL A   1      42.313  29.589  29.750  1.00  0.00    -0.248 NA
ATOM     46  C   UNL A   1      40.638  31.118  29.927  1.00  0.00     0.031 C 
ATOM     47  C   UNL A   1      39.534  26.546  28.226  1.00  0.00     0.029 A 
ATOM     48  N   UNL A   1      41.699  26.941  28.698  1.00  0.00    -0.354 N 
ATOM     49  C   UNL A   1      42.844  30.714  30.231  1.00  0.00     0.074 A 
ATOM     50  C   UNL A   1      41.775  31.717  30.346  1.00  0.00     0.031 C 
ATOM     51  C   UNL A   1      40.229  25.415  27.937  1.00  0.00     0.029 A 
ATOM     52  C   UNL A   1      41.587  25.653  28.222  1.00  0.00     0.049 A 
ATOM     53  H   UNL A   1      42.531  27.379  28.988  1.00  0.00     0.167 HD
ATOM     54  C   UNL A   1      44.175  30.944  30.580  1.00  0.00     0.037 A 
ATOM     55  C   UNL A   1      42.600  24.726  28.038  1.00  0.00     0.037 A 
ATOM     56  C   UNL A   1      45.181  30.001  30.437  1.00  0.00     0.049 A 
ATOM     57  C   UNL A   1      43.942  24.975  28.333  1.00  0.00     0.074 A 
ATOM     58  C   UNL A   1      46.527  30.214  30.790  1.00  0.00     0.029 A 
ATOM     59  N   UNL A   1      45.073  28.722  29.937  1.00  0.00    -0.354 N 
ATOM     60  N   UNL A   1      44.466  26.088  28.850  1.00  0.00    -0.248 NA
ATOM     61  C   UNL A   1      45.028  24.011  28.111  1.00  0.00     0.031 C 
ATOM     62  C   UNL A   1      47.223  29.083  30.500  1.00  0.00     0.029 A 
ATOM     63  C   UNL A   1      46.324  28.145  29.960  1.00  0.00     0.049 A 
ATOM     64  H   UNL A   1      44.245  28.294  29.620  1.00  0.00     0.167 HD
ATOM     65  C   UNL A   1      45.783  25.946  29.008  1.00  0.00     0.074 A 
ATOM     66  C   UNL A   1      46.165  24.610  28.528  1.00  0.00     0.031 C 
ATOM     67  C   UNL A   1      46.682  26.874  29.536  1.00  0.00     0.037 A 
BRANCH  54  68
ATOM     68  C   UNL A   1      44.543  32.304  31.149  1.00  0.00     0.057 A 
ATOM     69  C   UNL A   1      44.900  33.328  30.287  1.00  0.00     0.134 A 
ATOM     70  C   UNL A   1      44.517  32.489  32.464  1.00  0.00     0.134 A 
ATOM     71  F   UNL A   1      44.700  33.273  28.973  1.00  0.00    -0.206 F 
ATOM     72  C   UNL A   1      45.496  34.438  30.931  1.00  0.00     0.040 A 
ATOM     73  C   UNL A   1      44.991  33.654  33.016  1.00  0.00     0.040 A 
ATOM     74  F   UNL A   1      44.027  31.537  33.254  1.00  0.00    -0.206 F 
ATOM     75  C   UNL A   1      45.416  34.686  32.225  1.00  0.00     0.006 A 
ENDBRANCH  54  68
BRANCH  55  76
ATOM     76  C   UNL A   1      42.228  23.360  27.485  1.00  0.00     0.057 A 
ATOM     77  C   UNL A   1      42.213  23.164  26.114  1.00  0.00     0.134 A 
ATOM     78  C   UNL A   1      41.925  22.377  28.325  1.00  0.00     0.134 A 
ATOM     79  F   UNL A   1      42.746  24.025  25.251  1.00  0.00    -0.206 F 
ATOM     80  C   UNL A   1      41.579  21.963  25.713  1.00  0.00     0.040 A 
ATOM     81  C   UNL A   1      41.438  21.181  27.856  1.00  0.00     0.040 A 
ATOM     82  F   UNL A   1      42.094  22.553  29.632  1.00  0.00    -0.206 F 
ATOM     83  C   UNL A   1      41.341  20.940  26.513  1.00  0.00     0.006 A 
ENDBRANCH  55  76
BRANCH  67  84
ATOM     84  C   UNL A   1      48.142  26.467  29.655  1.00  0.00     0.057 A 
ATOM     85  C   UNL A   1      48.637  25.898  30.816  1.00  0.00     0.134 A 
ATOM     86  C   UNL A   1      48.920  26.665  28.597  1.00  0.00     0.134 A 
ATOM     87  F   UNL A   1      47.856  25.452  31.796  1.00  0.00    -0.206 F 
ATOM     88  C   UNL A   1      50.049  25.833  30.865  1.00  0.00     0.040 A 
ATOM     89  C   UNL A   1      50.275  26.451  28.677  1.00  0.00     0.040 A 
ATOM     90  F   UNL A   1      48.384  27.071  27.451  1.00  0.00    -0.206 F 
ATOM     91  C   UNL A   1      50.841  25.945  29.814  1.00  0.00     0.006 A 
ENDBRANCH  67  84
ENDBRANCH  41  42
ENDBRANCH  33  36
ENDBRANCH  31  32
ENDBRANCH  30  31
ENDBRANCH   1  30
TORSDOF 15
ENDMDL
