MODEL 1
REMARK VINA RESULT:     -12.2      0.000      0.000
REMARK SMILES O=C(NCCCCNC(=O)c1ccc(-c2c3nc(c(-c4c(F)cccc4F)c4ccc([nH]4)c(-c4c(F)cccc4F)c4nc(c(-c5c(F)cccc5F)c5ccc2[nH]5)C=C4)C=C3)cc1)C1=Cc2cc(Cl)cc(Cl)c2O[C@@H]1C(F)(F)F
REMARK SMILES IDX 6 1 5 2 4 3 3 4 1 5 2 6 65 8 66 9 76 10 67 11 75 12 68 13
REMARK SMILES IDX 74 14 69 15 72 16 70 17 71 18 73 19 77 20 78 21 79 22 80 23
REMARK SMILES IDX 7 24 8 25 9 26 10 28 11 29 12 30 64 31 13 32 63 33 14 34
REMARK SMILES IDX 15 35 16 36 57 37 17 38 62 39 56 40 58 41 18 42 61 43 55 44
REMARK SMILES IDX 54 45 19 47 45 48 28 49 44 50 29 51 32 52 43 53 59 54 30 55
REMARK SMILES IDX 31 56 42 58 60 59 33 60 20 61 21 62 26 63 22 64 23 65 25 66
REMARK SMILES IDX 27 67 24 68 46 69 47 70 52 71 48 72 49 73 51 74 53 75 50 76
REMARK SMILES IDX 34 77 35 78 40 79 36 80 37 81 39 82 41 83 38 84
REMARK H PARENT 3 7 8 27 58 46 32 57
REMARK Flexibility Score: inf
ROOT
ATOM      1  C   UNL A   1      33.177  28.366  27.245  1.00  0.00     0.023 C 
ENDROOT
BRANCH   1   2
ATOM      2  C   UNL A   1      31.743  28.240  26.740  1.00  0.00     0.023 C 
BRANCH   2   3
ATOM      3  C   UNL A   1      31.431  26.944  25.994  1.00  0.00     0.116 C 
BRANCH   3   4
ATOM      4  N   UNL A   1      31.267  25.769  26.848  1.00  0.00    -0.352 N 
ATOM      5  O   UNL A   1      31.781  23.699  27.626  1.00  0.00    -0.270 OA
ATOM      6  C   UNL A   1      31.810  24.508  26.708  1.00  0.00     0.251 C 
ATOM      7  H   UNL A   1      30.688  25.895  27.635  1.00  0.00     0.163 HD
BRANCH   6   8
ATOM      8  C   UNL A   1      32.538  24.207  25.457  1.00  0.00     0.067 C 
ATOM      9  C   UNL A   1      33.793  24.645  25.285  1.00  0.00     0.025 C 
ATOM     10  C   UNL A   1      31.966  23.140  24.576  1.00  0.00     0.314 C 
ATOM     11  C   UNL A   1      34.708  23.537  24.942  1.00  0.00     0.020 A 
ATOM     12  O   UNL A   1      32.854  22.005  24.476  1.00  0.00    -0.474 OA
ATOM     13  C   UNL A   1      36.051  23.678  25.320  1.00  0.00     0.032 A 
ATOM     14  C   UNL A   1      34.195  22.245  24.682  1.00  0.00     0.146 A 
ATOM     15  C   UNL A   1      36.850  22.546  25.489  1.00  0.00     0.043 A 
ATOM     16  C   UNL A   1      35.026  21.124  24.820  1.00  0.00     0.085 A 
ATOM     17  Cl  UNL A   1      38.436  22.723  26.129  1.00  0.00    -0.084 Cl
ATOM     18  C   UNL A   1      36.346  21.272  25.244  1.00  0.00     0.045 A 
ATOM     19  Cl  UNL A   1      34.406  19.522  24.626  1.00  0.00    -0.080 Cl
BRANCH  10  20
ATOM     20  C   UNL A   1      31.620  23.693  23.182  1.00  0.00     0.429 C 
ATOM     21  F   UNL A   1      32.329  23.064  22.215  1.00  0.00    -0.167 F 
ATOM     22  F   UNL A   1      30.310  23.523  22.883  1.00  0.00    -0.167 F 
ATOM     23  F   UNL A   1      31.885  25.017  23.073  1.00  0.00    -0.167 F 
ENDBRANCH  10  20
ENDBRANCH   6   8
ENDBRANCH   3   4
ENDBRANCH   2   3
ENDBRANCH   1   2
BRANCH   1  24
ATOM     24  C   UNL A   1      33.928  29.635  26.848  1.00  0.00     0.116 C 
BRANCH  24  25
ATOM     25  N   UNL A   1      33.964  30.671  27.875  1.00  0.00    -0.352 N 
ATOM     26  C   UNL A   1      34.982  30.963  28.759  1.00  0.00     0.251 C 
ATOM     27  H   UNL A   1      33.158  31.233  27.946  1.00  0.00     0.163 HD
ATOM     28  O   UNL A   1      34.864  31.858  29.590  1.00  0.00    -0.269 OA
BRANCH  26  29
ATOM     29  C   UNL A   1      36.204  30.136  28.722  1.00  0.00     0.039 A 
ATOM     30  C   UNL A   1      37.007  30.164  27.580  1.00  0.00     0.014 A 
ATOM     31  C   UNL A   1      36.620  29.463  29.872  1.00  0.00     0.014 A 
ATOM     32  C   UNL A   1      38.291  29.615  27.631  1.00  0.00     0.010 A 
ATOM     33  C   UNL A   1      37.925  28.989  29.944  1.00  0.00     0.010 A 
ATOM     34  C   UNL A   1      38.783  29.083  28.835  1.00  0.00    -0.014 A 
BRANCH  34  35
ATOM     35  C   UNL A   1      40.197  28.651  28.988  1.00  0.00     0.031 A 
ATOM     36  C   UNL A   1      41.235  29.647  29.421  1.00  0.00     0.074 A 
ATOM     37  C   UNL A   1      40.567  27.409  28.610  1.00  0.00     0.049 A 
ATOM     38  N   UNL A   1      42.538  29.538  29.421  1.00  0.00    -0.248 NA
ATOM     39  C   UNL A   1      40.740  30.956  29.876  1.00  0.00     0.031 C 
ATOM     40  C   UNL A   1      39.667  26.362  28.120  1.00  0.00     0.029 A 
ATOM     41  N   UNL A   1      41.810  26.827  28.549  1.00  0.00    -0.354 N 
ATOM     42  C   UNL A   1      43.018  30.776  29.825  1.00  0.00     0.074 A 
ATOM     43  C   UNL A   1      41.869  31.630  30.038  1.00  0.00     0.031 C 
ATOM     44  C   UNL A   1      40.386  25.268  27.817  1.00  0.00     0.029 A 
ATOM     45  C   UNL A   1      41.799  25.546  28.048  1.00  0.00     0.049 A 
ATOM     46  H   UNL A   1      42.633  27.284  28.839  1.00  0.00     0.167 HD
ATOM     47  C   UNL A   1      44.301  31.163  30.014  1.00  0.00     0.037 A 
ATOM     48  C   UNL A   1      42.815  24.702  27.784  1.00  0.00     0.037 A 
ATOM     49  C   UNL A   1      45.437  30.293  29.871  1.00  0.00     0.049 A 
ATOM     50  C   UNL A   1      44.228  25.145  28.048  1.00  0.00     0.074 A 
ATOM     51  C   UNL A   1      46.767  30.564  30.139  1.00  0.00     0.029 A 
ATOM     52  N   UNL A   1      45.375  28.981  29.428  1.00  0.00    -0.354 N 
ATOM     53  N   UNL A   1      44.662  26.296  28.499  1.00  0.00    -0.248 NA
ATOM     54  C   UNL A   1      45.294  24.171  27.766  1.00  0.00     0.031 C 
ATOM     55  C   UNL A   1      47.515  29.424  29.832  1.00  0.00     0.029 A 
ATOM     56  C   UNL A   1      46.645  28.434  29.405  1.00  0.00     0.049 A 
ATOM     57  H   UNL A   1      44.550  28.510  29.170  1.00  0.00     0.167 HD
ATOM     58  C   UNL A   1      46.041  26.174  28.589  1.00  0.00     0.074 A 
ATOM     59  C   UNL A   1      46.375  24.835  28.151  1.00  0.00     0.031 C 
ATOM     60  C   UNL A   1      46.953  27.089  28.997  1.00  0.00     0.037 A 
BRANCH  47  61
ATOM     61  C   UNL A   1      44.550  32.587  30.410  1.00  0.00     0.057 A 
ATOM     62  C   UNL A   1      44.722  33.599  29.458  1.00  0.00     0.134 A 
ATOM     63  C   UNL A   1      44.562  32.957  31.761  1.00  0.00     0.134 A 
ATOM     64  F   UNL A   1      44.733  33.306  28.150  1.00  0.00    -0.206 F 
ATOM     65  C   UNL A   1      44.914  34.929  29.836  1.00  0.00     0.040 A 
ATOM     66  C   UNL A   1      44.729  34.286  32.151  1.00  0.00     0.040 A 
ATOM     67  F   UNL A   1      44.398  32.036  32.722  1.00  0.00    -0.206 F 
ATOM     68  C   UNL A   1      44.909  35.276  31.187  1.00  0.00     0.006 A 
ENDBRANCH  47  61
BRANCH  48  69
ATOM     69  C   UNL A   1      42.546  23.343  27.246  1.00  0.00     0.057 A 
ATOM     70  C   UNL A   1      42.242  22.278  28.102  1.00  0.00     0.134 A 
ATOM     71  C   UNL A   1      42.629  23.066  25.877  1.00  0.00     0.134 A 
ATOM     72  F   UNL A   1      42.171  22.477  29.427  1.00  0.00    -0.206 F 
ATOM     73  C   UNL A   1      42.058  20.980  27.621  1.00  0.00     0.040 A 
ATOM     74  C   UNL A   1      42.421  21.777  25.379  1.00  0.00     0.040 A 
ATOM     75  F   UNL A   1      42.909  24.043  25.002  1.00  0.00    -0.206 F 
ATOM     76  C   UNL A   1      42.146  20.728  26.253  1.00  0.00     0.006 A 
ENDBRANCH  48  69
BRANCH  60  77
ATOM     77  C   UNL A   1      48.388  26.660  29.047  1.00  0.00     0.057 A 
ATOM     78  C   UNL A   1      49.281  26.952  28.010  1.00  0.00     0.134 A 
ATOM     79  C   UNL A   1      48.892  26.003  30.175  1.00  0.00     0.134 A 
ATOM     80  F   UNL A   1      48.855  27.568  26.897  1.00  0.00    -0.206 F 
ATOM     81  C   UNL A   1      50.627  26.593  28.089  1.00  0.00     0.040 A 
ATOM     82  C   UNL A   1      50.240  25.659  30.276  1.00  0.00     0.040 A 
ATOM     83  F   UNL A   1      48.087  25.703  31.205  1.00  0.00    -0.206 F 
ATOM     84  C   UNL A   1      51.111  25.951  29.228  1.00  0.00     0.006 A 
ENDBRANCH  60  77
ENDBRANCH  34  35
ENDBRANCH  26  29
ENDBRANCH  24  25
ENDBRANCH   1  24
TORSDOF 12
ENDMDL
MODEL 2
REMARK VINA RESULT:     -12.2      4.063      5.420
REMARK SMILES O=C(NCCCCNC(=O)c1ccc(-c2c3nc(c(-c4c(F)cccc4F)c4ccc([nH]4)c(-c4c(F)cccc4F)c4nc(c(-c5c(F)cccc5F)c5ccc2[nH]5)C=C4)C=C3)cc1)C1=Cc2cc(Cl)cc(Cl)c2O[C@@H]1C(F)(F)F
REMARK SMILES IDX 6 1 5 2 4 3 3 4 1 5 2 6 65 8 66 9 76 10 67 11 75 12 68 13
REMARK SMILES IDX 74 14 69 15 72 16 70 17 71 18 73 19 77 20 78 21 79 22 80 23
REMARK SMILES IDX 7 24 8 25 9 26 10 28 11 29 12 30 64 31 13 32 63 33 14 34
REMARK SMILES IDX 15 35 16 36 57 37 17 38 62 39 56 40 58 41 18 42 61 43 55 44
REMARK SMILES IDX 54 45 19 47 45 48 28 49 44 50 29 51 32 52 43 53 59 54 30 55
REMARK SMILES IDX 31 56 42 58 60 59 33 60 20 61 21 62 26 63 22 64 23 65 25 66
REMARK SMILES IDX 27 67 24 68 46 69 47 70 52 71 48 72 49 73 51 74 53 75 50 76
REMARK SMILES IDX 34 77 35 78 40 79 36 80 37 81 39 82 41 83 38 84
REMARK H PARENT 3 7 8 27 58 46 32 57
REMARK Flexibility Score: inf
ROOT
ATOM      1  C   UNL A   1      31.364  31.739  26.828  1.00  0.00     0.023 C 
ENDROOT
BRANCH   1   2
ATOM      2  C   UNL A   1      31.638  30.445  26.067  1.00  0.00     0.023 C 
BRANCH   2   3
ATOM      3  C   UNL A   1      32.226  29.312  26.907  1.00  0.00     0.116 C 
BRANCH   3   4
ATOM      4  N   UNL A   1      31.435  28.082  26.917  1.00  0.00    -0.352 N 
ATOM      5  O   UNL A   1      31.078  25.859  26.630  1.00  0.00    -0.270 OA
ATOM      6  C   UNL A   1      31.714  26.863  26.336  1.00  0.00     0.251 C 
ATOM      7  H   UNL A   1      30.582  28.132  27.407  1.00  0.00     0.163 HD
BRANCH   6   8
ATOM      8  C   UNL A   1      32.887  26.779  25.439  1.00  0.00     0.067 C 
ATOM      9  C   UNL A   1      34.040  26.259  25.883  1.00  0.00     0.025 C 
ATOM     10  C   UNL A   1      32.638  26.968  23.974  1.00  0.00     0.314 C 
ATOM     11  C   UNL A   1      34.510  25.167  25.007  1.00  0.00     0.020 A 
ATOM     12  O   UNL A   1      32.934  25.765  23.230  1.00  0.00    -0.474 OA
ATOM     13  C   UNL A   1      35.288  24.162  25.600  1.00  0.00     0.032 A 
ATOM     14  C   UNL A   1      33.849  24.898  23.786  1.00  0.00     0.146 A 
ATOM     15  C   UNL A   1      35.357  22.897  25.015  1.00  0.00     0.043 A 
ATOM     16  C   UNL A   1      33.963  23.632  23.195  1.00  0.00     0.085 A 
ATOM     17  Cl  UNL A   1      36.160  21.625  25.849  1.00  0.00    -0.084 Cl
ATOM     18  C   UNL A   1      34.698  22.626  23.819  1.00  0.00     0.045 A 
ATOM     19  Cl  UNL A   1      33.076  23.229  21.766  1.00  0.00    -0.080 Cl
BRANCH  10  20
ATOM     20  C   UNL A   1      33.433  28.166  23.423  1.00  0.00     0.429 C 
ATOM     21  F   UNL A   1      32.616  29.207  23.138  1.00  0.00    -0.167 F 
ATOM     22  F   UNL A   1      34.349  28.616  24.313  1.00  0.00    -0.167 F 
ATOM     23  F   UNL A   1      34.101  27.860  22.284  1.00  0.00    -0.167 F 
ENDBRANCH  10  20
ENDBRANCH   6   8
ENDBRANCH   3   4
ENDBRANCH   2   3
ENDBRANCH   1   2
BRANCH   1  24
ATOM     24  C   UNL A   1      32.257  32.930  26.487  1.00  0.00     0.116 C 
BRANCH  24  25
ATOM     25  N   UNL A   1      32.188  34.037  27.434  1.00  0.00    -0.352 N 
ATOM     26  C   UNL A   1      33.082  34.365  28.431  1.00  0.00     0.251 C 
ATOM     27  H   UNL A   1      31.401  34.624  27.351  1.00  0.00     0.163 HD
ATOM     28  O   UNL A   1      32.883  35.322  29.173  1.00  0.00    -0.269 OA
BRANCH  26  29
ATOM     29  C   UNL A   1      34.267  33.506  28.625  1.00  0.00     0.039 A 
ATOM     30  C   UNL A   1      35.525  34.101  28.735  1.00  0.00     0.014 A 
ATOM     31  C   UNL A   1      34.100  32.137  28.848  1.00  0.00     0.014 A 
ATOM     32  C   UNL A   1      36.606  33.340  29.190  1.00  0.00     0.010 A 
ATOM     33  C   UNL A   1      35.157  31.404  29.374  1.00  0.00     0.010 A 
ATOM     34  C   UNL A   1      36.413  32.003  29.576  1.00  0.00    -0.014 A 
BRANCH  34  35
ATOM     35  C   UNL A   1      37.485  31.207  30.229  1.00  0.00     0.031 A 
ATOM     36  C   UNL A   1      37.797  31.434  31.682  1.00  0.00     0.074 A 
ATOM     37  C   UNL A   1      38.262  30.386  29.491  1.00  0.00     0.049 A 
ATOM     38  N   UNL A   1      38.810  31.005  32.388  1.00  0.00    -0.248 NA
ATOM     39  C   UNL A   1      36.864  32.294  32.428  1.00  0.00     0.031 C 
ATOM     40  C   UNL A   1      38.100  30.118  28.060  1.00  0.00     0.029 A 
ATOM     41  N   UNL A   1      39.367  29.648  29.840  1.00  0.00    -0.354 N 
ATOM     42  C   UNL A   1      38.665  31.581  33.642  1.00  0.00     0.074 A 
ATOM     43  C   UNL A   1      37.480  32.410  33.595  1.00  0.00     0.031 C 
ATOM     44  C   UNL A   1      39.064  29.272  27.658  1.00  0.00     0.029 A 
ATOM     45  C   UNL A   1      39.937  28.972  28.787  1.00  0.00     0.049 A 
ATOM     46  H   UNL A   1      39.718  29.607  30.760  1.00  0.00     0.167 HD
ATOM     47  C   UNL A   1      39.442  31.423  34.739  1.00  0.00     0.037 A 
ATOM     48  C   UNL A   1      41.050  28.215  28.734  1.00  0.00     0.037 A 
ATOM     49  C   UNL A   1      40.578  30.543  34.804  1.00  0.00     0.049 A 
ATOM     50  C   UNL A   1      41.869  28.021  29.982  1.00  0.00     0.074 A 
ATOM     51  C   UNL A   1      41.366  30.238  35.900  1.00  0.00     0.029 A 
ATOM     52  N   UNL A   1      41.080  29.822  33.733  1.00  0.00    -0.354 N 
ATOM     53  N   UNL A   1      41.677  28.516  31.180  1.00  0.00    -0.248 NA
ATOM     54  C   UNL A   1      43.058  27.163  29.871  1.00  0.00     0.031 C 
ATOM     55  C   UNL A   1      42.365  29.353  35.485  1.00  0.00     0.029 A 
ATOM     56  C   UNL A   1      42.176  29.082  34.139  1.00  0.00     0.049 A 
ATOM     57  H   UNL A   1      40.711  29.835  32.821  1.00  0.00     0.167 HD
ATOM     58  C   UNL A   1      42.697  28.003  31.970  1.00  0.00     0.074 A 
ATOM     59  C   UNL A   1      43.503  27.154  31.119  1.00  0.00     0.031 C 
ATOM     60  C   UNL A   1      42.945  28.217  33.285  1.00  0.00     0.037 A 
BRANCH  47  61
ATOM     61  C   UNL A   1      39.087  32.207  35.965  1.00  0.00     0.057 A 
ATOM     62  C   UNL A   1      39.564  33.507  36.176  1.00  0.00     0.134 A 
ATOM     63  C   UNL A   1      38.211  31.675  36.921  1.00  0.00     0.134 A 
ATOM     64  F   UNL A   1      40.415  34.067  35.304  1.00  0.00    -0.206 F 
ATOM     65  C   UNL A   1      39.196  34.244  37.302  1.00  0.00     0.040 A 
ATOM     66  C   UNL A   1      37.817  32.411  38.038  1.00  0.00     0.040 A 
ATOM     67  F   UNL A   1      37.715  30.437  36.775  1.00  0.00    -0.206 F 
ATOM     68  C   UNL A   1      38.312  33.698  38.233  1.00  0.00     0.006 A 
ENDBRANCH  47  61
BRANCH  48  69
ATOM     69  C   UNL A   1      41.464  27.570  27.462  1.00  0.00     0.057 A 
ATOM     70  C   UNL A   1      41.089  26.253  27.168  1.00  0.00     0.134 A 
ATOM     71  C   UNL A   1      42.275  28.231  26.533  1.00  0.00     0.134 A 
ATOM     72  F   UNL A   1      40.331  25.560  28.030  1.00  0.00    -0.206 F 
ATOM     73  C   UNL A   1      41.529  25.607  26.011  1.00  0.00     0.040 A 
ATOM     74  C   UNL A   1      42.701  27.605  25.359  1.00  0.00     0.040 A 
ATOM     75  F   UNL A   1      42.664  29.496  26.751  1.00  0.00    -0.206 F 
ATOM     76  C   UNL A   1      42.337  26.285  25.101  1.00  0.00     0.006 A 
ENDBRANCH  48  69
BRANCH  60  77
ATOM     77  C   UNL A   1      44.096  27.480  33.899  1.00  0.00     0.057 A 
ATOM     78  C   UNL A   1      43.942  26.207  34.459  1.00  0.00     0.134 A 
ATOM     79  C   UNL A   1      45.384  28.027  33.870  1.00  0.00     0.134 A 
ATOM     80  F   UNL A   1      42.731  25.634  34.527  1.00  0.00    -0.206 F 
ATOM     81  C   UNL A   1      45.031  25.507  34.982  1.00  0.00     0.040 A 
ATOM     82  C   UNL A   1      46.484  27.329  34.369  1.00  0.00     0.040 A 
ATOM     83  F   UNL A   1      45.596  29.241  33.338  1.00  0.00    -0.206 F 
ATOM     84  C   UNL A   1      46.307  26.066  34.930  1.00  0.00     0.006 A 
ENDBRANCH  60  77
ENDBRANCH  34  35
ENDBRANCH  26  29
ENDBRANCH  24  25
ENDBRANCH   1  24
TORSDOF 12
ENDMDL
MODEL 3
REMARK VINA RESULT:     -12.1      4.198      7.725
REMARK SMILES O=C(NCCCCNC(=O)c1ccc(-c2c3nc(c(-c4c(F)cccc4F)c4ccc([nH]4)c(-c4c(F)cccc4F)c4nc(c(-c5c(F)cccc5F)c5ccc2[nH]5)C=C4)C=C3)cc1)C1=Cc2cc(Cl)cc(Cl)c2O[C@@H]1C(F)(F)F
REMARK SMILES IDX 6 1 5 2 4 3 3 4 1 5 2 6 65 8 66 9 76 10 67 11 75 12 68 13
REMARK SMILES IDX 74 14 69 15 72 16 70 17 71 18 73 19 77 20 78 21 79 22 80 23
REMARK SMILES IDX 7 24 8 25 9 26 10 28 11 29 12 30 64 31 13 32 63 33 14 34
REMARK SMILES IDX 15 35 16 36 57 37 17 38 62 39 56 40 58 41 18 42 61 43 55 44
REMARK SMILES IDX 54 45 19 47 45 48 28 49 44 50 29 51 32 52 43 53 59 54 30 55
REMARK SMILES IDX 31 56 42 58 60 59 33 60 20 61 21 62 26 63 22 64 23 65 25 66
REMARK SMILES IDX 27 67 24 68 46 69 47 70 52 71 48 72 49 73 51 74 53 75 50 76
REMARK SMILES IDX 34 77 35 78 40 79 36 80 37 81 39 82 41 83 38 84
REMARK H PARENT 3 7 8 27 58 46 32 57
REMARK Flexibility Score: inf
ROOT
ATOM      1  C   UNL A   1      31.407  31.499  26.800  1.00  0.00     0.023 C 
ENDROOT
BRANCH   1   2
ATOM      2  C   UNL A   1      31.781  30.176  26.139  1.00  0.00     0.023 C 
BRANCH   2   3
ATOM      3  C   UNL A   1      32.258  29.085  27.097  1.00  0.00     0.116 C 
BRANCH   3   4
ATOM      4  N   UNL A   1      31.471  27.854  27.065  1.00  0.00    -0.352 N 
ATOM      5  O   UNL A   1      31.111  25.648  26.670  1.00  0.00    -0.270 OA
ATOM      6  C   UNL A   1      31.735  26.668  26.412  1.00  0.00     0.251 C 
ATOM      7  H   UNL A   1      30.633  27.874  27.582  1.00  0.00     0.163 HD
BRANCH   6   8
ATOM      8  C   UNL A   1      32.881  26.637  25.477  1.00  0.00     0.067 C 
ATOM      9  C   UNL A   1      34.069  26.166  25.882  1.00  0.00     0.025 C 
ATOM     10  C   UNL A   1      32.578  26.818  24.022  1.00  0.00     0.314 C 
ATOM     11  C   UNL A   1      34.557  25.096  24.987  1.00  0.00     0.020 A 
ATOM     12  O   UNL A   1      32.900  25.632  23.264  1.00  0.00    -0.474 OA
ATOM     13  C   UNL A   1      35.395  24.124  25.552  1.00  0.00     0.032 A 
ATOM     14  C   UNL A   1      33.869  24.803  23.787  1.00  0.00     0.146 A 
ATOM     15  C   UNL A   1      35.499  22.864  24.959  1.00  0.00     0.043 A 
ATOM     16  C   UNL A   1      34.018  23.544  23.187  1.00  0.00     0.085 A 
ATOM     17  Cl  UNL A   1      36.382  21.626  25.762  1.00  0.00    -0.084 Cl
ATOM     18  C   UNL A   1      34.815  22.569  23.784  1.00  0.00     0.045 A 
ATOM     19  Cl  UNL A   1      33.103  23.107  21.787  1.00  0.00    -0.080 Cl
BRANCH  10  20
ATOM     20  C   UNL A   1      33.303  28.051  23.451  1.00  0.00     0.429 C 
ATOM     21  F   UNL A   1      32.421  29.005  23.069  1.00  0.00    -0.167 F 
ATOM     22  F   UNL A   1      34.128  28.618  24.362  1.00  0.00    -0.167 F 
ATOM     23  F   UNL A   1      34.056  27.747  22.365  1.00  0.00    -0.167 F 
ENDBRANCH  10  20
ENDBRANCH   6   8
ENDBRANCH   3   4
ENDBRANCH   2   3
ENDBRANCH   1   2
BRANCH   1  24
ATOM     24  C   UNL A   1      32.333  32.682  26.526  1.00  0.00     0.116 C 
BRANCH  24  25
ATOM     25  N   UNL A   1      32.130  33.833  27.399  1.00  0.00    -0.352 N 
ATOM     26  C   UNL A   1      32.962  34.310  28.391  1.00  0.00     0.251 C 
ATOM     27  H   UNL A   1      31.292  34.332  27.264  1.00  0.00     0.163 HD
ATOM     28  O   UNL A   1      32.650  35.285  29.067  1.00  0.00    -0.269 OA
BRANCH  26  29
ATOM     29  C   UNL A   1      34.220  33.586  28.662  1.00  0.00     0.039 A 
ATOM     30  C   UNL A   1      35.436  34.244  28.463  1.00  0.00     0.014 A 
ATOM     31  C   UNL A   1      34.179  32.322  29.253  1.00  0.00     0.014 A 
ATOM     32  C   UNL A   1      36.610  33.681  28.971  1.00  0.00     0.010 A 
ATOM     33  C   UNL A   1      35.335  31.804  29.824  1.00  0.00     0.010 A 
ATOM     34  C   UNL A   1      36.557  32.490  29.714  1.00  0.00    -0.014 A 
BRANCH  34  35
ATOM     35  C   UNL A   1      37.746  31.947  30.421  1.00  0.00     0.031 A 
ATOM     36  C   UNL A   1      38.568  30.869  29.772  1.00  0.00     0.074 A 
ATOM     37  C   UNL A   1      38.005  32.321  31.692  1.00  0.00     0.049 A 
ATOM     38  N   UNL A   1      39.507  30.121  30.288  1.00  0.00    -0.248 NA
ATOM     39  C   UNL A   1      38.259  30.565  28.366  1.00  0.00     0.031 C 
ATOM     40  C   UNL A   1      37.252  33.319  32.457  1.00  0.00     0.029 A 
ATOM     41  N   UNL A   1      38.959  31.881  32.577  1.00  0.00    -0.354 N 
ATOM     42  C   UNL A   1      39.866  29.227  29.288  1.00  0.00     0.074 A 
ATOM     43  C   UNL A   1      39.027  29.508  28.144  1.00  0.00     0.031 C 
ATOM     44  C   UNL A   1      37.778  33.417  33.690  1.00  0.00     0.029 A 
ATOM     45  C   UNL A   1      38.873  32.463  33.820  1.00  0.00     0.049 A 
ATOM     46  H   UNL A   1      39.641  31.211  32.342  1.00  0.00     0.167 HD
ATOM     47  C   UNL A   1      40.819  28.267  29.317  1.00  0.00     0.037 A 
ATOM     48  C   UNL A   1      39.582  32.236  34.942  1.00  0.00     0.037 A 
ATOM     49  C   UNL A   1      41.701  28.036  30.430  1.00  0.00     0.049 A 
ATOM     50  C   UNL A   1      40.667  31.193  34.930  1.00  0.00     0.074 A 
ATOM     51  C   UNL A   1      42.764  27.155  30.515  1.00  0.00     0.029 A 
ATOM     52  N   UNL A   1      41.625  28.696  31.646  1.00  0.00    -0.354 N 
ATOM     53  N   UNL A   1      41.042  30.404  33.953  1.00  0.00    -0.248 NA
ATOM     54  C   UNL A   1      41.426  31.007  36.176  1.00  0.00     0.031 C 
ATOM     55  C   UNL A   1      43.316  27.262  31.795  1.00  0.00     0.029 A 
ATOM     56  C   UNL A   1      42.617  28.234  32.492  1.00  0.00     0.049 A 
ATOM     57  H   UNL A   1      40.966  29.390  31.872  1.00  0.00     0.167 HD
ATOM     58  C   UNL A   1      42.101  29.658  34.453  1.00  0.00     0.074 A 
ATOM     59  C   UNL A   1      42.312  30.089  35.818  1.00  0.00     0.031 C 
ATOM     60  C   UNL A   1      42.833  28.699  33.837  1.00  0.00     0.037 A 
BRANCH  47  61
ATOM     61  C   UNL A   1      40.972  27.397  28.106  1.00  0.00     0.057 A 
ATOM     62  C   UNL A   1      40.265  26.197  27.964  1.00  0.00     0.134 A 
ATOM     63  C   UNL A   1      41.794  27.795  27.044  1.00  0.00     0.134 A 
ATOM     64  F   UNL A   1      39.472  25.755  28.952  1.00  0.00    -0.206 F 
ATOM     65  C   UNL A   1      40.383  25.413  26.815  1.00  0.00     0.040 A 
ATOM     66  C   UNL A   1      41.902  27.033  25.880  1.00  0.00     0.040 A 
ATOM     67  F   UNL A   1      42.494  28.937  27.115  1.00  0.00    -0.206 F 
ATOM     68  C   UNL A   1      41.198  25.836  25.765  1.00  0.00     0.006 A 
ENDBRANCH  47  61
BRANCH  48  69
ATOM     69  C   UNL A   1      39.306  33.011  36.179  1.00  0.00     0.057 A 
ATOM     70  C   UNL A   1      39.936  34.239  36.413  1.00  0.00     0.134 A 
ATOM     71  C   UNL A   1      38.446  32.528  37.172  1.00  0.00     0.134 A 
ATOM     72  F   UNL A   1      40.789  34.743  35.509  1.00  0.00    -0.206 F 
ATOM     73  C   UNL A   1      39.744  34.947  37.602  1.00  0.00     0.040 A 
ATOM     74  C   UNL A   1      38.225  33.238  38.355  1.00  0.00     0.040 A 
ATOM     75  F   UNL A   1      37.807  31.361  37.007  1.00  0.00    -0.206 F 
ATOM     76  C   UNL A   1      38.884  34.446  38.576  1.00  0.00     0.006 A 
ENDBRANCH  48  69
BRANCH  60  77
ATOM     77  C   UNL A   1      43.965  28.092  34.608  1.00  0.00     0.057 A 
ATOM     78  C   UNL A   1      45.235  28.677  34.636  1.00  0.00     0.134 A 
ATOM     79  C   UNL A   1      43.760  26.943  35.381  1.00  0.00     0.134 A 
ATOM     80  F   UNL A   1      45.497  29.772  33.906  1.00  0.00    -0.206 F 
ATOM     81  C   UNL A   1      46.269  28.133  35.399  1.00  0.00     0.040 A 
ATOM     82  C   UNL A   1      44.778  26.401  36.165  1.00  0.00     0.040 A 
ATOM     83  F   UNL A   1      42.561  26.341  35.402  1.00  0.00    -0.206 F 
ATOM     84  C   UNL A   1      46.039  26.996  36.173  1.00  0.00     0.006 A 
ENDBRANCH  60  77
ENDBRANCH  34  35
ENDBRANCH  26  29
ENDBRANCH  24  25
ENDBRANCH   1  24
TORSDOF 12
ENDMDL
