MODEL 1
REMARK VINA RESULT:     -13.0      0.000      0.000
REMARK SMILES Cc1c(/C=C/C(=O)NCCCCNC(=O)c2ccc(-c3c4nc(c(-c5c(F)cccc5F)c5ccc([nH]5)c(-c5c(F)cccc5F)c5nc(c(-c6c(F)cccc6F)c6ccc3[nH]6)C=C5)C=C4)cc2)cccc1C(=O)N1C[C@@H](C)[C@@H](C)C1
REMARK SMILES IDX 10 1 9 2 8 3 6 4 7 5 5 7 4 8 3 9 1 10 2 11 73 12 70 13 72 14
REMARK SMILES IDX 71 15 74 16 75 17 76 18 77 19 82 20 78 21 80 22 79 23 81 24
REMARK SMILES IDX 11 25 12 26 13 27 14 28 15 30 16 31 17 32 69 33 18 34 68 35
REMARK SMILES IDX 19 36 20 37 21 38 62 39 22 40 67 41 61 42 63 43 23 44 66 45
REMARK SMILES IDX 60 46 59 47 24 49 50 50 33 51 49 52 34 53 37 54 48 55 64 56
REMARK SMILES IDX 35 57 36 58 47 60 65 61 38 62 25 63 26 64 31 65 27 66 28 67
REMARK SMILES IDX 30 68 32 69 29 70 51 71 52 72 57 73 53 74 54 75 56 76 58 77
REMARK SMILES IDX 55 78 39 79 40 80 45 81 41 82 42 83 44 84 46 85 43 86
REMARK H PARENT 8 6 13 29 63 48 37 59
REMARK Flexibility Score: inf
ROOT
ATOM      1  C   UNL A   1      32.339  30.721  26.831  1.00  0.00     0.023 C 
ENDROOT
BRANCH   1   2
ATOM      2  C   UNL A   1      31.936  29.906  25.593  1.00  0.00     0.116 C 
BRANCH   2   3
ATOM      3  N   UNL A   1      33.014  29.786  24.621  1.00  0.00    -0.353 N 
ATOM      4  C   UNL A   1      33.551  28.674  24.041  1.00  0.00     0.243 C 
ATOM      5  O   UNL A   1      34.356  28.781  23.121  1.00  0.00    -0.270 OA
ATOM      6  H   UNL A   1      33.418  30.640  24.340  1.00  0.00     0.163 HD
BRANCH   4   7
ATOM      7  C   UNL A   1      33.094  27.337  24.476  1.00  0.00     0.072 C 
ATOM      8  C   UNL A   1      33.797  26.622  25.366  1.00  0.00     0.014 C 
BRANCH   8   9
ATOM      9  C   UNL A   1      33.391  25.311  25.900  1.00  0.00    -0.022 A 
ATOM     10  C   UNL A   1      35.590  24.313  25.137  1.00  0.00     0.046 C 
ATOM     11  C   UNL A   1      34.230  24.165  25.773  1.00  0.00    -0.031 A 
ATOM     12  C   UNL A   1      33.752  22.917  26.247  1.00  0.00     0.043 A 
ATOM     13  C   UNL A   1      32.105  25.186  26.448  1.00  0.00     0.008 A 
ATOM     14  C   UNL A   1      32.463  22.833  26.806  1.00  0.00     0.014 A 
ATOM     15  C   UNL A   1      31.645  23.955  26.905  1.00  0.00     0.001 A 
BRANCH  12  16
ATOM     16  C   UNL A   1      34.376  21.602  25.915  1.00  0.00     0.254 C 
ATOM     17  O   UNL A   1      35.457  21.347  26.450  1.00  0.00    -0.269 OA
BRANCH  16  18
ATOM     18  N   UNL A   1      33.729  20.669  25.130  1.00  0.00    -0.338 N 
ATOM     19  C   UNL A   1      33.308  21.037  23.792  1.00  0.00     0.123 C 
ATOM     20  C   UNL A   1      33.139  19.409  25.557  1.00  0.00     0.123 C 
ATOM     21  C   UNL A   1      32.172  20.088  23.440  1.00  0.00     0.010 C 
ATOM     22  C   UNL A   1      32.460  18.841  24.295  1.00  0.00     0.010 C 
ATOM     23  C   UNL A   1      32.065  19.869  21.935  1.00  0.00     0.010 C 
ATOM     24  C   UNL A   1      33.341  17.803  23.624  1.00  0.00     0.010 C 
ENDBRANCH  16  18
ENDBRANCH  12  16
ENDBRANCH   8   9
ENDBRANCH   4   7
ENDBRANCH   2   3
ENDBRANCH   1   2
BRANCH   1  25
ATOM     25  C   UNL A   1      33.575  30.208  27.576  1.00  0.00     0.023 C 
BRANCH  25  26
ATOM     26  C   UNL A   1      34.806  31.082  27.390  1.00  0.00     0.116 C 
BRANCH  26  27
ATOM     27  N   UNL A   1      35.337  31.681  28.607  1.00  0.00    -0.352 N 
ATOM     28  C   UNL A   1      36.252  31.164  29.517  1.00  0.00     0.251 C 
ATOM     29  H   UNL A   1      34.999  32.583  28.814  1.00  0.00     0.163 HD
ATOM     30  O   UNL A   1      36.533  31.792  30.521  1.00  0.00    -0.269 OA
BRANCH  28  31
ATOM     31  C   UNL A   1      36.994  29.916  29.184  1.00  0.00     0.039 A 
ATOM     32  C   UNL A   1      37.207  28.991  30.212  1.00  0.00     0.014 A 
ATOM     33  C   UNL A   1      37.658  29.764  27.972  1.00  0.00     0.014 A 
ATOM     34  C   UNL A   1      38.290  28.116  30.132  1.00  0.00     0.010 A 
ATOM     35  C   UNL A   1      38.795  28.981  27.931  1.00  0.00     0.010 A 
ATOM     36  C   UNL A   1      39.155  28.216  29.044  1.00  0.00    -0.014 A 
BRANCH  36  37
ATOM     37  C   UNL A   1      40.492  27.633  29.018  1.00  0.00     0.031 A 
ATOM     38  C   UNL A   1      40.681  26.220  28.647  1.00  0.00     0.074 A 
ATOM     39  C   UNL A   1      41.565  28.419  29.256  1.00  0.00     0.049 A 
ATOM     40  N   UNL A   1      41.734  25.528  28.919  1.00  0.00    -0.248 NA
ATOM     41  C   UNL A   1      39.655  25.460  27.948  1.00  0.00     0.031 C 
ATOM     42  C   UNL A   1      42.978  28.101  29.064  1.00  0.00     0.029 A 
ATOM     43  N   UNL A   1      41.581  29.613  29.985  1.00  0.00    -0.354 N 
ATOM     44  C   UNL A   1      41.641  24.332  28.248  1.00  0.00     0.074 A 
ATOM     45  C   UNL A   1      40.312  24.327  27.682  1.00  0.00     0.031 C 
ATOM     46  C   UNL A   1      43.704  28.847  29.913  1.00  0.00     0.029 A 
ATOM     47  C   UNL A   1      42.764  29.560  30.761  1.00  0.00     0.049 A 
ATOM     48  H   UNL A   1      40.914  30.337  29.963  1.00  0.00     0.167 HD
ATOM     49  C   UNL A   1      42.739  23.526  28.164  1.00  0.00     0.037 A 
ATOM     50  C   UNL A   1      42.694  29.489  32.124  1.00  0.00     0.037 A 
ATOM     51  C   UNL A   1      43.846  24.048  28.963  1.00  0.00     0.049 A 
ATOM     52  C   UNL A   1      43.326  28.244  32.711  1.00  0.00     0.074 A 
ATOM     53  C   UNL A   1      44.950  24.838  28.688  1.00  0.00     0.029 A 
ATOM     54  N   UNL A   1      43.735  24.015  30.342  1.00  0.00    -0.354 N 
ATOM     55  N   UNL A   1      43.776  27.248  31.998  1.00  0.00    -0.248 NA
ATOM     56  C   UNL A   1      43.413  27.981  34.150  1.00  0.00     0.031 C 
ATOM     57  C   UNL A   1      45.459  25.334  29.923  1.00  0.00     0.029 A 
ATOM     58  C   UNL A   1      44.671  24.833  30.943  1.00  0.00     0.049 A 
ATOM     59  H   UNL A   1      43.071  23.478  30.831  1.00  0.00     0.167 HD
ATOM     60  C   UNL A   1      44.156  26.232  32.831  1.00  0.00     0.074 A 
ATOM     61  C   UNL A   1      43.911  26.733  34.170  1.00  0.00     0.031 C 
ATOM     62  C   UNL A   1      44.609  25.033  32.378  1.00  0.00     0.037 A 
BRANCH  49  63
ATOM     63  C   UNL A   1      42.877  22.380  27.193  1.00  0.00     0.057 A 
ATOM     64  C   UNL A   1      42.091  21.220  27.338  1.00  0.00     0.134 A 
ATOM     65  C   UNL A   1      43.790  22.330  26.126  1.00  0.00     0.134 A 
ATOM     66  F   UNL A   1      41.109  21.144  28.246  1.00  0.00    -0.206 F 
ATOM     67  C   UNL A   1      42.275  20.070  26.559  1.00  0.00     0.040 A 
ATOM     68  C   UNL A   1      44.029  21.166  25.379  1.00  0.00     0.040 A 
ATOM     69  F   UNL A   1      44.448  23.419  25.712  1.00  0.00    -0.206 F 
ATOM     70  C   UNL A   1      43.276  20.025  25.601  1.00  0.00     0.006 A 
ENDBRANCH  49  63
BRANCH  50  71
ATOM     71  C   UNL A   1      41.495  30.188  32.672  1.00  0.00     0.057 A 
ATOM     72  C   UNL A   1      41.478  31.596  32.635  1.00  0.00     0.134 A 
ATOM     73  C   UNL A   1      40.266  29.548  32.846  1.00  0.00     0.134 A 
ATOM     74  F   UNL A   1      42.624  32.285  32.499  1.00  0.00    -0.206 F 
ATOM     75  C   UNL A   1      40.282  32.310  32.570  1.00  0.00     0.040 A 
ATOM     76  C   UNL A   1      39.066  30.271  32.877  1.00  0.00     0.040 A 
ATOM     77  F   UNL A   1      40.182  28.211  32.871  1.00  0.00    -0.206 F 
ATOM     78  C   UNL A   1      39.069  31.650  32.686  1.00  0.00     0.006 A 
ENDBRANCH  50  71
BRANCH  62  79
ATOM     79  C   UNL A   1      45.042  23.950  33.307  1.00  0.00     0.057 A 
ATOM     80  C   UNL A   1      44.160  22.944  33.724  1.00  0.00     0.134 A 
ATOM     81  C   UNL A   1      46.315  23.953  33.897  1.00  0.00     0.134 A 
ATOM     82  F   UNL A   1      42.912  22.881  33.233  1.00  0.00    -0.206 F 
ATOM     83  C   UNL A   1      44.532  21.980  34.664  1.00  0.00     0.040 A 
ATOM     84  C   UNL A   1      46.686  23.019  34.866  1.00  0.00     0.040 A 
ATOM     85  F   UNL A   1      47.244  24.854  33.541  1.00  0.00    -0.206 F 
ATOM     86  C   UNL A   1      45.795  22.025  35.248  1.00  0.00     0.006 A 
ENDBRANCH  62  79
ENDBRANCH  36  37
ENDBRANCH  28  31
ENDBRANCH  26  27
ENDBRANCH  25  26
ENDBRANCH   1  25
TORSDOF 14
ENDMDL
MODEL 2
REMARK VINA RESULT:     -12.7      1.398      2.394
REMARK SMILES Cc1c(/C=C/C(=O)NCCCCNC(=O)c2ccc(-c3c4nc(c(-c5c(F)cccc5F)c5ccc([nH]5)c(-c5c(F)cccc5F)c5nc(c(-c6c(F)cccc6F)c6ccc3[nH]6)C=C5)C=C4)cc2)cccc1C(=O)N1C[C@@H](C)[C@@H](C)C1
REMARK SMILES IDX 10 1 9 2 8 3 6 4 7 5 5 7 4 8 3 9 1 10 2 11 73 12 70 13 72 14
REMARK SMILES IDX 71 15 74 16 75 17 76 18 77 19 82 20 78 21 80 22 79 23 81 24
REMARK SMILES IDX 11 25 12 26 13 27 14 28 15 30 16 31 17 32 69 33 18 34 68 35
REMARK SMILES IDX 19 36 20 37 21 38 62 39 22 40 67 41 61 42 63 43 23 44 66 45
REMARK SMILES IDX 60 46 59 47 24 49 50 50 33 51 49 52 34 53 37 54 48 55 64 56
REMARK SMILES IDX 35 57 36 58 47 60 65 61 38 62 25 63 26 64 31 65 27 66 28 67
REMARK SMILES IDX 30 68 32 69 29 70 51 71 52 72 57 73 53 74 54 75 56 76 58 77
REMARK SMILES IDX 55 78 39 79 40 80 45 81 41 82 42 83 44 84 46 85 43 86
REMARK H PARENT 8 6 13 29 63 48 37 59
REMARK Flexibility Score: inf
ROOT
ATOM      1  C   UNL A   1      32.192  31.024  26.298  1.00  0.00     0.023 C 
ENDROOT
BRANCH   1   2
ATOM      2  C   UNL A   1      31.876  29.800  25.423  1.00  0.00     0.116 C 
BRANCH   2   3
ATOM      3  N   UNL A   1      30.862  30.074  24.415  1.00  0.00    -0.353 N 
ATOM      4  C   UNL A   1      30.250  29.229  23.536  1.00  0.00     0.243 C 
ATOM      5  O   UNL A   1      29.299  29.616  22.863  1.00  0.00    -0.270 OA
ATOM      6  H   UNL A   1      30.573  31.015  24.360  1.00  0.00     0.163 HD
BRANCH   4   7
ATOM      7  C   UNL A   1      30.688  27.819  23.462  1.00  0.00     0.072 C 
ATOM      8  C   UNL A   1      30.510  26.985  24.497  1.00  0.00     0.014 C 
BRANCH   8   9
ATOM      9  C   UNL A   1      30.861  25.554  24.492  1.00  0.00    -0.022 A 
ATOM     10  C   UNL A   1      32.281  25.892  26.562  1.00  0.00     0.046 C 
ATOM     11  C   UNL A   1      31.745  25.004  25.466  1.00  0.00    -0.031 A 
ATOM     12  C   UNL A   1      32.098  23.633  25.367  1.00  0.00     0.043 A 
ATOM     13  C   UNL A   1      30.388  24.757  23.439  1.00  0.00     0.008 A 
ATOM     14  C   UNL A   1      31.589  22.861  24.306  1.00  0.00     0.014 A 
ATOM     15  C   UNL A   1      30.744  23.415  23.349  1.00  0.00     0.001 A 
BRANCH  12  16
ATOM     16  C   UNL A   1      33.226  23.004  26.114  1.00  0.00     0.254 C 
ATOM     17  O   UNL A   1      32.962  22.514  27.214  1.00  0.00    -0.269 OA
BRANCH  16  18
ATOM     18  N   UNL A   1      34.485  22.881  25.561  1.00  0.00    -0.338 N 
ATOM     19  C   UNL A   1      35.224  21.647  25.747  1.00  0.00     0.123 C 
ATOM     20  C   UNL A   1      35.328  23.943  25.033  1.00  0.00     0.123 C 
ATOM     21  C   UNL A   1      36.690  22.012  25.574  1.00  0.00     0.010 C 
ATOM     22  C   UNL A   1      36.652  23.249  24.660  1.00  0.00     0.010 C 
ATOM     23  C   UNL A   1      37.513  20.828  25.081  1.00  0.00     0.010 C 
ATOM     24  C   UNL A   1      36.705  22.940  23.174  1.00  0.00     0.010 C 
ENDBRANCH  16  18
ENDBRANCH  12  16
ENDBRANCH   8   9
ENDBRANCH   4   7
ENDBRANCH   2   3
ENDBRANCH   1   2
BRANCH   1  25
ATOM     25  C   UNL A   1      33.024  30.731  27.551  1.00  0.00     0.023 C 
BRANCH  25  26
ATOM     26  C   UNL A   1      34.524  30.855  27.329  1.00  0.00     0.116 C 
BRANCH  26  27
ATOM     27  N   UNL A   1      35.238  31.649  28.320  1.00  0.00    -0.352 N 
ATOM     28  C   UNL A   1      36.316  31.293  29.124  1.00  0.00     0.251 C 
ATOM     29  H   UNL A   1      34.912  32.571  28.437  1.00  0.00     0.163 HD
ATOM     30  O   UNL A   1      36.747  32.079  29.947  1.00  0.00    -0.269 OA
BRANCH  28  31
ATOM     31  C   UNL A   1      37.030  30.011  28.870  1.00  0.00     0.039 A 
ATOM     32  C   UNL A   1      37.231  29.150  29.955  1.00  0.00     0.014 A 
ATOM     33  C   UNL A   1      37.684  29.767  27.667  1.00  0.00     0.014 A 
ATOM     34  C   UNL A   1      38.295  28.250  29.926  1.00  0.00     0.010 A 
ATOM     35  C   UNL A   1      38.804  28.960  27.671  1.00  0.00     0.010 A 
ATOM     36  C   UNL A   1      39.155  28.261  28.830  1.00  0.00    -0.014 A 
BRANCH  36  37
ATOM     37  C   UNL A   1      40.480  27.650  28.835  1.00  0.00     0.031 A 
ATOM     38  C   UNL A   1      40.641  26.220  28.523  1.00  0.00     0.074 A 
ATOM     39  C   UNL A   1      41.568  28.422  29.048  1.00  0.00     0.049 A 
ATOM     40  N   UNL A   1      41.678  25.518  28.830  1.00  0.00    -0.248 NA
ATOM     41  C   UNL A   1      39.603  25.453  27.849  1.00  0.00     0.031 C 
ATOM     42  C   UNL A   1      42.974  28.068  28.878  1.00  0.00     0.029 A 
ATOM     43  N   UNL A   1      41.605  29.645  29.728  1.00  0.00    -0.354 N 
ATOM     44  C   UNL A   1      41.564  24.297  28.207  1.00  0.00     0.074 A 
ATOM     45  C   UNL A   1      40.237  24.297  27.634  1.00  0.00     0.031 C 
ATOM     46  C   UNL A   1      43.712  28.833  29.700  1.00  0.00     0.029 A 
ATOM     47  C   UNL A   1      42.782  29.599  30.513  1.00  0.00     0.049 A 
ATOM     48  H   UNL A   1      40.953  30.381  29.673  1.00  0.00     0.167 HD
ATOM     49  C   UNL A   1      42.645  23.466  28.163  1.00  0.00     0.037 A 
ATOM     50  C   UNL A   1      42.704  29.585  31.877  1.00  0.00     0.037 A 
ATOM     51  C   UNL A   1      43.758  23.997  28.946  1.00  0.00     0.049 A 
ATOM     52  C   UNL A   1      43.307  28.352  32.518  1.00  0.00     0.074 A 
ATOM     53  C   UNL A   1      44.880  24.753  28.646  1.00  0.00     0.029 A 
ATOM     54  N   UNL A   1      43.639  24.023  30.324  1.00  0.00    -0.354 N 
ATOM     55  N   UNL A   1      43.739  27.319  31.849  1.00  0.00    -0.248 NA
ATOM     56  C   UNL A   1      43.381  28.146  33.967  1.00  0.00     0.031 C 
ATOM     57  C   UNL A   1      45.393  25.287  29.863  1.00  0.00     0.029 A 
ATOM     58  C   UNL A   1      44.589  24.845  30.898  1.00  0.00     0.049 A 
ATOM     59  H   UNL A   1      42.962  23.520  30.831  1.00  0.00     0.167 HD
ATOM     60  C   UNL A   1      44.093  26.330  32.724  1.00  0.00     0.074 A 
ATOM     61  C   UNL A   1      43.853  26.890  34.040  1.00  0.00     0.031 C 
ATOM     62  C   UNL A   1      44.525  25.104  32.323  1.00  0.00     0.037 A 
BRANCH  49  63
ATOM     63  C   UNL A   1      42.764  22.279  27.240  1.00  0.00     0.057 A 
ATOM     64  C   UNL A   1      41.960  21.139  27.432  1.00  0.00     0.134 A 
ATOM     65  C   UNL A   1      43.676  22.170  26.175  1.00  0.00     0.134 A 
ATOM     66  F   UNL A   1      40.977  21.116  28.342  1.00  0.00    -0.206 F 
ATOM     67  C   UNL A   1      42.125  19.955  26.701  1.00  0.00     0.040 A 
ATOM     68  C   UNL A   1      43.896  20.973  25.477  1.00  0.00     0.040 A 
ATOM     69  F   UNL A   1      44.351  23.230  25.717  1.00  0.00    -0.206 F 
ATOM     70  C   UNL A   1      43.124  19.854  25.746  1.00  0.00     0.006 A 
ENDBRANCH  49  63
BRANCH  50  71
ATOM     71  C   UNL A   1      41.517  30.330  32.389  1.00  0.00     0.057 A 
ATOM     72  C   UNL A   1      40.401  29.581  32.813  1.00  0.00     0.134 A 
ATOM     73  C   UNL A   1      41.591  31.653  32.830  1.00  0.00     0.134 A 
ATOM     74  F   UNL A   1      40.243  28.310  32.409  1.00  0.00    -0.206 F 
ATOM     75  C   UNL A   1      39.524  30.064  33.784  1.00  0.00     0.040 A 
ATOM     76  C   UNL A   1      40.657  32.174  33.733  1.00  0.00     0.040 A 
ATOM     77  F   UNL A   1      42.627  32.433  32.495  1.00  0.00    -0.206 F 
ATOM     78  C   UNL A   1      39.651  31.363  34.253  1.00  0.00     0.006 A 
ENDBRANCH  50  71
BRANCH  62  79
ATOM     79  C   UNL A   1      44.929  24.051  33.298  1.00  0.00     0.057 A 
ATOM     80  C   UNL A   1      46.227  23.996  33.822  1.00  0.00     0.134 A 
ATOM     81  C   UNL A   1      44.065  23.002  33.647  1.00  0.00     0.134 A 
ATOM     82  F   UNL A   1      47.130  24.942  33.518  1.00  0.00    -0.206 F 
ATOM     83  C   UNL A   1      46.639  22.960  34.664  1.00  0.00     0.040 A 
ATOM     84  C   UNL A   1      44.475  21.941  34.458  1.00  0.00     0.040 A 
ATOM     85  F   UNL A   1      42.791  22.981  33.226  1.00  0.00    -0.206 F 
ATOM     86  C   UNL A   1      45.765  21.922  34.973  1.00  0.00     0.006 A 
ENDBRANCH  62  79
ENDBRANCH  36  37
ENDBRANCH  28  31
ENDBRANCH  26  27
ENDBRANCH  25  26
ENDBRANCH   1  25
TORSDOF 14
ENDMDL
MODEL 3
REMARK VINA RESULT:     -12.6      3.657      9.588
REMARK SMILES Cc1c(/C=C/C(=O)NCCCCNC(=O)c2ccc(-c3c4nc(c(-c5c(F)cccc5F)c5ccc([nH]5)c(-c5c(F)cccc5F)c5nc(c(-c6c(F)cccc6F)c6ccc3[nH]6)C=C5)C=C4)cc2)cccc1C(=O)N1C[C@@H](C)[C@@H](C)C1
REMARK SMILES IDX 10 1 9 2 8 3 6 4 7 5 5 7 4 8 3 9 1 10 2 11 73 12 70 13 72 14
REMARK SMILES IDX 71 15 74 16 75 17 76 18 77 19 82 20 78 21 80 22 79 23 81 24
REMARK SMILES IDX 11 25 12 26 13 27 14 28 15 30 16 31 17 32 69 33 18 34 68 35
REMARK SMILES IDX 19 36 20 37 21 38 62 39 22 40 67 41 61 42 63 43 23 44 66 45
REMARK SMILES IDX 60 46 59 47 24 49 50 50 33 51 49 52 34 53 37 54 48 55 64 56
REMARK SMILES IDX 35 57 36 58 47 60 65 61 38 62 25 63 26 64 31 65 27 66 28 67
REMARK SMILES IDX 30 68 32 69 29 70 51 71 52 72 57 73 53 74 54 75 56 76 58 77
REMARK SMILES IDX 55 78 39 79 40 80 45 81 41 82 42 83 44 84 46 85 43 86
REMARK H PARENT 8 6 13 29 63 48 37 59
REMARK Flexibility Score: inf
ROOT
ATOM      1  C   UNL A   1      36.636  21.446  25.760  1.00  0.00     0.023 C 
ENDROOT
BRANCH   1   2
ATOM      2  C   UNL A   1      35.876  20.721  24.638  1.00  0.00     0.116 C 
BRANCH   2   3
ATOM      3  N   UNL A   1      34.859  19.810  25.144  1.00  0.00    -0.353 N 
ATOM      4  C   UNL A   1      33.522  20.008  25.333  1.00  0.00     0.243 C 
ATOM      5  O   UNL A   1      32.791  19.066  25.624  1.00  0.00    -0.270 OA
ATOM      6  H   UNL A   1      35.187  18.914  25.388  1.00  0.00     0.163 HD
BRANCH   4   7
ATOM      7  C   UNL A   1      32.948  21.351  25.103  1.00  0.00     0.072 C 
ATOM      8  C   UNL A   1      32.955  21.905  23.882  1.00  0.00     0.014 C 
BRANCH   8   9
ATOM      9  C   UNL A   1      32.357  23.209  23.547  1.00  0.00    -0.022 A 
ATOM     10  C   UNL A   1      34.636  24.302  23.712  1.00  0.00     0.046 C 
ATOM     11  C   UNL A   1      33.146  24.395  23.490  1.00  0.00    -0.031 A 
ATOM     12  C   UNL A   1      32.499  25.630  23.229  1.00  0.00     0.043 A 
ATOM     13  C   UNL A   1      30.965  23.280  23.388  1.00  0.00     0.008 A 
ATOM     14  C   UNL A   1      31.102  25.659  23.058  1.00  0.00     0.014 A 
ATOM     15  C   UNL A   1      30.340  24.497  23.138  1.00  0.00     0.001 A 
BRANCH  12  16
ATOM     16  C   UNL A   1      33.132  26.965  23.438  1.00  0.00     0.254 C 
ATOM     17  O   UNL A   1      33.765  27.436  22.490  1.00  0.00    -0.269 OA
BRANCH  16  18
ATOM     18  N   UNL A   1      32.935  27.690  24.595  1.00  0.00    -0.338 N 
ATOM     19  C   UNL A   1      32.296  28.990  24.518  1.00  0.00     0.123 C 
ATOM     20  C   UNL A   1      33.541  27.461  25.898  1.00  0.00     0.123 C 
ATOM     21  C   UNL A   1      32.746  29.747  25.759  1.00  0.00     0.010 C 
ATOM     22  C   UNL A   1      33.055  28.632  26.774  1.00  0.00     0.010 C 
ATOM     23  C   UNL A   1      31.720  30.790  26.187  1.00  0.00     0.010 C 
ATOM     24  C   UNL A   1      31.874  28.215  27.634  1.00  0.00     0.010 C 
ENDBRANCH  16  18
ENDBRANCH  12  16
ENDBRANCH   8   9
ENDBRANCH   4   7
ENDBRANCH   2   3
ENDBRANCH   1   2
BRANCH   1  25
ATOM     25  C   UNL A   1      38.156  21.514  25.578  1.00  0.00     0.023 C 
BRANCH  25  26
ATOM     26  C   UNL A   1      38.739  22.896  25.833  1.00  0.00     0.116 C 
BRANCH  26  27
ATOM     27  N   UNL A   1      40.066  22.913  26.434  1.00  0.00    -0.352 N 
ATOM     28  C   UNL A   1      40.776  23.980  26.973  1.00  0.00     0.251 C 
ATOM     29  H   UNL A   1      40.527  22.043  26.463  1.00  0.00     0.163 HD
ATOM     30  O   UNL A   1      41.911  23.813  27.379  1.00  0.00    -0.269 OA
BRANCH  28  31
ATOM     31  C   UNL A   1      40.090  25.285  27.188  1.00  0.00     0.039 A 
ATOM     32  C   UNL A   1      40.580  26.400  26.499  1.00  0.00     0.014 A 
ATOM     33  C   UNL A   1      39.154  25.458  28.202  1.00  0.00     0.014 A 
ATOM     34  C   UNL A   1      40.366  27.675  27.022  1.00  0.00     0.010 A 
ATOM     35  C   UNL A   1      39.030  26.703  28.787  1.00  0.00     0.010 A 
ATOM     36  C   UNL A   1      39.703  27.799  28.241  1.00  0.00    -0.014 A 
BRANCH  36  37
ATOM     37  C   UNL A   1      39.735  29.006  29.060  1.00  0.00     0.031 A 
ATOM     38  C   UNL A   1      38.714  30.053  28.884  1.00  0.00     0.074 A 
ATOM     39  C   UNL A   1      40.660  29.122  30.037  1.00  0.00     0.049 A 
ATOM     40  N   UNL A   1      38.839  31.271  29.287  1.00  0.00    -0.248 NA
ATOM     41  C   UNL A   1      37.455  29.797  28.197  1.00  0.00     0.031 C 
ATOM     42  C   UNL A   1      40.731  30.122  31.100  1.00  0.00     0.029 A 
ATOM     43  N   UNL A   1      41.898  28.473  30.098  1.00  0.00    -0.354 N 
ATOM     44  C   UNL A   1      37.623  31.894  29.137  1.00  0.00     0.074 A 
ATOM     45  C   UNL A   1      36.803  30.942  28.425  1.00  0.00     0.031 C 
ATOM     46  C   UNL A   1      42.015  30.260  31.473  1.00  0.00     0.029 A 
ATOM     47  C   UNL A   1      42.809  29.451  30.565  1.00  0.00     0.049 A 
ATOM     48  H   UNL A   1      42.095  27.536  29.866  1.00  0.00     0.167 HD
ATOM     49  C   UNL A   1      37.419  33.110  29.723  1.00  0.00     0.037 A 
ATOM     50  C   UNL A   1      43.817  29.899  29.757  1.00  0.00     0.037 A 
ATOM     51  C   UNL A   1      38.646  33.622  30.330  1.00  0.00     0.049 A 
ATOM     52  C   UNL A   1      43.762  31.385  29.469  1.00  0.00     0.074 A 
ATOM     53  C   UNL A   1      39.180  33.588  31.608  1.00  0.00     0.029 A 
ATOM     54  N   UNL A   1      39.675  34.022  29.497  1.00  0.00    -0.354 N 
ATOM     55  N   UNL A   1      42.778  32.163  29.827  1.00  0.00    -0.248 NA
ATOM     56  C   UNL A   1      44.767  32.092  28.670  1.00  0.00     0.031 C 
ATOM     57  C   UNL A   1      40.565  33.910  31.517  1.00  0.00     0.029 A 
ATOM     58  C   UNL A   1      40.863  34.151  30.188  1.00  0.00     0.049 A 
ATOM     59  H   UNL A   1      39.573  34.193  28.533  1.00  0.00     0.167 HD
ATOM     60  C   UNL A   1      42.972  33.409  29.300  1.00  0.00     0.074 A 
ATOM     61  C   UNL A   1      44.229  33.321  28.582  1.00  0.00     0.031 C 
ATOM     62  C   UNL A   1      42.080  34.424  29.448  1.00  0.00     0.037 A 
BRANCH  49  63
ATOM     63  C   UNL A   1      36.061  33.736  29.927  1.00  0.00     0.057 A 
ATOM     64  C   UNL A   1      35.297  34.164  28.824  1.00  0.00     0.134 A 
ATOM     65  C   UNL A   1      35.467  33.988  31.175  1.00  0.00     0.134 A 
ATOM     66  F   UNL A   1      35.678  33.914  27.563  1.00  0.00    -0.206 F 
ATOM     67  C   UNL A   1      34.100  34.880  28.955  1.00  0.00     0.040 A 
ATOM     68  C   UNL A   1      34.302  34.756  31.325  1.00  0.00     0.040 A 
ATOM     69  F   UNL A   1      35.945  33.450  32.302  1.00  0.00    -0.206 F 
ATOM     70  C   UNL A   1      33.618  35.215  30.211  1.00  0.00     0.006 A 
ENDBRANCH  49  63
BRANCH  50  71
ATOM     71  C   UNL A   1      44.296  28.853  28.807  1.00  0.00     0.057 A 
ATOM     72  C   UNL A   1      43.889  28.949  27.462  1.00  0.00     0.134 A 
ATOM     73  C   UNL A   1      45.402  28.044  29.074  1.00  0.00     0.134 A 
ATOM     74  F   UNL A   1      42.816  29.686  27.127  1.00  0.00    -0.206 F 
ATOM     75  C   UNL A   1      44.666  28.431  26.426  1.00  0.00     0.040 A 
ATOM     76  C   UNL A   1      46.132  27.443  28.041  1.00  0.00     0.040 A 
ATOM     77  F   UNL A   1      45.874  27.911  30.321  1.00  0.00    -0.206 F 
ATOM     78  C   UNL A   1      45.796  27.679  26.711  1.00  0.00     0.006 A 
ENDBRANCH  50  71
BRANCH  62  79
ATOM     79  C   UNL A   1      42.327  35.782  28.884  1.00  0.00     0.057 A 
ATOM     80  C   UNL A   1      43.016  36.764  29.608  1.00  0.00     0.134 A 
ATOM     81  C   UNL A   1      41.783  36.176  27.652  1.00  0.00     0.134 A 
ATOM     82  F   UNL A   1      43.545  36.484  30.810  1.00  0.00    -0.206 F 
ATOM     83  C   UNL A   1      43.172  38.065  29.124  1.00  0.00     0.040 A 
ATOM     84  C   UNL A   1      41.899  37.483  27.173  1.00  0.00     0.040 A 
ATOM     85  F   UNL A   1      41.136  35.301  26.866  1.00  0.00    -0.206 F 
ATOM     86  C   UNL A   1      42.600  38.430  27.908  1.00  0.00     0.006 A 
ENDBRANCH  62  79
ENDBRANCH  36  37
ENDBRANCH  28  31
ENDBRANCH  26  27
ENDBRANCH  25  26
ENDBRANCH   1  25
TORSDOF 14
ENDMDL
