MODEL 1
REMARK VINA RESULT:     -12.6      0.000      0.000
REMARK SMILES Cc1ccc(Nc2c(Cl)cc(Cl)cc2Cl)c(CC(=O)NCCCCNC(=O)c2ccc(-c3c4nc(c(-c5c(F)cccc5F)c5ccc([nH]5)c(-c5c(F)cccc5F)c5nc(c(-c6c(F)cccc6F)c6ccc3[nH]6)C=C5)C=C4)cc2)c1
REMARK SMILES IDX 22 1 21 2 20 3 18 4 19 5 17 7 16 8 1 9 2 10 3 11 82 12 4 13
REMARK SMILES IDX 5 14 6 15 7 17 8 18 14 19 9 20 10 21 13 22 15 23 11 24 12 25
REMARK SMILES IDX 23 26 24 27 25 28 26 29 27 31 28 32 29 33 81 34 30 35 80 36
REMARK SMILES IDX 31 37 32 38 33 39 74 40 34 41 79 42 73 43 75 44 35 45 78 46
REMARK SMILES IDX 72 47 71 48 36 50 62 51 45 52 61 53 46 54 49 55 60 56 76 57
REMARK SMILES IDX 47 58 48 59 59 61 77 62 50 63 37 64 38 65 43 66 39 67 40 68
REMARK SMILES IDX 42 69 44 70 41 71 63 72 64 73 69 74 65 75 66 76 68 77 70 78
REMARK SMILES IDX 67 79 51 80 52 81 57 82 53 83 54 84 56 85 58 86 55 87
REMARK H PARENT 20 6 6 16 25 30 75 49 49 60
REMARK Flexibility Score: inf
ROOT
ATOM      1  C   UNL A   1      32.278  30.525  26.849  1.00  0.00     0.023 C 
ENDROOT
BRANCH   1   2
ATOM      2  C   UNL A   1      32.983  29.371  26.117  1.00  0.00     0.116 C 
BRANCH   2   3
ATOM      3  N   UNL A   1      33.319  29.680  24.737  1.00  0.00    -0.356 N 
ATOM      4  C   UNL A   1      33.480  28.849  23.669  1.00  0.00     0.224 C 
ATOM      5  O   UNL A   1      33.888  29.329  22.608  1.00  0.00    -0.275 OA
ATOM      6  H   UNL A   1      33.451  30.637  24.544  1.00  0.00     0.163 HD
BRANCH   4   7
ATOM      7  C   UNL A   1      33.196  27.361  23.774  1.00  0.00     0.137 C 
BRANCH   7   8
ATOM      8  C   UNL A   1      31.721  27.033  23.782  1.00  0.00    -0.015 A 
ATOM      9  C   UNL A   1      28.547  28.865  22.690  1.00  0.00     0.044 C 
ATOM     10  C   UNL A   1      29.463  27.822  23.254  1.00  0.00    -0.051 A 
ATOM     11  C   UNL A   1      28.943  26.716  23.923  1.00  0.00     0.005 A 
ATOM     12  C   UNL A   1      30.850  27.956  23.161  1.00  0.00     0.009 A 
ATOM     13  C   UNL A   1      29.796  25.765  24.491  1.00  0.00     0.026 A 
ATOM     14  C   UNL A   1      31.194  25.900  24.442  1.00  0.00     0.042 A 
BRANCH  14  15
ATOM     15  N   UNL A   1      32.042  24.917  25.002  1.00  0.00    -0.353 N 
ATOM     16  H   UNL A   1      32.692  25.249  25.663  1.00  0.00     0.167 HD
BRANCH  15  17
ATOM     17  C   UNL A   1      32.089  23.524  24.751  1.00  0.00     0.076 A 
ATOM     18  C   UNL A   1      31.453  22.573  25.576  1.00  0.00     0.067 A 
ATOM     19  C   UNL A   1      32.864  23.037  23.676  1.00  0.00     0.067 A 
ATOM     20  Cl  UNL A   1      30.379  23.035  26.855  1.00  0.00    -0.082 Cl
ATOM     21  C   UNL A   1      31.615  21.201  25.356  1.00  0.00     0.043 A 
ATOM     22  C   UNL A   1      33.022  21.667  23.450  1.00  0.00     0.043 A 
ATOM     23  Cl  UNL A   1      33.693  24.123  22.611  1.00  0.00    -0.082 Cl
ATOM     24  C   UNL A   1      32.404  20.758  24.299  1.00  0.00     0.044 A 
ATOM     25  Cl  UNL A   1      32.617  19.071  24.042  1.00  0.00    -0.084 Cl
ENDBRANCH  15  17
ENDBRANCH  14  15
ENDBRANCH   7   8
ENDBRANCH   4   7
ENDBRANCH   2   3
ENDBRANCH   1   2
BRANCH   1  26
ATOM     26  C   UNL A   1      33.195  31.523  27.558  1.00  0.00     0.023 C 
BRANCH  26  27
ATOM     27  C   UNL A   1      34.566  30.964  27.900  1.00  0.00     0.116 C 
BRANCH  27  28
ATOM     28  N   UNL A   1      35.267  31.678  28.961  1.00  0.00    -0.352 N 
ATOM     29  C   UNL A   1      36.390  31.300  29.681  1.00  0.00     0.251 C 
ATOM     30  H   UNL A   1      34.888  32.555  29.200  1.00  0.00     0.163 HD
ATOM     31  O   UNL A   1      36.815  32.012  30.578  1.00  0.00    -0.269 OA
BRANCH  29  32
ATOM     32  C   UNL A   1      37.160  30.102  29.254  1.00  0.00     0.039 A 
ATOM     33  C   UNL A   1      37.260  29.046  30.166  1.00  0.00     0.014 A 
ATOM     34  C   UNL A   1      37.963  30.122  28.118  1.00  0.00     0.014 A 
ATOM     35  C   UNL A   1      38.353  28.189  30.096  1.00  0.00     0.010 A 
ATOM     36  C   UNL A   1      39.101  29.340  28.101  1.00  0.00     0.010 A 
ATOM     37  C   UNL A   1      39.339  28.441  29.145  1.00  0.00    -0.014 A 
BRANCH  37  38
ATOM     38  C   UNL A   1      40.709  27.956  29.279  1.00  0.00     0.031 A 
ATOM     39  C   UNL A   1      41.093  26.621  28.787  1.00  0.00     0.074 A 
ATOM     40  C   UNL A   1      41.651  28.788  29.784  1.00  0.00     0.049 A 
ATOM     41  N   UNL A   1      42.216  26.056  29.073  1.00  0.00    -0.248 NA
ATOM     42  C   UNL A   1      40.210  25.773  27.989  1.00  0.00     0.031 C 
ATOM     43  C   UNL A   1      43.104  28.636  29.729  1.00  0.00     0.029 A 
ATOM     44  N   UNL A   1      41.449  29.836  30.695  1.00  0.00    -0.354 N 
ATOM     45  C   UNL A   1      42.334  24.947  28.277  1.00  0.00     0.074 A 
ATOM     46  C   UNL A   1      41.016  24.737  27.732  1.00  0.00     0.031 C 
ATOM     47  C   UNL A   1      43.644  29.303  30.760  1.00  0.00     0.029 A 
ATOM     48  C   UNL A   1      42.549  29.776  31.587  1.00  0.00     0.049 A 
ATOM     49  H   UNL A   1      40.702  30.477  30.712  1.00  0.00     0.167 HD
ATOM     50  C   UNL A   1      43.570  24.418  28.074  1.00  0.00     0.037 A 
ATOM     51  C   UNL A   1      42.361  29.456  32.900  1.00  0.00     0.037 A 
ATOM     52  C   UNL A   1      44.521  24.884  29.084  1.00  0.00     0.049 A 
ATOM     53  C   UNL A   1      43.053  28.186  33.354  1.00  0.00     0.074 A 
ATOM     54  C   UNL A   1      45.629  25.711  29.108  1.00  0.00     0.029 A 
ATOM     55  N   UNL A   1      44.220  24.621  30.412  1.00  0.00    -0.354 N 
ATOM     56  N   UNL A   1      43.765  27.409  32.584  1.00  0.00    -0.248 NA
ATOM     57  C   UNL A   1      42.907  27.640  34.706  1.00  0.00     0.031 C 
ATOM     58  C   UNL A   1      45.936  25.997  30.478  1.00  0.00     0.029 A 
ATOM     59  C   UNL A   1      45.039  25.313  31.278  1.00  0.00     0.049 A 
ATOM     60  H   UNL A   1      43.505  24.009  30.702  1.00  0.00     0.167 HD
ATOM     61  C   UNL A   1      44.101  26.273  33.273  1.00  0.00     0.074 A 
ATOM     62  C   UNL A   1      43.550  26.467  34.600  1.00  0.00     0.031 C 
ATOM     63  C   UNL A   1      44.761  25.223  32.703  1.00  0.00     0.037 A 
BRANCH  50  64
ATOM     64  C   UNL A   1      43.945  23.552  26.896  1.00  0.00     0.057 A 
ATOM     65  C   UNL A   1      44.678  24.087  25.821  1.00  0.00     0.134 A 
ATOM     66  C   UNL A   1      43.508  22.224  26.698  1.00  0.00     0.134 A 
ATOM     67  F   UNL A   1      45.130  25.349  25.846  1.00  0.00    -0.206 F 
ATOM     68  C   UNL A   1      44.961  23.359  24.655  1.00  0.00     0.040 A 
ATOM     69  C   UNL A   1      43.833  21.468  25.563  1.00  0.00     0.040 A 
ATOM     70  F   UNL A   1      42.686  21.602  27.551  1.00  0.00    -0.206 F 
ATOM     71  C   UNL A   1      44.553  22.039  24.529  1.00  0.00     0.006 A 
ENDBRANCH  50  64
BRANCH  51  72
ATOM     72  C   UNL A   1      41.074  29.971  33.441  1.00  0.00     0.057 A 
ATOM     73  C   UNL A   1      40.980  31.332  33.782  1.00  0.00     0.134 A 
ATOM     74  C   UNL A   1      39.877  29.265  33.304  1.00  0.00     0.134 A 
ATOM     75  F   UNL A   1      42.092  32.071  33.929  1.00  0.00    -0.206 F 
ATOM     76  C   UNL A   1      39.751  31.989  33.865  1.00  0.00     0.040 A 
ATOM     77  C   UNL A   1      38.638  29.909  33.404  1.00  0.00     0.040 A 
ATOM     78  F   UNL A   1      39.881  27.972  32.954  1.00  0.00    -0.206 F 
ATOM     79  C   UNL A   1      38.575  31.281  33.645  1.00  0.00     0.006 A 
ENDBRANCH  51  72
BRANCH  63  80
ATOM     80  C   UNL A   1      45.146  23.993  33.475  1.00  0.00     0.057 A 
ATOM     81  C   UNL A   1      44.243  22.947  33.714  1.00  0.00     0.134 A 
ATOM     82  C   UNL A   1      46.404  23.867  34.093  1.00  0.00     0.134 A 
ATOM     83  F   UNL A   1      42.997  22.985  33.217  1.00  0.00    -0.206 F 
ATOM     84  C   UNL A   1      44.582  21.830  34.488  1.00  0.00     0.040 A 
ATOM     85  C   UNL A   1      46.738  22.780  34.905  1.00  0.00     0.040 A 
ATOM     86  F   UNL A   1      47.368  24.782  33.914  1.00  0.00    -0.206 F 
ATOM     87  C   UNL A   1      45.829  21.750  35.097  1.00  0.00     0.006 A 
ENDBRANCH  63  80
ENDBRANCH  37  38
ENDBRANCH  29  32
ENDBRANCH  27  28
ENDBRANCH  26  27
ENDBRANCH   1  26
TORSDOF 14
ENDMDL
MODEL 2
REMARK VINA RESULT:     -12.6      1.576      3.188
REMARK SMILES Cc1ccc(Nc2c(Cl)cc(Cl)cc2Cl)c(CC(=O)NCCCCNC(=O)c2ccc(-c3c4nc(c(-c5c(F)cccc5F)c5ccc([nH]5)c(-c5c(F)cccc5F)c5nc(c(-c6c(F)cccc6F)c6ccc3[nH]6)C=C5)C=C4)cc2)c1
REMARK SMILES IDX 22 1 21 2 20 3 18 4 19 5 17 7 16 8 1 9 2 10 3 11 82 12 4 13
REMARK SMILES IDX 5 14 6 15 7 17 8 18 14 19 9 20 10 21 13 22 15 23 11 24 12 25
REMARK SMILES IDX 23 26 24 27 25 28 26 29 27 31 28 32 29 33 81 34 30 35 80 36
REMARK SMILES IDX 31 37 32 38 33 39 74 40 34 41 79 42 73 43 75 44 35 45 78 46
REMARK SMILES IDX 72 47 71 48 36 50 62 51 45 52 61 53 46 54 49 55 60 56 76 57
REMARK SMILES IDX 47 58 48 59 59 61 77 62 50 63 37 64 38 65 43 66 39 67 40 68
REMARK SMILES IDX 42 69 44 70 41 71 63 72 64 73 69 74 65 75 66 76 68 77 70 78
REMARK SMILES IDX 67 79 51 80 52 81 57 82 53 83 54 84 56 85 58 86 55 87
REMARK H PARENT 20 6 6 16 25 30 75 49 49 60
REMARK Flexibility Score: inf
ROOT
ATOM      1  C   UNL A   1      33.306  29.353  27.362  1.00  0.00     0.023 C 
ENDROOT
BRANCH   1   2
ATOM      2  C   UNL A   1      32.152  28.885  26.460  1.00  0.00     0.116 C 
BRANCH   2   3
ATOM      3  N   UNL A   1      31.700  27.535  26.751  1.00  0.00    -0.356 N 
ATOM      4  C   UNL A   1      32.268  26.337  26.438  1.00  0.00     0.224 C 
ATOM      5  O   UNL A   1      31.636  25.306  26.685  1.00  0.00    -0.275 OA
ATOM      6  H   UNL A   1      30.853  27.477  27.251  1.00  0.00     0.163 HD
BRANCH   4   7
ATOM      7  C   UNL A   1      33.631  26.256  25.773  1.00  0.00     0.137 C 
BRANCH   7   8
ATOM      8  C   UNL A   1      33.885  24.931  25.092  1.00  0.00    -0.015 A 
ATOM      9  C   UNL A   1      35.167  21.514  26.232  1.00  0.00     0.044 C 
ATOM     10  C   UNL A   1      34.665  22.625  25.361  1.00  0.00    -0.051 A 
ATOM     11  C   UNL A   1      34.637  22.476  23.976  1.00  0.00     0.005 A 
ATOM     12  C   UNL A   1      34.257  23.842  25.911  1.00  0.00     0.009 A 
ATOM     13  C   UNL A   1      34.213  23.528  23.158  1.00  0.00     0.026 A 
ATOM     14  C   UNL A   1      33.836  24.773  23.688  1.00  0.00     0.042 A 
BRANCH  14  15
ATOM     15  N   UNL A   1      33.388  25.818  22.848  1.00  0.00    -0.353 N 
ATOM     16  H   UNL A   1      33.948  25.992  22.057  1.00  0.00     0.167 HD
BRANCH  15  17
ATOM     17  C   UNL A   1      32.249  26.649  22.979  1.00  0.00     0.076 A 
ATOM     18  C   UNL A   1      30.940  26.142  23.124  1.00  0.00     0.067 A 
ATOM     19  C   UNL A   1      32.396  28.051  22.886  1.00  0.00     0.067 A 
ATOM     20  Cl  UNL A   1      30.629  24.455  23.367  1.00  0.00    -0.082 Cl
ATOM     21  C   UNL A   1      29.832  26.995  23.140  1.00  0.00     0.043 A 
ATOM     22  C   UNL A   1      31.291  28.905  22.909  1.00  0.00     0.043 A 
ATOM     23  Cl  UNL A   1      33.959  28.772  22.696  1.00  0.00    -0.082 Cl
ATOM     24  C   UNL A   1      30.014  28.369  23.026  1.00  0.00     0.044 A 
ATOM     25  Cl  UNL A   1      28.648  29.414  23.027  1.00  0.00    -0.084 Cl
ENDBRANCH  15  17
ENDBRANCH  14  15
ENDBRANCH   7   8
ENDBRANCH   4   7
ENDBRANCH   2   3
ENDBRANCH   1   2
BRANCH   1  26
ATOM     26  C   UNL A   1      33.402  30.862  27.594  1.00  0.00     0.023 C 
BRANCH  26  27
ATOM     27  C   UNL A   1      34.822  31.401  27.558  1.00  0.00     0.116 C 
BRANCH  27  28
ATOM     28  N   UNL A   1      35.314  31.909  28.834  1.00  0.00    -0.352 N 
ATOM     29  C   UNL A   1      36.220  31.339  29.715  1.00  0.00     0.251 C 
ATOM     30  H   UNL A   1      34.950  32.781  29.108  1.00  0.00     0.163 HD
ATOM     31  O   UNL A   1      36.480  31.890  30.773  1.00  0.00    -0.269 OA
BRANCH  29  32
ATOM     32  C   UNL A   1      36.985  30.135  29.296  1.00  0.00     0.039 A 
ATOM     33  C   UNL A   1      37.125  29.106  30.235  1.00  0.00     0.014 A 
ATOM     34  C   UNL A   1      37.749  30.128  28.133  1.00  0.00     0.014 A 
ATOM     35  C   UNL A   1      38.223  28.257  30.151  1.00  0.00     0.010 A 
ATOM     36  C   UNL A   1      38.893  29.355  28.100  1.00  0.00     0.010 A 
ATOM     37  C   UNL A   1      39.174  28.489  29.161  1.00  0.00    -0.014 A 
BRANCH  37  38
ATOM     38  C   UNL A   1      40.551  28.018  29.262  1.00  0.00     0.031 A 
ATOM     39  C   UNL A   1      40.937  26.686  28.763  1.00  0.00     0.074 A 
ATOM     40  C   UNL A   1      41.497  28.861  29.741  1.00  0.00     0.049 A 
ATOM     41  N   UNL A   1      42.073  26.133  29.022  1.00  0.00    -0.248 NA
ATOM     42  C   UNL A   1      40.043  25.827  27.989  1.00  0.00     0.031 C 
ATOM     43  C   UNL A   1      42.949  28.725  29.651  1.00  0.00     0.029 A 
ATOM     44  N   UNL A   1      41.306  29.909  30.655  1.00  0.00    -0.354 N 
ATOM     45  C   UNL A   1      42.182  25.024  28.226  1.00  0.00     0.074 A 
ATOM     46  C   UNL A   1      40.854  24.799  27.715  1.00  0.00     0.031 C 
ATOM     47  C   UNL A   1      43.508  29.399  30.666  1.00  0.00     0.029 A 
ATOM     48  C   UNL A   1      42.429  29.863  31.519  1.00  0.00     0.049 A 
ATOM     49  H   UNL A   1      40.554  30.542  30.689  1.00  0.00     0.167 HD
ATOM     50  C   UNL A   1      43.419  24.508  27.993  1.00  0.00     0.037 A 
ATOM     51  C   UNL A   1      42.277  29.544  32.837  1.00  0.00     0.037 A 
ATOM     52  C   UNL A   1      44.390  24.986  28.979  1.00  0.00     0.049 A 
ATOM     53  C   UNL A   1      42.994  28.282  33.276  1.00  0.00     0.074 A 
ATOM     54  C   UNL A   1      45.490  25.825  28.973  1.00  0.00     0.029 A 
ATOM     55  N   UNL A   1      44.125  24.722  30.314  1.00  0.00    -0.354 N 
ATOM     56  N   UNL A   1      43.695  27.511  32.491  1.00  0.00    -0.248 NA
ATOM     57  C   UNL A   1      42.887  27.739  34.633  1.00  0.00     0.031 C 
ATOM     58  C   UNL A   1      45.827  26.117  30.335  1.00  0.00     0.029 A 
ATOM     59  C   UNL A   1      44.958  25.425  31.157  1.00  0.00     0.049 A 
ATOM     60  H   UNL A   1      43.423  24.104  30.623  1.00  0.00     0.167 HD
ATOM     61  C   UNL A   1      44.060  26.380  33.173  1.00  0.00     0.074 A 
ATOM     62  C   UNL A   1      43.540  26.572  34.513  1.00  0.00     0.031 C 
ATOM     63  C   UNL A   1      44.716  25.336  32.590  1.00  0.00     0.037 A 
BRANCH  50  64
ATOM     64  C   UNL A   1      43.774  23.642  26.809  1.00  0.00     0.057 A 
ATOM     65  C   UNL A   1      43.410  22.283  26.782  1.00  0.00     0.134 A 
ATOM     66  C   UNL A   1      44.581  24.048  25.724  1.00  0.00     0.134 A 
ATOM     67  F   UNL A   1      42.674  21.741  27.763  1.00  0.00    -0.206 F 
ATOM     68  C   UNL A   1      43.807  21.408  25.760  1.00  0.00     0.040 A 
ATOM     69  C   UNL A   1      44.935  23.198  24.667  1.00  0.00     0.040 A 
ATOM     70  F   UNL A   1      45.134  25.265  25.654  1.00  0.00    -0.206 F 
ATOM     71  C   UNL A   1      44.558  21.867  24.688  1.00  0.00     0.006 A 
ENDBRANCH  50  64
BRANCH  51  72
ATOM     72  C   UNL A   1      40.999  30.046  33.409  1.00  0.00     0.057 A 
ATOM     73  C   UNL A   1      40.889  31.413  33.724  1.00  0.00     0.134 A 
ATOM     74  C   UNL A   1      39.812  29.316  33.326  1.00  0.00     0.134 A 
ATOM     75  F   UNL A   1      41.992  32.175  33.819  1.00  0.00    -0.206 F 
ATOM     76  C   UNL A   1      39.652  32.049  33.834  1.00  0.00     0.040 A 
ATOM     77  C   UNL A   1      38.564  29.939  33.453  1.00  0.00     0.040 A 
ATOM     78  F   UNL A   1      39.829  28.016  33.003  1.00  0.00    -0.206 F 
ATOM     79  C   UNL A   1      38.483  31.315  33.667  1.00  0.00     0.006 A 
ENDBRANCH  51  72
BRANCH  63  80
ATOM     80  C   UNL A   1      45.133  24.112  33.354  1.00  0.00     0.057 A 
ATOM     81  C   UNL A   1      44.269  23.026  33.557  1.00  0.00     0.134 A 
ATOM     82  C   UNL A   1      46.380  24.029  34.002  1.00  0.00     0.134 A 
ATOM     83  F   UNL A   1      43.035  23.020  33.030  1.00  0.00    -0.206 F 
ATOM     84  C   UNL A   1      44.635  21.913  34.324  1.00  0.00     0.040 A 
ATOM     85  C   UNL A   1      46.739  22.945  34.807  1.00  0.00     0.040 A 
ATOM     86  F   UNL A   1      47.309  24.986  33.859  1.00  0.00    -0.206 F 
ATOM     87  C   UNL A   1      45.869  21.875  34.963  1.00  0.00     0.006 A 
ENDBRANCH  63  80
ENDBRANCH  37  38
ENDBRANCH  29  32
ENDBRANCH  27  28
ENDBRANCH  26  27
ENDBRANCH   1  26
TORSDOF 14
ENDMDL
MODEL 3
REMARK VINA RESULT:     -12.6      4.066      9.295
REMARK SMILES Cc1ccc(Nc2c(Cl)cc(Cl)cc2Cl)c(CC(=O)NCCCCNC(=O)c2ccc(-c3c4nc(c(-c5c(F)cccc5F)c5ccc([nH]5)c(-c5c(F)cccc5F)c5nc(c(-c6c(F)cccc6F)c6ccc3[nH]6)C=C5)C=C4)cc2)c1
REMARK SMILES IDX 22 1 21 2 20 3 18 4 19 5 17 7 16 8 1 9 2 10 3 11 82 12 4 13
REMARK SMILES IDX 5 14 6 15 7 17 8 18 14 19 9 20 10 21 13 22 15 23 11 24 12 25
REMARK SMILES IDX 23 26 24 27 25 28 26 29 27 31 28 32 29 33 81 34 30 35 80 36
REMARK SMILES IDX 31 37 32 38 33 39 74 40 34 41 79 42 73 43 75 44 35 45 78 46
REMARK SMILES IDX 72 47 71 48 36 50 62 51 45 52 61 53 46 54 49 55 60 56 76 57
REMARK SMILES IDX 47 58 48 59 59 61 77 62 50 63 37 64 38 65 43 66 39 67 40 68
REMARK SMILES IDX 42 69 44 70 41 71 63 72 64 73 69 74 65 75 66 76 68 77 70 78
REMARK SMILES IDX 67 79 51 80 52 81 57 82 53 83 54 84 56 85 58 86 55 87
REMARK H PARENT 20 6 6 16 25 30 75 49 49 60
REMARK Flexibility Score: inf
ROOT
ATOM      1  C   UNL A   1      37.673  23.656  25.311  1.00  0.00     0.023 C 
ENDROOT
BRANCH   1   2
ATOM      2  C   UNL A   1      36.154  23.622  25.553  1.00  0.00     0.116 C 
BRANCH   2   3
ATOM      3  N   UNL A   1      35.738  22.580  26.476  1.00  0.00    -0.356 N 
ATOM      4  C   UNL A   1      34.495  22.269  26.941  1.00  0.00     0.224 C 
ATOM      5  O   UNL A   1      34.397  21.410  27.821  1.00  0.00    -0.275 OA
ATOM      6  H   UNL A   1      36.465  22.011  26.818  1.00  0.00     0.163 HD
BRANCH   4   7
ATOM      7  C   UNL A   1      33.256  22.974  26.420  1.00  0.00     0.137 C 
BRANCH   7   8
ATOM      8  C   UNL A   1      32.793  22.455  25.078  1.00  0.00    -0.015 A 
ATOM      9  C   UNL A   1      32.418  18.987  23.512  1.00  0.00     0.044 C 
ATOM     10  C   UNL A   1      32.419  20.475  23.685  1.00  0.00    -0.051 A 
ATOM     11  C   UNL A   1      32.198  21.310  22.593  1.00  0.00     0.005 A 
ATOM     12  C   UNL A   1      32.684  21.055  24.928  1.00  0.00     0.009 A 
ATOM     13  C   UNL A   1      32.244  22.700  22.743  1.00  0.00     0.026 A 
ATOM     14  C   UNL A   1      32.547  23.304  23.975  1.00  0.00     0.042 A 
BRANCH  14  15
ATOM     15  N   UNL A   1      32.568  24.710  24.113  1.00  0.00    -0.353 N 
ATOM     16  H   UNL A   1      33.365  25.078  24.558  1.00  0.00     0.167 HD
BRANCH  15  17
ATOM     17  C   UNL A   1      31.608  25.667  23.700  1.00  0.00     0.076 A 
ATOM     18  C   UNL A   1      31.748  26.439  22.528  1.00  0.00     0.067 A 
ATOM     19  C   UNL A   1      30.492  25.931  24.523  1.00  0.00     0.067 A 
ATOM     20  Cl  UNL A   1      33.005  26.140  21.373  1.00  0.00    -0.082 Cl
ATOM     21  C   UNL A   1      30.834  27.450  22.214  1.00  0.00     0.043 A 
ATOM     22  C   UNL A   1      29.572  26.935  24.208  1.00  0.00     0.043 A 
ATOM     23  Cl  UNL A   1      30.235  25.045  25.988  1.00  0.00    -0.082 Cl
ATOM     24  C   UNL A   1      29.757  27.695  23.059  1.00  0.00     0.044 A 
ATOM     25  Cl  UNL A   1      28.643  28.950  22.680  1.00  0.00    -0.084 Cl
ENDBRANCH  15  17
ENDBRANCH  14  15
ENDBRANCH   7   8
ENDBRANCH   4   7
ENDBRANCH   2   3
ENDBRANCH   1   2
BRANCH   1  26
ATOM     26  C   UNL A   1      38.427  22.363  25.626  1.00  0.00     0.023 C 
BRANCH  26  27
ATOM     27  C   UNL A   1      39.339  22.461  26.837  1.00  0.00     0.116 C 
BRANCH  27  28
ATOM     28  N   UNL A   1      40.716  22.832  26.534  1.00  0.00    -0.352 N 
ATOM     29  C   UNL A   1      41.285  24.092  26.436  1.00  0.00     0.251 C 
ATOM     30  H   UNL A   1      41.330  22.078  26.376  1.00  0.00     0.163 HD
ATOM     31  O   UNL A   1      42.459  24.215  26.121  1.00  0.00    -0.269 OA
BRANCH  29  32
ATOM     32  C   UNL A   1      40.502  25.281  26.866  1.00  0.00     0.039 A 
ATOM     33  C   UNL A   1      40.686  26.465  26.142  1.00  0.00     0.014 A 
ATOM     34  C   UNL A   1      39.819  25.302  28.078  1.00  0.00     0.014 A 
ATOM     35  C   UNL A   1      40.458  27.685  26.770  1.00  0.00     0.010 A 
ATOM     36  C   UNL A   1      39.687  26.507  28.739  1.00  0.00     0.010 A 
ATOM     37  C   UNL A   1      40.098  27.688  28.115  1.00  0.00    -0.014 A 
BRANCH  37  38
ATOM     38  C   UNL A   1      40.307  28.839  28.986  1.00  0.00     0.031 A 
ATOM     39  C   UNL A   1      39.279  29.887  29.121  1.00  0.00     0.074 A 
ATOM     40  C   UNL A   1      41.428  28.890  29.745  1.00  0.00     0.049 A 
ATOM     41  N   UNL A   1      39.494  31.022  29.693  1.00  0.00    -0.248 NA
ATOM     42  C   UNL A   1      37.937  29.773  28.554  1.00  0.00     0.031 C 
ATOM     43  C   UNL A   1      41.701  29.763  30.885  1.00  0.00     0.029 A 
ATOM     44  N   UNL A   1      42.672  28.311  29.451  1.00  0.00    -0.354 N 
ATOM     45  C   UNL A   1      38.283  31.644  29.841  1.00  0.00     0.074 A 
ATOM     46  C   UNL A   1      37.377  30.904  29.001  1.00  0.00     0.031 C 
ATOM     47  C   UNL A   1      43.028  29.915  31.002  1.00  0.00     0.029 A 
ATOM     48  C   UNL A   1      43.637  29.267  29.855  1.00  0.00     0.049 A 
ATOM     49  H   UNL A   1      42.840  27.428  29.049  1.00  0.00     0.167 HD
ATOM     50  C   UNL A   1      38.168  32.636  30.765  1.00  0.00     0.037 A 
ATOM     51  C   UNL A   1      44.430  29.885  28.932  1.00  0.00     0.037 A 
ATOM     52  C   UNL A   1      39.480  33.153  31.157  1.00  0.00     0.049 A 
ATOM     53  C   UNL A   1      44.260  31.390  28.850  1.00  0.00     0.074 A 
ATOM     54  C   UNL A   1      40.269  33.123  32.292  1.00  0.00     0.029 A 
ATOM     55  N   UNL A   1      40.284  33.674  30.154  1.00  0.00    -0.354 N 
ATOM     56  N   UNL A   1      43.420  32.086  29.566  1.00  0.00    -0.248 NA
ATOM     57  C   UNL A   1      44.969  32.217  27.869  1.00  0.00     0.031 C 
ATOM     58  C   UNL A   1      41.582  33.564  31.928  1.00  0.00     0.029 A 
ATOM     59  C   UNL A   1      41.574  33.896  30.586  1.00  0.00     0.049 A 
ATOM     60  H   UNL A   1      39.970  33.863  29.240  1.00  0.00     0.167 HD
ATOM     61  C   UNL A   1      43.411  33.382  29.122  1.00  0.00     0.074 A 
ATOM     62  C   UNL A   1      44.404  33.419  28.065  1.00  0.00     0.031 C 
ATOM     63  C   UNL A   1      42.559  34.331  29.607  1.00  0.00     0.037 A 
BRANCH  50  64
ATOM     64  C   UNL A   1      36.866  33.073  31.392  1.00  0.00     0.057 A 
ATOM     65  C   UNL A   1      36.510  32.632  32.679  1.00  0.00     0.134 A 
ATOM     66  C   UNL A   1      35.862  33.818  30.735  1.00  0.00     0.134 A 
ATOM     67  F   UNL A   1      37.344  31.882  33.414  1.00  0.00    -0.206 F 
ATOM     68  C   UNL A   1      35.268  32.917  33.266  1.00  0.00     0.040 A 
ATOM     69  C   UNL A   1      34.641  34.159  31.332  1.00  0.00     0.040 A 
ATOM     70  F   UNL A   1      35.971  34.201  29.457  1.00  0.00    -0.206 F 
ATOM     71  C   UNL A   1      34.333  33.698  32.600  1.00  0.00     0.006 A 
ENDBRANCH  50  64
BRANCH  51  72
ATOM     72  C   UNL A   1      44.786  29.000  27.791  1.00  0.00     0.057 A 
ATOM     73  C   UNL A   1      45.782  28.024  27.977  1.00  0.00     0.134 A 
ATOM     74  C   UNL A   1      43.958  28.858  26.675  1.00  0.00     0.134 A 
ATOM     75  F   UNL A   1      46.613  28.100  29.030  1.00  0.00    -0.206 F 
ATOM     76  C   UNL A   1      45.874  26.897  27.159  1.00  0.00     0.040 A 
ATOM     77  C   UNL A   1      44.053  27.742  25.836  1.00  0.00     0.040 A 
ATOM     78  F   UNL A   1      42.968  29.730  26.443  1.00  0.00    -0.206 F 
ATOM     79  C   UNL A   1      44.985  26.739  26.102  1.00  0.00     0.006 A 
ENDBRANCH  51  72
BRANCH  63  80
ATOM     80  C   UNL A   1      42.575  35.756  29.130  1.00  0.00     0.057 A 
ATOM     81  C   UNL A   1      41.799  36.190  28.046  1.00  0.00     0.134 A 
ATOM     82  C   UNL A   1      43.453  36.712  29.675  1.00  0.00     0.134 A 
ATOM     83  F   UNL A   1      40.964  35.350  27.415  1.00  0.00    -0.206 F 
ATOM     84  C   UNL A   1      41.862  37.503  27.561  1.00  0.00     0.040 A 
ATOM     85  C   UNL A   1      43.559  38.010  29.170  1.00  0.00     0.040 A 
ATOM     86  F   UNL A   1      44.223  36.431  30.736  1.00  0.00    -0.206 F 
ATOM     87  C   UNL A   1      42.754  38.414  28.115  1.00  0.00     0.006 A 
ENDBRANCH  63  80
ENDBRANCH  37  38
ENDBRANCH  29  32
ENDBRANCH  27  28
ENDBRANCH  26  27
ENDBRANCH   1  26
TORSDOF 14
ENDMDL
