MODEL 1
REMARK VINA RESULT:     -11.8      0.000      0.000
REMARK SMILES C[C@@H](CS(=O)(=O)[C@@H]1CCC[C@H](S(C)(=O)=O)C1)C(=O)NCCCCNC(=O)c1ccc(-c2c3nc(c(-c4c(F)cccc4F)c4ccc([nH]4)c(-c4c(F)cccc4F)c4nc(c(-c5c(F)cccc5F)c5ccc2[nH]5)C=C4)C=C3)cc1
REMARK SMILES IDX 20 1 19 2 17 3 18 4 2 6 1 7 3 8 4 9 5 10 6 11 7 12 8 13
REMARK SMILES IDX 16 14 9 15 11 16 10 17 12 18 13 19 14 20 15 21 21 22 22 23
REMARK SMILES IDX 23 24 24 25 25 26 26 28 27 29 28 30 80 31 29 32 79 33 30 34
REMARK SMILES IDX 31 35 32 36 73 37 33 38 78 39 72 40 74 41 34 42 77 43 71 44
REMARK SMILES IDX 70 45 35 47 61 48 44 49 60 50 45 51 48 52 59 53 75 54 46 55
REMARK SMILES IDX 47 56 58 58 76 59 49 60 36 61 37 62 42 63 38 64 39 65 41 66
REMARK SMILES IDX 43 67 40 68 62 69 63 70 68 71 64 72 65 73 67 74 69 75 66 76
REMARK SMILES IDX 50 77 51 78 56 79 52 80 53 81 55 82 57 83 54 84
REMARK H PARENT 19 5 24 27 74 46 48 57
REMARK Flexibility Score: inf
ROOT
ATOM      1  C   UNL A   1      35.278  21.055  25.226  1.00  0.00     0.116 C 
ENDROOT
BRANCH   1   2
ATOM      2  N   UNL A   1      34.120  20.322  25.645  1.00  0.00    -0.356 N 
ATOM      3  C   UNL A   1      32.870  20.379  25.106  1.00  0.00     0.223 C 
ATOM      4  O   UNL A   1      32.179  19.362  25.228  1.00  0.00    -0.275 OA
ATOM      5  H   UNL A   1      34.242  19.711  26.407  1.00  0.00     0.163 HD
BRANCH   3   6
ATOM      6  C   UNL A   1      32.227  21.665  24.558  1.00  0.00     0.090 C 
ATOM      7  C   UNL A   1      32.121  21.606  23.032  1.00  0.00     0.019 C 
BRANCH   6   8
ATOM      8  C   UNL A   1      31.205  22.544  25.293  1.00  0.00     0.150 C 
BRANCH   8   9
ATOM      9  S   UNL A   1      31.469  23.797  26.527  1.00  0.00     0.153 S 
ATOM     10  O   UNL A   1      30.190  24.429  26.798  1.00  0.00    -0.229 OA
ATOM     11  O   UNL A   1      32.105  23.093  27.630  1.00  0.00    -0.229 OA
BRANCH   9  12
ATOM     12  C   UNL A   1      32.644  25.110  26.003  1.00  0.00     0.110 C 
ATOM     13  C   UNL A   1      32.395  26.486  26.590  1.00  0.00     0.020 C 
ATOM     14  C   UNL A   1      32.715  25.224  24.472  1.00  0.00     0.039 C 
ATOM     15  C   UNL A   1      33.502  27.458  26.217  1.00  0.00     0.003 C 
ATOM     16  C   UNL A   1      33.651  26.340  23.957  1.00  0.00     0.109 C 
ATOM     17  C   UNL A   1      33.508  27.663  24.718  1.00  0.00     0.020 C 
BRANCH  16  18
ATOM     18  S   UNL A   1      33.349  26.594  22.190  1.00  0.00     0.150 S 
ATOM     19  C   UNL A   1      31.591  26.822  22.052  1.00  0.00     0.158 C 
ATOM     20  O   UNL A   1      33.976  27.840  21.813  1.00  0.00    -0.229 OA
ATOM     21  O   UNL A   1      33.673  25.355  21.502  1.00  0.00    -0.229 OA
ENDBRANCH  16  18
ENDBRANCH   9  12
ENDBRANCH   8   9
ENDBRANCH   6   8
ENDBRANCH   3   6
ENDBRANCH   1   2
BRANCH   1  22
ATOM     22  C   UNL A   1      36.547  20.254  24.996  1.00  0.00     0.023 C 
BRANCH  22  23
ATOM     23  C   UNL A   1      37.790  21.086  24.735  1.00  0.00     0.023 C 
BRANCH  23  24
ATOM     24  C   UNL A   1      38.876  20.993  25.800  1.00  0.00     0.116 C 
BRANCH  24  25
ATOM     25  N   UNL A   1      39.721  19.808  25.712  1.00  0.00    -0.352 N 
ATOM     26  C   UNL A   1      41.058  19.703  26.039  1.00  0.00     0.251 C 
ATOM     27  H   UNL A   1      39.289  18.988  25.379  1.00  0.00     0.163 HD
ATOM     28  O   UNL A   1      41.682  18.666  25.847  1.00  0.00    -0.269 OA
BRANCH  26  29
ATOM     29  C   UNL A   1      41.732  20.901  26.580  1.00  0.00     0.039 A 
ATOM     30  C   UNL A   1      42.246  21.850  25.696  1.00  0.00     0.014 A 
ATOM     31  C   UNL A   1      41.696  21.149  27.954  1.00  0.00     0.014 A 
ATOM     32  C   UNL A   1      42.625  23.101  26.185  1.00  0.00     0.010 A 
ATOM     33  C   UNL A   1      41.971  22.428  28.419  1.00  0.00     0.010 A 
ATOM     34  C   UNL A   1      42.432  23.421  27.541  1.00  0.00    -0.014 A 
BRANCH  34  35
ATOM     35  C   UNL A   1      42.697  24.787  28.061  1.00  0.00     0.031 A 
ATOM     36  C   UNL A   1      44.087  25.168  28.491  1.00  0.00     0.074 A 
ATOM     37  C   UNL A   1      41.679  25.658  28.224  1.00  0.00     0.049 A 
ATOM     38  N   UNL A   1      44.510  26.278  29.039  1.00  0.00    -0.248 NA
ATOM     39  C   UNL A   1      45.136  24.150  28.315  1.00  0.00     0.031 C 
ATOM     40  C   UNL A   1      40.274  25.393  27.909  1.00  0.00     0.029 A 
ATOM     41  N   UNL A   1      41.670  26.945  28.704  1.00  0.00    -0.354 N 
ATOM     42  C   UNL A   1      45.862  26.082  29.290  1.00  0.00     0.074 A 
ATOM     43  C   UNL A   1      46.175  24.726  28.899  1.00  0.00     0.031 C 
ATOM     44  C   UNL A   1      39.548  26.493  28.169  1.00  0.00     0.029 A 
ATOM     45  C   UNL A   1      40.425  27.526  28.708  1.00  0.00     0.049 A 
ATOM     46  H   UNL A   1      42.481  27.407  29.018  1.00  0.00     0.167 HD
ATOM     47  C   UNL A   1      46.770  26.962  29.773  1.00  0.00     0.037 A 
ATOM     48  C   UNL A   1      40.035  28.754  29.102  1.00  0.00     0.037 A 
ATOM     49  C   UNL A   1      46.465  28.322  30.129  1.00  0.00     0.049 A 
ATOM     50  C   UNL A   1      41.064  29.715  29.634  1.00  0.00     0.074 A 
ATOM     51  C   UNL A   1      47.328  29.313  30.558  1.00  0.00     0.029 A 
ATOM     52  N   UNL A   1      45.196  28.879  30.096  1.00  0.00    -0.354 N 
ATOM     53  N   UNL A   1      42.355  29.543  29.788  1.00  0.00    -0.248 NA
ATOM     54  C   UNL A   1      40.583  31.042  30.041  1.00  0.00     0.031 C 
ATOM     55  C   UNL A   1      46.574  30.459  30.833  1.00  0.00     0.029 A 
ATOM     56  C   UNL A   1      45.249  30.196  30.522  1.00  0.00     0.049 A 
ATOM     57  H   UNL A   1      44.379  28.409  29.814  1.00  0.00     0.167 HD
ATOM     58  C   UNL A   1      42.844  30.747  30.278  1.00  0.00     0.074 A 
ATOM     59  C   UNL A   1      41.714  31.645  30.383  1.00  0.00     0.031 C 
ATOM     60  C   UNL A   1      44.115  31.079  30.610  1.00  0.00     0.037 A 
BRANCH  47  61
ATOM     61  C   UNL A   1      48.182  26.478  29.935  1.00  0.00     0.057 A 
ATOM     62  C   UNL A   1      49.140  26.636  28.923  1.00  0.00     0.134 A 
ATOM     63  C   UNL A   1      48.596  25.865  31.124  1.00  0.00     0.134 A 
ATOM     64  F   UNL A   1      48.805  27.201  27.753  1.00  0.00    -0.206 F 
ATOM     65  C   UNL A   1      50.448  26.174  29.076  1.00  0.00     0.040 A 
ATOM     66  C   UNL A   1      49.910  25.428  31.300  1.00  0.00     0.040 A 
ATOM     67  F   UNL A   1      47.733  25.686  32.135  1.00  0.00    -0.206 F 
ATOM     68  C   UNL A   1      50.838  25.574  30.271  1.00  0.00     0.006 A 
ENDBRANCH  47  61
BRANCH  48  69
ATOM     69  C   UNL A   1      38.611  29.163  28.984  1.00  0.00     0.057 A 
ATOM     70  C   UNL A   1      37.746  29.081  30.083  1.00  0.00     0.134 A 
ATOM     71  C   UNL A   1      38.075  29.623  27.776  1.00  0.00     0.134 A 
ATOM     72  F   UNL A   1      38.194  28.630  31.263  1.00  0.00    -0.206 F 
ATOM     73  C   UNL A   1      36.395  29.420  29.977  1.00  0.00     0.040 A 
ATOM     74  C   UNL A   1      36.732  29.991  27.664  1.00  0.00     0.040 A 
ATOM     75  F   UNL A   1      38.853  29.733  26.689  1.00  0.00    -0.206 F 
ATOM     76  C   UNL A   1      35.886  29.881  28.765  1.00  0.00     0.006 A 
ENDBRANCH  48  69
BRANCH  60  77
ATOM     77  C   UNL A   1      44.360  32.484  31.080  1.00  0.00     0.057 A 
ATOM     78  C   UNL A   1      44.338  32.827  32.436  1.00  0.00     0.134 A 
ATOM     79  C   UNL A   1      44.666  33.497  30.161  1.00  0.00     0.134 A 
ATOM     80  F   UNL A   1      44.038  31.907  33.366  1.00  0.00    -0.206 F 
ATOM     81  C   UNL A   1      44.590  34.133  32.862  1.00  0.00     0.040 A 
ATOM     82  C   UNL A   1      44.948  34.798  30.576  1.00  0.00     0.040 A 
ATOM     83  F   UNL A   1      44.713  33.232  28.846  1.00  0.00    -0.206 F 
ATOM     84  C   UNL A   1      44.904  35.121  31.930  1.00  0.00     0.006 A 
ENDBRANCH  60  77
ENDBRANCH  34  35
ENDBRANCH  26  29
ENDBRANCH  24  25
ENDBRANCH  23  24
ENDBRANCH  22  23
ENDBRANCH   1  22
TORSDOF 15
ENDMDL
MODEL 2
REMARK VINA RESULT:     -11.7      0.379      6.146
REMARK SMILES C[C@@H](CS(=O)(=O)[C@@H]1CCC[C@H](S(C)(=O)=O)C1)C(=O)NCCCCNC(=O)c1ccc(-c2c3nc(c(-c4c(F)cccc4F)c4ccc([nH]4)c(-c4c(F)cccc4F)c4nc(c(-c5c(F)cccc5F)c5ccc2[nH]5)C=C4)C=C3)cc1
REMARK SMILES IDX 20 1 19 2 17 3 18 4 2 6 1 7 3 8 4 9 5 10 6 11 7 12 8 13
REMARK SMILES IDX 16 14 9 15 11 16 10 17 12 18 13 19 14 20 15 21 21 22 22 23
REMARK SMILES IDX 23 24 24 25 25 26 26 28 27 29 28 30 80 31 29 32 79 33 30 34
REMARK SMILES IDX 31 35 32 36 73 37 33 38 78 39 72 40 74 41 34 42 77 43 71 44
REMARK SMILES IDX 70 45 35 47 61 48 44 49 60 50 45 51 48 52 59 53 75 54 46 55
REMARK SMILES IDX 47 56 58 58 76 59 49 60 36 61 37 62 42 63 38 64 39 65 41 66
REMARK SMILES IDX 43 67 40 68 62 69 63 70 68 71 64 72 65 73 67 74 69 75 66 76
REMARK SMILES IDX 50 77 51 78 56 79 52 80 53 81 55 82 57 83 54 84
REMARK H PARENT 19 5 24 27 74 46 48 57
REMARK Flexibility Score: inf
ROOT
ATOM      1  C   UNL A   1      35.247  21.316  25.730  1.00  0.00     0.116 C 
ENDROOT
BRANCH   1   2
ATOM      2  N   UNL A   1      34.105  20.485  25.971  1.00  0.00    -0.356 N 
ATOM      3  C   UNL A   1      32.955  20.434  25.242  1.00  0.00     0.223 C 
ATOM      4  O   UNL A   1      32.343  19.361  25.266  1.00  0.00    -0.275 OA
ATOM      5  H   UNL A   1      34.158  19.884  26.749  1.00  0.00     0.163 HD
BRANCH   3   6
ATOM      6  C   UNL A   1      32.298  21.661  24.586  1.00  0.00     0.090 C 
ATOM      7  C   UNL A   1      32.160  21.455  23.075  1.00  0.00     0.019 C 
BRANCH   6   8
ATOM      8  C   UNL A   1      31.289  22.608  25.254  1.00  0.00     0.150 C 
BRANCH   8   9
ATOM      9  S   UNL A   1      31.555  23.850  26.498  1.00  0.00     0.153 S 
ATOM     10  O   UNL A   1      30.274  24.470  26.786  1.00  0.00    -0.229 OA
ATOM     11  O   UNL A   1      32.207  23.141  27.587  1.00  0.00    -0.229 OA
BRANCH   9  12
ATOM     12  C   UNL A   1      32.715  25.178  25.975  1.00  0.00     0.110 C 
ATOM     13  C   UNL A   1      32.464  26.546  26.582  1.00  0.00     0.020 C 
ATOM     14  C   UNL A   1      32.767  25.310  24.445  1.00  0.00     0.039 C 
ATOM     15  C   UNL A   1      33.559  27.529  26.208  1.00  0.00     0.003 C 
ATOM     16  C   UNL A   1      33.689  26.440  23.933  1.00  0.00     0.109 C 
ATOM     17  C   UNL A   1      33.546  27.752  24.711  1.00  0.00     0.020 C 
BRANCH  16  18
ATOM     18  S   UNL A   1      33.364  26.712  22.173  1.00  0.00     0.150 S 
ATOM     19  C   UNL A   1      31.610  26.985  22.065  1.00  0.00     0.158 C 
ATOM     20  O   UNL A   1      34.016  27.944  21.793  1.00  0.00    -0.229 OA
ATOM     21  O   UNL A   1      33.646  25.470  21.472  1.00  0.00    -0.229 OA
ENDBRANCH  16  18
ENDBRANCH   9  12
ENDBRANCH   8   9
ENDBRANCH   6   8
ENDBRANCH   3   6
ENDBRANCH   1   2
BRANCH   1  22
ATOM     22  C   UNL A   1      36.427  20.668  25.027  1.00  0.00     0.023 C 
BRANCH  22  23
ATOM     23  C   UNL A   1      37.640  21.566  24.855  1.00  0.00     0.023 C 
BRANCH  23  24
ATOM     24  C   UNL A   1      38.757  21.357  25.871  1.00  0.00     0.116 C 
BRANCH  24  25
ATOM     25  N   UNL A   1      39.523  20.129  25.696  1.00  0.00    -0.352 N 
ATOM     26  C   UNL A   1      40.860  19.925  25.975  1.00  0.00     0.251 C 
ATOM     27  H   UNL A   1      39.031  19.356  25.336  1.00  0.00     0.163 HD
ATOM     28  O   UNL A   1      41.411  18.864  25.711  1.00  0.00    -0.269 OA
BRANCH  26  29
ATOM     29  C   UNL A   1      41.623  21.050  26.554  1.00  0.00     0.039 A 
ATOM     30  C   UNL A   1      42.171  22.009  25.702  1.00  0.00     0.014 A 
ATOM     31  C   UNL A   1      41.641  21.228  27.939  1.00  0.00     0.014 A 
ATOM     32  C   UNL A   1      42.642  23.208  26.241  1.00  0.00     0.010 A 
ATOM     33  C   UNL A   1      42.010  22.462  28.458  1.00  0.00     0.010 A 
ATOM     34  C   UNL A   1      42.508  23.468  27.616  1.00  0.00    -0.014 A 
BRANCH  34  35
ATOM     35  C   UNL A   1      42.873  24.787  28.195  1.00  0.00     0.031 A 
ATOM     36  C   UNL A   1      41.813  25.833  28.404  1.00  0.00     0.074 A 
ATOM     37  C   UNL A   1      44.165  25.076  28.458  1.00  0.00     0.049 A 
ATOM     38  N   UNL A   1      41.936  27.066  28.824  1.00  0.00    -0.248 NA
ATOM     39  C   UNL A   1      40.433  25.453  28.059  1.00  0.00     0.031 C 
ATOM     40  C   UNL A   1      45.299  24.175  28.240  1.00  0.00     0.029 A 
ATOM     41  N   UNL A   1      44.743  26.215  28.961  1.00  0.00    -0.354 N 
ATOM     42  C   UNL A   1      40.660  27.610  28.774  1.00  0.00     0.074 A 
ATOM     43  C   UNL A   1      39.788  26.598  28.219  1.00  0.00     0.031 C 
ATOM     44  C   UNL A   1      46.429  24.783  28.640  1.00  0.00     0.029 A 
ATOM     45  C   UNL A   1      46.107  26.128  29.103  1.00  0.00     0.049 A 
ATOM     46  H   UNL A   1      44.228  27.020  29.196  1.00  0.00     0.167 HD
ATOM     47  C   UNL A   1      40.242  28.831  29.181  1.00  0.00     0.037 A 
ATOM     48  C   UNL A   1      46.998  27.032  29.556  1.00  0.00     0.037 A 
ATOM     49  C   UNL A   1      41.104  29.824  29.766  1.00  0.00     0.049 A 
ATOM     50  C   UNL A   1      46.509  28.382  30.006  1.00  0.00     0.074 A 
ATOM     51  C   UNL A   1      40.765  31.063  30.278  1.00  0.00     0.029 A 
ATOM     52  N   UNL A   1      42.475  29.688  29.914  1.00  0.00    -0.354 N 
ATOM     53  N   UNL A   1      45.286  28.853  30.029  1.00  0.00    -0.248 NA
ATOM     54  C   UNL A   1      47.524  29.324  30.498  1.00  0.00     0.031 C 
ATOM     55  C   UNL A   1      41.940  31.698  30.693  1.00  0.00     0.029 A 
ATOM     56  C   UNL A   1      43.003  30.833  30.488  1.00  0.00     0.049 A 
ATOM     57  H   UNL A   1      42.998  28.896  29.649  1.00  0.00     0.167 HD
ATOM     58  C   UNL A   1      45.379  30.130  30.566  1.00  0.00     0.074 A 
ATOM     59  C   UNL A   1      46.777  30.356  30.868  1.00  0.00     0.031 C 
ATOM     60  C   UNL A   1      44.396  31.036  30.791  1.00  0.00     0.037 A 
BRANCH  47  61
ATOM     61  C   UNL A   1      38.785  29.154  29.016  1.00  0.00     0.057 A 
ATOM     62  C   UNL A   1      38.247  29.535  27.778  1.00  0.00     0.134 A 
ATOM     63  C   UNL A   1      37.905  29.061  30.101  1.00  0.00     0.134 A 
ATOM     64  F   UNL A   1      39.038  29.658  26.702  1.00  0.00    -0.206 F 
ATOM     65  C   UNL A   1      36.893  29.843  27.634  1.00  0.00     0.040 A 
ATOM     66  C   UNL A   1      36.544  29.336  29.961  1.00  0.00     0.040 A 
ATOM     67  F   UNL A   1      38.352  28.697  31.312  1.00  0.00    -0.206 F 
ATOM     68  C   UNL A   1      36.036  29.737  28.727  1.00  0.00     0.006 A 
ENDBRANCH  47  61
BRANCH  48  69
ATOM     69  C   UNL A   1      48.442  26.687  29.638  1.00  0.00     0.057 A 
ATOM     70  C   UNL A   1      48.957  26.005  30.748  1.00  0.00     0.134 A 
ATOM     71  C   UNL A   1      49.342  27.042  28.627  1.00  0.00     0.134 A 
ATOM     72  F   UNL A   1      48.149  25.654  31.759  1.00  0.00    -0.206 F 
ATOM     73  C   UNL A   1      50.318  25.712  30.860  1.00  0.00     0.040 A 
ATOM     74  C   UNL A   1      50.701  26.730  28.714  1.00  0.00     0.040 A 
ATOM     75  F   UNL A   1      48.911  27.688  27.533  1.00  0.00    -0.206 F 
ATOM     76  C   UNL A   1      51.193  26.071  29.838  1.00  0.00     0.006 A 
ENDBRANCH  48  69
BRANCH  60  77
ATOM     77  C   UNL A   1      44.789  32.337  31.429  1.00  0.00     0.057 A 
ATOM     78  C   UNL A   1      44.798  32.509  32.818  1.00  0.00     0.134 A 
ATOM     79  C   UNL A   1      45.208  33.417  30.640  1.00  0.00     0.134 A 
ATOM     80  F   UNL A   1      44.396  31.518  33.629  1.00  0.00    -0.206 F 
ATOM     81  C   UNL A   1      45.188  33.717  33.400  1.00  0.00     0.040 A 
ATOM     82  C   UNL A   1      45.627  34.618  31.210  1.00  0.00     0.040 A 
ATOM     83  F   UNL A   1      45.232  33.313  29.302  1.00  0.00    -0.206 F 
ATOM     84  C   UNL A   1      45.612  34.773  32.595  1.00  0.00     0.006 A 
ENDBRANCH  60  77
ENDBRANCH  34  35
ENDBRANCH  26  29
ENDBRANCH  24  25
ENDBRANCH  23  24
ENDBRANCH  22  23
ENDBRANCH   1  22
TORSDOF 15
ENDMDL
MODEL 3
REMARK VINA RESULT:     -11.5      1.307      2.090
REMARK SMILES C[C@@H](CS(=O)(=O)[C@@H]1CCC[C@H](S(C)(=O)=O)C1)C(=O)NCCCCNC(=O)c1ccc(-c2c3nc(c(-c4c(F)cccc4F)c4ccc([nH]4)c(-c4c(F)cccc4F)c4nc(c(-c5c(F)cccc5F)c5ccc2[nH]5)C=C4)C=C3)cc1
REMARK SMILES IDX 20 1 19 2 17 3 18 4 2 6 1 7 3 8 4 9 5 10 6 11 7 12 8 13
REMARK SMILES IDX 16 14 9 15 11 16 10 17 12 18 13 19 14 20 15 21 21 22 22 23
REMARK SMILES IDX 23 24 24 25 25 26 26 28 27 29 28 30 80 31 29 32 79 33 30 34
REMARK SMILES IDX 31 35 32 36 73 37 33 38 78 39 72 40 74 41 34 42 77 43 71 44
REMARK SMILES IDX 70 45 35 47 61 48 44 49 60 50 45 51 48 52 59 53 75 54 46 55
REMARK SMILES IDX 47 56 58 58 76 59 49 60 36 61 37 62 42 63 38 64 39 65 41 66
REMARK SMILES IDX 43 67 40 68 62 69 63 70 68 71 64 72 65 73 67 74 69 75 66 76
REMARK SMILES IDX 50 77 51 78 56 79 52 80 53 81 55 82 57 83 54 84
REMARK H PARENT 19 5 24 27 74 46 48 57
REMARK Flexibility Score: inf
ROOT
ATOM      1  C   UNL A   1      35.321  20.628  25.138  1.00  0.00     0.116 C 
ENDROOT
BRANCH   1   2
ATOM      2  N   UNL A   1      35.076  21.313  26.372  1.00  0.00    -0.356 N 
ATOM      3  C   UNL A   1      34.827  22.642  26.540  1.00  0.00     0.223 C 
ATOM      4  O   UNL A   1      34.154  22.949  27.530  1.00  0.00    -0.275 OA
ATOM      5  H   UNL A   1      35.089  20.763  27.189  1.00  0.00     0.163 HD
BRANCH   3   6
ATOM      6  C   UNL A   1      35.490  23.754  25.708  1.00  0.00     0.090 C 
ATOM      7  C   UNL A   1      36.927  23.995  26.179  1.00  0.00     0.019 C 
BRANCH   6   8
ATOM      8  C   UNL A   1      35.171  24.095  24.245  1.00  0.00     0.150 C 
BRANCH   8   9
ATOM      9  S   UNL A   1      33.708  24.826  23.546  1.00  0.00     0.153 S 
ATOM     10  O   UNL A   1      33.751  24.617  22.110  1.00  0.00    -0.229 OA
ATOM     11  O   UNL A   1      32.610  24.207  24.272  1.00  0.00    -0.229 OA
BRANCH   9  12
ATOM     12  C   UNL A   1      33.574  26.635  23.847  1.00  0.00     0.110 C 
ATOM     13  C   UNL A   1      33.679  27.069  25.296  1.00  0.00     0.020 C 
ATOM     14  C   UNL A   1      32.285  27.212  23.242  1.00  0.00     0.039 C 
ATOM     15  C   UNL A   1      33.707  28.583  25.423  1.00  0.00     0.003 C 
ATOM     16  C   UNL A   1      32.082  28.723  23.495  1.00  0.00     0.109 C 
ATOM     17  C   UNL A   1      32.395  29.154  24.932  1.00  0.00     0.020 C 
BRANCH  16  18
ATOM     18  S   UNL A   1      30.382  29.169  23.060  1.00  0.00     0.150 S 
ATOM     19  C   UNL A   1      29.425  27.706  23.383  1.00  0.00     0.158 C 
ATOM     20  O   UNL A   1      29.944  30.185  23.990  1.00  0.00    -0.229 OA
ATOM     21  O   UNL A   1      30.337  29.399  21.625  1.00  0.00    -0.229 OA
ENDBRANCH  16  18
ENDBRANCH   9  12
ENDBRANCH   8   9
ENDBRANCH   6   8
ENDBRANCH   3   6
ENDBRANCH   1   2
BRANCH   1  22
ATOM     22  C   UNL A   1      36.687  19.984  24.975  1.00  0.00     0.023 C 
BRANCH  22  23
ATOM     23  C   UNL A   1      37.827  20.958  24.731  1.00  0.00     0.023 C 
BRANCH  23  24
ATOM     24  C   UNL A   1      38.955  20.914  25.755  1.00  0.00     0.116 C 
BRANCH  24  25
ATOM     25  N   UNL A   1      39.812  19.737  25.674  1.00  0.00    -0.352 N 
ATOM     26  C   UNL A   1      41.147  19.644  26.013  1.00  0.00     0.251 C 
ATOM     27  H   UNL A   1      39.390  18.913  25.338  1.00  0.00     0.163 HD
ATOM     28  O   UNL A   1      41.781  18.613  25.826  1.00  0.00    -0.269 OA
BRANCH  26  29
ATOM     29  C   UNL A   1      41.805  20.848  26.560  1.00  0.00     0.039 A 
ATOM     30  C   UNL A   1      42.313  21.804  25.680  1.00  0.00     0.014 A 
ATOM     31  C   UNL A   1      41.760  21.093  27.934  1.00  0.00     0.014 A 
ATOM     32  C   UNL A   1      42.677  23.058  26.173  1.00  0.00     0.010 A 
ATOM     33  C   UNL A   1      42.020  22.374  28.403  1.00  0.00     0.010 A 
ATOM     34  C   UNL A   1      42.474  23.373  27.528  1.00  0.00    -0.014 A 
BRANCH  34  35
ATOM     35  C   UNL A   1      42.722  24.742  28.053  1.00  0.00     0.031 A 
ATOM     36  C   UNL A   1      44.106  25.136  28.490  1.00  0.00     0.074 A 
ATOM     37  C   UNL A   1      41.694  25.601  28.213  1.00  0.00     0.049 A 
ATOM     38  N   UNL A   1      44.514  26.250  29.042  1.00  0.00    -0.248 NA
ATOM     39  C   UNL A   1      45.166  24.129  28.317  1.00  0.00     0.031 C 
ATOM     40  C   UNL A   1      40.293  25.322  27.890  1.00  0.00     0.029 A 
ATOM     41  N   UNL A   1      41.669  26.886  28.695  1.00  0.00    -0.354 N 
ATOM     42  C   UNL A   1      45.867  26.068  29.299  1.00  0.00     0.074 A 
ATOM     43  C   UNL A   1      46.196  24.716  28.907  1.00  0.00     0.031 C 
ATOM     44  C   UNL A   1      39.554  26.413  28.149  1.00  0.00     0.029 A 
ATOM     45  C   UNL A   1      40.418  27.455  28.693  1.00  0.00     0.049 A 
ATOM     46  H   UNL A   1      42.473  27.357  29.013  1.00  0.00     0.167 HD
ATOM     47  C   UNL A   1      46.763  26.956  29.789  1.00  0.00     0.037 A 
ATOM     48  C   UNL A   1      40.013  28.678  29.089  1.00  0.00     0.037 A 
ATOM     49  C   UNL A   1      46.442  28.312  30.145  1.00  0.00     0.049 A 
ATOM     50  C   UNL A   1      41.029  29.648  29.627  1.00  0.00     0.074 A 
ATOM     51  C   UNL A   1      47.293  29.312  30.581  1.00  0.00     0.029 A 
ATOM     52  N   UNL A   1      45.167  28.855  30.108  1.00  0.00    -0.354 N 
ATOM     53  N   UNL A   1      42.321  29.489  29.787  1.00  0.00    -0.248 NA
ATOM     54  C   UNL A   1      40.532  30.970  30.034  1.00  0.00     0.031 C 
ATOM     55  C   UNL A   1      46.524  30.448  30.853  1.00  0.00     0.029 A 
ATOM     56  C   UNL A   1      45.204  30.172  30.537  1.00  0.00     0.049 A 
ATOM     57  H   UNL A   1      44.356  28.377  29.820  1.00  0.00     0.167 HD
ATOM     58  C   UNL A   1      42.794  30.698  30.281  1.00  0.00     0.074 A 
ATOM     59  C   UNL A   1      41.654  31.584  30.383  1.00  0.00     0.031 C 
ATOM     60  C   UNL A   1      44.061  31.043  30.621  1.00  0.00     0.037 A 
BRANCH  47  61
ATOM     61  C   UNL A   1      48.179  26.487  29.956  1.00  0.00     0.057 A 
ATOM     62  C   UNL A   1      49.139  26.653  28.947  1.00  0.00     0.134 A 
ATOM     63  C   UNL A   1      48.596  25.880  31.147  1.00  0.00     0.134 A 
ATOM     64  F   UNL A   1      48.803  27.212  27.775  1.00  0.00    -0.206 F 
ATOM     65  C   UNL A   1      50.451  26.205  29.105  1.00  0.00     0.040 A 
ATOM     66  C   UNL A   1      49.913  25.457  31.329  1.00  0.00     0.040 A 
ATOM     67  F   UNL A   1      47.731  25.694  32.156  1.00  0.00    -0.206 F 
ATOM     68  C   UNL A   1      50.843  25.611  30.303  1.00  0.00     0.006 A 
ENDBRANCH  47  61
BRANCH  48  69
ATOM     69  C   UNL A   1      38.585  29.071  28.964  1.00  0.00     0.057 A 
ATOM     70  C   UNL A   1      38.081  29.581  27.761  1.00  0.00     0.134 A 
ATOM     71  C   UNL A   1      37.697  28.969  30.041  1.00  0.00     0.134 A 
ATOM     72  F   UNL A   1      38.886  29.721  26.698  1.00  0.00    -0.206 F 
ATOM     73  C   UNL A   1      36.753  29.996  27.640  1.00  0.00     0.040 A 
ATOM     74  C   UNL A   1      36.360  29.355  29.927  1.00  0.00     0.040 A 
ATOM     75  F   UNL A   1      38.115  28.481  31.219  1.00  0.00    -0.206 F 
ATOM     76  C   UNL A   1      35.887  29.879  28.725  1.00  0.00     0.006 A 
ENDBRANCH  48  69
BRANCH  60  77
ATOM     77  C   UNL A   1      44.288  32.450  31.094  1.00  0.00     0.057 A 
ATOM     78  C   UNL A   1      44.257  32.790  32.451  1.00  0.00     0.134 A 
ATOM     79  C   UNL A   1      44.587  33.468  30.178  1.00  0.00     0.134 A 
ATOM     80  F   UNL A   1      43.964  31.864  33.378  1.00  0.00    -0.206 F 
ATOM     81  C   UNL A   1      44.493  34.097  32.881  1.00  0.00     0.040 A 
ATOM     82  C   UNL A   1      44.853  34.771  30.597  1.00  0.00     0.040 A 
ATOM     83  F   UNL A   1      44.642  33.206  28.864  1.00  0.00    -0.206 F 
ATOM     84  C   UNL A   1      44.800  35.091  31.952  1.00  0.00     0.006 A 
ENDBRANCH  60  77
ENDBRANCH  34  35
ENDBRANCH  26  29
ENDBRANCH  24  25
ENDBRANCH  23  24
ENDBRANCH  22  23
ENDBRANCH   1  22
TORSDOF 15
ENDMDL
