MODEL 1
REMARK VINA RESULT:     -12.4      0.000      0.000
REMARK SMILES Cc1nc(-c2ccccc2Cl)nc2sc(C(=O)NCCCCNC(=O)c3ccc(-c4c5nc(c(-c6c(F)cccc6F)c6ccc([nH]6)c(-c6c(F)cccc6F)c6nc(c(-c7c(F)cccc7F)c7ccc4[nH]7)C=C6)C=C5)cc3)c(N)c12
REMARK SMILES IDX 21 1 20 2 19 3 18 4 16 5 17 6 15 8 1 9 2 10 3 11 82 12 4 13
REMARK SMILES IDX 13 14 80 15 12 16 14 17 5 18 6 19 10 20 7 21 9 22 11 23 8 24
REMARK SMILES IDX 81 25 22 28 23 29 24 30 25 32 26 33 27 34 79 35 28 36 78 37
REMARK SMILES IDX 29 38 30 39 31 40 72 41 32 42 77 43 71 44 73 45 33 46 76 47
REMARK SMILES IDX 70 48 69 49 34 51 60 52 43 53 59 54 44 55 47 56 58 57 74 58
REMARK SMILES IDX 45 59 46 60 57 62 75 63 48 64 35 65 36 66 41 67 37 68 38 69
REMARK SMILES IDX 40 70 42 71 39 72 61 73 62 74 67 75 63 76 64 77 66 78 68 79
REMARK SMILES IDX 65 80 49 81 50 82 55 83 51 84 52 85 54 86 56 87 53 88
REMARK H PARENT 18 7 81 26 81 27 23 31 73 50 47 61
REMARK Flexibility Score: inf
ROOT
ATOM      1  C   UNL A   1      33.573  28.504  27.330  1.00  0.00     0.023 C 
ENDROOT
BRANCH   1   2
ATOM      2  C   UNL A   1      32.475  29.369  26.700  1.00  0.00     0.023 C 
BRANCH   2   3
ATOM      3  C   UNL A   1      32.768  29.874  25.278  1.00  0.00     0.116 C 
BRANCH   3   4
ATOM      4  N   UNL A   1      31.759  29.455  24.312  1.00  0.00    -0.351 N 
ATOM      5  C   UNL A   1      31.350  28.208  23.869  1.00  0.00     0.263 C 
ATOM      6  O   UNL A   1      30.340  28.216  23.155  1.00  0.00    -0.268 OA
ATOM      7  H   UNL A   1      31.276  30.203  23.893  1.00  0.00     0.163 HD
BRANCH   5   8
ATOM      8  C   UNL A   1      32.013  26.963  24.252  1.00  0.00     0.118 A 
ATOM      9  C   UNL A   1      31.424  23.117  26.835  1.00  0.00     0.067 C 
ATOM     10  C   UNL A   1      32.594  23.764  26.160  1.00  0.00     0.052 A 
ATOM     11  N   UNL A   1      33.813  23.164  26.340  1.00  0.00    -0.233 NA
ATOM     12  C   UNL A   1      32.526  24.933  25.368  1.00  0.00     0.056 A 
ATOM     13  C   UNL A   1      34.889  23.657  25.700  1.00  0.00     0.162 A 
ATOM     14  C   UNL A   1      33.703  25.264  24.729  1.00  0.00     0.130 A 
ATOM     15  C   UNL A   1      31.520  25.923  25.043  1.00  0.00     0.067 A 
ATOM     16  N   UNL A   1      34.895  24.686  24.857  1.00  0.00    -0.217 NA
ATOM     17  S   UNL A   1      33.535  26.520  23.631  1.00  0.00    -0.108 S 
BRANCH  13  18
ATOM     18  C   UNL A   1      36.208  23.073  25.908  1.00  0.00     0.038 A 
ATOM     19  C   UNL A   1      37.263  23.906  26.342  1.00  0.00     0.013 A 
ATOM     20  C   UNL A   1      36.519  21.768  25.504  1.00  0.00     0.052 A 
ATOM     21  C   UNL A   1      38.585  23.461  26.345  1.00  0.00     0.001 A 
ATOM     22  C   UNL A   1      37.847  21.322  25.507  1.00  0.00     0.021 A 
ATOM     23  Cl  UNL A   1      35.314  20.681  24.906  1.00  0.00    -0.084 Cl
ATOM     24  C   UNL A   1      38.878  22.170  25.918  1.00  0.00     0.002 A 
ENDBRANCH  13  18
BRANCH  15  25
ATOM     25  N   UNL A   1      30.251  25.902  25.509  1.00  0.00    -0.397 N 
ATOM     26  H   UNL A   1      29.839  25.048  25.777  1.00  0.00     0.156 HD
ATOM     27  H   UNL A   1      29.738  26.739  25.579  1.00  0.00     0.156 HD
ENDBRANCH  15  25
ENDBRANCH   5   8
ENDBRANCH   3   4
ENDBRANCH   2   3
ENDBRANCH   1   2
BRANCH   1  28
ATOM     28  C   UNL A   1      34.951  29.154  27.349  1.00  0.00     0.116 C 
BRANCH  28  29
ATOM     29  N   UNL A   1      35.132  30.102  28.446  1.00  0.00    -0.352 N 
ATOM     30  C   UNL A   1      36.178  30.146  29.354  1.00  0.00     0.251 C 
ATOM     31  H   UNL A   1      34.433  30.787  28.552  1.00  0.00     0.163 HD
ATOM     32  O   UNL A   1      36.075  30.710  30.426  1.00  0.00    -0.269 OA
BRANCH  30  33
ATOM     33  C   UNL A   1      37.436  29.480  28.975  1.00  0.00     0.039 A 
ATOM     34  C   UNL A   1      38.129  29.848  27.820  1.00  0.00     0.014 A 
ATOM     35  C   UNL A   1      37.951  28.529  29.852  1.00  0.00     0.014 A 
ATOM     36  C   UNL A   1      39.396  29.315  27.607  1.00  0.00     0.010 A 
ATOM     37  C   UNL A   1      39.254  28.118  29.714  1.00  0.00     0.010 A 
ATOM     38  C   UNL A   1      39.970  28.473  28.576  1.00  0.00    -0.014 A 
BRANCH  38  39
ATOM     39  C   UNL A   1      41.363  28.053  28.450  1.00  0.00     0.031 A 
ATOM     40  C   UNL A   1      41.567  26.811  27.653  1.00  0.00     0.074 A 
ATOM     41  C   UNL A   1      42.411  28.806  28.851  1.00  0.00     0.049 A 
ATOM     42  N   UNL A   1      41.947  25.657  28.089  1.00  0.00    -0.248 NA
ATOM     43  C   UNL A   1      41.191  26.812  26.229  1.00  0.00     0.031 C 
ATOM     44  C   UNL A   1      42.391  30.190  29.344  1.00  0.00     0.029 A 
ATOM     45  N   UNL A   1      43.746  28.524  28.812  1.00  0.00    -0.354 N 
ATOM     46  C   UNL A   1      42.083  24.847  26.962  1.00  0.00     0.074 A 
ATOM     47  C   UNL A   1      41.440  25.545  25.881  1.00  0.00     0.031 C 
ATOM     48  C   UNL A   1      43.640  30.702  29.318  1.00  0.00     0.029 A 
ATOM     49  C   UNL A   1      44.565  29.629  29.011  1.00  0.00     0.049 A 
ATOM     50  H   UNL A   1      44.098  27.618  28.658  1.00  0.00     0.167 HD
ATOM     51  C   UNL A   1      42.964  23.807  26.962  1.00  0.00     0.037 A 
ATOM     52  C   UNL A   1      45.916  29.663  28.945  1.00  0.00     0.037 A 
ATOM     53  C   UNL A   1      43.438  23.539  28.294  1.00  0.00     0.049 A 
ATOM     54  C   UNL A   1      46.405  28.291  29.199  1.00  0.00     0.074 A 
ATOM     55  C   UNL A   1      42.989  22.881  29.417  1.00  0.00     0.029 A 
ATOM     56  N   UNL A   1      44.448  24.374  28.687  1.00  0.00    -0.354 N 
ATOM     57  N   UNL A   1      46.256  27.672  30.338  1.00  0.00    -0.248 NA
ATOM     58  C   UNL A   1      46.794  27.450  28.073  1.00  0.00     0.031 C 
ATOM     59  C   UNL A   1      43.677  23.463  30.525  1.00  0.00     0.029 A 
ATOM     60  C   UNL A   1      44.556  24.432  30.049  1.00  0.00     0.049 A 
ATOM     61  H   UNL A   1      45.025  24.873  28.065  1.00  0.00     0.167 HD
ATOM     62  C   UNL A   1      46.109  26.348  29.984  1.00  0.00     0.074 A 
ATOM     63  C   UNL A   1      46.634  26.246  28.628  1.00  0.00     0.031 C 
ATOM     64  C   UNL A   1      45.267  25.526  30.670  1.00  0.00     0.037 A 
BRANCH  51  65
ATOM     65  C   UNL A   1      43.769  23.350  25.766  1.00  0.00     0.057 A 
ATOM     66  C   UNL A   1      43.753  21.991  25.401  1.00  0.00     0.134 A 
ATOM     67  C   UNL A   1      44.786  24.118  25.163  1.00  0.00     0.134 A 
ATOM     68  F   UNL A   1      42.857  21.146  25.932  1.00  0.00    -0.206 F 
ATOM     69  C   UNL A   1      44.703  21.433  24.533  1.00  0.00     0.040 A 
ATOM     70  C   UNL A   1      45.708  23.581  24.258  1.00  0.00     0.040 A 
ATOM     71  F   UNL A   1      45.008  25.394  25.497  1.00  0.00    -0.206 F 
ATOM     72  C   UNL A   1      45.685  22.229  23.959  1.00  0.00     0.006 A 
ENDBRANCH  51  65
BRANCH  52  73
ATOM     73  C   UNL A   1      46.786  30.711  28.369  1.00  0.00     0.057 A 
ATOM     74  C   UNL A   1      46.585  31.155  27.053  1.00  0.00     0.134 A 
ATOM     75  C   UNL A   1      47.593  31.526  29.182  1.00  0.00     0.134 A 
ATOM     76  F   UNL A   1      45.820  30.449  26.208  1.00  0.00    -0.206 F 
ATOM     77  C   UNL A   1      47.087  32.378  26.595  1.00  0.00     0.040 A 
ATOM     78  C   UNL A   1      48.106  32.747  28.734  1.00  0.00     0.040 A 
ATOM     79  F   UNL A   1      47.825  31.213  30.465  1.00  0.00    -0.206 F 
ATOM     80  C   UNL A   1      47.831  33.190  27.445  1.00  0.00     0.006 A 
ENDBRANCH  52  73
BRANCH  64  81
ATOM     81  C   UNL A   1      44.939  25.883  32.086  1.00  0.00     0.057 A 
ATOM     82  C   UNL A   1      45.734  25.572  33.196  1.00  0.00     0.134 A 
ATOM     83  C   UNL A   1      43.791  26.649  32.319  1.00  0.00     0.134 A 
ATOM     84  F   UNL A   1      46.883  24.898  33.062  1.00  0.00    -0.206 F 
ATOM     85  C   UNL A   1      45.383  25.984  34.487  1.00  0.00     0.040 A 
ATOM     86  C   UNL A   1      43.447  27.093  33.596  1.00  0.00     0.040 A 
ATOM     87  F   UNL A   1      43.001  27.011  31.295  1.00  0.00    -0.206 F 
ATOM     88  C   UNL A   1      44.239  26.753  34.688  1.00  0.00     0.006 A 
ENDBRANCH  64  81
ENDBRANCH  38  39
ENDBRANCH  30  33
ENDBRANCH  28  29
ENDBRANCH   1  28
TORSDOF 13
ENDMDL
MODEL 2
REMARK VINA RESULT:     -12.2      1.690      6.039
REMARK SMILES Cc1nc(-c2ccccc2Cl)nc2sc(C(=O)NCCCCNC(=O)c3ccc(-c4c5nc(c(-c6c(F)cccc6F)c6ccc([nH]6)c(-c6c(F)cccc6F)c6nc(c(-c7c(F)cccc7F)c7ccc4[nH]7)C=C6)C=C5)cc3)c(N)c12
REMARK SMILES IDX 21 1 20 2 19 3 18 4 16 5 17 6 15 8 1 9 2 10 3 11 82 12 4 13
REMARK SMILES IDX 13 14 80 15 12 16 14 17 5 18 6 19 10 20 7 21 9 22 11 23 8 24
REMARK SMILES IDX 81 25 22 28 23 29 24 30 25 32 26 33 27 34 79 35 28 36 78 37
REMARK SMILES IDX 29 38 30 39 31 40 72 41 32 42 77 43 71 44 73 45 33 46 76 47
REMARK SMILES IDX 70 48 69 49 34 51 60 52 43 53 59 54 44 55 47 56 58 57 74 58
REMARK SMILES IDX 45 59 46 60 57 62 75 63 48 64 35 65 36 66 41 67 37 68 38 69
REMARK SMILES IDX 40 70 42 71 39 72 61 73 62 74 67 75 63 76 64 77 66 78 68 79
REMARK SMILES IDX 65 80 49 81 50 82 55 83 51 84 52 85 54 86 56 87 53 88
REMARK H PARENT 18 7 81 26 81 27 23 31 73 50 47 61
REMARK Flexibility Score: inf
ROOT
ATOM      1  C   UNL A   1      33.231  28.853  27.400  1.00  0.00     0.023 C 
ENDROOT
BRANCH   1   2
ATOM      2  C   UNL A   1      32.201  29.576  26.524  1.00  0.00     0.023 C 
BRANCH   2   3
ATOM      3  C   UNL A   1      32.625  29.808  25.064  1.00  0.00     0.116 C 
BRANCH   3   4
ATOM      4  N   UNL A   1      31.654  29.290  24.106  1.00  0.00    -0.351 N 
ATOM      5  C   UNL A   1      31.315  28.004  23.720  1.00  0.00     0.263 C 
ATOM      6  O   UNL A   1      30.318  27.926  22.993  1.00  0.00    -0.268 OA
ATOM      7  H   UNL A   1      31.140  29.992  23.644  1.00  0.00     0.163 HD
BRANCH   5   8
ATOM      8  C   UNL A   1      32.034  26.815  24.172  1.00  0.00     0.118 A 
ATOM      9  C   UNL A   1      31.657  23.151  27.043  1.00  0.00     0.067 C 
ATOM     10  C   UNL A   1      32.785  23.787  26.290  1.00  0.00     0.052 A 
ATOM     11  N   UNL A   1      34.029  23.245  26.477  1.00  0.00    -0.233 NA
ATOM     12  C   UNL A   1      32.652  24.892  25.417  1.00  0.00     0.056 A 
ATOM     13  C   UNL A   1      35.069  23.728  25.772  1.00  0.00     0.162 A 
ATOM     14  C   UNL A   1      33.799  25.217  24.723  1.00  0.00     0.130 A 
ATOM     15  C   UNL A   1      31.602  25.819  25.050  1.00  0.00     0.067 A 
ATOM     16  N   UNL A   1      35.014  24.692  24.858  1.00  0.00    -0.217 NA
ATOM     17  S   UNL A   1      33.555  26.382  23.541  1.00  0.00    -0.108 S 
BRANCH  13  18
ATOM     18  C   UNL A   1      36.414  23.208  25.984  1.00  0.00     0.038 A 
ATOM     19  C   UNL A   1      37.423  24.087  26.436  1.00  0.00     0.013 A 
ATOM     20  C   UNL A   1      36.793  21.925  25.568  1.00  0.00     0.052 A 
ATOM     21  C   UNL A   1      38.766  23.708  26.443  1.00  0.00     0.001 A 
ATOM     22  C   UNL A   1      38.141  21.545  25.576  1.00  0.00     0.021 A 
ATOM     23  Cl  UNL A   1      35.647  20.786  24.948  1.00  0.00    -0.084 Cl
ATOM     24  C   UNL A   1      39.125  22.438  26.004  1.00  0.00     0.002 A 
ENDBRANCH  13  18
BRANCH  15  25
ATOM     25  N   UNL A   1      30.347  25.787  25.553  1.00  0.00    -0.397 N 
ATOM     26  H   UNL A   1      29.825  24.953  25.520  1.00  0.00     0.156 HD
ATOM     27  H   UNL A   1      29.956  26.597  25.952  1.00  0.00     0.156 HD
ENDBRANCH  15  25
ENDBRANCH   5   8
ENDBRANCH   3   4
ENDBRANCH   2   3
ENDBRANCH   1   2
BRANCH   1  28
ATOM     28  C   UNL A   1      34.554  29.593  27.554  1.00  0.00     0.116 C 
BRANCH  28  29
ATOM     29  N   UNL A   1      34.407  30.938  28.106  1.00  0.00    -0.352 N 
ATOM     30  C   UNL A   1      35.076  31.479  29.192  1.00  0.00     0.251 C 
ATOM     31  H   UNL A   1      33.761  31.528  27.653  1.00  0.00     0.163 HD
ATOM     32  O   UNL A   1      34.647  32.442  29.796  1.00  0.00    -0.269 OA
BRANCH  30  33
ATOM     33  C   UNL A   1      36.342  30.842  29.596  1.00  0.00     0.039 A 
ATOM     34  C   UNL A   1      36.354  29.611  30.253  1.00  0.00     0.014 A 
ATOM     35  C   UNL A   1      37.527  31.475  29.228  1.00  0.00     0.014 A 
ATOM     36  C   UNL A   1      37.575  28.974  30.450  1.00  0.00     0.010 A 
ATOM     37  C   UNL A   1      38.710  30.781  29.292  1.00  0.00     0.010 A 
ATOM     38  C   UNL A   1      38.751  29.550  29.937  1.00  0.00    -0.014 A 
BRANCH  38  39
ATOM     39  C   UNL A   1      40.009  28.808  29.979  1.00  0.00     0.031 A 
ATOM     40  C   UNL A   1      40.611  28.685  31.336  1.00  0.00     0.074 A 
ATOM     41  C   UNL A   1      40.509  28.123  28.928  1.00  0.00     0.049 A 
ATOM     42  N   UNL A   1      41.691  29.247  31.766  1.00  0.00    -0.248 NA
ATOM     43  C   UNL A   1      39.870  27.953  32.378  1.00  0.00     0.031 C 
ATOM     44  C   UNL A   1      39.870  27.869  27.630  1.00  0.00     0.029 A 
ATOM     45  N   UNL A   1      41.672  27.415  28.829  1.00  0.00    -0.354 N 
ATOM     46  C   UNL A   1      41.892  28.756  33.055  1.00  0.00     0.074 A 
ATOM     47  C   UNL A   1      40.664  28.115  33.442  1.00  0.00     0.031 C 
ATOM     48  C   UNL A   1      40.523  26.880  26.983  1.00  0.00     0.029 A 
ATOM     49  C   UNL A   1      41.735  26.581  27.720  1.00  0.00     0.049 A 
ATOM     50  H   UNL A   1      42.403  27.491  29.484  1.00  0.00     0.167 HD
ATOM     51  C   UNL A   1      43.150  28.675  33.573  1.00  0.00     0.037 A 
ATOM     52  C   UNL A   1      42.724  25.709  27.413  1.00  0.00     0.037 A 
ATOM     53  C   UNL A   1      44.087  29.401  32.758  1.00  0.00     0.049 A 
ATOM     54  C   UNL A   1      43.952  26.177  28.091  1.00  0.00     0.074 A 
ATOM     55  C   UNL A   1      44.475  30.710  32.580  1.00  0.00     0.029 A 
ATOM     56  N   UNL A   1      44.509  28.698  31.664  1.00  0.00    -0.354 N 
ATOM     57  N   UNL A   1      44.551  27.299  27.802  1.00  0.00    -0.248 NA
ATOM     58  C   UNL A   1      44.364  25.548  29.341  1.00  0.00     0.031 C 
ATOM     59  C   UNL A   1      45.023  30.790  31.265  1.00  0.00     0.029 A 
ATOM     60  C   UNL A   1      44.994  29.524  30.687  1.00  0.00     0.049 A 
ATOM     61  H   UNL A   1      44.469  27.717  31.588  1.00  0.00     0.167 HD
ATOM     62  C   UNL A   1      45.073  27.720  29.006  1.00  0.00     0.074 A 
ATOM     63  C   UNL A   1      45.098  26.536  29.856  1.00  0.00     0.031 C 
ATOM     64  C   UNL A   1      45.116  29.043  29.330  1.00  0.00     0.037 A 
BRANCH  51  65
ATOM     65  C   UNL A   1      43.639  27.583  34.499  1.00  0.00     0.057 A 
ATOM     66  C   UNL A   1      43.718  26.260  34.026  1.00  0.00     0.134 A 
ATOM     67  C   UNL A   1      43.733  27.722  35.899  1.00  0.00     0.134 A 
ATOM     68  F   UNL A   1      43.606  25.989  32.716  1.00  0.00    -0.206 F 
ATOM     69  C   UNL A   1      43.840  25.158  34.885  1.00  0.00     0.040 A 
ATOM     70  C   UNL A   1      43.905  26.634  36.761  1.00  0.00     0.040 A 
ATOM     71  F   UNL A   1      43.558  28.899  36.511  1.00  0.00    -0.206 F 
ATOM     72  C   UNL A   1      43.934  25.344  36.259  1.00  0.00     0.006 A 
ENDBRANCH  51  65
BRANCH  52  73
ATOM     73  C   UNL A   1      42.610  24.346  26.849  1.00  0.00     0.057 A 
ATOM     74  C   UNL A   1      43.131  24.059  25.578  1.00  0.00     0.134 A 
ATOM     75  C   UNL A   1      42.305  23.238  27.658  1.00  0.00     0.134 A 
ATOM     76  F   UNL A   1      43.463  25.052  24.740  1.00  0.00    -0.206 F 
ATOM     77  C   UNL A   1      43.410  22.752  25.165  1.00  0.00     0.040 A 
ATOM     78  C   UNL A   1      42.572  21.926  27.255  1.00  0.00     0.040 A 
ATOM     79  F   UNL A   1      41.832  23.397  28.904  1.00  0.00    -0.206 F 
ATOM     80  C   UNL A   1      43.152  21.681  26.016  1.00  0.00     0.006 A 
ENDBRANCH  52  73
BRANCH  64  81
ATOM     81  C   UNL A   1      45.115  30.038  28.213  1.00  0.00     0.057 A 
ATOM     82  C   UNL A   1      43.975  30.680  27.712  1.00  0.00     0.134 A 
ATOM     83  C   UNL A   1      46.349  30.419  27.673  1.00  0.00     0.134 A 
ATOM     84  F   UNL A   1      42.759  30.428  28.211  1.00  0.00    -0.206 F 
ATOM     85  C   UNL A   1      44.061  31.639  26.696  1.00  0.00     0.040 A 
ATOM     86  C   UNL A   1      46.452  31.396  26.683  1.00  0.00     0.040 A 
ATOM     87  F   UNL A   1      47.485  29.867  28.131  1.00  0.00    -0.206 F 
ATOM     88  C   UNL A   1      45.304  32.004  26.184  1.00  0.00     0.006 A 
ENDBRANCH  64  81
ENDBRANCH  38  39
ENDBRANCH  30  33
ENDBRANCH  28  29
ENDBRANCH   1  28
TORSDOF 13
ENDMDL
MODEL 3
REMARK VINA RESULT:     -12.1      1.538      2.125
REMARK SMILES Cc1nc(-c2ccccc2Cl)nc2sc(C(=O)NCCCCNC(=O)c3ccc(-c4c5nc(c(-c6c(F)cccc6F)c6ccc([nH]6)c(-c6c(F)cccc6F)c6nc(c(-c7c(F)cccc7F)c7ccc4[nH]7)C=C6)C=C5)cc3)c(N)c12
REMARK SMILES IDX 21 1 20 2 19 3 18 4 16 5 17 6 15 8 1 9 2 10 3 11 82 12 4 13
REMARK SMILES IDX 13 14 80 15 12 16 14 17 5 18 6 19 10 20 7 21 9 22 11 23 8 24
REMARK SMILES IDX 81 25 22 28 23 29 24 30 25 32 26 33 27 34 79 35 28 36 78 37
REMARK SMILES IDX 29 38 30 39 31 40 72 41 32 42 77 43 71 44 73 45 33 46 76 47
REMARK SMILES IDX 70 48 69 49 34 51 60 52 43 53 59 54 44 55 47 56 58 57 74 58
REMARK SMILES IDX 45 59 46 60 57 62 75 63 48 64 35 65 36 66 41 67 37 68 38 69
REMARK SMILES IDX 40 70 42 71 39 72 61 73 62 74 67 75 63 76 64 77 66 78 68 79
REMARK SMILES IDX 65 80 49 81 50 82 55 83 51 84 52 85 54 86 56 87 53 88
REMARK H PARENT 18 7 81 26 81 27 23 31 73 50 47 61
REMARK Flexibility Score: inf
ROOT
ATOM      1  C   UNL A   1      33.663  28.247  27.245  1.00  0.00     0.023 C 
ENDROOT
BRANCH   1   2
ATOM      2  C   UNL A   1      32.732  28.385  26.034  1.00  0.00     0.023 C 
BRANCH   2   3
ATOM      3  C   UNL A   1      33.349  27.994  24.681  1.00  0.00     0.116 C 
BRANCH   3   4
ATOM      4  N   UNL A   1      32.401  28.100  23.577  1.00  0.00    -0.351 N 
ATOM      5  C   UNL A   1      31.532  27.189  22.999  1.00  0.00     0.263 C 
ATOM      6  O   UNL A   1      30.744  27.672  22.177  1.00  0.00    -0.268 OA
ATOM      7  H   UNL A   1      32.374  28.993  23.163  1.00  0.00     0.163 HD
BRANCH   5   8
ATOM      8  C   UNL A   1      31.496  25.775  23.361  1.00  0.00     0.118 A 
ATOM      9  C   UNL A   1      30.141  22.875  26.763  1.00  0.00     0.067 C 
ATOM     10  C   UNL A   1      31.021  22.746  25.557  1.00  0.00     0.052 A 
ATOM     11  N   UNL A   1      31.639  21.537  25.377  1.00  0.00    -0.233 NA
ATOM     12  C   UNL A   1      31.254  23.773  24.614  1.00  0.00     0.056 A 
ATOM     13  C   UNL A   1      32.385  21.339  24.274  1.00  0.00     0.162 A 
ATOM     14  C   UNL A   1      31.984  23.384  23.509  1.00  0.00     0.130 A 
ATOM     15  C   UNL A   1      30.935  25.180  24.494  1.00  0.00     0.067 A 
ATOM     16  N   UNL A   1      32.572  22.211  23.288  1.00  0.00    -0.217 NA
ATOM     17  S   UNL A   1      32.057  24.556  22.312  1.00  0.00    -0.108 S 
BRANCH  13  18
ATOM     18  C   UNL A   1      33.095  20.081  24.075  1.00  0.00     0.038 A 
ATOM     19  C   UNL A   1      32.414  19.000  23.473  1.00  0.00     0.013 A 
ATOM     20  C   UNL A   1      34.355  19.838  24.638  1.00  0.00     0.052 A 
ATOM     21  C   UNL A   1      32.960  17.716  23.459  1.00  0.00     0.001 A 
ATOM     22  C   UNL A   1      34.902  18.549  24.623  1.00  0.00     0.021 A 
ATOM     23  Cl  UNL A   1      35.253  21.076  25.445  1.00  0.00    -0.084 Cl
ATOM     24  C   UNL A   1      34.201  17.489  24.043  1.00  0.00     0.002 A 
ENDBRANCH  13  18
BRANCH  15  25
ATOM     25  N   UNL A   1      30.231  25.883  25.411  1.00  0.00    -0.397 N 
ATOM     26  H   UNL A   1      29.501  26.477  25.121  1.00  0.00     0.156 HD
ATOM     27  H   UNL A   1      30.449  25.801  26.367  1.00  0.00     0.156 HD
ENDBRANCH  15  25
ENDBRANCH   5   8
ENDBRANCH   3   4
ENDBRANCH   2   3
ENDBRANCH   1   2
BRANCH   1  28
ATOM     28  C   UNL A   1      34.946  29.063  27.146  1.00  0.00     0.116 C 
BRANCH  28  29
ATOM     29  N   UNL A   1      35.101  30.037  28.225  1.00  0.00    -0.352 N 
ATOM     30  C   UNL A   1      36.133  30.114  29.145  1.00  0.00     0.251 C 
ATOM     31  H   UNL A   1      34.391  30.716  28.305  1.00  0.00     0.163 HD
ATOM     32  O   UNL A   1      36.008  30.701  30.203  1.00  0.00    -0.269 OA
BRANCH  30  33
ATOM     33  C   UNL A   1      37.405  29.456  28.798  1.00  0.00     0.039 A 
ATOM     34  C   UNL A   1      38.109  29.809  27.646  1.00  0.00     0.014 A 
ATOM     35  C   UNL A   1      37.917  28.529  29.702  1.00  0.00     0.014 A 
ATOM     36  C   UNL A   1      39.386  29.286  27.462  1.00  0.00     0.010 A 
ATOM     37  C   UNL A   1      39.227  28.132  29.592  1.00  0.00     0.010 A 
ATOM     38  C   UNL A   1      39.955  28.472  28.457  1.00  0.00    -0.014 A 
BRANCH  38  39
ATOM     39  C   UNL A   1      41.355  28.066  28.360  1.00  0.00     0.031 A 
ATOM     40  C   UNL A   1      41.584  26.805  27.600  1.00  0.00     0.074 A 
ATOM     41  C   UNL A   1      42.388  28.843  28.752  1.00  0.00     0.049 A 
ATOM     42  N   UNL A   1      41.973  25.668  28.072  1.00  0.00    -0.248 NA
ATOM     43  C   UNL A   1      41.226  26.762  26.173  1.00  0.00     0.031 C 
ATOM     44  C   UNL A   1      42.345  30.240  29.206  1.00  0.00     0.029 A 
ATOM     45  N   UNL A   1      43.727  28.577  28.738  1.00  0.00    -0.354 N 
ATOM     46  C   UNL A   1      42.133  24.830  26.971  1.00  0.00     0.074 A 
ATOM     47  C   UNL A   1      41.495  25.489  25.863  1.00  0.00     0.031 C 
ATOM     48  C   UNL A   1      43.588  30.767  29.181  1.00  0.00     0.029 A 
ATOM     49  C   UNL A   1      44.529  29.698  28.915  1.00  0.00     0.049 A 
ATOM     50  H   UNL A   1      44.092  27.672  28.613  1.00  0.00     0.167 HD
ATOM     51  C   UNL A   1      43.027  23.801  27.011  1.00  0.00     0.037 A 
ATOM     52  C   UNL A   1      45.881  29.747  28.865  1.00  0.00     0.037 A 
ATOM     53  C   UNL A   1      43.488  23.576  28.355  1.00  0.00     0.049 A 
ATOM     54  C   UNL A   1      46.383  28.388  29.163  1.00  0.00     0.074 A 
ATOM     55  C   UNL A   1      43.032  22.944  29.490  1.00  0.00     0.029 A 
ATOM     56  N   UNL A   1      44.482  24.435  28.736  1.00  0.00    -0.354 N 
ATOM     57  N   UNL A   1      46.228  27.800  30.316  1.00  0.00    -0.248 NA
ATOM     58  C   UNL A   1      46.797  27.521  28.065  1.00  0.00     0.031 C 
ATOM     59  C   UNL A   1      43.699  23.565  30.590  1.00  0.00     0.029 A 
ATOM     60  C   UNL A   1      44.573  24.531  30.098  1.00  0.00     0.049 A 
ATOM     61  H   UNL A   1      45.061  24.923  28.108  1.00  0.00     0.167 HD
ATOM     62  C   UNL A   1      46.102  26.465  29.998  1.00  0.00     0.074 A 
ATOM     63  C   UNL A   1      46.645  26.332  28.652  1.00  0.00     0.031 C 
ATOM     64  C   UNL A   1      45.262  25.651  30.697  1.00  0.00     0.037 A 
BRANCH  51  65
ATOM     65  C   UNL A   1      43.852  23.322  25.838  1.00  0.00     0.057 A 
ATOM     66  C   UNL A   1      43.837  21.957  25.494  1.00  0.00     0.134 A 
ATOM     67  C   UNL A   1      44.884  24.074  25.242  1.00  0.00     0.134 A 
ATOM     68  F   UNL A   1      42.926  21.124  26.022  1.00  0.00    -0.206 F 
ATOM     69  C   UNL A   1      44.800  21.380  24.654  1.00  0.00     0.040 A 
ATOM     70  C   UNL A   1      45.821  23.519  24.363  1.00  0.00     0.040 A 
ATOM     71  F   UNL A   1      45.106  25.355  25.559  1.00  0.00    -0.206 F 
ATOM     72  C   UNL A   1      45.798  22.163  24.086  1.00  0.00     0.006 A 
ENDBRANCH  51  65
BRANCH  52  73
ATOM     73  C   UNL A   1      46.745  30.790  28.270  1.00  0.00     0.057 A 
ATOM     74  C   UNL A   1      46.508  31.248  26.966  1.00  0.00     0.134 A 
ATOM     75  C   UNL A   1      47.588  31.587  29.064  1.00  0.00     0.134 A 
ATOM     76  F   UNL A   1      45.708  30.558  26.139  1.00  0.00    -0.206 F 
ATOM     77  C   UNL A   1      47.010  32.469  26.502  1.00  0.00     0.040 A 
ATOM     78  C   UNL A   1      48.101  32.806  28.610  1.00  0.00     0.040 A 
ATOM     79  F   UNL A   1      47.856  31.260  30.337  1.00  0.00    -0.206 F 
ATOM     80  C   UNL A   1      47.791  33.264  27.335  1.00  0.00     0.006 A 
ENDBRANCH  52  73
BRANCH  64  81
ATOM     81  C   UNL A   1      44.911  26.043  32.098  1.00  0.00     0.057 A 
ATOM     82  C   UNL A   1      43.781  26.787  32.463  1.00  0.00     0.134 A 
ATOM     83  C   UNL A   1      45.726  25.574  33.134  1.00  0.00     0.134 A 
ATOM     84  F   UNL A   1      42.909  27.222  31.546  1.00  0.00    -0.206 F 
ATOM     85  C   UNL A   1      43.494  27.073  33.802  1.00  0.00     0.040 A 
ATOM     86  C   UNL A   1      45.435  25.825  34.474  1.00  0.00     0.040 A 
ATOM     87  F   UNL A   1      46.808  24.828  32.856  1.00  0.00    -0.206 F 
ATOM     88  C   UNL A   1      44.319  26.585  34.813  1.00  0.00     0.006 A 
ENDBRANCH  64  81
ENDBRANCH  38  39
ENDBRANCH  30  33
ENDBRANCH  28  29
ENDBRANCH   1  28
TORSDOF 13
ENDMDL
