MODEL 1
REMARK VINA RESULT:     -12.6      0.000      0.000
REMARK SMILES Cc1noc2c1-c1c(c(C(=O)NCCCCNC(=O)c3ccc(-c4c5nc(c(-c6c(F)cccc6F)c6ccc([nH]6)c(-c6c(F)cccc6F)c6nc(c(-c7c(F)cccc7F)c7ccc4[nH]7)C=C6)C=C5)cc3)nn1C)CC2
REMARK SMILES IDX 15 1 14 2 13 3 12 4 10 5 11 6 9 8 1 9 2 10 3 11 6 12 4 13
REMARK SMILES IDX 5 14 7 15 78 16 8 17 75 18 77 19 74 20 76 21 16 22 17 23
REMARK SMILES IDX 18 24 19 26 20 27 21 28 73 29 22 30 72 31 23 32 24 33 25 34
REMARK SMILES IDX 66 35 26 36 71 37 65 38 67 39 27 40 70 41 64 42 63 43 28 45
REMARK SMILES IDX 54 46 37 47 53 48 38 49 41 50 52 51 68 52 39 53 40 54 51 56
REMARK SMILES IDX 69 57 42 58 29 59 30 60 35 61 31 62 32 63 34 64 36 65 33 66
REMARK SMILES IDX 55 67 56 68 61 69 57 70 58 71 60 72 62 73 59 74 43 75 44 76
REMARK SMILES IDX 49 77 45 78 46 79 48 80 50 81 47 82
REMARK H PARENT 12 7 17 25 67 44 41 55
REMARK Flexibility Score: inf
ROOT
ATOM      1  C   UNL A   1      31.525  31.800  26.700  1.00  0.00     0.023 C 
ENDROOT
BRANCH   1   2
ATOM      2  C   UNL A   1      31.807  30.305  26.595  1.00  0.00     0.023 C 
BRANCH   2   3
ATOM      3  C   UNL A   1      33.127  29.837  25.994  1.00  0.00     0.116 C 
BRANCH   3   4
ATOM      4  N   UNL A   1      33.293  29.776  24.572  1.00  0.00    -0.351 N 
ATOM      5  C   UNL A   1      33.230  28.644  23.766  1.00  0.00     0.272 C 
ATOM      6  O   UNL A   1      33.345  28.846  22.552  1.00  0.00    -0.267 OA
ATOM      7  H   UNL A   1      33.469  30.631  24.113  1.00  0.00     0.163 HD
BRANCH   5   8
ATOM      8  C   UNL A   1      33.107  27.258  24.327  1.00  0.00     0.154 A 
ATOM      9  C   UNL A   1      33.313  22.448  27.237  1.00  0.00     0.071 C 
ATOM     10  C   UNL A   1      32.079  23.222  26.985  1.00  0.00     0.090 A 
ATOM     11  N   UNL A   1      30.940  22.829  27.586  1.00  0.00    -0.084 NA
ATOM     12  C   UNL A   1      31.862  24.380  26.216  1.00  0.00     0.066 A 
ATOM     13  O   UNL A   1      29.961  23.730  27.192  1.00  0.00    -0.360 OA
ATOM     14  C   UNL A   1      30.526  24.639  26.373  1.00  0.00     0.146 A 
ATOM     15  C   UNL A   1      32.625  25.329  25.378  1.00  0.00     0.077 A 
ATOM     16  C   UNL A   1      29.712  25.699  25.745  1.00  0.00     0.084 C 
ATOM     17  C   UNL A   1      32.044  26.532  24.987  1.00  0.00     0.012 A 
ATOM     18  N   UNL A   1      33.874  25.311  24.854  1.00  0.00    -0.267 N 
ATOM     19  C   UNL A   1      30.617  26.890  25.357  1.00  0.00     0.048 C 
ATOM     20  N   UNL A   1      34.193  26.455  24.230  1.00  0.00    -0.167 NA
ATOM     21  C   UNL A   1      34.823  24.226  24.831  1.00  0.00     0.174 C 
ENDBRANCH   5   8
ENDBRANCH   3   4
ENDBRANCH   2   3
ENDBRANCH   1   2
BRANCH   1  22
ATOM     22  C   UNL A   1      32.652  32.635  27.282  1.00  0.00     0.116 C 
BRANCH  22  23
ATOM     23  N   UNL A   1      32.309  34.021  27.627  1.00  0.00    -0.352 N 
ATOM     24  C   UNL A   1      32.909  34.796  28.617  1.00  0.00     0.251 C 
ATOM     25  H   UNL A   1      31.585  34.443  27.109  1.00  0.00     0.163 HD
ATOM     26  O   UNL A   1      32.412  35.842  29.026  1.00  0.00    -0.269 OA
BRANCH  24  27
ATOM     27  C   UNL A   1      34.204  34.328  29.137  1.00  0.00     0.039 A 
ATOM     28  C   UNL A   1      34.351  33.574  30.305  1.00  0.00     0.014 A 
ATOM     29  C   UNL A   1      35.276  34.552  28.287  1.00  0.00     0.014 A 
ATOM     30  C   UNL A   1      35.587  32.974  30.554  1.00  0.00     0.010 A 
ATOM     31  C   UNL A   1      36.361  33.739  28.387  1.00  0.00     0.010 A 
ATOM     32  C   UNL A   1      36.584  33.052  29.571  1.00  0.00    -0.014 A 
BRANCH  32  33
ATOM     33  C   UNL A   1      37.880  32.401  29.690  1.00  0.00     0.031 A 
ATOM     34  C   UNL A   1      37.948  31.006  29.185  1.00  0.00     0.074 A 
ATOM     35  C   UNL A   1      38.986  33.125  29.985  1.00  0.00     0.049 A 
ATOM     36  N   UNL A   1      38.180  29.930  29.861  1.00  0.00    -0.248 NA
ATOM     37  C   UNL A   1      37.602  30.756  27.775  1.00  0.00     0.031 C 
ATOM     38  C   UNL A   1      39.114  34.576  30.208  1.00  0.00     0.029 A 
ATOM     39  N   UNL A   1      40.279  32.715  30.042  1.00  0.00    -0.354 N 
ATOM     40  C   UNL A   1      38.226  28.894  28.932  1.00  0.00     0.074 A 
ATOM     41  C   UNL A   1      37.685  29.425  27.708  1.00  0.00     0.031 C 
ATOM     42  C   UNL A   1      40.409  34.945  30.125  1.00  0.00     0.029 A 
ATOM     43  C   UNL A   1      41.213  33.744  30.054  1.00  0.00     0.049 A 
ATOM     44  H   UNL A   1      40.534  31.764  30.072  1.00  0.00     0.167 HD
ATOM     45  C   UNL A   1      38.939  27.758  29.178  1.00  0.00     0.037 A 
ATOM     46  C   UNL A   1      42.560  33.613  30.001  1.00  0.00     0.037 A 
ATOM     47  C   UNL A   1      39.264  27.639  30.578  1.00  0.00     0.049 A 
ATOM     48  C   UNL A   1      42.870  32.224  30.422  1.00  0.00     0.074 A 
ATOM     49  C   UNL A   1      38.527  27.552  31.742  1.00  0.00     0.029 A 
ATOM     50  N   UNL A   1      40.531  27.998  30.971  1.00  0.00    -0.354 N 
ATOM     51  N   UNL A   1      42.641  31.775  31.628  1.00  0.00    -0.248 NA
ATOM     52  C   UNL A   1      42.947  31.211  29.381  1.00  0.00     0.031 C 
ATOM     53  C   UNL A   1      39.239  28.353  32.686  1.00  0.00     0.029 A 
ATOM     54  C   UNL A   1      40.400  28.817  32.065  1.00  0.00     0.049 A 
ATOM     55  H   UNL A   1      41.375  27.720  30.547  1.00  0.00     0.167 HD
ATOM     56  C   UNL A   1      42.133  30.496  31.441  1.00  0.00     0.074 A 
ATOM     57  C   UNL A   1      42.408  30.181  30.039  1.00  0.00     0.031 C 
ATOM     58  C   UNL A   1      41.278  29.931  32.346  1.00  0.00     0.037 A 
BRANCH  45  59
ATOM     59  C   UNL A   1      39.670  26.966  28.122  1.00  0.00     0.057 A 
ATOM     60  C   UNL A   1      39.593  25.561  28.143  1.00  0.00     0.134 A 
ATOM     61  C   UNL A   1      40.676  27.497  27.289  1.00  0.00     0.134 A 
ATOM     62  F   UNL A   1      38.683  24.934  28.904  1.00  0.00    -0.206 F 
ATOM     63  C   UNL A   1      40.500  24.748  27.452  1.00  0.00     0.040 A 
ATOM     64  C   UNL A   1      41.555  26.695  26.555  1.00  0.00     0.040 A 
ATOM     65  F   UNL A   1      40.931  28.808  27.217  1.00  0.00    -0.206 F 
ATOM     66  C   UNL A   1      41.493  25.315  26.662  1.00  0.00     0.006 A 
ENDBRANCH  45  59
BRANCH  46  67
ATOM     67  C   UNL A   1      43.513  34.480  29.273  1.00  0.00     0.057 A 
ATOM     68  C   UNL A   1      43.796  34.285  27.916  1.00  0.00     0.134 A 
ATOM     69  C   UNL A   1      43.970  35.688  29.833  1.00  0.00     0.134 A 
ATOM     70  F   UNL A   1      43.361  33.186  27.285  1.00  0.00    -0.206 F 
ATOM     71  C   UNL A   1      44.486  35.240  27.156  1.00  0.00     0.040 A 
ATOM     72  C   UNL A   1      44.663  36.649  29.087  1.00  0.00     0.040 A 
ATOM     73  F   UNL A   1      43.687  36.012  31.103  1.00  0.00    -0.206 F 
ATOM     74  C   UNL A   1      44.913  36.431  27.739  1.00  0.00     0.006 A 
ENDBRANCH  46  67
BRANCH  58  75
ATOM     75  C   UNL A   1      41.045  30.657  33.648  1.00  0.00     0.057 A 
ATOM     76  C   UNL A   1      39.982  31.546  33.870  1.00  0.00     0.134 A 
ATOM     77  C   UNL A   1      41.814  30.314  34.763  1.00  0.00     0.134 A 
ATOM     78  F   UNL A   1      39.126  31.859  32.894  1.00  0.00    -0.206 F 
ATOM     79  C   UNL A   1      39.717  32.095  35.129  1.00  0.00     0.040 A 
ATOM     80  C   UNL A   1      41.543  30.832  36.034  1.00  0.00     0.040 A 
ATOM     81  F   UNL A   1      42.810  29.423  34.645  1.00  0.00    -0.206 F 
ATOM     82  C   UNL A   1      40.497  31.731  36.220  1.00  0.00     0.006 A 
ENDBRANCH  58  75
ENDBRANCH  32  33
ENDBRANCH  24  27
ENDBRANCH  22  23
ENDBRANCH   1  22
TORSDOF 11
ENDMDL
MODEL 2
REMARK VINA RESULT:     -12.1      2.670      6.604
REMARK SMILES Cc1noc2c1-c1c(c(C(=O)NCCCCNC(=O)c3ccc(-c4c5nc(c(-c6c(F)cccc6F)c6ccc([nH]6)c(-c6c(F)cccc6F)c6nc(c(-c7c(F)cccc7F)c7ccc4[nH]7)C=C6)C=C5)cc3)nn1C)CC2
REMARK SMILES IDX 15 1 14 2 13 3 12 4 10 5 11 6 9 8 1 9 2 10 3 11 6 12 4 13
REMARK SMILES IDX 5 14 7 15 78 16 8 17 75 18 77 19 74 20 76 21 16 22 17 23
REMARK SMILES IDX 18 24 19 26 20 27 21 28 73 29 22 30 72 31 23 32 24 33 25 34
REMARK SMILES IDX 66 35 26 36 71 37 65 38 67 39 27 40 70 41 64 42 63 43 28 45
REMARK SMILES IDX 54 46 37 47 53 48 38 49 41 50 52 51 68 52 39 53 40 54 51 56
REMARK SMILES IDX 69 57 42 58 29 59 30 60 35 61 31 62 32 63 34 64 36 65 33 66
REMARK SMILES IDX 55 67 56 68 61 69 57 70 58 71 60 72 62 73 59 74 43 75 44 76
REMARK SMILES IDX 49 77 45 78 46 79 48 80 50 81 47 82
REMARK H PARENT 12 7 17 25 67 44 41 55
REMARK Flexibility Score: inf
ROOT
ATOM      1  C   UNL A   1      33.524  30.072  27.382  1.00  0.00     0.023 C 
ENDROOT
BRANCH   1   2
ATOM      2  C   UNL A   1      33.793  29.305  26.092  1.00  0.00     0.023 C 
BRANCH   2   3
ATOM      3  C   UNL A   1      33.001  29.655  24.838  1.00  0.00     0.116 C 
BRANCH   3   4
ATOM      4  N   UNL A   1      33.517  29.328  23.542  1.00  0.00    -0.351 N 
ATOM      5  C   UNL A   1      33.599  28.065  22.964  1.00  0.00     0.272 C 
ATOM      6  O   UNL A   1      34.028  28.036  21.806  1.00  0.00    -0.267 OA
ATOM      7  H   UNL A   1      33.851  30.080  22.999  1.00  0.00     0.163 HD
BRANCH   5   8
ATOM      8  C   UNL A   1      33.261  26.810  23.713  1.00  0.00     0.154 A 
ATOM      9  C   UNL A   1      32.681  22.515  27.300  1.00  0.00     0.071 C 
ATOM     10  C   UNL A   1      31.578  23.400  26.868  1.00  0.00     0.090 A 
ATOM     11  N   UNL A   1      30.374  23.259  27.453  1.00  0.00    -0.084 NA
ATOM     12  C   UNL A   1      31.555  24.446  25.927  1.00  0.00     0.066 A 
ATOM     13  O   UNL A   1      29.547  24.212  26.876  1.00  0.00    -0.360 OA
ATOM     14  C   UNL A   1      30.264  24.902  25.967  1.00  0.00     0.146 A 
ATOM     15  C   UNL A   1      32.473  25.145  25.005  1.00  0.00     0.077 A 
ATOM     16  C   UNL A   1      29.630  25.953  25.146  1.00  0.00     0.084 C 
ATOM     17  C   UNL A   1      32.083  26.341  24.410  1.00  0.00     0.012 A 
ATOM     18  N   UNL A   1      33.726  24.881  24.562  1.00  0.00    -0.267 N 
ATOM     19  C   UNL A   1      30.708  26.939  24.642  1.00  0.00     0.048 C 
ATOM     20  N   UNL A   1      34.226  25.863  23.797  1.00  0.00    -0.167 NA
ATOM     21  C   UNL A   1      34.513  23.688  24.752  1.00  0.00     0.174 C 
ENDBRANCH   5   8
ENDBRANCH   3   4
ENDBRANCH   2   3
ENDBRANCH   1   2
BRANCH   1  22
ATOM     22  C   UNL A   1      34.423  31.271  27.626  1.00  0.00     0.116 C 
BRANCH  22  23
ATOM     23  N   UNL A   1      34.299  31.906  28.945  1.00  0.00    -0.352 N 
ATOM     24  C   UNL A   1      35.178  31.757  30.016  1.00  0.00     0.251 C 
ATOM     25  H   UNL A   1      33.521  32.493  29.086  1.00  0.00     0.163 HD
ATOM     26  O   UNL A   1      34.887  32.101  31.158  1.00  0.00    -0.269 OA
BRANCH  24  27
ATOM     27  C   UNL A   1      36.506  31.198  29.717  1.00  0.00     0.039 A 
ATOM     28  C   UNL A   1      37.653  31.972  29.517  1.00  0.00     0.014 A 
ATOM     29  C   UNL A   1      36.579  29.817  29.810  1.00  0.00     0.014 A 
ATOM     30  C   UNL A   1      38.892  31.327  29.500  1.00  0.00     0.010 A 
ATOM     31  C   UNL A   1      37.784  29.249  30.081  1.00  0.00     0.010 A 
ATOM     32  C   UNL A   1      38.943  29.958  29.802  1.00  0.00    -0.014 A 
BRANCH  32  33
ATOM     33  C   UNL A   1      40.183  29.202  29.887  1.00  0.00     0.031 A 
ATOM     34  C   UNL A   1      40.720  28.999  31.258  1.00  0.00     0.074 A 
ATOM     35  C   UNL A   1      40.641  28.513  28.815  1.00  0.00     0.049 A 
ATOM     36  N   UNL A   1      41.829  29.443  31.746  1.00  0.00    -0.248 NA
ATOM     37  C   UNL A   1      39.868  28.316  32.247  1.00  0.00     0.031 C 
ATOM     38  C   UNL A   1      40.042  28.374  27.475  1.00  0.00     0.029 A 
ATOM     39  N   UNL A   1      41.712  27.682  28.733  1.00  0.00    -0.354 N 
ATOM     40  C   UNL A   1      41.922  28.918  33.032  1.00  0.00     0.074 A 
ATOM     41  C   UNL A   1      40.619  28.393  33.349  1.00  0.00     0.031 C 
ATOM     42  C   UNL A   1      40.609  27.340  26.819  1.00  0.00     0.029 A 
ATOM     43  C   UNL A   1      41.739  26.881  27.598  1.00  0.00     0.049 A 
ATOM     44  H   UNL A   1      42.414  27.652  29.424  1.00  0.00     0.167 HD
ATOM     45  C   UNL A   1      43.132  28.731  33.632  1.00  0.00     0.037 A 
ATOM     46  C   UNL A   1      42.630  25.898  27.324  1.00  0.00     0.037 A 
ATOM     47  C   UNL A   1      44.168  29.474  32.957  1.00  0.00     0.049 A 
ATOM     48  C   UNL A   1      43.822  26.157  28.169  1.00  0.00     0.074 A 
ATOM     49  C   UNL A   1      44.389  30.811  32.691  1.00  0.00     0.029 A 
ATOM     50  N   UNL A   1      44.982  28.787  32.089  1.00  0.00    -0.354 N 
ATOM     51  N   UNL A   1      44.585  27.208  28.028  1.00  0.00    -0.248 NA
ATOM     52  C   UNL A   1      43.860  25.527  29.481  1.00  0.00     0.031 C 
ATOM     53  C   UNL A   1      44.911  30.837  31.363  1.00  0.00     0.029 A 
ATOM     54  C   UNL A   1      45.047  29.517  30.929  1.00  0.00     0.049 A 
ATOM     55  H   UNL A   1      45.435  27.931  32.267  1.00  0.00     0.167 HD
ATOM     56  C   UNL A   1      44.869  27.620  29.324  1.00  0.00     0.074 A 
ATOM     57  C   UNL A   1      44.449  26.506  30.175  1.00  0.00     0.031 C 
ATOM     58  C   UNL A   1      45.138  28.928  29.611  1.00  0.00     0.037 A 
BRANCH  45  59
ATOM     59  C   UNL A   1      43.452  27.595  34.571  1.00  0.00     0.057 A 
ATOM     60  C   UNL A   1      43.433  26.275  34.083  1.00  0.00     0.134 A 
ATOM     61  C   UNL A   1      43.474  27.712  35.976  1.00  0.00     0.134 A 
ATOM     62  F   UNL A   1      43.403  26.030  32.764  1.00  0.00    -0.206 F 
ATOM     63  C   UNL A   1      43.360  25.162  34.930  1.00  0.00     0.040 A 
ATOM     64  C   UNL A   1      43.452  26.605  36.830  1.00  0.00     0.040 A 
ATOM     65  F   UNL A   1      43.415  28.894  36.600  1.00  0.00    -0.206 F 
ATOM     66  C   UNL A   1      43.358  25.326  36.309  1.00  0.00     0.006 A 
ENDBRANCH  45  59
BRANCH  46  67
ATOM     67  C   UNL A   1      42.353  24.599  26.673  1.00  0.00     0.057 A 
ATOM     68  C   UNL A   1      43.104  24.149  25.581  1.00  0.00     0.134 A 
ATOM     69  C   UNL A   1      41.507  23.648  27.277  1.00  0.00     0.134 A 
ATOM     70  F   UNL A   1      43.970  24.969  24.970  1.00  0.00    -0.206 F 
ATOM     71  C   UNL A   1      43.028  22.826  25.121  1.00  0.00     0.040 A 
ATOM     72  C   UNL A   1      41.420  22.326  26.827  1.00  0.00     0.040 A 
ATOM     73  F   UNL A   1      40.802  23.951  28.376  1.00  0.00    -0.206 F 
ATOM     74  C   UNL A   1      42.191  21.907  25.751  1.00  0.00     0.006 A 
ENDBRANCH  46  67
BRANCH  58  75
ATOM     75  C   UNL A   1      45.303  29.886  28.458  1.00  0.00     0.057 A 
ATOM     76  C   UNL A   1      44.265  30.680  27.944  1.00  0.00     0.134 A 
ATOM     77  C   UNL A   1      46.585  30.144  27.968  1.00  0.00     0.134 A 
ATOM     78  F   UNL A   1      43.020  30.584  28.418  1.00  0.00    -0.206 F 
ATOM     79  C   UNL A   1      44.485  31.656  26.966  1.00  0.00     0.040 A 
ATOM     80  C   UNL A   1      46.825  31.137  27.011  1.00  0.00     0.040 A 
ATOM     81  F   UNL A   1      47.639  29.471  28.453  1.00  0.00    -0.206 F 
ATOM     82  C   UNL A   1      45.772  31.892  26.501  1.00  0.00     0.006 A 
ENDBRANCH  58  75
ENDBRANCH  32  33
ENDBRANCH  24  27
ENDBRANCH  22  23
ENDBRANCH   1  22
TORSDOF 11
ENDMDL
MODEL 3
REMARK VINA RESULT:     -12.1      3.077      7.608
REMARK SMILES Cc1noc2c1-c1c(c(C(=O)NCCCCNC(=O)c3ccc(-c4c5nc(c(-c6c(F)cccc6F)c6ccc([nH]6)c(-c6c(F)cccc6F)c6nc(c(-c7c(F)cccc7F)c7ccc4[nH]7)C=C6)C=C5)cc3)nn1C)CC2
REMARK SMILES IDX 15 1 14 2 13 3 12 4 10 5 11 6 9 8 1 9 2 10 3 11 6 12 4 13
REMARK SMILES IDX 5 14 7 15 78 16 8 17 75 18 77 19 74 20 76 21 16 22 17 23
REMARK SMILES IDX 18 24 19 26 20 27 21 28 73 29 22 30 72 31 23 32 24 33 25 34
REMARK SMILES IDX 66 35 26 36 71 37 65 38 67 39 27 40 70 41 64 42 63 43 28 45
REMARK SMILES IDX 54 46 37 47 53 48 38 49 41 50 52 51 68 52 39 53 40 54 51 56
REMARK SMILES IDX 69 57 42 58 29 59 30 60 35 61 31 62 32 63 34 64 36 65 33 66
REMARK SMILES IDX 55 67 56 68 61 69 57 70 58 71 60 72 62 73 59 74 43 75 44 76
REMARK SMILES IDX 49 77 45 78 46 79 48 80 50 81 47 82
REMARK H PARENT 12 7 17 25 67 44 41 55
REMARK Flexibility Score: inf
ROOT
ATOM      1  C   UNL A   1      37.368  23.736  25.899  1.00  0.00     0.023 C 
ENDROOT
BRANCH   1   2
ATOM      2  C   UNL A   1      37.435  22.248  25.575  1.00  0.00     0.023 C 
BRANCH   2   3
ATOM      3  C   UNL A   1      36.159  21.415  25.632  1.00  0.00     0.116 C 
BRANCH   3   4
ATOM      4  N   UNL A   1      35.294  21.495  26.772  1.00  0.00    -0.351 N 
ATOM      5  C   UNL A   1      34.205  22.343  26.942  1.00  0.00     0.272 C 
ATOM      6  O   UNL A   1      33.569  22.189  27.990  1.00  0.00    -0.267 OA
ATOM      7  H   UNL A   1      35.492  20.881  27.516  1.00  0.00     0.163 HD
BRANCH   5   8
ATOM      8  C   UNL A   1      33.860  23.424  25.962  1.00  0.00     0.154 A 
ATOM      9  C   UNL A   1      33.638  27.779  22.407  1.00  0.00     0.071 C 
ATOM     10  C   UNL A   1      33.392  26.372  22.024  1.00  0.00     0.090 A 
ATOM     11  N   UNL A   1      33.223  26.080  20.721  1.00  0.00    -0.084 NA
ATOM     12  C   UNL A   1      33.332  25.204  22.807  1.00  0.00     0.066 A 
ATOM     13  O   UNL A   1      33.031  24.708  20.650  1.00  0.00    -0.360 OA
ATOM     14  C   UNL A   1      33.091  24.206  21.899  1.00  0.00     0.146 A 
ATOM     15  C   UNL A   1      33.472  24.792  24.219  1.00  0.00     0.077 A 
ATOM     16  C   UNL A   1      32.865  22.769  22.147  1.00  0.00     0.084 C 
ATOM     17  C   UNL A   1      33.589  23.443  24.540  1.00  0.00     0.012 A 
ATOM     18  N   UNL A   1      33.526  25.477  25.386  1.00  0.00    -0.267 N 
ATOM     19  C   UNL A   1      33.530  22.360  23.480  1.00  0.00     0.048 C 
ATOM     20  N   UNL A   1      33.767  24.687  26.443  1.00  0.00    -0.167 NA
ATOM     21  C   UNL A   1      33.291  26.881  25.616  1.00  0.00     0.174 C 
ENDBRANCH   5   8
ENDBRANCH   3   4
ENDBRANCH   2   3
ENDBRANCH   1   2
BRANCH   1  22
ATOM     22  C   UNL A   1      38.515  24.271  26.737  1.00  0.00     0.116 C 
BRANCH  22  23
ATOM     23  N   UNL A   1      39.770  24.526  26.015  1.00  0.00    -0.352 N 
ATOM     24  C   UNL A   1      40.530  25.692  26.071  1.00  0.00     0.251 C 
ATOM     25  H   UNL A   1      40.106  23.803  25.437  1.00  0.00     0.163 HD
ATOM     26  O   UNL A   1      41.416  25.940  25.259  1.00  0.00    -0.269 OA
BRANCH  24  27
ATOM     27  C   UNL A   1      40.253  26.616  27.183  1.00  0.00     0.039 A 
ATOM     28  C   UNL A   1      40.032  26.208  28.502  1.00  0.00     0.014 A 
ATOM     29  C   UNL A   1      40.391  27.957  26.859  1.00  0.00     0.014 A 
ATOM     30  C   UNL A   1      40.038  27.180  29.505  1.00  0.00     0.010 A 
ATOM     31  C   UNL A   1      40.683  28.836  27.855  1.00  0.00     0.010 A 
ATOM     32  C   UNL A   1      40.385  28.496  29.165  1.00  0.00    -0.014 A 
BRANCH  32  33
ATOM     33  C   UNL A   1      40.498  29.571  30.139  1.00  0.00     0.031 A 
ATOM     34  C   UNL A   1      39.246  30.321  30.418  1.00  0.00     0.074 A 
ATOM     35  C   UNL A   1      41.601  29.678  30.919  1.00  0.00     0.049 A 
ATOM     36  N   UNL A   1      39.001  31.567  30.182  1.00  0.00    -0.248 NA
ATOM     37  C   UNL A   1      38.079  29.572  30.914  1.00  0.00     0.031 C 
ATOM     38  C   UNL A   1      42.793  28.812  30.963  1.00  0.00     0.029 A 
ATOM     39  N   UNL A   1      41.842  30.544  31.936  1.00  0.00    -0.354 N 
ATOM     40  C   UNL A   1      37.730  31.814  30.696  1.00  0.00     0.074 A 
ATOM     41  C   UNL A   1      37.145  30.525  30.962  1.00  0.00     0.031 C 
ATOM     42  C   UNL A   1      43.491  29.043  32.095  1.00  0.00     0.029 A 
ATOM     43  C   UNL A   1      42.918  30.202  32.746  1.00  0.00     0.049 A 
ATOM     44  H   UNL A   1      41.297  31.351  32.087  1.00  0.00     0.167 HD
ATOM     45  C   UNL A   1      37.363  33.064  31.096  1.00  0.00     0.037 A 
ATOM     46  C   UNL A   1      43.306  30.830  33.882  1.00  0.00     0.037 A 
ATOM     47  C   UNL A   1      38.260  34.064  30.571  1.00  0.00     0.049 A 
ATOM     48  C   UNL A   1      42.717  32.191  33.838  1.00  0.00     0.074 A 
ATOM     49  C   UNL A   1      38.632  34.467  29.304  1.00  0.00     0.029 A 
ATOM     50  N   UNL A   1      39.230  34.555  31.411  1.00  0.00    -0.354 N 
ATOM     51  N   UNL A   1      43.055  33.089  32.951  1.00  0.00    -0.248 NA
ATOM     52  C   UNL A   1      41.406  32.372  34.443  1.00  0.00     0.031 C 
ATOM     53  C   UNL A   1      40.035  34.713  29.395  1.00  0.00     0.029 A 
ATOM     54  C   UNL A   1      40.418  34.520  30.724  1.00  0.00     0.049 A 
ATOM     55  H   UNL A   1      39.098  34.871  32.334  1.00  0.00     0.167 HD
ATOM     56  C   UNL A   1      41.860  33.691  32.579  1.00  0.00     0.074 A 
ATOM     57  C   UNL A   1      40.888  33.253  33.582  1.00  0.00     0.031 C 
ATOM     58  C   UNL A   1      41.697  34.243  31.340  1.00  0.00     0.037 A 
BRANCH  45  59
ATOM     59  C   UNL A   1      36.445  33.352  32.258  1.00  0.00     0.057 A 
ATOM     60  C   UNL A   1      35.358  34.226  32.073  1.00  0.00     0.134 A 
ATOM     61  C   UNL A   1      36.753  33.057  33.602  1.00  0.00     0.134 A 
ATOM     62  F   UNL A   1      34.970  34.590  30.842  1.00  0.00    -0.206 F 
ATOM     63  C   UNL A   1      34.684  34.824  33.146  1.00  0.00     0.040 A 
ATOM     64  C   UNL A   1      36.054  33.610  34.680  1.00  0.00     0.040 A 
ATOM     65  F   UNL A   1      37.805  32.306  33.950  1.00  0.00    -0.206 F 
ATOM     66  C   UNL A   1      35.039  34.524  34.455  1.00  0.00     0.006 A 
ENDBRANCH  45  59
BRANCH  46  67
ATOM     67  C   UNL A   1      43.824  30.200  35.116  1.00  0.00     0.057 A 
ATOM     68  C   UNL A   1      43.114  29.196  35.783  1.00  0.00     0.134 A 
ATOM     69  C   UNL A   1      45.159  30.390  35.523  1.00  0.00     0.134 A 
ATOM     70  F   UNL A   1      41.852  28.911  35.433  1.00  0.00    -0.206 F 
ATOM     71  C   UNL A   1      43.699  28.417  36.792  1.00  0.00     0.040 A 
ATOM     72  C   UNL A   1      45.754  29.621  36.530  1.00  0.00     0.040 A 
ATOM     73  F   UNL A   1      45.953  31.271  34.899  1.00  0.00    -0.206 F 
ATOM     74  C   UNL A   1      45.026  28.621  37.161  1.00  0.00     0.006 A 
ENDBRANCH  46  67
BRANCH  58  75
ATOM     75  C   UNL A   1      42.908  34.348  30.447  1.00  0.00     0.057 A 
ATOM     76  C   UNL A   1      43.257  33.390  29.483  1.00  0.00     0.134 A 
ATOM     77  C   UNL A   1      43.644  35.536  30.440  1.00  0.00     0.134 A 
ATOM     78  F   UNL A   1      42.552  32.265  29.339  1.00  0.00    -0.206 F 
ATOM     79  C   UNL A   1      44.307  33.585  28.580  1.00  0.00     0.040 A 
ATOM     80  C   UNL A   1      44.679  35.758  29.524  1.00  0.00     0.040 A 
ATOM     81  F   UNL A   1      43.332  36.526  31.289  1.00  0.00    -0.206 F 
ATOM     82  C   UNL A   1      45.019  34.778  28.595  1.00  0.00     0.006 A 
ENDBRANCH  58  75
ENDBRANCH  32  33
ENDBRANCH  24  27
ENDBRANCH  22  23
ENDBRANCH   1  22
TORSDOF 11
ENDMDL
