MODEL 1
REMARK VINA RESULT:     -11.9      0.000      0.000
REMARK SMILES [NH3+]Cc1c(-c2ccccc2)c(C(=O)NCCCCNC(=O)c2ccc(-c3c4nc(c(-c5c(F)cccc5F)c5ccc([nH]5)c(-c5c(F)cccc5F)c5nc(c(-c6c(F)cccc6F)c6ccc3[nH]6)C=C5)C=C4)cc2)c2ccccn12
REMARK SMILES IDX 16 1 15 2 14 3 12 4 13 5 11 7 3 8 4 9 81 10 76 11 80 12
REMARK SMILES IDX 77 13 79 14 78 15 2 16 1 17 5 21 6 22 10 23 7 24 9 25 8 26
REMARK SMILES IDX 17 27 18 28 19 29 20 30 21 32 22 33 23 34 75 35 24 36 74 37
REMARK SMILES IDX 25 38 26 39 27 40 68 41 28 42 73 43 67 44 69 45 29 46 72 47
REMARK SMILES IDX 66 48 65 49 30 51 56 52 39 53 55 54 40 55 43 56 54 57 70 58
REMARK SMILES IDX 41 59 42 60 53 62 71 63 44 64 31 65 32 66 37 67 33 68 34 69
REMARK SMILES IDX 36 70 38 71 35 72 57 73 58 74 63 75 59 76 60 77 62 78 64 79
REMARK SMILES IDX 61 80 45 81 46 82 51 83 47 84 48 85 50 86 52 87 49 88
REMARK H PARENT 14 6 1 18 1 19 1 20 19 31 69 50 43 61
REMARK Flexibility Score: inf
ROOT
ATOM      1  C   UNL A   1      36.649  22.572  24.345  1.00  0.00     0.023 C 
ENDROOT
BRANCH   1   2
ATOM      2  C   UNL A   1      36.626  23.633  25.443  1.00  0.00     0.116 C 
BRANCH   2   3
ATOM      3  N   UNL A   1      35.833  23.299  26.607  1.00  0.00    -0.352 N 
ATOM      4  C   UNL A   1      34.502  22.956  26.725  1.00  0.00     0.254 C 
ATOM      5  O   UNL A   1      34.116  22.647  27.852  1.00  0.00    -0.269 OA
ATOM      6  H   UNL A   1      36.327  23.321  27.459  1.00  0.00     0.163 HD
BRANCH   4   7
ATOM      7  C   UNL A   1      33.586  23.032  25.583  1.00  0.00     0.073 A 
ATOM      8  C   UNL A   1      32.207  23.913  23.955  1.00  0.00     0.086 A 
ATOM      9  C   UNL A   1      32.923  24.222  25.112  1.00  0.00     0.022 A 
ATOM     10  N   UNL A   1      32.387  22.557  23.726  1.00  0.00    -0.314 N 
ATOM     11  C   UNL A   1      33.051  22.002  24.822  1.00  0.00     0.059 A 
ATOM     12  C   UNL A   1      31.991  21.778  22.629  1.00  0.00     0.092 A 
ATOM     13  C   UNL A   1      33.060  20.574  24.908  1.00  0.00     0.027 A 
ATOM     14  C   UNL A   1      32.159  20.446  22.651  1.00  0.00     0.018 A 
ATOM     15  C   UNL A   1      32.662  19.830  23.862  1.00  0.00     0.004 A 
BRANCH   8  16
ATOM     16  C   UNL A   1      31.306  24.753  23.098  1.00  0.00     0.315 C 
BRANCH  16  17
ATOM     17  N   UNL A   1      29.924  24.734  23.553  1.00  0.00    -0.353 N 
ATOM     18  H   UNL A   1      29.353  24.222  22.881  1.00  0.00     0.344 HD
ATOM     19  H   UNL A   1      29.579  25.691  23.633  1.00  0.00     0.344 HD
ATOM     20  H   UNL A   1      29.872  24.277  24.463  1.00  0.00     0.344 HD
ENDBRANCH  16  17
ENDBRANCH   8  16
BRANCH   9  21
ATOM     21  C   UNL A   1      32.923  25.552  25.708  1.00  0.00    -0.016 A 
ATOM     22  C   UNL A   1      34.023  26.401  25.561  1.00  0.00     0.009 A 
ATOM     23  C   UNL A   1      31.800  25.993  26.422  1.00  0.00     0.009 A 
ATOM     24  C   UNL A   1      33.997  27.683  26.117  1.00  0.00     0.001 A 
ATOM     25  C   UNL A   1      31.775  27.276  26.973  1.00  0.00     0.001 A 
ATOM     26  C   UNL A   1      32.873  28.120  26.820  1.00  0.00     0.000 A 
ENDBRANCH   9  21
ENDBRANCH   4   7
ENDBRANCH   2   3
ENDBRANCH   1   2
BRANCH   1  27
ATOM     27  C   UNL A   1      37.302  21.230  24.687  1.00  0.00     0.023 C 
BRANCH  27  28
ATOM     28  C   UNL A   1      38.465  21.259  25.676  1.00  0.00     0.116 C 
BRANCH  28  29
ATOM     29  N   UNL A   1      39.358  20.113  25.580  1.00  0.00    -0.352 N 
ATOM     30  C   UNL A   1      40.673  19.963  25.958  1.00  0.00     0.251 C 
ATOM     31  H   UNL A   1      38.952  19.311  25.180  1.00  0.00     0.163 HD
ATOM     32  O   UNL A   1      41.258  18.911  25.725  1.00  0.00    -0.269 OA
BRANCH  30  33
ATOM     33  C   UNL A   1      41.408  21.083  26.586  1.00  0.00     0.039 A 
ATOM     34  C   UNL A   1      42.007  22.037  25.756  1.00  0.00     0.014 A 
ATOM     35  C   UNL A   1      41.482  21.219  27.973  1.00  0.00     0.014 A 
ATOM     36  C   UNL A   1      42.554  23.195  26.314  1.00  0.00     0.010 A 
ATOM     37  C   UNL A   1      41.959  22.408  28.523  1.00  0.00     0.010 A 
ATOM     38  C   UNL A   1      42.464  23.424  27.696  1.00  0.00    -0.014 A 
BRANCH  38  39
ATOM     39  C   UNL A   1      42.799  24.745  28.289  1.00  0.00     0.031 A 
ATOM     40  C   UNL A   1      41.741  25.791  28.482  1.00  0.00     0.074 A 
ATOM     41  C   UNL A   1      44.091  25.040  28.544  1.00  0.00     0.049 A 
ATOM     42  N   UNL A   1      41.874  27.042  28.843  1.00  0.00    -0.248 NA
ATOM     43  C   UNL A   1      40.354  25.386  28.211  1.00  0.00     0.031 C 
ATOM     44  C   UNL A   1      45.223  24.130  28.353  1.00  0.00     0.029 A 
ATOM     45  N   UNL A   1      44.673  26.198  28.995  1.00  0.00    -0.354 N 
ATOM     46  C   UNL A   1      40.594  27.579  28.824  1.00  0.00     0.074 A 
ATOM     47  C   UNL A   1      39.703  26.529  28.381  1.00  0.00     0.031 C 
ATOM     48  C   UNL A   1      46.358  24.759  28.694  1.00  0.00     0.029 A 
ATOM     49  C   UNL A   1      46.043  26.129  29.083  1.00  0.00     0.049 A 
ATOM     50  H   UNL A   1      44.159  27.003  29.233  1.00  0.00     0.167 HD
ATOM     51  C   UNL A   1      40.197  28.831  29.159  1.00  0.00     0.037 A 
ATOM     52  C   UNL A   1      46.949  27.068  29.414  1.00  0.00     0.037 A 
ATOM     53  C   UNL A   1      41.080  29.867  29.626  1.00  0.00     0.049 A 
ATOM     54  C   UNL A   1      46.485  28.454  29.756  1.00  0.00     0.074 A 
ATOM     55  C   UNL A   1      40.758  31.137  30.072  1.00  0.00     0.029 A 
ATOM     56  N   UNL A   1      42.460  29.755  29.701  1.00  0.00    -0.354 N 
ATOM     57  N   UNL A   1      45.265  28.928  29.796  1.00  0.00    -0.248 NA
ATOM     58  C   UNL A   1      47.524  29.439  30.089  1.00  0.00     0.031 C 
ATOM     59  C   UNL A   1      41.946  31.809  30.380  1.00  0.00     0.029 A 
ATOM     60  C   UNL A   1      43.006  30.945  30.157  1.00  0.00     0.049 A 
ATOM     61  H   UNL A   1      42.975  28.951  29.465  1.00  0.00     0.167 HD
ATOM     62  C   UNL A   1      45.386  30.259  30.168  1.00  0.00     0.074 A 
ATOM     63  C   UNL A   1      46.799  30.514  30.359  1.00  0.00     0.031 C 
ATOM     64  C   UNL A   1      44.413  31.188  30.333  1.00  0.00     0.037 A 
BRANCH  51  65
ATOM     65  C   UNL A   1      38.737  29.147  29.038  1.00  0.00     0.057 A 
ATOM     66  C   UNL A   1      37.876  29.081  30.140  1.00  0.00     0.134 A 
ATOM     67  C   UNL A   1      38.195  29.567  27.816  1.00  0.00     0.134 A 
ATOM     68  F   UNL A   1      38.332  28.678  31.335  1.00  0.00    -0.206 F 
ATOM     69  C   UNL A   1      36.522  29.398  30.027  1.00  0.00     0.040 A 
ATOM     70  C   UNL A   1      36.847  29.907  27.696  1.00  0.00     0.040 A 
ATOM     71  F   UNL A   1      38.967  29.658  26.724  1.00  0.00    -0.206 F 
ATOM     72  C   UNL A   1      36.005  29.818  28.803  1.00  0.00     0.006 A 
ENDBRANCH  51  65
BRANCH  52  73
ATOM     73  C   UNL A   1      48.395  26.730  29.432  1.00  0.00     0.057 A 
ATOM     74  C   UNL A   1      49.198  26.956  28.308  1.00  0.00     0.134 A 
ATOM     75  C   UNL A   1      49.004  26.172  30.562  1.00  0.00     0.134 A 
ATOM     76  F   UNL A   1      48.664  27.468  27.190  1.00  0.00    -0.206 F 
ATOM     77  C   UNL A   1      50.554  26.628  28.304  1.00  0.00     0.040 A 
ATOM     78  C   UNL A   1      50.363  25.859  30.578  1.00  0.00     0.040 A 
ATOM     79  F   UNL A   1      48.287  25.936  31.670  1.00  0.00    -0.206 F 
ATOM     80  C   UNL A   1      51.141  26.082  29.443  1.00  0.00     0.006 A 
ENDBRANCH  52  73
BRANCH  64  81
ATOM     81  C   UNL A   1      44.845  32.563  30.743  1.00  0.00     0.057 A 
ATOM     82  C   UNL A   1      45.019  32.903  32.089  1.00  0.00     0.134 A 
ATOM     83  C   UNL A   1      45.129  33.541  29.783  1.00  0.00     0.134 A 
ATOM     84  F   UNL A   1      44.748  32.014  33.057  1.00  0.00    -0.206 F 
ATOM     85  C   UNL A   1      45.451  34.175  32.468  1.00  0.00     0.040 A 
ATOM     86  C   UNL A   1      45.582  34.810  30.148  1.00  0.00     0.040 A 
ATOM     87  F   UNL A   1      44.985  33.276  28.476  1.00  0.00    -0.206 F 
ATOM     88  C   UNL A   1      45.741  35.130  31.494  1.00  0.00     0.006 A 
ENDBRANCH  64  81
ENDBRANCH  38  39
ENDBRANCH  30  33
ENDBRANCH  28  29
ENDBRANCH  27  28
ENDBRANCH   1  27
TORSDOF 14
ENDMDL
MODEL 2
REMARK VINA RESULT:     -11.9      0.095      1.068
REMARK SMILES [NH3+]Cc1c(-c2ccccc2)c(C(=O)NCCCCNC(=O)c2ccc(-c3c4nc(c(-c5c(F)cccc5F)c5ccc([nH]5)c(-c5c(F)cccc5F)c5nc(c(-c6c(F)cccc6F)c6ccc3[nH]6)C=C5)C=C4)cc2)c2ccccn12
REMARK SMILES IDX 16 1 15 2 14 3 12 4 13 5 11 7 3 8 4 9 81 10 76 11 80 12
REMARK SMILES IDX 77 13 79 14 78 15 2 16 1 17 5 21 6 22 10 23 7 24 9 25 8 26
REMARK SMILES IDX 17 27 18 28 19 29 20 30 21 32 22 33 23 34 75 35 24 36 74 37
REMARK SMILES IDX 25 38 26 39 27 40 68 41 28 42 73 43 67 44 69 45 29 46 72 47
REMARK SMILES IDX 66 48 65 49 30 51 56 52 39 53 55 54 40 55 43 56 54 57 70 58
REMARK SMILES IDX 41 59 42 60 53 62 71 63 44 64 31 65 32 66 37 67 33 68 34 69
REMARK SMILES IDX 36 70 38 71 35 72 57 73 58 74 63 75 59 76 60 77 62 78 64 79
REMARK SMILES IDX 61 80 45 81 46 82 51 83 47 84 48 85 50 86 52 87 49 88
REMARK H PARENT 14 6 1 18 1 19 1 20 19 31 69 50 43 61
REMARK Flexibility Score: inf
ROOT
ATOM      1  C   UNL A   1      36.678  22.429  24.358  1.00  0.00     0.023 C 
ENDROOT
BRANCH   1   2
ATOM      2  C   UNL A   1      36.641  23.555  25.388  1.00  0.00     0.116 C 
BRANCH   2   3
ATOM      3  N   UNL A   1      35.843  23.287  26.566  1.00  0.00    -0.352 N 
ATOM      4  C   UNL A   1      34.502  22.996  26.701  1.00  0.00     0.254 C 
ATOM      5  O   UNL A   1      34.112  22.736  27.839  1.00  0.00    -0.269 OA
ATOM      6  H   UNL A   1      36.342  23.319  27.415  1.00  0.00     0.163 HD
BRANCH   4   7
ATOM      7  C   UNL A   1      33.582  23.066  25.561  1.00  0.00     0.073 A 
ATOM      8  C   UNL A   1      32.194  23.941  23.937  1.00  0.00     0.086 A 
ATOM      9  C   UNL A   1      32.911  24.254  25.093  1.00  0.00     0.022 A 
ATOM     10  N   UNL A   1      32.382  22.586  23.706  1.00  0.00    -0.314 N 
ATOM     11  C   UNL A   1      33.051  22.034  24.801  1.00  0.00     0.059 A 
ATOM     12  C   UNL A   1      31.987  21.805  22.610  1.00  0.00     0.092 A 
ATOM     13  C   UNL A   1      33.069  20.606  24.886  1.00  0.00     0.027 A 
ATOM     14  C   UNL A   1      32.163  20.474  22.631  1.00  0.00     0.018 A 
ATOM     15  C   UNL A   1      32.672  19.860  23.840  1.00  0.00     0.004 A 
BRANCH   8  16
ATOM     16  C   UNL A   1      31.287  24.776  23.083  1.00  0.00     0.315 C 
BRANCH  16  17
ATOM     17  N   UNL A   1      29.908  24.760  23.549  1.00  0.00    -0.353 N 
ATOM     18  H   UNL A   1      29.828  24.132  24.349  1.00  0.00     0.344 HD
ATOM     19  H   UNL A   1      29.299  24.435  22.798  1.00  0.00     0.344 HD
ATOM     20  H   UNL A   1      29.632  25.702  23.826  1.00  0.00     0.344 HD
ENDBRANCH  16  17
ENDBRANCH   8  16
BRANCH   9  21
ATOM     21  C   UNL A   1      32.905  25.582  25.689  1.00  0.00    -0.016 A 
ATOM     22  C   UNL A   1      31.804  26.033  26.421  1.00  0.00     0.009 A 
ATOM     23  C   UNL A   1      34.023  26.415  25.541  1.00  0.00     0.009 A 
ATOM     24  C   UNL A   1      31.824  27.301  27.008  1.00  0.00     0.001 A 
ATOM     25  C   UNL A   1      34.043  27.680  26.132  1.00  0.00     0.001 A 
ATOM     26  C   UNL A   1      32.944  28.122  26.865  1.00  0.00     0.000 A 
ENDBRANCH   9  21
ENDBRANCH   4   7
ENDBRANCH   2   3
ENDBRANCH   1   2
BRANCH   1  27
ATOM     27  C   UNL A   1      37.321  21.110  24.791  1.00  0.00     0.023 C 
BRANCH  27  28
ATOM     28  C   UNL A   1      38.548  21.203  25.696  1.00  0.00     0.116 C 
BRANCH  28  29
ATOM     29  N   UNL A   1      39.447  20.062  25.599  1.00  0.00    -0.352 N 
ATOM     30  C   UNL A   1      40.766  19.921  25.970  1.00  0.00     0.251 C 
ATOM     31  H   UNL A   1      39.044  19.255  25.204  1.00  0.00     0.163 HD
ATOM     32  O   UNL A   1      41.356  18.872  25.737  1.00  0.00    -0.269 OA
BRANCH  30  33
ATOM     33  C   UNL A   1      41.497  21.048  26.590  1.00  0.00     0.039 A 
ATOM     34  C   UNL A   1      42.094  21.997  25.754  1.00  0.00     0.014 A 
ATOM     35  C   UNL A   1      41.569  21.196  27.976  1.00  0.00     0.014 A 
ATOM     36  C   UNL A   1      42.638  23.161  26.302  1.00  0.00     0.010 A 
ATOM     37  C   UNL A   1      42.043  22.390  28.517  1.00  0.00     0.010 A 
ATOM     38  C   UNL A   1      42.546  23.400  27.683  1.00  0.00    -0.014 A 
BRANCH  38  39
ATOM     39  C   UNL A   1      42.877  24.727  28.265  1.00  0.00     0.031 A 
ATOM     40  C   UNL A   1      41.812  25.765  28.467  1.00  0.00     0.074 A 
ATOM     41  C   UNL A   1      44.169  25.034  28.503  1.00  0.00     0.049 A 
ATOM     42  N   UNL A   1      41.939  27.019  28.821  1.00  0.00    -0.248 NA
ATOM     43  C   UNL A   1      40.425  25.347  28.215  1.00  0.00     0.031 C 
ATOM     44  C   UNL A   1      45.306  24.133  28.302  1.00  0.00     0.029 A 
ATOM     45  N   UNL A   1      44.747  26.200  28.942  1.00  0.00    -0.354 N 
ATOM     46  C   UNL A   1      40.654  27.545  28.815  1.00  0.00     0.074 A 
ATOM     47  C   UNL A   1      39.766  26.484  28.388  1.00  0.00     0.031 C 
ATOM     48  C   UNL A   1      46.440  24.773  28.626  1.00  0.00     0.029 A 
ATOM     49  C   UNL A   1      46.118  26.142  29.013  1.00  0.00     0.049 A 
ATOM     50  H   UNL A   1      44.228  27.001  29.183  1.00  0.00     0.167 HD
ATOM     51  C   UNL A   1      40.250  28.794  29.150  1.00  0.00     0.037 A 
ATOM     52  C   UNL A   1      47.020  27.090  29.328  1.00  0.00     0.037 A 
ATOM     53  C   UNL A   1      41.130  29.840  29.601  1.00  0.00     0.049 A 
ATOM     54  C   UNL A   1      46.548  28.474  29.670  1.00  0.00     0.074 A 
ATOM     55  C   UNL A   1      40.803  31.109  30.046  1.00  0.00     0.029 A 
ATOM     56  N   UNL A   1      42.512  29.740  29.660  1.00  0.00    -0.354 N 
ATOM     57  N   UNL A   1      45.324  28.938  29.723  1.00  0.00    -0.248 NA
ATOM     58  C   UNL A   1      47.583  29.469  29.985  1.00  0.00     0.031 C 
ATOM     59  C   UNL A   1      41.988  31.793  30.336  1.00  0.00     0.029 A 
ATOM     60  C   UNL A   1      43.053  30.937  30.104  1.00  0.00     0.049 A 
ATOM     61  H   UNL A   1      43.031  28.939  29.421  1.00  0.00     0.167 HD
ATOM     62  C   UNL A   1      45.439  30.272  30.088  1.00  0.00     0.074 A 
ATOM     63  C   UNL A   1      46.852  30.540  30.260  1.00  0.00     0.031 C 
ATOM     64  C   UNL A   1      44.460  31.193  30.261  1.00  0.00     0.037 A 
BRANCH  51  65
ATOM     65  C   UNL A   1      38.787  29.098  29.046  1.00  0.00     0.057 A 
ATOM     66  C   UNL A   1      37.933  28.999  30.152  1.00  0.00     0.134 A 
ATOM     67  C   UNL A   1      38.231  29.536  27.837  1.00  0.00     0.134 A 
ATOM     68  F   UNL A   1      38.403  28.576  31.336  1.00  0.00    -0.206 F 
ATOM     69  C   UNL A   1      36.576  29.304  30.055  1.00  0.00     0.040 A 
ATOM     70  C   UNL A   1      36.879  29.865  27.733  1.00  0.00     0.040 A 
ATOM     71  F   UNL A   1      38.994  29.659  26.741  1.00  0.00    -0.206 F 
ATOM     72  C   UNL A   1      36.046  29.744  28.844  1.00  0.00     0.006 A 
ENDBRANCH  51  65
BRANCH  52  73
ATOM     73  C   UNL A   1      48.469  26.765  29.330  1.00  0.00     0.057 A 
ATOM     74  C   UNL A   1      49.251  26.975  28.189  1.00  0.00     0.134 A 
ATOM     75  C   UNL A   1      49.101  26.236  30.461  1.00  0.00     0.134 A 
ATOM     76  F   UNL A   1      48.696  27.460  27.069  1.00  0.00    -0.206 F 
ATOM     77  C   UNL A   1      50.611  26.659  28.169  1.00  0.00     0.040 A 
ATOM     78  C   UNL A   1      50.463  25.935  30.461  1.00  0.00     0.040 A 
ATOM     79  F   UNL A   1      48.404  26.017  31.585  1.00  0.00    -0.206 F 
ATOM     80  C   UNL A   1      51.221  26.141  29.310  1.00  0.00     0.006 A 
ENDBRANCH  52  73
BRANCH  64  81
ATOM     81  C   UNL A   1      44.885  32.573  30.659  1.00  0.00     0.057 A 
ATOM     82  C   UNL A   1      45.098  33.576  29.706  1.00  0.00     0.134 A 
ATOM     83  C   UNL A   1      45.040  32.915  32.008  1.00  0.00     0.134 A 
ATOM     84  F   UNL A   1      44.981  33.306  28.397  1.00  0.00    -0.206 F 
ATOM     85  C   UNL A   1      45.463  34.870  30.080  1.00  0.00     0.040 A 
ATOM     86  C   UNL A   1      45.383  34.211  32.396  1.00  0.00     0.040 A 
ATOM     87  F   UNL A   1      44.846  32.000  32.969  1.00  0.00    -0.206 F 
ATOM     88  C   UNL A   1      45.599  35.192  31.430  1.00  0.00     0.006 A 
ENDBRANCH  64  81
ENDBRANCH  38  39
ENDBRANCH  30  33
ENDBRANCH  28  29
ENDBRANCH  27  28
ENDBRANCH   1  27
TORSDOF 14
ENDMDL
MODEL 3
REMARK VINA RESULT:     -11.8      0.517      6.240
REMARK SMILES [NH3+]Cc1c(-c2ccccc2)c(C(=O)NCCCCNC(=O)c2ccc(-c3c4nc(c(-c5c(F)cccc5F)c5ccc([nH]5)c(-c5c(F)cccc5F)c5nc(c(-c6c(F)cccc6F)c6ccc3[nH]6)C=C5)C=C4)cc2)c2ccccn12
REMARK SMILES IDX 16 1 15 2 14 3 12 4 13 5 11 7 3 8 4 9 81 10 76 11 80 12
REMARK SMILES IDX 77 13 79 14 78 15 2 16 1 17 5 21 6 22 10 23 7 24 9 25 8 26
REMARK SMILES IDX 17 27 18 28 19 29 20 30 21 32 22 33 23 34 75 35 24 36 74 37
REMARK SMILES IDX 25 38 26 39 27 40 68 41 28 42 73 43 67 44 69 45 29 46 72 47
REMARK SMILES IDX 66 48 65 49 30 51 56 52 39 53 55 54 40 55 43 56 54 57 70 58
REMARK SMILES IDX 41 59 42 60 53 62 71 63 44 64 31 65 32 66 37 67 33 68 34 69
REMARK SMILES IDX 36 70 38 71 35 72 57 73 58 74 63 75 59 76 60 77 62 78 64 79
REMARK SMILES IDX 61 80 45 81 46 82 51 83 47 84 48 85 50 86 52 87 49 88
REMARK H PARENT 14 6 1 18 1 19 1 20 19 31 69 50 43 61
REMARK Flexibility Score: inf
ROOT
ATOM      1  C   UNL A   1      36.704  21.951  24.396  1.00  0.00     0.023 C 
ENDROOT
BRANCH   1   2
ATOM      2  C   UNL A   1      36.704  23.185  25.294  1.00  0.00     0.116 C 
BRANCH   2   3
ATOM      3  N   UNL A   1      35.910  23.071  26.501  1.00  0.00    -0.352 N 
ATOM      4  C   UNL A   1      34.552  22.908  26.676  1.00  0.00     0.254 C 
ATOM      5  O   UNL A   1      34.165  22.763  27.835  1.00  0.00    -0.269 OA
ATOM      6  H   UNL A   1      36.428  23.117  27.337  1.00  0.00     0.163 HD
BRANCH   4   7
ATOM      7  C   UNL A   1      33.618  22.980  25.547  1.00  0.00     0.073 A 
ATOM      8  C   UNL A   1      32.210  23.857  23.942  1.00  0.00     0.086 A 
ATOM      9  C   UNL A   1      32.942  24.168  25.088  1.00  0.00     0.022 A 
ATOM     10  N   UNL A   1      32.395  22.502  23.707  1.00  0.00    -0.314 N 
ATOM     11  C   UNL A   1      33.078  21.948  24.792  1.00  0.00     0.059 A 
ATOM     12  C   UNL A   1      31.987  21.722  22.615  1.00  0.00     0.092 A 
ATOM     13  C   UNL A   1      33.096  20.521  24.876  1.00  0.00     0.027 A 
ATOM     14  C   UNL A   1      32.162  20.391  22.633  1.00  0.00     0.018 A 
ATOM     15  C   UNL A   1      32.686  19.776  23.835  1.00  0.00     0.004 A 
BRANCH   8  16
ATOM     16  C   UNL A   1      31.293  24.693  23.100  1.00  0.00     0.315 C 
BRANCH  16  17
ATOM     17  N   UNL A   1      29.932  24.721  23.614  1.00  0.00    -0.353 N 
ATOM     18  H   UNL A   1      29.342  25.264  22.983  1.00  0.00     0.344 HD
ATOM     19  H   UNL A   1      29.927  25.151  24.539  1.00  0.00     0.344 HD
ATOM     20  H   UNL A   1      29.574  23.769  23.680  1.00  0.00     0.344 HD
ENDBRANCH  16  17
ENDBRANCH   8  16
BRANCH   9  21
ATOM     21  C   UNL A   1      32.944  25.496  25.686  1.00  0.00    -0.016 A 
ATOM     22  C   UNL A   1      34.038  26.351  25.526  1.00  0.00     0.009 A 
ATOM     23  C   UNL A   1      31.829  25.931  26.415  1.00  0.00     0.009 A 
ATOM     24  C   UNL A   1      34.013  27.632  26.084  1.00  0.00     0.001 A 
ATOM     25  C   UNL A   1      31.804  27.213  26.969  1.00  0.00     0.001 A 
ATOM     26  C   UNL A   1      32.896  28.062  26.803  1.00  0.00     0.000 A 
ENDBRANCH   9  21
ENDBRANCH   4   7
ENDBRANCH   2   3
ENDBRANCH   1   2
BRANCH   1  27
ATOM     27  C   UNL A   1      37.445  20.715  24.910  1.00  0.00     0.023 C 
BRANCH  27  28
ATOM     28  C   UNL A   1      38.715  20.959  25.722  1.00  0.00     0.116 C 
BRANCH  28  29
ATOM     29  N   UNL A   1      39.669  19.859  25.683  1.00  0.00    -0.352 N 
ATOM     30  C   UNL A   1      40.995  19.805  26.048  1.00  0.00     0.251 C 
ATOM     31  H   UNL A   1      39.303  19.013  25.339  1.00  0.00     0.163 HD
ATOM     32  O   UNL A   1      41.634  18.773  25.870  1.00  0.00    -0.269 OA
BRANCH  30  33
ATOM     33  C   UNL A   1      41.675  21.000  26.594  1.00  0.00     0.039 A 
ATOM     34  C   UNL A   1      42.303  21.876  25.703  1.00  0.00     0.014 A 
ATOM     35  C   UNL A   1      41.670  21.280  27.961  1.00  0.00     0.014 A 
ATOM     36  C   UNL A   1      42.799  23.097  26.165  1.00  0.00     0.010 A 
ATOM     37  C   UNL A   1      42.096  22.529  28.409  1.00  0.00     0.010 A 
ATOM     38  C   UNL A   1      42.628  23.466  27.509  1.00  0.00    -0.014 A 
BRANCH  38  39
ATOM     39  C   UNL A   1      42.908  24.848  27.978  1.00  0.00     0.031 A 
ATOM     40  C   UNL A   1      44.281  25.242  28.435  1.00  0.00     0.074 A 
ATOM     41  C   UNL A   1      41.883  25.718  28.100  1.00  0.00     0.049 A 
ATOM     42  N   UNL A   1      44.673  26.350  29.011  1.00  0.00    -0.248 NA
ATOM     43  C   UNL A   1      45.351  24.251  28.243  1.00  0.00     0.031 C 
ATOM     44  C   UNL A   1      40.490  25.445  27.737  1.00  0.00     0.029 A 
ATOM     45  N   UNL A   1      41.851  27.001  28.587  1.00  0.00    -0.354 N 
ATOM     46  C   UNL A   1      46.028  26.184  29.268  1.00  0.00     0.074 A 
ATOM     47  C   UNL A   1      46.382  24.854  28.818  1.00  0.00     0.031 C 
ATOM     48  C   UNL A   1      39.744  26.528  28.004  1.00  0.00     0.029 A 
ATOM     49  C   UNL A   1      40.593  27.555  28.598  1.00  0.00     0.049 A 
ATOM     50  H   UNL A   1      42.652  27.480  28.900  1.00  0.00     0.167 HD
ATOM     51  C   UNL A   1      46.898  27.065  29.816  1.00  0.00     0.037 A 
ATOM     52  C   UNL A   1      40.163  28.745  29.058  1.00  0.00     0.037 A 
ATOM     53  C   UNL A   1      46.551  28.397  30.238  1.00  0.00     0.049 A 
ATOM     54  C   UNL A   1      41.144  29.693  29.684  1.00  0.00     0.074 A 
ATOM     55  C   UNL A   1      47.383  29.392  30.722  1.00  0.00     0.029 A 
ATOM     56  N   UNL A   1      45.267  28.919  30.231  1.00  0.00    -0.354 N 
ATOM     57  N   UNL A   1      42.433  29.547  29.860  1.00  0.00    -0.248 NA
ATOM     58  C   UNL A   1      40.608  30.967  30.185  1.00  0.00     0.031 C 
ATOM     59  C   UNL A   1      46.597  30.503  31.046  1.00  0.00     0.029 A 
ATOM     60  C   UNL A   1      45.280  30.211  30.732  1.00  0.00     0.049 A 
ATOM     61  H   UNL A   1      44.465  28.442  29.917  1.00  0.00     0.167 HD
ATOM     62  C   UNL A   1      42.866  30.710  30.481  1.00  0.00     0.074 A 
ATOM     63  C   UNL A   1      41.704  31.561  30.635  1.00  0.00     0.031 C 
ATOM     64  C   UNL A   1      44.115  31.042  30.889  1.00  0.00     0.037 A 
BRANCH  51  65
ATOM     65  C   UNL A   1      48.318  26.618  29.986  1.00  0.00     0.057 A 
ATOM     66  C   UNL A   1      48.738  25.916  31.122  1.00  0.00     0.134 A 
ATOM     67  C   UNL A   1      49.267  26.853  28.982  1.00  0.00     0.134 A 
ATOM     68  F   UNL A   1      47.880  25.667  32.123  1.00  0.00    -0.206 F 
ATOM     69  C   UNL A   1      50.056  25.482  31.266  1.00  0.00     0.040 A 
ATOM     70  C   UNL A   1      50.584  26.405  29.105  1.00  0.00     0.040 A 
ATOM     71  F   UNL A   1      48.929  27.514  27.866  1.00  0.00    -0.206 F 
ATOM     72  C   UNL A   1      50.982  25.721  30.252  1.00  0.00     0.006 A 
ENDBRANCH  51  65
BRANCH  52  73
ATOM     73  C   UNL A   1      38.727  29.107  28.949  1.00  0.00     0.057 A 
ATOM     74  C   UNL A   1      37.872  28.988  30.051  1.00  0.00     0.134 A 
ATOM     75  C   UNL A   1      38.177  29.573  27.750  1.00  0.00     0.134 A 
ATOM     76  F   UNL A   1      38.339  28.526  31.220  1.00  0.00    -0.206 F 
ATOM     77  C   UNL A   1      36.517  29.308  29.959  1.00  0.00     0.040 A 
ATOM     78  C   UNL A   1      36.828  29.917  27.651  1.00  0.00     0.040 A 
ATOM     79  F   UNL A   1      38.947  29.712  26.661  1.00  0.00    -0.206 F 
ATOM     80  C   UNL A   1      35.993  29.778  28.757  1.00  0.00     0.006 A 
ENDBRANCH  52  73
BRANCH  64  81
ATOM     81  C   UNL A   1      44.288  32.381  31.538  1.00  0.00     0.057 A 
ATOM     82  C   UNL A   1      44.538  33.533  30.782  1.00  0.00     0.134 A 
ATOM     83  C   UNL A   1      44.161  32.528  32.924  1.00  0.00     0.134 A 
ATOM     84  F   UNL A   1      44.686  33.454  29.451  1.00  0.00    -0.206 F 
ATOM     85  C   UNL A   1      44.668  34.785  31.385  1.00  0.00     0.040 A 
ATOM     86  C   UNL A   1      44.268  33.778  33.536  1.00  0.00     0.040 A 
ATOM     87  F   UNL A   1      43.917  31.464  33.703  1.00  0.00    -0.206 F 
ATOM     88  C   UNL A   1      44.525  34.910  32.766  1.00  0.00     0.006 A 
ENDBRANCH  64  81
ENDBRANCH  38  39
ENDBRANCH  30  33
ENDBRANCH  28  29
ENDBRANCH  27  28
ENDBRANCH   1  27
TORSDOF 14
ENDMDL
