MODEL 1
REMARK VINA RESULT:     -10.1      0.000      0.000
REMARK SMILES CS(=O)(=O)NCCCCCC(=O)NCCCCNC(=O)c1ccc(-c2c3nc(c(-c4c(F)cccc4F)c4ccc([nH]4)c(-c4c(F)cccc4F)c4nc(c(-c5c(F)cccc5F)c5ccc2[nH]5)C=C4)C=C3)cc1
REMARK SMILES IDX 11 1 12 2 13 3 10 5 9 6 8 7 7 8 6 9 5 10 2 12 1 13 3 14 4 15
REMARK SMILES IDX 14 16 15 17 16 18 17 19 18 20 19 21 20 23 21 24 22 25 74 26
REMARK SMILES IDX 23 27 73 28 24 29 25 30 26 31 67 32 27 33 72 34 66 35 68 36
REMARK SMILES IDX 28 37 71 38 65 39 64 40 29 42 55 43 38 44 54 45 39 46 42 47
REMARK SMILES IDX 53 48 69 49 40 50 41 51 52 53 70 54 43 55 30 56 31 57 36 58
REMARK SMILES IDX 32 59 33 60 35 61 37 62 34 63 56 64 57 65 62 66 58 67 59 68
REMARK SMILES IDX 61 69 63 70 60 71 44 72 45 73 50 74 46 75 47 76 49 77 51 78
REMARK SMILES IDX 48 79
REMARK H PARENT 13 4 5 11 18 22 68 41 42 52
REMARK Flexibility Score: inf
ROOT
ATOM      1  C   UNL A   1      33.565  28.437  24.828  1.00  0.00     0.219 C 
ATOM      2  O   UNL A   1      34.099  28.217  23.739  1.00  0.00    -0.275 OA
ATOM      3  N   UNL A   1      33.653  29.692  25.348  1.00  0.00    -0.356 N 
ATOM      4  H   UNL A   1      34.076  30.361  24.763  1.00  0.00     0.163 HD
ENDROOT
BRANCH   1   5
ATOM      5  C   UNL A   1      32.785  27.353  25.548  1.00  0.00     0.100 C 
BRANCH   5   6
ATOM      6  C   UNL A   1      31.681  26.678  24.729  1.00  0.00     0.010 C 
BRANCH   6   7
ATOM      7  C   UNL A   1      30.545  27.552  24.183  1.00  0.00     0.002 C 
BRANCH   7   8
ATOM      8  C   UNL A   1      30.619  27.880  22.686  1.00  0.00     0.016 C 
BRANCH   8   9
ATOM      9  C   UNL A   1      30.800  29.357  22.375  1.00  0.00     0.098 C 
BRANCH   9  10
ATOM     10  N   UNL A   1      29.869  29.884  21.376  1.00  0.00    -0.215 NA
ATOM     11  H   UNL A   1      30.374  30.620  20.882  1.00  0.00     0.140 HD
BRANCH  10  12
ATOM     12  S   UNL A   1      28.377  30.532  21.769  1.00  0.00     0.208 S 
ATOM     13  C   UNL A   1      28.779  31.737  23.019  1.00  0.00     0.176 C 
ATOM     14  O   UNL A   1      27.570  29.488  22.364  1.00  0.00    -0.213 OA
ATOM     15  O   UNL A   1      27.934  31.226  20.582  1.00  0.00    -0.213 OA
ENDBRANCH  10  12
ENDBRANCH   9  10
ENDBRANCH   8   9
ENDBRANCH   7   8
ENDBRANCH   6   7
ENDBRANCH   5   6
ENDBRANCH   1   5
BRANCH   3  16
ATOM     16  C   UNL A   1      33.215  30.183  26.636  1.00  0.00     0.116 C 
BRANCH  16  17
ATOM     17  C   UNL A   1      31.731  30.548  26.601  1.00  0.00     0.023 C 
BRANCH  17  18
ATOM     18  C   UNL A   1      31.434  32.027  26.790  1.00  0.00     0.023 C 
BRANCH  18  19
ATOM     19  C   UNL A   1      32.635  32.852  27.212  1.00  0.00     0.116 C 
BRANCH  19  20
ATOM     20  N   UNL A   1      32.311  34.200  27.655  1.00  0.00    -0.352 N 
ATOM     21  C   UNL A   1      32.953  34.943  28.620  1.00  0.00     0.251 C 
ATOM     22  H   UNL A   1      31.542  34.630  27.215  1.00  0.00     0.163 HD
ATOM     23  O   UNL A   1      32.544  36.050  28.949  1.00  0.00    -0.269 OA
BRANCH  21  24
ATOM     24  C   UNL A   1      34.128  34.352  29.295  1.00  0.00     0.039 A 
ATOM     25  C   UNL A   1      33.925  33.432  30.324  1.00  0.00     0.014 A 
ATOM     26  C   UNL A   1      35.419  34.635  28.842  1.00  0.00     0.014 A 
ATOM     27  C   UNL A   1      35.020  32.755  30.862  1.00  0.00     0.010 A 
ATOM     28  C   UNL A   1      36.487  33.872  29.292  1.00  0.00     0.010 A 
ATOM     29  C   UNL A   1      36.306  32.945  30.327  1.00  0.00    -0.014 A 
BRANCH  29  30
ATOM     30  C   UNL A   1      37.480  32.221  30.878  1.00  0.00     0.031 A 
ATOM     31  C   UNL A   1      37.975  32.547  32.263  1.00  0.00     0.074 A 
ATOM     32  C   UNL A   1      38.120  31.303  30.127  1.00  0.00     0.049 A 
ATOM     33  N   UNL A   1      38.985  32.038  32.922  1.00  0.00    -0.248 NA
ATOM     34  C   UNL A   1      37.262  33.609  32.994  1.00  0.00     0.031 C 
ATOM     35  C   UNL A   1      37.782  30.947  28.747  1.00  0.00     0.029 A 
ATOM     36  N   UNL A   1      39.191  30.497  30.422  1.00  0.00    -0.354 N 
ATOM     37  C   UNL A   1      39.032  32.727  34.128  1.00  0.00     0.074 A 
ATOM     38  C   UNL A   1      38.004  33.739  34.081  1.00  0.00     0.031 C 
ATOM     39  C   UNL A   1      38.603  29.967  28.331  1.00  0.00     0.029 A 
ATOM     40  C   UNL A   1      39.544  29.650  29.400  1.00  0.00     0.049 A 
ATOM     41  H   UNL A   1      39.662  30.523  31.287  1.00  0.00     0.167 HD
ATOM     42  C   UNL A   1      39.835  32.513  35.195  1.00  0.00     0.037 A 
ATOM     43  C   UNL A   1      40.517  28.720  29.335  1.00  0.00     0.037 A 
ATOM     44  C   UNL A   1      40.836  31.481  35.252  1.00  0.00     0.049 A 
ATOM     45  C   UNL A   1      41.385  28.490  30.543  1.00  0.00     0.074 A 
ATOM     46  C   UNL A   1      41.663  31.139  36.307  1.00  0.00     0.029 A 
ATOM     47  N   UNL A   1      41.144  30.625  34.206  1.00  0.00    -0.354 N 
ATOM     48  N   UNL A   1      41.365  29.094  31.707  1.00  0.00    -0.248 NA
ATOM     49  C   UNL A   1      42.398  27.432  30.434  1.00  0.00     0.031 C 
ATOM     50  C   UNL A   1      42.509  30.111  35.881  1.00  0.00     0.029 A 
ATOM     51  C   UNL A   1      42.163  29.767  34.584  1.00  0.00     0.049 A 
ATOM     52  H   UNL A   1      40.705  30.627  33.325  1.00  0.00     0.167 HD
ATOM     53  C   UNL A   1      42.333  28.465  32.480  1.00  0.00     0.074 A 
ATOM     54  C   UNL A   1      42.908  27.421  31.657  1.00  0.00     0.031 C 
ATOM     55  C   UNL A   1      42.715  28.726  33.755  1.00  0.00     0.037 A 
BRANCH  42  56
ATOM     56  C   UNL A   1      39.658  33.406  36.390  1.00  0.00     0.057 A 
ATOM     57  C   UNL A   1      40.368  34.606  36.532  1.00  0.00     0.134 A 
ATOM     58  C   UNL A   1      38.740  33.079  37.396  1.00  0.00     0.134 A 
ATOM     59  F   UNL A   1      41.276  34.973  35.615  1.00  0.00    -0.206 F 
ATOM     60  C   UNL A   1      40.191  35.434  37.643  1.00  0.00     0.040 A 
ATOM     61  C   UNL A   1      38.531  33.914  38.495  1.00  0.00     0.040 A 
ATOM     62  F   UNL A   1      38.025  31.945  37.324  1.00  0.00    -0.206 F 
ATOM     63  C   UNL A   1      39.262  35.093  38.623  1.00  0.00     0.006 A 
ENDBRANCH  42  56
BRANCH  43  64
ATOM     64  C   UNL A   1      40.709  27.916  28.100  1.00  0.00     0.057 A 
ATOM     65  C   UNL A   1      40.111  26.657  27.951  1.00  0.00     0.134 A 
ATOM     66  C   UNL A   1      41.520  28.368  27.052  1.00  0.00     0.134 A 
ATOM     67  F   UNL A   1      39.336  26.158  28.925  1.00  0.00    -0.206 F 
ATOM     68  C   UNL A   1      40.342  25.865  26.825  1.00  0.00     0.040 A 
ATOM     69  C   UNL A   1      41.733  27.601  25.906  1.00  0.00     0.040 A 
ATOM     70  F   UNL A   1      42.113  29.569  27.126  1.00  0.00    -0.206 F 
ATOM     71  C   UNL A   1      41.153  26.338  25.797  1.00  0.00     0.006 A 
ENDBRANCH  43  64
BRANCH  55  72
ATOM     72  C   UNL A   1      43.759  27.828  34.354  1.00  0.00     0.057 A 
ATOM     73  C   UNL A   1      43.436  26.618  34.981  1.00  0.00     0.134 A 
ATOM     74  C   UNL A   1      45.115  28.178  34.287  1.00  0.00     0.134 A 
ATOM     75  F   UNL A   1      42.157  26.227  35.087  1.00  0.00    -0.206 F 
ATOM     76  C   UNL A   1      44.417  25.813  35.563  1.00  0.00     0.040 A 
ATOM     77  C   UNL A   1      46.108  27.363  34.832  1.00  0.00     0.040 A 
ATOM     78  F   UNL A   1      45.498  29.314  33.685  1.00  0.00    -0.206 F 
ATOM     79  C   UNL A   1      45.758  26.183  35.484  1.00  0.00     0.006 A 
ENDBRANCH  55  72
ENDBRANCH  29  30
ENDBRANCH  21  24
ENDBRANCH  19  20
ENDBRANCH  18  19
ENDBRANCH  17  18
ENDBRANCH  16  17
ENDBRANCH   3  16
TORSDOF 17
ENDMDL
MODEL 2
REMARK VINA RESULT:     -10.1      6.446     11.204
REMARK SMILES CS(=O)(=O)NCCCCCC(=O)NCCCCNC(=O)c1ccc(-c2c3nc(c(-c4c(F)cccc4F)c4ccc([nH]4)c(-c4c(F)cccc4F)c4nc(c(-c5c(F)cccc5F)c5ccc2[nH]5)C=C4)C=C3)cc1
REMARK SMILES IDX 11 1 12 2 13 3 10 5 9 6 8 7 7 8 6 9 5 10 2 12 1 13 3 14 4 15
REMARK SMILES IDX 14 16 15 17 16 18 17 19 18 20 19 21 20 23 21 24 22 25 74 26
REMARK SMILES IDX 23 27 73 28 24 29 25 30 26 31 67 32 27 33 72 34 66 35 68 36
REMARK SMILES IDX 28 37 71 38 65 39 64 40 29 42 55 43 38 44 54 45 39 46 42 47
REMARK SMILES IDX 53 48 69 49 40 50 41 51 52 53 70 54 43 55 30 56 31 57 36 58
REMARK SMILES IDX 32 59 33 60 35 61 37 62 34 63 56 64 57 65 62 66 58 67 59 68
REMARK SMILES IDX 61 69 63 70 60 71 44 72 45 73 50 74 46 75 47 76 49 77 51 78
REMARK SMILES IDX 48 79
REMARK H PARENT 13 4 5 11 18 22 68 41 42 52
REMARK Flexibility Score: inf
ROOT
ATOM      1  C   UNL A   1      34.917  23.685  25.290  1.00  0.00     0.219 C 
ATOM      2  O   UNL A   1      34.887  24.902  25.102  1.00  0.00    -0.275 OA
ATOM      3  N   UNL A   1      36.101  23.117  25.651  1.00  0.00    -0.356 N 
ATOM      4  H   UNL A   1      36.837  23.748  25.816  1.00  0.00     0.163 HD
ENDROOT
BRANCH   1   5
ATOM      5  C   UNL A   1      33.659  22.845  25.172  1.00  0.00     0.100 C 
BRANCH   5   6
ATOM      6  C   UNL A   1      33.578  21.945  23.934  1.00  0.00     0.010 C 
BRANCH   6   7
ATOM      7  C   UNL A   1      32.889  20.582  24.072  1.00  0.00     0.002 C 
BRANCH   7   8
ATOM      8  C   UNL A   1      33.209  19.801  25.353  1.00  0.00     0.016 C 
BRANCH   8   9
ATOM      9  C   UNL A   1      32.788  18.342  25.320  1.00  0.00     0.098 C 
BRANCH   9  10
ATOM     10  N   UNL A   1      33.866  17.393  25.606  1.00  0.00    -0.215 NA
ATOM     11  H   UNL A   1      34.735  17.888  25.410  1.00  0.00     0.140 HD
BRANCH  10  12
ATOM     12  S   UNL A   1      34.000  15.907  24.847  1.00  0.00     0.208 S 
ATOM     13  C   UNL A   1      32.532  15.049  25.379  1.00  0.00     0.176 C 
ATOM     14  O   UNL A   1      35.162  15.228  25.381  1.00  0.00    -0.213 OA
ATOM     15  O   UNL A   1      33.889  16.186  23.434  1.00  0.00    -0.213 OA
ENDBRANCH  10  12
ENDBRANCH   9  10
ENDBRANCH   8   9
ENDBRANCH   7   8
ENDBRANCH   6   7
ENDBRANCH   5   6
ENDBRANCH   1   5
BRANCH   3  16
ATOM     16  C   UNL A   1      36.432  21.720  25.826  1.00  0.00     0.116 C 
BRANCH  16  17
ATOM     17  C   UNL A   1      37.224  21.196  24.627  1.00  0.00     0.023 C 
BRANCH  17  18
ATOM     18  C   UNL A   1      37.996  19.913  24.887  1.00  0.00     0.023 C 
BRANCH  18  19
ATOM     19  C   UNL A   1      39.152  20.071  25.856  1.00  0.00     0.116 C 
BRANCH  19  20
ATOM     20  N   UNL A   1      40.161  19.025  25.761  1.00  0.00    -0.352 N 
ATOM     21  C   UNL A   1      41.517  19.146  25.972  1.00  0.00     0.251 C 
ATOM     22  H   UNL A   1      39.837  18.128  25.516  1.00  0.00     0.163 HD
ATOM     23  O   UNL A   1      42.274  18.198  25.800  1.00  0.00    -0.269 OA
BRANCH  21  24
ATOM     24  C   UNL A   1      42.052  20.466  26.365  1.00  0.00     0.039 A 
ATOM     25  C   UNL A   1      42.341  21.401  25.371  1.00  0.00     0.014 A 
ATOM     26  C   UNL A   1      42.171  20.806  27.715  1.00  0.00     0.014 A 
ATOM     27  C   UNL A   1      42.698  22.699  25.737  1.00  0.00     0.010 A 
ATOM     28  C   UNL A   1      42.406  22.126  28.071  1.00  0.00     0.010 A 
ATOM     29  C   UNL A   1      42.701  23.082  27.090  1.00  0.00    -0.014 A 
BRANCH  29  30
ATOM     30  C   UNL A   1      43.065  24.463  27.496  1.00  0.00     0.031 A 
ATOM     31  C   UNL A   1      44.507  24.897  27.455  1.00  0.00     0.074 A 
ATOM     32  C   UNL A   1      42.113  25.312  27.932  1.00  0.00     0.049 A 
ATOM     33  N   UNL A   1      45.033  26.052  27.775  1.00  0.00    -0.248 NA
ATOM     34  C   UNL A   1      45.496  23.891  27.030  1.00  0.00     0.031 C 
ATOM     35  C   UNL A   1      40.692  24.991  28.083  1.00  0.00     0.029 A 
ATOM     36  N   UNL A   1      42.198  26.623  28.327  1.00  0.00    -0.354 N 
ATOM     37  C   UNL A   1      46.404  25.901  27.604  1.00  0.00     0.074 A 
ATOM     38  C   UNL A   1      46.638  24.527  27.229  1.00  0.00     0.031 C 
ATOM     39  C   UNL A   1      40.035  26.087  28.499  1.00  0.00     0.029 A 
ATOM     40  C   UNL A   1      40.990  27.176  28.675  1.00  0.00     0.049 A 
ATOM     41  H   UNL A   1      43.047  27.123  28.356  1.00  0.00     0.167 HD
ATOM     42  C   UNL A   1      47.379  26.832  27.715  1.00  0.00     0.037 A 
ATOM     43  C   UNL A   1      40.688  28.422  29.088  1.00  0.00     0.037 A 
ATOM     44  C   UNL A   1      47.140  28.208  28.056  1.00  0.00     0.049 A 
ATOM     45  C   UNL A   1      41.790  29.443  29.184  1.00  0.00     0.074 A 
ATOM     46  C   UNL A   1      48.049  29.248  28.135  1.00  0.00     0.029 A 
ATOM     47  N   UNL A   1      45.898  28.736  28.375  1.00  0.00    -0.354 N 
ATOM     48  N   UNL A   1      43.071  29.308  28.941  1.00  0.00    -0.248 NA
ATOM     49  C   UNL A   1      41.398  30.798  29.594  1.00  0.00     0.031 C 
ATOM     50  C   UNL A   1      47.365  30.393  28.555  1.00  0.00     0.029 A 
ATOM     51  C   UNL A   1      46.019  30.083  28.671  1.00  0.00     0.049 A 
ATOM     52  H   UNL A   1      45.054  28.228  28.389  1.00  0.00     0.167 HD
ATOM     53  C   UNL A   1      43.630  30.565  29.129  1.00  0.00     0.074 A 
ATOM     54  C   UNL A   1      42.545  31.453  29.489  1.00  0.00     0.031 C 
ATOM     55  C   UNL A   1      44.925  30.954  29.016  1.00  0.00     0.037 A 
BRANCH  42  56
ATOM     56  C   UNL A   1      48.793  26.393  27.455  1.00  0.00     0.057 A 
ATOM     57  C   UNL A   1      49.358  26.431  26.173  1.00  0.00     0.134 A 
ATOM     58  C   UNL A   1      49.610  25.958  28.506  1.00  0.00     0.134 A 
ATOM     59  F   UNL A   1      48.628  26.821  25.117  1.00  0.00    -0.206 F 
ATOM     60  C   UNL A   1      50.675  26.028  25.942  1.00  0.00     0.040 A 
ATOM     61  C   UNL A   1      50.937  25.583  28.293  1.00  0.00     0.040 A 
ATOM     62  F   UNL A   1      49.134  25.897  29.760  1.00  0.00    -0.206 F 
ATOM     63  C   UNL A   1      51.472  25.612  27.006  1.00  0.00     0.006 A 
ENDBRANCH  42  56
BRANCH  43  64
ATOM     64  C   UNL A   1      39.284  28.788  29.414  1.00  0.00     0.057 A 
ATOM     65  C   UNL A   1      38.442  29.366  28.455  1.00  0.00     0.134 A 
ATOM     66  C   UNL A   1      38.761  28.602  30.699  1.00  0.00     0.134 A 
ATOM     67  F   UNL A   1      38.887  29.587  27.209  1.00  0.00    -0.206 F 
ATOM     68  C   UNL A   1      37.145  29.777  28.771  1.00  0.00     0.040 A 
ATOM     69  C   UNL A   1      37.456  28.978  31.020  1.00  0.00     0.040 A 
ATOM     70  F   UNL A   1      39.511  28.044  31.661  1.00  0.00    -0.206 F 
ATOM     71  C   UNL A   1      36.648  29.580  30.057  1.00  0.00     0.006 A 
ENDBRANCH  43  64
BRANCH  55  72
ATOM     72  C   UNL A   1      45.223  32.411  29.223  1.00  0.00     0.057 A 
ATOM     73  C   UNL A   1      45.151  33.345  28.183  1.00  0.00     0.134 A 
ATOM     74  C   UNL A   1      45.575  32.887  30.494  1.00  0.00     0.134 A 
ATOM     75  F   UNL A   1      44.828  32.957  26.940  1.00  0.00    -0.206 F 
ATOM     76  C   UNL A   1      45.465  34.691  28.387  1.00  0.00     0.040 A 
ATOM     77  C   UNL A   1      45.855  34.235  30.718  1.00  0.00     0.040 A 
ATOM     78  F   UNL A   1      45.646  32.050  31.541  1.00  0.00    -0.206 F 
ATOM     79  C   UNL A   1      45.813  35.139  29.659  1.00  0.00     0.006 A 
ENDBRANCH  55  72
ENDBRANCH  29  30
ENDBRANCH  21  24
ENDBRANCH  19  20
ENDBRANCH  18  19
ENDBRANCH  17  18
ENDBRANCH  16  17
ENDBRANCH   3  16
TORSDOF 17
ENDMDL
MODEL 3
REMARK VINA RESULT:      -9.7      6.460     10.505
REMARK SMILES CS(=O)(=O)NCCCCCC(=O)NCCCCNC(=O)c1ccc(-c2c3nc(c(-c4c(F)cccc4F)c4ccc([nH]4)c(-c4c(F)cccc4F)c4nc(c(-c5c(F)cccc5F)c5ccc2[nH]5)C=C4)C=C3)cc1
REMARK SMILES IDX 11 1 12 2 13 3 10 5 9 6 8 7 7 8 6 9 5 10 2 12 1 13 3 14 4 15
REMARK SMILES IDX 14 16 15 17 16 18 17 19 18 20 19 21 20 23 21 24 22 25 74 26
REMARK SMILES IDX 23 27 73 28 24 29 25 30 26 31 67 32 27 33 72 34 66 35 68 36
REMARK SMILES IDX 28 37 71 38 65 39 64 40 29 42 55 43 38 44 54 45 39 46 42 47
REMARK SMILES IDX 53 48 69 49 40 50 41 51 52 53 70 54 43 55 30 56 31 57 36 58
REMARK SMILES IDX 32 59 33 60 35 61 37 62 34 63 56 64 57 65 62 66 58 67 59 68
REMARK SMILES IDX 61 69 63 70 60 71 44 72 45 73 50 74 46 75 47 76 49 77 51 78
REMARK SMILES IDX 48 79
REMARK H PARENT 13 4 5 11 18 22 68 41 42 52
REMARK Flexibility Score: inf
ROOT
ATOM      1  C   UNL A   1      35.030  23.359  26.032  1.00  0.00     0.219 C 
ATOM      2  O   UNL A   1      34.152  23.676  26.836  1.00  0.00    -0.275 OA
ATOM      3  N   UNL A   1      36.015  22.517  26.450  1.00  0.00    -0.356 N 
ATOM      4  H   UNL A   1      35.901  22.155  27.358  1.00  0.00     0.163 HD
ENDROOT
BRANCH   1   5
ATOM      5  C   UNL A   1      34.990  23.852  24.598  1.00  0.00     0.100 C 
BRANCH   5   6
ATOM      6  C   UNL A   1      34.318  22.910  23.593  1.00  0.00     0.010 C 
BRANCH   6   7
ATOM      7  C   UNL A   1      33.014  22.217  24.009  1.00  0.00     0.002 C 
BRANCH   7   8
ATOM      8  C   UNL A   1      33.021  20.686  23.930  1.00  0.00     0.016 C 
BRANCH   8   9
ATOM      9  C   UNL A   1      33.133  19.989  25.276  1.00  0.00     0.098 C 
BRANCH   9  10
ATOM     10  N   UNL A   1      33.927  18.759  25.258  1.00  0.00    -0.215 NA
ATOM     11  H   UNL A   1      34.634  18.892  24.534  1.00  0.00     0.140 HD
BRANCH  10  12
ATOM     12  S   UNL A   1      33.264  17.247  24.981  1.00  0.00     0.208 S 
ATOM     13  C   UNL A   1      33.676  16.932  23.276  1.00  0.00     0.176 C 
ATOM     14  O   UNL A   1      31.826  17.352  25.106  1.00  0.00    -0.213 OA
ATOM     15  O   UNL A   1      34.016  16.339  25.815  1.00  0.00    -0.213 OA
ENDBRANCH  10  12
ENDBRANCH   9  10
ENDBRANCH   8   9
ENDBRANCH   7   8
ENDBRANCH   6   7
ENDBRANCH   5   6
ENDBRANCH   1   5
BRANCH   3  16
ATOM     16  C   UNL A   1      37.204  22.079  25.753  1.00  0.00     0.116 C 
BRANCH  16  17
ATOM     17  C   UNL A   1      36.963  20.738  25.059  1.00  0.00     0.023 C 
BRANCH  17  18
ATOM     18  C   UNL A   1      38.223  19.952  24.738  1.00  0.00     0.023 C 
BRANCH  18  19
ATOM     19  C   UNL A   1      39.336  20.122  25.754  1.00  0.00     0.116 C 
BRANCH  19  20
ATOM     20  N   UNL A   1      40.244  18.988  25.844  1.00  0.00    -0.352 N 
ATOM     21  C   UNL A   1      41.591  19.012  26.132  1.00  0.00     0.251 C 
ATOM     22  H   UNL A   1      39.850  18.100  25.680  1.00  0.00     0.163 HD
ATOM     23  O   UNL A   1      42.263  17.988  26.118  1.00  0.00    -0.269 OA
BRANCH  21  24
ATOM     24  C   UNL A   1      42.226  20.317  26.410  1.00  0.00     0.039 A 
ATOM     25  C   UNL A   1      42.709  21.076  25.343  1.00  0.00     0.014 A 
ATOM     26  C   UNL A   1      42.252  20.826  27.711  1.00  0.00     0.014 A 
ATOM     27  C   UNL A   1      43.168  22.372  25.579  1.00  0.00     0.010 A 
ATOM     28  C   UNL A   1      42.594  22.155  27.921  1.00  0.00     0.010 A 
ATOM     29  C   UNL A   1      43.084  22.934  26.864  1.00  0.00    -0.014 A 
BRANCH  29  30
ATOM     30  C   UNL A   1      43.555  24.318  27.129  1.00  0.00     0.031 A 
ATOM     31  C   UNL A   1      42.570  25.369  27.571  1.00  0.00     0.074 A 
ATOM     32  C   UNL A   1      44.850  24.637  26.941  1.00  0.00     0.049 A 
ATOM     33  N   UNL A   1      42.775  26.632  27.845  1.00  0.00    -0.248 NA
ATOM     34  C   UNL A   1      41.161  24.956  27.690  1.00  0.00     0.031 C 
ATOM     35  C   UNL A   1      45.888  23.728  26.450  1.00  0.00     0.029 A 
ATOM     36  N   UNL A   1      45.517  25.820  27.144  1.00  0.00    -0.354 N 
ATOM     37  C   UNL A   1      41.526  27.159  28.150  1.00  0.00     0.074 A 
ATOM     38  C   UNL A   1      40.560  26.104  27.954  1.00  0.00     0.031 C 
ATOM     39  C   UNL A   1      47.066  24.374  26.429  1.00  0.00     0.029 A 
ATOM     40  C   UNL A   1      46.862  25.750  26.871  1.00  0.00     0.049 A 
ATOM     41  H   UNL A   1      45.073  26.641  27.457  1.00  0.00     0.167 HD
ATOM     42  C   UNL A   1      41.214  28.399  28.589  1.00  0.00     0.037 A 
ATOM     43  C   UNL A   1      47.821  26.691  26.970  1.00  0.00     0.037 A 
ATOM     44  C   UNL A   1      42.183  29.437  28.816  1.00  0.00     0.049 A 
ATOM     45  C   UNL A   1      47.449  28.058  27.479  1.00  0.00     0.074 A 
ATOM     46  C   UNL A   1      41.981  30.711  29.317  1.00  0.00     0.029 A 
ATOM     47  N   UNL A   1      43.539  29.319  28.554  1.00  0.00    -0.354 N 
ATOM     48  N   UNL A   1      46.276  28.518  27.841  1.00  0.00    -0.248 NA
ATOM     49  C   UNL A   1      48.541  29.031  27.612  1.00  0.00     0.031 C 
ATOM     50  C   UNL A   1      43.207  31.382  29.309  1.00  0.00     0.029 A 
ATOM     51  C   UNL A   1      44.185  30.505  28.866  1.00  0.00     0.049 A 
ATOM     52  H   UNL A   1      43.979  28.513  28.199  1.00  0.00     0.167 HD
ATOM     53  C   UNL A   1      46.495  29.818  28.281  1.00  0.00     0.074 A 
ATOM     54  C   UNL A   1      47.916  30.064  28.156  1.00  0.00     0.031 C 
ATOM     55  C   UNL A   1      45.602  30.727  28.746  1.00  0.00     0.037 A 
BRANCH  42  56
ATOM     56  C   UNL A   1      39.767  28.697  28.861  1.00  0.00     0.057 A 
ATOM     57  C   UNL A   1      39.193  28.499  30.125  1.00  0.00     0.134 A 
ATOM     58  C   UNL A   1      38.944  29.221  27.855  1.00  0.00     0.134 A 
ATOM     59  F   UNL A   1      39.918  27.985  31.129  1.00  0.00    -0.206 F 
ATOM     60  C   UNL A   1      37.848  28.786  30.370  1.00  0.00     0.040 A 
ATOM     61  C   UNL A   1      37.607  29.541  28.098  1.00  0.00     0.040 A 
ATOM     62  F   UNL A   1      39.428  29.437  26.622  1.00  0.00    -0.206 F 
ATOM     63  C   UNL A   1      37.054  29.318  29.357  1.00  0.00     0.006 A 
ENDBRANCH  42  56
BRANCH  43  64
ATOM     64  C   UNL A   1      49.227  26.373  26.610  1.00  0.00     0.057 A 
ATOM     65  C   UNL A   1      50.089  25.750  27.522  1.00  0.00     0.134 A 
ATOM     66  C   UNL A   1      49.756  26.713  25.359  1.00  0.00     0.134 A 
ATOM     67  F   UNL A   1      49.650  25.413  28.744  1.00  0.00    -0.206 F 
ATOM     68  C   UNL A   1      51.431  25.511  27.217  1.00  0.00     0.040 A 
ATOM     69  C   UNL A   1      51.086  26.451  25.029  1.00  0.00     0.040 A 
ATOM     70  F   UNL A   1      48.982  27.303  24.435  1.00  0.00    -0.206 F 
ATOM     71  C   UNL A   1      51.932  25.859  25.966  1.00  0.00     0.006 A 
ENDBRANCH  43  64
BRANCH  55  72
ATOM     72  C   UNL A   1      46.149  32.047  29.210  1.00  0.00     0.057 A 
ATOM     73  C   UNL A   1      46.564  32.263  30.530  1.00  0.00     0.134 A 
ATOM     74  C   UNL A   1      46.275  33.116  28.311  1.00  0.00     0.134 A 
ATOM     75  F   UNL A   1      46.464  31.285  31.443  1.00  0.00    -0.206 F 
ATOM     76  C   UNL A   1      47.038  33.507  30.952  1.00  0.00     0.040 A 
ATOM     77  C   UNL A   1      46.782  34.352  28.713  1.00  0.00     0.040 A 
ATOM     78  F   UNL A   1      45.914  32.974  27.027  1.00  0.00    -0.206 F 
ATOM     79  C   UNL A   1      47.153  34.554  30.040  1.00  0.00     0.006 A 
ENDBRANCH  55  72
ENDBRANCH  29  30
ENDBRANCH  21  24
ENDBRANCH  19  20
ENDBRANCH  18  19
ENDBRANCH  17  18
ENDBRANCH  16  17
ENDBRANCH   3  16
TORSDOF 17
ENDMDL
