MODEL 1
REMARK VINA RESULT:     -11.3      0.000      0.000
REMARK SMILES Cc1oc(CSc2ccncc2N)cc1C(=O)NCCCCNC(=O)c1ccc(-c2c3nc(c(-c4c(F)cccc4F)c4ccc([nH]4)c(-c4c(F)cccc4F)c4nc(c(-c5c(F)cccc5F)c5ccc2[nH]5)C=C4)C=C3)cc1
REMARK SMILES IDX 19 1 18 2 16 3 17 4 15 6 1 7 2 8 3 9 4 10 14 11 5 12 6 13
REMARK SMILES IDX 7 14 8 15 12 16 9 17 11 18 10 19 13 20 20 23 21 24 22 25
REMARK SMILES IDX 23 26 24 27 25 29 26 30 27 31 79 32 28 33 78 34 29 35 30 36
REMARK SMILES IDX 31 37 72 38 32 39 77 40 71 41 73 42 33 43 76 44 70 45 69 46
REMARK SMILES IDX 34 48 60 49 43 50 59 51 44 52 47 53 58 54 74 55 45 56 46 57
REMARK SMILES IDX 57 59 75 60 48 61 35 62 36 63 41 64 37 65 38 66 40 67 42 68
REMARK SMILES IDX 39 69 61 70 62 71 67 72 63 73 64 74 66 75 68 76 65 77 49 78
REMARK SMILES IDX 50 79 55 80 51 81 52 82 54 83 56 84 53 85
REMARK H PARENT 18 5 13 21 13 22 23 28 73 47 47 58
REMARK Flexibility Score: inf
ROOT
ATOM      1  C   UNL A   1      36.857  23.261  25.233  1.00  0.00     0.116 C 
ENDROOT
BRANCH   1   2
ATOM      2  N   UNL A   1      35.919  23.049  26.301  1.00  0.00    -0.352 N 
ATOM      3  C   UNL A   1      34.582  23.283  26.435  1.00  0.00     0.254 C 
ATOM      4  O   UNL A   1      34.118  22.916  27.522  1.00  0.00    -0.269 OA
ATOM      5  H   UNL A   1      36.327  22.651  27.103  1.00  0.00     0.163 HD
BRANCH   3   6
ATOM      6  C   UNL A   1      33.687  23.871  25.436  1.00  0.00     0.081 A 
ATOM      7  C   UNL A   1      33.527  22.627  23.048  1.00  0.00     0.088 C 
ATOM      8  C   UNL A   1      33.297  23.612  24.122  1.00  0.00     0.113 A 
ATOM      9  O   UNL A   1      32.456  24.599  23.674  1.00  0.00    -0.465 OA
ATOM     10  C   UNL A   1      32.310  25.514  24.656  1.00  0.00     0.115 A 
ATOM     11  C   UNL A   1      32.988  25.087  25.766  1.00  0.00     0.060 A 
BRANCH  10  12
ATOM     12  C   UNL A   1      31.455  26.692  24.396  1.00  0.00     0.150 C 
BRANCH  12  13
ATOM     13  S   UNL A   1      31.094  27.091  22.653  1.00  0.00    -0.116 SA
BRANCH  13  14
ATOM     14  C   UNL A   1      29.688  28.212  22.651  1.00  0.00     0.034 A 
ATOM     15  C   UNL A   1      28.546  27.712  23.297  1.00  0.00     0.037 A 
ATOM     16  C   UNL A   1      29.662  29.523  22.152  1.00  0.00     0.064 A 
ATOM     17  C   UNL A   1      27.415  28.505  23.394  1.00  0.00     0.112 A 
ATOM     18  C   UNL A   1      28.453  30.217  22.287  1.00  0.00     0.137 A 
ATOM     19  N   UNL A   1      27.334  29.746  22.885  1.00  0.00    -0.262 NA
BRANCH  16  20
ATOM     20  N   UNL A   1      30.778  30.184  21.654  1.00  0.00    -0.397 N 
ATOM     21  H   UNL A   1      30.868  30.336  20.685  1.00  0.00     0.156 HD
ATOM     22  H   UNL A   1      31.479  30.500  22.269  1.00  0.00     0.156 HD
ENDBRANCH  16  20
ENDBRANCH  13  14
ENDBRANCH  12  13
ENDBRANCH  10  12
ENDBRANCH   3   6
ENDBRANCH   1   2
BRANCH   1  23
ATOM     23  C   UNL A   1      36.892  22.047  24.304  1.00  0.00     0.023 C 
BRANCH  23  24
ATOM     24  C   UNL A   1      37.465  20.773  24.930  1.00  0.00     0.023 C 
BRANCH  24  25
ATOM     25  C   UNL A   1      38.752  20.976  25.724  1.00  0.00     0.116 C 
BRANCH  25  26
ATOM     26  N   UNL A   1      39.670  19.848  25.651  1.00  0.00    -0.352 N 
ATOM     27  C   UNL A   1      40.993  19.810  26.019  1.00  0.00     0.251 C 
ATOM     28  H   UNL A   1      39.297  19.011  25.294  1.00  0.00     0.163 HD
ATOM     29  O   UNL A   1      41.670  18.806  25.827  1.00  0.00    -0.269 OA
BRANCH  27  30
ATOM     30  C   UNL A   1      41.600  21.019  26.604  1.00  0.00     0.039 A 
ATOM     31  C   UNL A   1      42.145  21.978  25.748  1.00  0.00     0.014 A 
ATOM     32  C   UNL A   1      41.564  21.231  27.984  1.00  0.00     0.014 A 
ATOM     33  C   UNL A   1      42.587  23.192  26.274  1.00  0.00     0.010 A 
ATOM     34  C   UNL A   1      41.942  22.465  28.496  1.00  0.00     0.010 A 
ATOM     35  C   UNL A   1      42.451  23.459  27.645  1.00  0.00    -0.014 A 
BRANCH  35  36
ATOM     36  C   UNL A   1      42.823  24.777  28.212  1.00  0.00     0.031 A 
ATOM     37  C   UNL A   1      41.771  25.828  28.422  1.00  0.00     0.074 A 
ATOM     38  C   UNL A   1      44.117  25.052  28.461  1.00  0.00     0.049 A 
ATOM     39  N   UNL A   1      41.910  27.066  28.822  1.00  0.00    -0.248 NA
ATOM     40  C   UNL A   1      40.385  25.447  28.110  1.00  0.00     0.031 C 
ATOM     41  C   UNL A   1      45.237  24.132  28.246  1.00  0.00     0.029 A 
ATOM     42  N   UNL A   1      44.713  26.192  28.938  1.00  0.00    -0.354 N 
ATOM     43  C   UNL A   1      40.634  27.615  28.790  1.00  0.00     0.074 A 
ATOM     44  C   UNL A   1      39.744  26.592  28.286  1.00  0.00     0.031 C 
ATOM     45  C   UNL A   1      46.379  24.738  28.609  1.00  0.00     0.029 A 
ATOM     46  C   UNL A   1      46.078  26.095  29.051  1.00  0.00     0.049 A 
ATOM     47  H   UNL A   1      44.208  27.003  29.177  1.00  0.00     0.167 HD
ATOM     48  C   UNL A   1      40.239  28.852  29.169  1.00  0.00     0.037 A 
ATOM     49  C   UNL A   1      46.984  27.002  29.462  1.00  0.00     0.037 A 
ATOM     50  C   UNL A   1      41.121  29.855  29.704  1.00  0.00     0.049 A 
ATOM     51  C   UNL A   1      46.517  28.362  29.897  1.00  0.00     0.074 A 
ATOM     52  C   UNL A   1      40.806  31.116  30.177  1.00  0.00     0.029 A 
ATOM     53  N   UNL A   1      42.492  29.706  29.839  1.00  0.00    -0.354 N 
ATOM     54  N   UNL A   1      45.299  28.847  29.925  1.00  0.00    -0.248 NA
ATOM     55  C   UNL A   1      47.547  29.299  30.364  1.00  0.00     0.031 C 
ATOM     56  C   UNL A   1      41.994  31.743  30.571  1.00  0.00     0.029 A 
ATOM     57  C   UNL A   1      43.042  30.857  30.377  1.00  0.00     0.049 A 
ATOM     58  H   UNL A   1      43.001  28.901  29.589  1.00  0.00     0.167 HD
ATOM     59  C   UNL A   1      45.412  30.131  30.438  1.00  0.00     0.074 A 
ATOM     60  C   UNL A   1      46.817  30.348  30.717  1.00  0.00     0.031 C 
ATOM     61  C   UNL A   1      44.441  31.049  30.661  1.00  0.00     0.037 A 
BRANCH  48  62
ATOM     62  C   UNL A   1      38.782  29.183  29.027  1.00  0.00     0.057 A 
ATOM     63  C   UNL A   1      38.232  29.573  27.800  1.00  0.00     0.134 A 
ATOM     64  C   UNL A   1      37.916  29.086  30.123  1.00  0.00     0.134 A 
ATOM     65  F   UNL A   1      39.012  29.700  26.715  1.00  0.00    -0.206 F 
ATOM     66  C   UNL A   1      36.878  29.882  27.672  1.00  0.00     0.040 A 
ATOM     67  C   UNL A   1      36.554  29.367  30.002  1.00  0.00     0.040 A 
ATOM     68  F   UNL A   1      38.378  28.714  31.326  1.00  0.00    -0.206 F 
ATOM     69  C   UNL A   1      36.032  29.772  28.775  1.00  0.00     0.006 A 
ENDBRANCH  48  62
BRANCH  49  70
ATOM     70  C   UNL A   1      48.423  26.642  29.514  1.00  0.00     0.057 A 
ATOM     71  C   UNL A   1      49.277  26.945  28.448  1.00  0.00     0.134 A 
ATOM     72  C   UNL A   1      48.976  25.988  30.620  1.00  0.00     0.134 A 
ATOM     73  F   UNL A   1      48.800  27.556  27.354  1.00  0.00    -0.206 F 
ATOM     74  C   UNL A   1      50.627  26.593  28.471  1.00  0.00     0.040 A 
ATOM     75  C   UNL A   1      50.329  25.650  30.666  1.00  0.00     0.040 A 
ATOM     76  F   UNL A   1      48.211  25.679  31.677  1.00  0.00    -0.206 F 
ATOM     77  C   UNL A   1      51.157  25.946  29.585  1.00  0.00     0.006 A 
ENDBRANCH  49  70
BRANCH  61  78
ATOM     78  C   UNL A   1      44.856  32.354  31.270  1.00  0.00     0.057 A 
ATOM     79  C   UNL A   1      44.935  32.530  32.657  1.00  0.00     0.134 A 
ATOM     80  C   UNL A   1      45.226  33.431  30.455  1.00  0.00     0.134 A 
ATOM     81  F   UNL A   1      44.580  31.539  33.489  1.00  0.00    -0.206 F 
ATOM     82  C   UNL A   1      45.352  33.740  33.213  1.00  0.00     0.040 A 
ATOM     83  C   UNL A   1      45.667  34.638  31.000  1.00  0.00     0.040 A 
ATOM     84  F   UNL A   1      45.180  33.322  29.119  1.00  0.00    -0.206 F 
ATOM     85  C   UNL A   1      45.727  34.796  32.382  1.00  0.00     0.006 A 
ENDBRANCH  61  78
ENDBRANCH  35  36
ENDBRANCH  27  30
ENDBRANCH  25  26
ENDBRANCH  24  25
ENDBRANCH  23  24
ENDBRANCH   1  23
TORSDOF 15
ENDMDL
MODEL 2
REMARK VINA RESULT:     -11.3      4.409      9.021
REMARK SMILES Cc1oc(CSc2ccncc2N)cc1C(=O)NCCCCNC(=O)c1ccc(-c2c3nc(c(-c4c(F)cccc4F)c4ccc([nH]4)c(-c4c(F)cccc4F)c4nc(c(-c5c(F)cccc5F)c5ccc2[nH]5)C=C4)C=C3)cc1
REMARK SMILES IDX 19 1 18 2 16 3 17 4 15 6 1 7 2 8 3 9 4 10 14 11 5 12 6 13
REMARK SMILES IDX 7 14 8 15 12 16 9 17 11 18 10 19 13 20 20 23 21 24 22 25
REMARK SMILES IDX 23 26 24 27 25 29 26 30 27 31 79 32 28 33 78 34 29 35 30 36
REMARK SMILES IDX 31 37 72 38 32 39 77 40 71 41 73 42 33 43 76 44 70 45 69 46
REMARK SMILES IDX 34 48 60 49 43 50 59 51 44 52 47 53 58 54 74 55 45 56 46 57
REMARK SMILES IDX 57 59 75 60 48 61 35 62 36 63 41 64 37 65 38 66 40 67 42 68
REMARK SMILES IDX 39 69 61 70 62 71 67 72 63 73 64 74 66 75 68 76 65 77 49 78
REMARK SMILES IDX 50 79 55 80 51 81 52 82 54 83 56 84 53 85
REMARK H PARENT 18 5 13 21 13 22 23 28 73 47 47 58
REMARK Flexibility Score: inf
ROOT
ATOM      1  C   UNL A   1      33.207  29.914  26.808  1.00  0.00     0.116 C 
ENDROOT
BRANCH   1   2
ATOM      2  N   UNL A   1      33.669  29.559  25.494  1.00  0.00    -0.352 N 
ATOM      3  C   UNL A   1      33.337  28.568  24.618  1.00  0.00     0.254 C 
ATOM      4  O   UNL A   1      33.949  28.625  23.544  1.00  0.00    -0.269 OA
ATOM      5  H   UNL A   1      34.374  30.157  25.155  1.00  0.00     0.163 HD
BRANCH   3   6
ATOM      6  C   UNL A   1      32.339  27.514  24.819  1.00  0.00     0.081 A 
ATOM      7  C   UNL A   1      29.994  27.781  23.511  1.00  0.00     0.088 C 
ATOM      8  C   UNL A   1      31.041  27.229  24.392  1.00  0.00     0.113 A 
ATOM      9  O   UNL A   1      30.580  26.091  25.006  1.00  0.00    -0.465 OA
ATOM     10  C   UNL A   1      31.537  25.642  25.847  1.00  0.00     0.115 A 
ATOM     11  C   UNL A   1      32.644  26.437  25.726  1.00  0.00     0.060 A 
BRANCH  10  12
ATOM     12  C   UNL A   1      31.257  24.427  26.642  1.00  0.00     0.150 C 
BRANCH  12  13
ATOM     13  S   UNL A   1      31.475  22.819  25.810  1.00  0.00    -0.116 SA
BRANCH  13  14
ATOM     14  C   UNL A   1      32.561  23.097  24.405  1.00  0.00     0.034 A 
ATOM     15  C   UNL A   1      33.894  22.708  24.615  1.00  0.00     0.037 A 
ATOM     16  C   UNL A   1      32.188  23.572  23.138  1.00  0.00     0.064 A 
ATOM     17  C   UNL A   1      34.813  22.836  23.587  1.00  0.00     0.112 A 
ATOM     18  C   UNL A   1      33.211  23.681  22.188  1.00  0.00     0.137 A 
ATOM     19  N   UNL A   1      34.506  23.334  22.377  1.00  0.00    -0.262 NA
BRANCH  16  20
ATOM     20  N   UNL A   1      30.874  23.819  22.760  1.00  0.00    -0.397 N 
ATOM     21  H   UNL A   1      30.687  24.329  21.938  1.00  0.00     0.156 HD
ATOM     22  H   UNL A   1      30.131  23.487  23.314  1.00  0.00     0.156 HD
ENDBRANCH  16  20
ENDBRANCH  13  14
ENDBRANCH  12  13
ENDBRANCH  10  12
ENDBRANCH   3   6
ENDBRANCH   1   2
BRANCH   1  23
ATOM     23  C   UNL A   1      31.758  30.399  26.750  1.00  0.00     0.023 C 
BRANCH  23  24
ATOM     24  C   UNL A   1      31.591  31.918  26.662  1.00  0.00     0.023 C 
BRANCH  24  25
ATOM     25  C   UNL A   1      32.746  32.722  27.251  1.00  0.00     0.116 C 
BRANCH  25  26
ATOM     26  N   UNL A   1      32.389  34.088  27.607  1.00  0.00    -0.352 N 
ATOM     27  C   UNL A   1      32.983  34.901  28.542  1.00  0.00     0.251 C 
ATOM     28  H   UNL A   1      31.630  34.477  27.117  1.00  0.00     0.163 HD
ATOM     29  O   UNL A   1      32.523  36.010  28.794  1.00  0.00    -0.269 OA
BRANCH  27  30
ATOM     30  C   UNL A   1      34.155  34.394  29.278  1.00  0.00     0.039 A 
ATOM     31  C   UNL A   1      33.949  33.664  30.450  1.00  0.00     0.014 A 
ATOM     32  C   UNL A   1      35.443  34.582  28.770  1.00  0.00     0.014 A 
ATOM     33  C   UNL A   1      35.034  33.052  31.074  1.00  0.00     0.010 A 
ATOM     34  C   UNL A   1      36.512  33.916  29.356  1.00  0.00     0.010 A 
ATOM     35  C   UNL A   1      36.317  33.140  30.509  1.00  0.00    -0.014 A 
BRANCH  35  36
ATOM     36  C   UNL A   1      37.468  32.419  31.100  1.00  0.00     0.031 A 
ATOM     37  C   UNL A   1      38.080  32.905  32.383  1.00  0.00     0.074 A 
ATOM     38  C   UNL A   1      38.011  31.377  30.441  1.00  0.00     0.049 A 
ATOM     39  N   UNL A   1      39.141  32.465  33.010  1.00  0.00    -0.248 NA
ATOM     40  C   UNL A   1      37.433  34.058  33.028  1.00  0.00     0.031 C 
ATOM     41  C   UNL A   1      37.540  30.846  29.159  1.00  0.00     0.029 A 
ATOM     42  N   UNL A   1      39.086  30.585  30.752  1.00  0.00    -0.354 N 
ATOM     43  C   UNL A   1      39.298  33.299  34.110  1.00  0.00     0.074 A 
ATOM     44  C   UNL A   1      38.255  34.298  34.038  1.00  0.00     0.031 C 
ATOM     45  C   UNL A   1      38.311  29.805  28.805  1.00  0.00     0.029 A 
ATOM     46  C   UNL A   1      39.346  29.615  29.815  1.00  0.00     0.049 A 
ATOM     47  H   UNL A   1      39.622  30.702  31.570  1.00  0.00     0.167 HD
ATOM     48  C   UNL A   1      40.215  33.222  35.102  1.00  0.00     0.037 A 
ATOM     49  C   UNL A   1      40.314  28.680  29.776  1.00  0.00     0.037 A 
ATOM     50  C   UNL A   1      41.229  32.205  35.190  1.00  0.00     0.049 A 
ATOM     51  C   UNL A   1      41.308  28.604  30.900  1.00  0.00     0.074 A 
ATOM     52  C   UNL A   1      42.165  32.005  36.189  1.00  0.00     0.029 A 
ATOM     53  N   UNL A   1      41.436  31.216  34.241  1.00  0.00    -0.354 N 
ATOM     54  N   UNL A   1      41.405  29.357  31.969  1.00  0.00    -0.248 NA
ATOM     55  C   UNL A   1      42.322  27.544  30.817  1.00  0.00     0.031 C 
ATOM     56  C   UNL A   1      42.958  30.910  35.829  1.00  0.00     0.029 A 
ATOM     57  C   UNL A   1      42.493  30.408  34.624  1.00  0.00     0.049 A 
ATOM     58  H   UNL A   1      40.911  31.105  33.416  1.00  0.00     0.167 HD
ATOM     59  C   UNL A   1      42.470  28.846  32.698  1.00  0.00     0.074 A 
ATOM     60  C   UNL A   1      42.981  27.713  31.956  1.00  0.00     0.031 C 
ATOM     61  C   UNL A   1      42.978  29.275  33.879  1.00  0.00     0.037 A 
BRANCH  48  62
ATOM     62  C   UNL A   1      40.154  34.265  36.178  1.00  0.00     0.057 A 
ATOM     63  C   UNL A   1      40.874  35.463  36.085  1.00  0.00     0.134 A 
ATOM     64  C   UNL A   1      39.346  34.082  37.307  1.00  0.00     0.134 A 
ATOM     65  F   UNL A   1      41.677  35.693  35.035  1.00  0.00    -0.206 F 
ATOM     66  C   UNL A   1      40.815  36.430  37.089  1.00  0.00     0.040 A 
ATOM     67  C   UNL A   1      39.259  35.053  38.307  1.00  0.00     0.040 A 
ATOM     68  F   UNL A   1      38.628  32.959  37.457  1.00  0.00    -0.206 F 
ATOM     69  C   UNL A   1      40.000  36.229  38.202  1.00  0.00     0.006 A 
ENDBRANCH  48  62
BRANCH  49  70
ATOM     70  C   UNL A   1      40.370  27.718  28.648  1.00  0.00     0.057 A 
ATOM     71  C   UNL A   1      41.142  27.988  27.512  1.00  0.00     0.134 A 
ATOM     72  C   UNL A   1      39.655  26.515  28.672  1.00  0.00     0.134 A 
ATOM     73  F   UNL A   1      41.835  29.132  27.424  1.00  0.00    -0.206 F 
ATOM     74  C   UNL A   1      41.188  27.105  26.433  1.00  0.00     0.040 A 
ATOM     75  C   UNL A   1      39.708  25.612  27.610  1.00  0.00     0.040 A 
ATOM     76  F   UNL A   1      38.903  26.196  29.736  1.00  0.00    -0.206 F 
ATOM     77  C   UNL A   1      40.471  25.911  26.482  1.00  0.00     0.006 A 
ENDBRANCH  49  70
BRANCH  61  78
ATOM     78  C   UNL A   1      44.117  28.494  34.460  1.00  0.00     0.057 A 
ATOM     79  C   UNL A   1      43.907  27.383  35.285  1.00  0.00     0.134 A 
ATOM     80  C   UNL A   1      45.441  28.833  34.149  1.00  0.00     0.134 A 
ATOM     81  F   UNL A   1      42.663  27.018  35.630  1.00  0.00    -0.206 F 
ATOM     82  C   UNL A   1      44.976  26.645  35.796  1.00  0.00     0.040 A 
ATOM     83  C   UNL A   1      46.516  28.088  34.634  1.00  0.00     0.040 A 
ATOM     84  F   UNL A   1      45.708  29.882  33.356  1.00  0.00    -0.206 F 
ATOM     85  C   UNL A   1      46.285  26.993  35.464  1.00  0.00     0.006 A 
ENDBRANCH  61  78
ENDBRANCH  35  36
ENDBRANCH  27  30
ENDBRANCH  25  26
ENDBRANCH  24  25
ENDBRANCH  23  24
ENDBRANCH   1  23
TORSDOF 15
ENDMDL
MODEL 3
REMARK VINA RESULT:     -11.2      4.283      9.193
REMARK SMILES Cc1oc(CSc2ccncc2N)cc1C(=O)NCCCCNC(=O)c1ccc(-c2c3nc(c(-c4c(F)cccc4F)c4ccc([nH]4)c(-c4c(F)cccc4F)c4nc(c(-c5c(F)cccc5F)c5ccc2[nH]5)C=C4)C=C3)cc1
REMARK SMILES IDX 19 1 18 2 16 3 17 4 15 6 1 7 2 8 3 9 4 10 14 11 5 12 6 13
REMARK SMILES IDX 7 14 8 15 12 16 9 17 11 18 10 19 13 20 20 23 21 24 22 25
REMARK SMILES IDX 23 26 24 27 25 29 26 30 27 31 79 32 28 33 78 34 29 35 30 36
REMARK SMILES IDX 31 37 72 38 32 39 77 40 71 41 73 42 33 43 76 44 70 45 69 46
REMARK SMILES IDX 34 48 60 49 43 50 59 51 44 52 47 53 58 54 74 55 45 56 46 57
REMARK SMILES IDX 57 59 75 60 48 61 35 62 36 63 41 64 37 65 38 66 40 67 42 68
REMARK SMILES IDX 39 69 61 70 62 71 67 72 63 73 64 74 66 75 68 76 65 77 49 78
REMARK SMILES IDX 50 79 55 80 51 81 52 82 54 83 56 84 53 85
REMARK H PARENT 18 5 13 21 13 22 23 28 73 47 47 58
REMARK Flexibility Score: inf
ROOT
ATOM      1  C   UNL A   1      33.185  29.895  26.819  1.00  0.00     0.116 C 
ENDROOT
BRANCH   1   2
ATOM      2  N   UNL A   1      33.754  29.474  25.568  1.00  0.00    -0.352 N 
ATOM      3  C   UNL A   1      33.566  28.385  24.770  1.00  0.00     0.254 C 
ATOM      4  O   UNL A   1      34.233  28.408  23.728  1.00  0.00    -0.269 OA
ATOM      5  H   UNL A   1      34.421  30.105  25.213  1.00  0.00     0.163 HD
BRANCH   3   6
ATOM      6  C   UNL A   1      32.656  27.263  25.014  1.00  0.00     0.081 A 
ATOM      7  C   UNL A   1      30.197  27.416  23.916  1.00  0.00     0.088 C 
ATOM      8  C   UNL A   1      31.347  26.907  24.686  1.00  0.00     0.113 A 
ATOM      9  O   UNL A   1      31.012  25.723  25.293  1.00  0.00    -0.465 OA
ATOM     10  C   UNL A   1      32.063  25.311  26.035  1.00  0.00     0.115 A 
ATOM     11  C   UNL A   1      33.104  26.180  25.852  1.00  0.00     0.060 A 
BRANCH  10  12
ATOM     12  C   UNL A   1      31.928  24.056  26.805  1.00  0.00     0.150 C 
BRANCH  12  13
ATOM     13  S   UNL A   1      33.280  22.839  26.659  1.00  0.00    -0.116 SA
BRANCH  13  14
ATOM     14  C   UNL A   1      32.840  21.724  25.319  1.00  0.00     0.034 A 
ATOM     15  C   UNL A   1      32.623  22.357  24.084  1.00  0.00     0.037 A 
ATOM     16  C   UNL A   1      32.781  20.324  25.379  1.00  0.00     0.064 A 
ATOM     17  C   UNL A   1      32.320  21.593  22.970  1.00  0.00     0.112 A 
ATOM     18  C   UNL A   1      32.440  19.663  24.192  1.00  0.00     0.137 A 
ATOM     19  N   UNL A   1      32.204  20.255  22.998  1.00  0.00    -0.262 NA
BRANCH  16  20
ATOM     20  N   UNL A   1      33.147  19.581  26.494  1.00  0.00    -0.397 N 
ATOM     21  H   UNL A   1      33.684  19.997  27.208  1.00  0.00     0.156 HD
ATOM     22  H   UNL A   1      32.872  18.638  26.571  1.00  0.00     0.156 HD
ENDBRANCH  16  20
ENDBRANCH  13  14
ENDBRANCH  12  13
ENDBRANCH  10  12
ENDBRANCH   3   6
ENDBRANCH   1   2
BRANCH   1  23
ATOM     23  C   UNL A   1      31.758  30.404  26.611  1.00  0.00     0.023 C 
BRANCH  23  24
ATOM     24  C   UNL A   1      31.615  31.928  26.588  1.00  0.00     0.023 C 
BRANCH  24  25
ATOM     25  C   UNL A   1      32.725  32.683  27.312  1.00  0.00     0.116 C 
BRANCH  25  26
ATOM     26  N   UNL A   1      32.369  34.050  27.669  1.00  0.00    -0.352 N 
ATOM     27  C   UNL A   1      32.993  34.879  28.567  1.00  0.00     0.251 C 
ATOM     28  H   UNL A   1      31.584  34.425  27.208  1.00  0.00     0.163 HD
ATOM     29  O   UNL A   1      32.533  35.986  28.827  1.00  0.00    -0.269 OA
BRANCH  27  30
ATOM     30  C   UNL A   1      34.202  34.394  29.257  1.00  0.00     0.039 A 
ATOM     31  C   UNL A   1      34.057  33.696  30.457  1.00  0.00     0.014 A 
ATOM     32  C   UNL A   1      35.463  34.568  28.679  1.00  0.00     0.014 A 
ATOM     33  C   UNL A   1      35.174  33.101  31.043  1.00  0.00     0.010 A 
ATOM     34  C   UNL A   1      36.561  33.919  29.229  1.00  0.00     0.010 A 
ATOM     35  C   UNL A   1      36.426  33.174  30.411  1.00  0.00    -0.014 A 
BRANCH  35  36
ATOM     36  C   UNL A   1      37.607  32.470  30.963  1.00  0.00     0.031 A 
ATOM     37  C   UNL A   1      38.278  32.988  32.203  1.00  0.00     0.074 A 
ATOM     38  C   UNL A   1      38.122  31.415  30.303  1.00  0.00     0.049 A 
ATOM     39  N   UNL A   1      39.369  32.566  32.789  1.00  0.00    -0.248 NA
ATOM     40  C   UNL A   1      37.658  34.154  32.852  1.00  0.00     0.031 C 
ATOM     41  C   UNL A   1      37.592  30.854  29.057  1.00  0.00     0.029 A 
ATOM     42  N   UNL A   1      39.214  30.634  30.580  1.00  0.00    -0.354 N 
ATOM     43  C   UNL A   1      39.576  33.425  33.860  1.00  0.00     0.074 A 
ATOM     44  C   UNL A   1      38.527  34.419  33.815  1.00  0.00     0.031 C 
ATOM     45  C   UNL A   1      38.349  29.807  28.691  1.00  0.00     0.029 A 
ATOM     46  C   UNL A   1      39.432  29.643  29.654  1.00  0.00     0.049 A 
ATOM     47  H   UNL A   1      39.788  30.771  31.368  1.00  0.00     0.167 HD
ATOM     48  C   UNL A   1      40.540  33.374  34.808  1.00  0.00     0.037 A 
ATOM     49  C   UNL A   1      40.400  28.709  29.590  1.00  0.00     0.037 A 
ATOM     50  C   UNL A   1      41.561  32.362  34.871  1.00  0.00     0.049 A 
ATOM     51  C   UNL A   1      41.447  28.663  30.666  1.00  0.00     0.074 A 
ATOM     52  C   UNL A   1      42.543  32.187  35.829  1.00  0.00     0.029 A 
ATOM     53  N   UNL A   1      41.726  31.352  33.936  1.00  0.00    -0.354 N 
ATOM     54  N   UNL A   1      41.593  29.440  31.712  1.00  0.00    -0.248 NA
ATOM     55  C   UNL A   1      42.461  27.604  30.559  1.00  0.00     0.031 C 
ATOM     56  C   UNL A   1      43.323  31.087  35.456  1.00  0.00     0.029 A 
ATOM     57  C   UNL A   1      42.803  30.556  34.287  1.00  0.00     0.049 A 
ATOM     58  H   UNL A   1      41.162  31.220  33.140  1.00  0.00     0.167 HD
ATOM     59  C   UNL A   1      42.693  28.949  32.401  1.00  0.00     0.074 A 
ATOM     60  C   UNL A   1      43.172  27.801  31.661  1.00  0.00     0.031 C 
ATOM     61  C   UNL A   1      43.255  29.407  33.546  1.00  0.00     0.037 A 
BRANCH  48  62
ATOM     62  C   UNL A   1      40.526  34.441  35.862  1.00  0.00     0.057 A 
ATOM     63  C   UNL A   1      39.793  34.296  37.048  1.00  0.00     0.134 A 
ATOM     64  C   UNL A   1      41.272  35.615  35.703  1.00  0.00     0.134 A 
ATOM     65  F   UNL A   1      39.046  33.201  37.255  1.00  0.00    -0.206 F 
ATOM     66  C   UNL A   1      39.782  35.292  38.025  1.00  0.00     0.040 A 
ATOM     67  C   UNL A   1      41.289  36.607  36.685  1.00  0.00     0.040 A 
ATOM     68  F   UNL A   1      41.999  35.815  34.593  1.00  0.00    -0.206 F 
ATOM     69  C   UNL A   1      40.538  36.450  37.848  1.00  0.00     0.006 A 
ENDBRANCH  48  62
BRANCH  49  70
ATOM     70  C   UNL A   1      40.406  27.722  28.483  1.00  0.00     0.057 A 
ATOM     71  C   UNL A   1      41.122  27.967  27.306  1.00  0.00     0.134 A 
ATOM     72  C   UNL A   1      39.698  26.519  28.569  1.00  0.00     0.134 A 
ATOM     73  F   UNL A   1      41.806  29.111  27.159  1.00  0.00    -0.206 F 
ATOM     74  C   UNL A   1      41.120  27.060  26.246  1.00  0.00     0.040 A 
ATOM     75  C   UNL A   1      39.703  25.592  27.526  1.00  0.00     0.040 A 
ATOM     76  F   UNL A   1      38.998  26.222  29.675  1.00  0.00    -0.206 F 
ATOM     77  C   UNL A   1      40.411  25.865  26.356  1.00  0.00     0.006 A 
ENDBRANCH  49  70
BRANCH  61  78
ATOM     78  C   UNL A   1      44.425  28.643  34.089  1.00  0.00     0.057 A 
ATOM     79  C   UNL A   1      45.744  28.987  33.769  1.00  0.00     0.134 A 
ATOM     80  C   UNL A   1      44.227  27.581  34.980  1.00  0.00     0.134 A 
ATOM     81  F   UNL A   1      45.997  29.986  32.911  1.00  0.00    -0.206 F 
ATOM     82  C   UNL A   1      46.827  28.288  34.304  1.00  0.00     0.040 A 
ATOM     83  C   UNL A   1      45.302  26.890  35.540  1.00  0.00     0.040 A 
ATOM     84  F   UNL A   1      42.987  27.208  35.332  1.00  0.00    -0.206 F 
ATOM     85  C   UNL A   1      46.606  27.240  35.199  1.00  0.00     0.006 A 
ENDBRANCH  61  78
ENDBRANCH  35  36
ENDBRANCH  27  30
ENDBRANCH  25  26
ENDBRANCH  24  25
ENDBRANCH  23  24
ENDBRANCH   1  23
TORSDOF 15
ENDMDL
