MODEL 1
REMARK VINA RESULT:     -12.3      0.000      0.000
REMARK SMILES O=C(NCCCCNC(=O)c1cccnc1Nc1cccc(C(F)(F)F)c1)c1ccc(-c2c3nc(c(-c4c(F)cccc4F)c4ccc([nH]4)c(-c4c(F)cccc4F)c4nc(c(-c5c(F)cccc5F)c5ccc2[nH]5)C=C4)C=C3)cc1
REMARK SMILES IDX 6 1 5 2 4 3 3 4 1 5 2 6 28 8 29 9 81 10 30 11 80 12 31 13
REMARK SMILES IDX 32 14 33 15 74 16 34 17 79 18 73 19 75 20 35 21 78 22 72 23
REMARK SMILES IDX 71 24 36 26 62 27 45 28 61 29 46 30 49 31 60 32 76 33 47 34
REMARK SMILES IDX 48 35 59 37 77 38 50 39 37 40 38 41 43 42 39 43 40 44 42 45
REMARK SMILES IDX 44 46 41 47 63 48 64 49 69 50 65 51 66 52 68 53 70 54 67 55
REMARK SMILES IDX 51 56 52 57 57 58 53 59 54 60 56 61 58 62 55 63 7 64 8 65
REMARK SMILES IDX 9 66 10 68 11 69 12 70 16 71 13 72 15 73 14 74 17 75 18 77
REMARK SMILES IDX 19 78 27 79 20 80 22 81 21 82 23 83 24 84 25 85 26 86
REMARK H PARENT 3 7 75 25 49 36 8 67 17 76
REMARK Flexibility Score: inf
ROOT
ATOM      1  C   UNL A   1      31.580  30.353  26.046  1.00  0.00     0.023 C 
ENDROOT
BRANCH   1   2
ATOM      2  C   UNL A   1      31.395  31.788  26.537  1.00  0.00     0.023 C 
BRANCH   2   3
ATOM      3  C   UNL A   1      32.640  32.443  27.120  1.00  0.00     0.116 C 
BRANCH   3   4
ATOM      4  N   UNL A   1      32.424  33.819  27.541  1.00  0.00    -0.352 N 
ATOM      5  O   UNL A   1      32.710  35.676  28.793  1.00  0.00    -0.269 OA
ATOM      6  C   UNL A   1      33.101  34.555  28.486  1.00  0.00     0.251 C 
ATOM      7  H   UNL A   1      31.691  34.291  27.084  1.00  0.00     0.163 HD
BRANCH   6   8
ATOM      8  C   UNL A   1      34.283  33.973  29.159  1.00  0.00     0.039 A 
ATOM      9  C   UNL A   1      35.569  34.402  28.831  1.00  0.00     0.014 A 
ATOM     10  C   UNL A   1      34.099  32.972  30.117  1.00  0.00     0.014 A 
ATOM     11  C   UNL A   1      36.671  33.723  29.338  1.00  0.00     0.010 A 
ATOM     12  C   UNL A   1      35.211  32.350  30.695  1.00  0.00     0.010 A 
ATOM     13  C   UNL A   1      36.505  32.695  30.281  1.00  0.00    -0.014 A 
BRANCH  13  14
ATOM     14  C   UNL A   1      37.713  32.041  30.847  1.00  0.00     0.031 A 
ATOM     15  C   UNL A   1      38.187  32.344  32.241  1.00  0.00     0.074 A 
ATOM     16  C   UNL A   1      38.349  31.117  30.103  1.00  0.00     0.049 A 
ATOM     17  N   UNL A   1      39.187  31.813  32.902  1.00  0.00    -0.248 NA
ATOM     18  C   UNL A   1      37.455  33.375  32.991  1.00  0.00     0.031 C 
ATOM     19  C   UNL A   1      37.991  30.753  28.729  1.00  0.00     0.029 A 
ATOM     20  N   UNL A   1      39.405  30.295  30.400  1.00  0.00    -0.354 N 
ATOM     21  C   UNL A   1      39.209  32.448  34.137  1.00  0.00     0.074 A 
ATOM     22  C   UNL A   1      38.143  33.427  34.125  1.00  0.00     0.031 C 
ATOM     23  C   UNL A   1      38.776  29.744  28.323  1.00  0.00     0.029 A 
ATOM     24  C   UNL A   1      39.726  29.429  29.383  1.00  0.00     0.049 A 
ATOM     25  H   UNL A   1      39.886  30.322  31.258  1.00  0.00     0.167 HD
ATOM     26  C   UNL A   1      40.038  32.228  35.187  1.00  0.00     0.037 A 
ATOM     27  C   UNL A   1      40.685  28.489  29.307  1.00  0.00     0.037 A 
ATOM     28  C   UNL A   1      41.094  31.248  35.199  1.00  0.00     0.049 A 
ATOM     29  C   UNL A   1      41.587  28.268  30.484  1.00  0.00     0.074 A 
ATOM     30  C   UNL A   1      41.983  30.949  36.218  1.00  0.00     0.029 A 
ATOM     31  N   UNL A   1      41.401  30.403  34.143  1.00  0.00    -0.354 N 
ATOM     32  N   UNL A   1      41.584  28.868  31.648  1.00  0.00    -0.248 NA
ATOM     33  C   UNL A   1      42.625  27.241  30.337  1.00  0.00     0.031 C 
ATOM     34  C   UNL A   1      42.847  29.944  35.767  1.00  0.00     0.029 A 
ATOM     35  C   UNL A   1      42.471  29.590  34.482  1.00  0.00     0.049 A 
ATOM     36  H   UNL A   1      40.928  30.385  33.279  1.00  0.00     0.167 HD
ATOM     37  C   UNL A   1      42.614  28.290  32.374  1.00  0.00     0.074 A 
ATOM     38  C   UNL A   1      43.201  27.269  31.530  1.00  0.00     0.031 C 
ATOM     39  C   UNL A   1      43.044  28.584  33.626  1.00  0.00     0.037 A 
BRANCH  26  40
ATOM     40  C   UNL A   1      39.839  33.066  36.417  1.00  0.00     0.057 A 
ATOM     41  C   UNL A   1      40.543  34.260  36.614  1.00  0.00     0.134 A 
ATOM     42  C   UNL A   1      38.894  32.706  37.385  1.00  0.00     0.134 A 
ATOM     43  F   UNL A   1      41.472  34.656  35.730  1.00  0.00    -0.206 F 
ATOM     44  C   UNL A   1      40.324  35.060  37.737  1.00  0.00     0.040 A 
ATOM     45  C   UNL A   1      38.650  33.508  38.502  1.00  0.00     0.040 A 
ATOM     46  F   UNL A   1      38.179  31.578  37.253  1.00  0.00    -0.206 F 
ATOM     47  C   UNL A   1      39.368  34.688  38.682  1.00  0.00     0.006 A 
ENDBRANCH  26  40
BRANCH  27  48
ATOM     48  C   UNL A   1      40.838  27.694  28.064  1.00  0.00     0.057 A 
ATOM     49  C   UNL A   1      40.200  26.459  27.909  1.00  0.00     0.134 A 
ATOM     50  C   UNL A   1      41.618  28.157  26.998  1.00  0.00     0.134 A 
ATOM     51  F   UNL A   1      39.450  25.955  28.902  1.00  0.00    -0.206 F 
ATOM     52  C   UNL A   1      40.343  25.704  26.744  1.00  0.00     0.040 A 
ATOM     53  C   UNL A   1      41.749  27.427  25.817  1.00  0.00     0.040 A 
ATOM     54  F   UNL A   1      42.247  29.339  27.083  1.00  0.00    -0.206 F 
ATOM     55  C   UNL A   1      41.116  26.193  25.690  1.00  0.00     0.006 A 
ENDBRANCH  27  48
BRANCH  39  56
ATOM     56  C   UNL A   1      44.193  27.779  34.150  1.00  0.00     0.057 A 
ATOM     57  C   UNL A   1      43.996  26.551  34.794  1.00  0.00     0.134 A 
ATOM     58  C   UNL A   1      45.510  28.232  34.005  1.00  0.00     0.134 A 
ATOM     59  F   UNL A   1      42.757  26.071  34.979  1.00  0.00    -0.206 F 
ATOM     60  C   UNL A   1      45.068  25.814  35.299  1.00  0.00     0.040 A 
ATOM     61  C   UNL A   1      46.591  27.494  34.485  1.00  0.00     0.040 A 
ATOM     62  F   UNL A   1      45.765  29.398  33.392  1.00  0.00    -0.206 F 
ATOM     63  C   UNL A   1      46.371  26.284  35.142  1.00  0.00     0.006 A 
ENDBRANCH  39  56
ENDBRANCH  13  14
ENDBRANCH   6   8
ENDBRANCH   3   4
ENDBRANCH   2   3
ENDBRANCH   1   2
BRANCH   1  64
ATOM     64  C   UNL A   1      33.029  29.886  25.933  1.00  0.00     0.116 C 
BRANCH  64  65
ATOM     65  N   UNL A   1      33.449  29.732  24.549  1.00  0.00    -0.352 N 
ATOM     66  C   UNL A   1      33.613  28.578  23.825  1.00  0.00     0.255 C 
ATOM     67  H   UNL A   1      33.639  30.569  24.066  1.00  0.00     0.163 HD
ATOM     68  O   UNL A   1      34.216  28.602  22.755  1.00  0.00    -0.269 OA
BRANCH  66  69
ATOM     69  C   UNL A   1      33.090  27.301  24.337  1.00  0.00     0.082 A 
ATOM     70  C   UNL A   1      33.804  26.598  25.317  1.00  0.00     0.019 A 
ATOM     71  C   UNL A   1      31.863  26.806  23.882  1.00  0.00     0.143 A 
ATOM     72  C   UNL A   1      33.332  25.366  25.749  1.00  0.00     0.021 A 
ATOM     73  N   UNL A   1      31.418  25.594  24.304  1.00  0.00    -0.238 NA
ATOM     74  C   UNL A   1      32.150  24.904  25.206  1.00  0.00     0.113 A 
BRANCH  71  75
ATOM     75  N   UNL A   1      31.127  27.493  22.892  1.00  0.00    -0.340 N 
ATOM     76  H   UNL A   1      31.500  27.475  21.982  1.00  0.00     0.168 HD
BRANCH  75  77
ATOM     77  C   UNL A   1      29.925  28.201  23.061  1.00  0.00     0.040 A 
ATOM     78  C   UNL A   1      28.727  27.496  23.207  1.00  0.00     0.026 A 
ATOM     79  C   UNL A   1      29.881  29.599  23.011  1.00  0.00     0.039 A 
ATOM     80  C   UNL A   1      27.518  28.174  23.369  1.00  0.00     0.003 A 
ATOM     81  C   UNL A   1      28.672  30.296  23.149  1.00  0.00     0.058 A 
ATOM     82  C   UNL A   1      27.490  29.568  23.345  1.00  0.00     0.013 A 
BRANCH  81  83
ATOM     83  C   UNL A   1      28.643  31.802  23.105  1.00  0.00     0.416 C 
ATOM     84  F   UNL A   1      27.407  32.307  23.382  1.00  0.00    -0.166 F 
ATOM     85  F   UNL A   1      29.486  32.368  24.011  1.00  0.00    -0.166 F 
ATOM     86  F   UNL A   1      28.989  32.325  21.895  1.00  0.00    -0.166 F 
ENDBRANCH  81  83
ENDBRANCH  75  77
ENDBRANCH  71  75
ENDBRANCH  66  69
ENDBRANCH  64  65
ENDBRANCH   1  64
TORSDOF 14
ENDMDL
MODEL 2
REMARK VINA RESULT:     -12.2      5.381     10.104
REMARK SMILES O=C(NCCCCNC(=O)c1cccnc1Nc1cccc(C(F)(F)F)c1)c1ccc(-c2c3nc(c(-c4c(F)cccc4F)c4ccc([nH]4)c(-c4c(F)cccc4F)c4nc(c(-c5c(F)cccc5F)c5ccc2[nH]5)C=C4)C=C3)cc1
REMARK SMILES IDX 6 1 5 2 4 3 3 4 1 5 2 6 28 8 29 9 81 10 30 11 80 12 31 13
REMARK SMILES IDX 32 14 33 15 74 16 34 17 79 18 73 19 75 20 35 21 78 22 72 23
REMARK SMILES IDX 71 24 36 26 62 27 45 28 61 29 46 30 49 31 60 32 76 33 47 34
REMARK SMILES IDX 48 35 59 37 77 38 50 39 37 40 38 41 43 42 39 43 40 44 42 45
REMARK SMILES IDX 44 46 41 47 63 48 64 49 69 50 65 51 66 52 68 53 70 54 67 55
REMARK SMILES IDX 51 56 52 57 57 58 53 59 54 60 56 61 58 62 55 63 7 64 8 65
REMARK SMILES IDX 9 66 10 68 11 69 12 70 16 71 13 72 15 73 14 74 17 75 18 77
REMARK SMILES IDX 19 78 27 79 20 80 22 81 21 82 23 83 24 84 25 85 26 86
REMARK H PARENT 3 7 75 25 49 36 8 67 17 76
REMARK Flexibility Score: inf
ROOT
ATOM      1  C   UNL A   1      38.851  22.658  26.172  1.00  0.00     0.023 C 
ENDROOT
BRANCH   1   2
ATOM      2  C   UNL A   1      38.871  21.328  25.419  1.00  0.00     0.023 C 
BRANCH   2   3
ATOM      3  C   UNL A   1      39.093  20.094  26.282  1.00  0.00     0.116 C 
BRANCH   3   4
ATOM      4  N   UNL A   1      40.244  19.304  25.874  1.00  0.00    -0.352 N 
ATOM      5  O   UNL A   1      42.416  18.881  25.419  1.00  0.00    -0.269 OA
ATOM      6  C   UNL A   1      41.580  19.634  25.910  1.00  0.00     0.251 C 
ATOM      7  H   UNL A   1      40.040  18.407  25.524  1.00  0.00     0.163 HD
BRANCH   6   8
ATOM      8  C   UNL A   1      42.002  20.917  26.510  1.00  0.00     0.039 A 
ATOM      9  C   UNL A   1      41.949  21.106  27.891  1.00  0.00     0.014 A 
ATOM     10  C   UNL A   1      42.438  21.951  25.676  1.00  0.00     0.014 A 
ATOM     11  C   UNL A   1      42.176  22.371  28.422  1.00  0.00     0.010 A 
ATOM     12  C   UNL A   1      42.754  23.200  26.222  1.00  0.00     0.010 A 
ATOM     13  C   UNL A   1      42.588  23.429  27.595  1.00  0.00    -0.014 A 
BRANCH  13  14
ATOM     14  C   UNL A   1      42.884  24.747  28.214  1.00  0.00     0.031 A 
ATOM     15  C   UNL A   1      44.289  25.147  28.572  1.00  0.00     0.074 A 
ATOM     16  C   UNL A   1      41.868  25.612  28.395  1.00  0.00     0.049 A 
ATOM     17  N   UNL A   1      44.719  26.284  29.061  1.00  0.00    -0.248 NA
ATOM     18  C   UNL A   1      45.346  24.148  28.361  1.00  0.00     0.031 C 
ATOM     19  C   UNL A   1      40.461  25.329  28.102  1.00  0.00     0.029 A 
ATOM     20  N   UNL A   1      41.861  26.910  28.838  1.00  0.00    -0.354 N 
ATOM     21  C   UNL A   1      46.090  26.135  29.225  1.00  0.00     0.074 A 
ATOM     22  C   UNL A   1      46.419  24.787  28.812  1.00  0.00     0.031 C 
ATOM     23  C   UNL A   1      39.735  26.435  28.320  1.00  0.00     0.029 A 
ATOM     24  C   UNL A   1      40.614  27.485  28.820  1.00  0.00     0.049 A 
ATOM     25  H   UNL A   1      42.670  27.382  29.139  1.00  0.00     0.167 HD
ATOM     26  C   UNL A   1      46.993  27.043  29.670  1.00  0.00     0.037 A 
ATOM     27  C   UNL A   1      40.218  28.721  29.173  1.00  0.00     0.037 A 
ATOM     28  C   UNL A   1      46.665  28.387  30.074  1.00  0.00     0.049 A 
ATOM     29  C   UNL A   1      41.238  29.704  29.662  1.00  0.00     0.074 A 
ATOM     30  C   UNL A   1      47.512  29.381  30.536  1.00  0.00     0.029 A 
ATOM     31  N   UNL A   1      45.388  28.927  30.060  1.00  0.00    -0.354 N 
ATOM     32  N   UNL A   1      42.532  29.550  29.797  1.00  0.00    -0.248 NA
ATOM     33  C   UNL A   1      40.745  31.031  30.050  1.00  0.00     0.031 C 
ATOM     34  C   UNL A   1      46.742  30.513  30.829  1.00  0.00     0.029 A 
ATOM     35  C   UNL A   1      45.423  30.236  30.513  1.00  0.00     0.049 A 
ATOM     36  H   UNL A   1      44.576  28.450  29.770  1.00  0.00     0.167 HD
ATOM     37  C   UNL A   1      43.009  30.759  30.280  1.00  0.00     0.074 A 
ATOM     38  C   UNL A   1      41.870  31.647  30.384  1.00  0.00     0.031 C 
ATOM     39  C   UNL A   1      44.277  31.102  30.615  1.00  0.00     0.037 A 
BRANCH  26  40
ATOM     40  C   UNL A   1      48.430  26.614  29.749  1.00  0.00     0.057 A 
ATOM     41  C   UNL A   1      49.335  26.884  28.715  1.00  0.00     0.134 A 
ATOM     42  C   UNL A   1      48.927  25.978  30.892  1.00  0.00     0.134 A 
ATOM     43  F   UNL A   1      48.920  27.480  27.586  1.00  0.00    -0.206 F 
ATOM     44  C   UNL A   1      50.681  26.523  28.809  1.00  0.00     0.040 A 
ATOM     45  C   UNL A   1      50.275  25.631  31.009  1.00  0.00     0.040 A 
ATOM     46  F   UNL A   1      48.115  25.697  31.923  1.00  0.00    -0.206 F 
ATOM     47  C   UNL A   1      51.155  25.901  29.964  1.00  0.00     0.006 A 
ENDBRANCH  26  40
BRANCH  27  48
ATOM     48  C   UNL A   1      38.783  29.089  29.079  1.00  0.00     0.057 A 
ATOM     49  C   UNL A   1      37.938  29.003  30.190  1.00  0.00     0.134 A 
ATOM     50  C   UNL A   1      38.229  29.545  27.877  1.00  0.00     0.134 A 
ATOM     51  F   UNL A   1      38.408  28.559  31.366  1.00  0.00    -0.206 F 
ATOM     52  C   UNL A   1      36.587  29.344  30.107  1.00  0.00     0.040 A 
ATOM     53  C   UNL A   1      36.887  29.914  27.786  1.00  0.00     0.040 A 
ATOM     54  F   UNL A   1      38.992  29.659  26.780  1.00  0.00    -0.206 F 
ATOM     55  C   UNL A   1      36.060  29.807  28.902  1.00  0.00     0.006 A 
ENDBRANCH  27  48
BRANCH  39  56
ATOM     56  C   UNL A   1      44.487  32.499  31.114  1.00  0.00     0.057 A 
ATOM     57  C   UNL A   1      44.744  33.560  30.237  1.00  0.00     0.134 A 
ATOM     58  C   UNL A   1      44.426  32.787  32.483  1.00  0.00     0.134 A 
ATOM     59  F   UNL A   1      44.831  33.345  28.916  1.00  0.00    -0.206 F 
ATOM     60  C   UNL A   1      44.960  34.857  30.707  1.00  0.00     0.040 A 
ATOM     61  C   UNL A   1      44.618  34.083  32.962  1.00  0.00     0.040 A 
ATOM     62  F   UNL A   1      44.178  31.815  33.373  1.00  0.00    -0.206 F 
ATOM     63  C   UNL A   1      44.893  35.121  32.074  1.00  0.00     0.006 A 
ENDBRANCH  39  56
ENDBRANCH  13  14
ENDBRANCH   6   8
ENDBRANCH   3   4
ENDBRANCH   2   3
ENDBRANCH   1   2
BRANCH   1  64
ATOM     64  C   UNL A   1      37.711  23.601  25.793  1.00  0.00     0.116 C 
BRANCH  64  65
ATOM     65  N   UNL A   1      37.276  23.411  24.418  1.00  0.00    -0.352 N 
ATOM     66  C   UNL A   1      35.997  23.341  23.925  1.00  0.00     0.255 C 
ATOM     67  H   UNL A   1      37.995  23.320  23.752  1.00  0.00     0.163 HD
ATOM     68  O   UNL A   1      35.796  22.922  22.789  1.00  0.00    -0.269 OA
BRANCH  66  69
ATOM     69  C   UNL A   1      34.856  23.745  24.763  1.00  0.00     0.082 A 
ATOM     70  C   UNL A   1      34.500  25.098  24.851  1.00  0.00     0.019 A 
ATOM     71  C   UNL A   1      34.099  22.782  25.440  1.00  0.00     0.143 A 
ATOM     72  C   UNL A   1      33.462  25.474  25.692  1.00  0.00     0.021 A 
ATOM     73  N   UNL A   1      33.093  23.164  26.268  1.00  0.00    -0.238 NA
ATOM     74  C   UNL A   1      32.803  24.478  26.385  1.00  0.00     0.113 A 
BRANCH  71  75
ATOM     75  N   UNL A   1      34.441  21.414  25.371  1.00  0.00    -0.340 N 
ATOM     76  H   UNL A   1      35.192  21.123  25.937  1.00  0.00     0.168 HD
BRANCH  75  77
ATOM     77  C   UNL A   1      33.831  20.422  24.585  1.00  0.00     0.040 A 
ATOM     78  C   UNL A   1      32.747  20.759  23.770  1.00  0.00     0.026 A 
ATOM     79  C   UNL A   1      34.232  19.082  24.651  1.00  0.00     0.039 A 
ATOM     80  C   UNL A   1      32.118  19.792  22.984  1.00  0.00     0.003 A 
ATOM     81  C   UNL A   1      33.596  18.092  23.887  1.00  0.00     0.058 A 
ATOM     82  C   UNL A   1      32.544  18.465  23.038  1.00  0.00     0.013 A 
BRANCH  81  83
ATOM     83  C   UNL A   1      34.046  16.657  23.960  1.00  0.00     0.416 C 
ATOM     84  F   UNL A   1      33.061  15.824  24.401  1.00  0.00    -0.166 F 
ATOM     85  F   UNL A   1      34.430  16.166  22.750  1.00  0.00    -0.166 F 
ATOM     86  F   UNL A   1      35.101  16.451  24.798  1.00  0.00    -0.166 F 
ENDBRANCH  81  83
ENDBRANCH  75  77
ENDBRANCH  71  75
ENDBRANCH  66  69
ENDBRANCH  64  65
ENDBRANCH   1  64
TORSDOF 14
ENDMDL
MODEL 3
REMARK VINA RESULT:     -12.2      0.461      1.557
REMARK SMILES O=C(NCCCCNC(=O)c1cccnc1Nc1cccc(C(F)(F)F)c1)c1ccc(-c2c3nc(c(-c4c(F)cccc4F)c4ccc([nH]4)c(-c4c(F)cccc4F)c4nc(c(-c5c(F)cccc5F)c5ccc2[nH]5)C=C4)C=C3)cc1
REMARK SMILES IDX 6 1 5 2 4 3 3 4 1 5 2 6 28 8 29 9 81 10 30 11 80 12 31 13
REMARK SMILES IDX 32 14 33 15 74 16 34 17 79 18 73 19 75 20 35 21 78 22 72 23
REMARK SMILES IDX 71 24 36 26 62 27 45 28 61 29 46 30 49 31 60 32 76 33 47 34
REMARK SMILES IDX 48 35 59 37 77 38 50 39 37 40 38 41 43 42 39 43 40 44 42 45
REMARK SMILES IDX 44 46 41 47 63 48 64 49 69 50 65 51 66 52 68 53 70 54 67 55
REMARK SMILES IDX 51 56 52 57 57 58 53 59 54 60 56 61 58 62 55 63 7 64 8 65
REMARK SMILES IDX 9 66 10 68 11 69 12 70 16 71 13 72 15 73 14 74 17 75 18 77
REMARK SMILES IDX 19 78 27 79 20 80 22 81 21 82 23 83 24 84 25 85 26 86
REMARK H PARENT 3 7 75 25 49 36 8 67 17 76
REMARK Flexibility Score: inf
ROOT
ATOM      1  C   UNL A   1      31.191  30.532  25.554  1.00  0.00     0.023 C 
ENDROOT
BRANCH   1   2
ATOM      2  C   UNL A   1      31.106  31.910  26.210  1.00  0.00     0.023 C 
BRANCH   2   3
ATOM      3  C   UNL A   1      32.394  32.407  26.852  1.00  0.00     0.116 C 
BRANCH   3   4
ATOM      4  N   UNL A   1      32.274  33.738  27.428  1.00  0.00    -0.352 N 
ATOM      5  O   UNL A   1      32.755  35.447  28.823  1.00  0.00    -0.269 OA
ATOM      6  C   UNL A   1      33.070  34.352  28.367  1.00  0.00     0.251 C 
ATOM      7  H   UNL A   1      31.518  34.275  27.098  1.00  0.00     0.163 HD
BRANCH   6   8
ATOM      8  C   UNL A   1      34.289  33.671  28.853  1.00  0.00     0.039 A 
ATOM      9  C   UNL A   1      34.199  32.468  29.553  1.00  0.00     0.014 A 
ATOM     10  C   UNL A   1      35.538  34.257  28.621  1.00  0.00     0.014 A 
ATOM     11  C   UNL A   1      35.333  31.936  30.156  1.00  0.00     0.010 A 
ATOM     12  C   UNL A   1      36.691  33.671  29.152  1.00  0.00     0.010 A 
ATOM     13  C   UNL A   1      36.592  32.526  29.957  1.00  0.00    -0.014 A 
BRANCH  13  14
ATOM     14  C   UNL A   1      37.787  31.887  30.565  1.00  0.00     0.031 A 
ATOM     15  C   UNL A   1      38.222  32.213  31.968  1.00  0.00     0.074 A 
ATOM     16  C   UNL A   1      38.447  30.955  29.853  1.00  0.00     0.049 A 
ATOM     17  N   UNL A   1      39.205  31.697  32.663  1.00  0.00    -0.248 NA
ATOM     18  C   UNL A   1      37.464  33.251  32.681  1.00  0.00     0.031 C 
ATOM     19  C   UNL A   1      38.129  30.568  28.476  1.00  0.00     0.029 A 
ATOM     20  N   UNL A   1      39.499  30.143  30.191  1.00  0.00    -0.354 N 
ATOM     21  C   UNL A   1      39.191  32.351  33.889  1.00  0.00     0.074 A 
ATOM     22  C   UNL A   1      38.120  33.324  33.833  1.00  0.00     0.031 C 
ATOM     23  C   UNL A   1      38.930  29.558  28.107  1.00  0.00     0.029 A 
ATOM     24  C   UNL A   1      39.852  29.264  29.196  1.00  0.00     0.049 A 
ATOM     25  H   UNL A   1      39.956  30.186  31.062  1.00  0.00     0.167 HD
ATOM     26  C   UNL A   1      39.991  32.150  34.964  1.00  0.00     0.037 A 
ATOM     27  C   UNL A   1      40.817  28.327  29.161  1.00  0.00     0.037 A 
ATOM     28  C   UNL A   1      41.052  31.176  35.019  1.00  0.00     0.049 A 
ATOM     29  C   UNL A   1      41.687  28.128  30.366  1.00  0.00     0.074 A 
ATOM     30  C   UNL A   1      41.914  30.897  36.067  1.00  0.00     0.029 A 
ATOM     31  N   UNL A   1      41.391  30.317  33.985  1.00  0.00    -0.354 N 
ATOM     32  N   UNL A   1      41.650  28.746  31.520  1.00  0.00    -0.248 NA
ATOM     33  C   UNL A   1      42.734  27.105  30.262  1.00  0.00     0.031 C 
ATOM     34  C   UNL A   1      42.794  29.890  35.655  1.00  0.00     0.029 A 
ATOM     35  C   UNL A   1      42.455  29.515  34.366  1.00  0.00     0.049 A 
ATOM     36  H   UNL A   1      40.942  30.283  33.109  1.00  0.00     0.167 HD
ATOM     37  C   UNL A   1      42.663  28.185  32.283  1.00  0.00     0.074 A 
ATOM     38  C   UNL A   1      43.276  27.154  31.471  1.00  0.00     0.031 C 
ATOM     39  C   UNL A   1      43.056  28.499  33.541  1.00  0.00     0.037 A 
BRANCH  26  40
ATOM     40  C   UNL A   1      39.755  33.005  36.175  1.00  0.00     0.057 A 
ATOM     41  C   UNL A   1      38.899  32.599  37.206  1.00  0.00     0.134 A 
ATOM     42  C   UNL A   1      40.434  34.219  36.340  1.00  0.00     0.134 A 
ATOM     43  F   UNL A   1      38.209  31.453  37.105  1.00  0.00    -0.206 F 
ATOM     44  C   UNL A   1      38.715  33.376  38.352  1.00  0.00     0.040 A 
ATOM     45  C   UNL A   1      40.276  34.995  37.491  1.00  0.00     0.040 A 
ATOM     46  F   UNL A   1      41.276  34.663  35.394  1.00  0.00    -0.206 F 
ATOM     47  C   UNL A   1      39.412  34.575  38.500  1.00  0.00     0.006 A 
ENDBRANCH  26  40
BRANCH  27  48
ATOM     48  C   UNL A   1      41.008  27.514  27.935  1.00  0.00     0.057 A 
ATOM     49  C   UNL A   1      40.386  26.271  27.784  1.00  0.00     0.134 A 
ATOM     50  C   UNL A   1      41.809  27.969  26.881  1.00  0.00     0.134 A 
ATOM     51  F   UNL A   1      39.618  25.775  28.767  1.00  0.00    -0.206 F 
ATOM     52  C   UNL A   1      40.565  25.500  26.635  1.00  0.00     0.040 A 
ATOM     53  C   UNL A   1      41.975  27.222  25.715  1.00  0.00     0.040 A 
ATOM     54  F   UNL A   1      42.423  29.159  26.962  1.00  0.00    -0.206 F 
ATOM     55  C   UNL A   1      41.358  25.980  25.593  1.00  0.00     0.006 A 
ENDBRANCH  27  48
BRANCH  39  56
ATOM     56  C   UNL A   1      44.194  27.708  34.109  1.00  0.00     0.057 A 
ATOM     57  C   UNL A   1      45.517  28.157  34.019  1.00  0.00     0.134 A 
ATOM     58  C   UNL A   1      43.965  26.487  34.755  1.00  0.00     0.134 A 
ATOM     59  F   UNL A   1      45.803  29.311  33.397  1.00  0.00    -0.206 F 
ATOM     60  C   UNL A   1      46.577  27.407  34.530  1.00  0.00     0.040 A 
ATOM     61  C   UNL A   1      45.014  25.739  35.290  1.00  0.00     0.040 A 
ATOM     62  F   UNL A   1      42.720  26.005  34.878  1.00  0.00    -0.206 F 
ATOM     63  C   UNL A   1      46.325  26.195  35.172  1.00  0.00     0.006 A 
ENDBRANCH  39  56
ENDBRANCH  13  14
ENDBRANCH   6   8
ENDBRANCH   3   4
ENDBRANCH   2   3
ENDBRANCH   1   2
BRANCH   1  64
ATOM     64  C   UNL A   1      32.549  29.842  25.666  1.00  0.00     0.116 C 
BRANCH  64  65
ATOM     65  N   UNL A   1      33.204  29.709  24.374  1.00  0.00    -0.352 N 
ATOM     66  C   UNL A   1      33.656  28.571  23.754  1.00  0.00     0.255 C 
ATOM     67  H   UNL A   1      33.341  30.549  23.878  1.00  0.00     0.163 HD
ATOM     68  O   UNL A   1      34.413  28.653  22.791  1.00  0.00    -0.269 OA
BRANCH  66  69
ATOM     69  C   UNL A   1      33.256  27.246  24.254  1.00  0.00     0.082 A 
ATOM     70  C   UNL A   1      34.013  26.621  25.255  1.00  0.00     0.019 A 
ATOM     71  C   UNL A   1      32.100  26.625  23.767  1.00  0.00     0.143 A 
ATOM     72  C   UNL A   1      33.662  25.346  25.676  1.00  0.00     0.021 A 
ATOM     73  N   UNL A   1      31.775  25.373  24.179  1.00  0.00    -0.238 NA
ATOM     74  C   UNL A   1      32.550  24.763  25.102  1.00  0.00     0.113 A 
BRANCH  71  75
ATOM     75  N   UNL A   1      31.324  27.232  22.756  1.00  0.00    -0.340 N 
ATOM     76  H   UNL A   1      31.716  27.244  21.854  1.00  0.00     0.168 HD
BRANCH  75  77
ATOM     77  C   UNL A   1      30.056  27.821  22.893  1.00  0.00     0.040 A 
ATOM     78  C   UNL A   1      29.016  27.088  23.473  1.00  0.00     0.026 A 
ATOM     79  C   UNL A   1      29.782  29.101  22.396  1.00  0.00     0.039 A 
ATOM     80  C   UNL A   1      27.745  27.647  23.615  1.00  0.00     0.003 A 
ATOM     81  C   UNL A   1      28.505  29.669  22.509  1.00  0.00     0.058 A 
ATOM     82  C   UNL A   1      27.491  28.934  23.140  1.00  0.00     0.013 A 
BRANCH  81  83
ATOM     83  C   UNL A   1      28.228  31.051  21.979  1.00  0.00     0.416 C 
ATOM     84  F   UNL A   1      29.357  31.810  21.888  1.00  0.00    -0.166 F 
ATOM     85  F   UNL A   1      27.693  31.034  20.727  1.00  0.00    -0.166 F 
ATOM     86  F   UNL A   1      27.363  31.774  22.746  1.00  0.00    -0.166 F 
ENDBRANCH  81  83
ENDBRANCH  75  77
ENDBRANCH  71  75
ENDBRANCH  66  69
ENDBRANCH  64  65
ENDBRANCH   1  64
TORSDOF 14
ENDMDL
