MODEL 1
REMARK VINA RESULT:     -11.6      0.000      0.000
REMARK SMILES CCc1cccc(NC(=O)NCC(=O)NCCCCNC(=O)c2ccc(-c3c4nc(c(-c5c(F)cccc5F)c5ccc([nH]5)c(-c5c(F)cccc5F)c5nc(c(-c6c(F)cccc6F)c6ccc3[nH]6)C=C5)C=C4)cc2)c1
REMARK SMILES IDX 17 1 16 2 15 3 13 4 14 5 12 7 11 8 8 9 9 10 10 12 7 14 3 15
REMARK SMILES IDX 4 16 77 17 5 18 6 19 2 20 1 21 18 22 19 23 20 24 21 25 22 27
REMARK SMILES IDX 23 28 24 29 76 30 25 31 75 32 26 33 27 34 28 35 69 36 29 37
REMARK SMILES IDX 74 38 68 39 70 40 30 41 73 42 67 43 66 44 31 46 57 47 40 48
REMARK SMILES IDX 56 49 41 50 44 51 55 52 71 53 42 54 43 55 54 57 72 58 45 59
REMARK SMILES IDX 32 60 33 61 38 62 34 63 35 64 37 65 39 66 36 67 58 68 59 69
REMARK SMILES IDX 64 70 60 71 61 72 63 73 65 74 62 75 46 76 47 77 52 78 48 79
REMARK SMILES IDX 49 80 51 81 53 82 50 83
REMARK H PARENT 15 6 8 11 11 13 20 26 70 45 44 56
REMARK Flexibility Score: inf
ROOT
ATOM      1  C   UNL A   1      36.096  21.406  24.868  1.00  0.00     0.023 C 
ENDROOT
BRANCH   1   2
ATOM      2  C   UNL A   1      35.023  21.292  25.945  1.00  0.00     0.116 C 
BRANCH   2   3
ATOM      3  N   UNL A   1      34.055  20.254  25.654  1.00  0.00    -0.355 N 
ATOM      4  C   UNL A   1      32.728  20.311  25.362  1.00  0.00     0.239 C 
ATOM      5  O   UNL A   1      32.190  19.242  25.045  1.00  0.00    -0.273 OA
ATOM      6  H   UNL A   1      34.425  19.342  25.669  1.00  0.00     0.163 HD
BRANCH   4   7
ATOM      7  C   UNL A   1      31.907  21.617  25.287  1.00  0.00     0.217 C 
BRANCH   7   8
ATOM      8  N   UNL A   1      31.004  21.973  26.356  1.00  0.00    -0.329 N 
ATOM      9  N   UNL A   1      31.044  24.332  26.828  1.00  0.00    -0.308 N 
ATOM     10  C   UNL A   1      30.553  23.093  26.905  1.00  0.00     0.319 C 
ATOM     11  H   UNL A   1      30.411  24.953  27.254  1.00  0.00     0.171 HD
ATOM     12  O   UNL A   1      29.557  22.956  27.631  1.00  0.00    -0.248 OA
ATOM     13  H   UNL A   1      30.621  21.176  26.790  1.00  0.00     0.165 HD
BRANCH   9  14
ATOM     14  C   UNL A   1      32.149  25.064  26.353  1.00  0.00     0.043 A 
ATOM     15  C   UNL A   1      33.100  27.333  26.111  1.00  0.00    -0.046 A 
ATOM     16  C   UNL A   1      34.221  26.787  25.489  1.00  0.00     0.004 A 
ATOM     17  C   UNL A   1      32.062  26.463  26.502  1.00  0.00     0.029 A 
ATOM     18  C   UNL A   1      34.336  25.409  25.352  1.00  0.00     0.002 A 
ATOM     19  C   UNL A   1      33.320  24.563  25.807  1.00  0.00     0.026 A 
BRANCH  15  20
ATOM     20  C   UNL A   1      32.950  28.817  26.356  1.00  0.00     0.032 C 
ATOM     21  C   UNL A   1      31.807  29.215  27.284  1.00  0.00     0.009 C 
ENDBRANCH  15  20
ENDBRANCH   9  14
ENDBRANCH   7   8
ENDBRANCH   4   7
ENDBRANCH   2   3
ENDBRANCH   1   2
BRANCH   1  22
ATOM     22  C   UNL A   1      37.156  20.305  24.940  1.00  0.00     0.023 C 
BRANCH  22  23
ATOM     23  C   UNL A   1      38.480  20.718  25.579  1.00  0.00     0.116 C 
BRANCH  23  24
ATOM     24  N   UNL A   1      39.473  19.654  25.593  1.00  0.00    -0.352 N 
ATOM     25  C   UNL A   1      40.789  19.713  25.984  1.00  0.00     0.251 C 
ATOM     26  H   UNL A   1      39.159  18.775  25.279  1.00  0.00     0.163 HD
ATOM     27  O   UNL A   1      41.530  18.746  25.833  1.00  0.00    -0.269 OA
BRANCH  25  28
ATOM     28  C   UNL A   1      41.321  20.967  26.554  1.00  0.00     0.039 A 
ATOM     29  C   UNL A   1      41.877  21.917  25.694  1.00  0.00     0.014 A 
ATOM     30  C   UNL A   1      41.232  21.221  27.926  1.00  0.00     0.014 A 
ATOM     31  C   UNL A   1      42.271  23.158  26.198  1.00  0.00     0.010 A 
ATOM     32  C   UNL A   1      41.562  22.481  28.416  1.00  0.00     0.010 A 
ATOM     33  C   UNL A   1      42.076  23.464  27.555  1.00  0.00    -0.014 A 
BRANCH  33  34
ATOM     34  C   UNL A   1      42.389  24.812  28.094  1.00  0.00     0.031 A 
ATOM     35  C   UNL A   1      43.786  25.144  28.535  1.00  0.00     0.074 A 
ATOM     36  C   UNL A   1      41.400  25.715  28.247  1.00  0.00     0.049 A 
ATOM     37  N   UNL A   1      44.235  26.233  29.106  1.00  0.00    -0.248 NA
ATOM     38  C   UNL A   1      44.807  24.105  28.334  1.00  0.00     0.031 C 
ATOM     39  C   UNL A   1      39.995  25.500  27.899  1.00  0.00     0.029 A 
ATOM     40  N   UNL A   1      41.427  26.992  28.750  1.00  0.00    -0.354 N 
ATOM     41  C   UNL A   1      45.584  26.005  29.342  1.00  0.00     0.074 A 
ATOM     42  C   UNL A   1      45.870  24.658  28.900  1.00  0.00     0.031 C 
ATOM     43  C   UNL A   1      39.299  26.616  28.171  1.00  0.00     0.029 A 
ATOM     44  C   UNL A   1      40.199  27.610  28.749  1.00  0.00     0.049 A 
ATOM     45  H   UNL A   1      42.247  27.424  29.079  1.00  0.00     0.167 HD
ATOM     46  C   UNL A   1      46.508  26.851  29.859  1.00  0.00     0.037 A 
ATOM     47  C   UNL A   1      39.840  28.836  29.170  1.00  0.00     0.037 A 
ATOM     48  C   UNL A   1      46.231  28.200  30.276  1.00  0.00     0.049 A 
ATOM     49  C   UNL A   1      40.882  29.753  29.745  1.00  0.00     0.074 A 
ATOM     50  C   UNL A   1      47.110  29.149  30.768  1.00  0.00     0.029 A 
ATOM     51  N   UNL A   1      44.978  28.793  30.244  1.00  0.00    -0.354 N 
ATOM     52  N   UNL A   1      42.164  29.541  29.918  1.00  0.00    -0.248 NA
ATOM     53  C   UNL A   1      40.429  31.082  30.180  1.00  0.00     0.031 C 
ATOM     54  C   UNL A   1      46.383  30.306  31.065  1.00  0.00     0.029 A 
ATOM     55  C   UNL A   1      45.059  30.091  30.720  1.00  0.00     0.049 A 
ATOM     56  H   UNL A   1      44.154  28.357  29.930  1.00  0.00     0.167 HD
ATOM     57  C   UNL A   1      42.674  30.716  30.455  1.00  0.00     0.074 A 
ATOM     58  C   UNL A   1      41.566  31.641  30.570  1.00  0.00     0.031 C 
ATOM     59  C   UNL A   1      43.947  31.002  30.820  1.00  0.00     0.037 A 
BRANCH  46  60
ATOM     60  C   UNL A   1      47.911  26.337  29.993  1.00  0.00     0.057 A 
ATOM     61  C   UNL A   1      48.373  25.765  31.187  1.00  0.00     0.134 A 
ATOM     62  C   UNL A   1      48.801  26.387  28.914  1.00  0.00     0.134 A 
ATOM     63  F   UNL A   1      47.574  25.701  32.262  1.00  0.00    -0.206 F 
ATOM     64  C   UNL A   1      49.676  25.285  31.309  1.00  0.00     0.040 A 
ATOM     65  C   UNL A   1      50.099  25.886  29.016  1.00  0.00     0.040 A 
ATOM     66  F   UNL A   1      48.421  26.917  27.741  1.00  0.00    -0.206 F 
ATOM     67  C   UNL A   1      50.543  25.339  30.219  1.00  0.00     0.006 A 
ENDBRANCH  46  60
BRANCH  47  68
ATOM     68  C   UNL A   1      38.432  29.285  29.035  1.00  0.00     0.057 A 
ATOM     69  C   UNL A   1      37.938  29.738  27.807  1.00  0.00     0.134 A 
ATOM     70  C   UNL A   1      37.551  29.276  30.123  1.00  0.00     0.134 A 
ATOM     71  F   UNL A   1      38.741  29.787  26.734  1.00  0.00    -0.206 F 
ATOM     72  C   UNL A   1      36.623  30.184  27.667  1.00  0.00     0.040 A 
ATOM     73  C   UNL A   1      36.227  29.697  29.993  1.00  0.00     0.040 A 
ATOM     74  F   UNL A   1      37.963  28.847  31.325  1.00  0.00    -0.206 F 
ATOM     75  C   UNL A   1      35.762  30.159  28.762  1.00  0.00     0.006 A 
ENDBRANCH  47  68
BRANCH  59  76
ATOM     76  C   UNL A   1      44.218  32.381  31.343  1.00  0.00     0.057 A 
ATOM     77  C   UNL A   1      44.170  32.674  32.711  1.00  0.00     0.134 A 
ATOM     78  C   UNL A   1      44.567  33.419  30.470  1.00  0.00     0.134 A 
ATOM     79  F   UNL A   1      43.827  31.727  33.598  1.00  0.00    -0.206 F 
ATOM     80  C   UNL A   1      44.443  33.956  33.191  1.00  0.00     0.040 A 
ATOM     81  C   UNL A   1      44.865  34.698  30.940  1.00  0.00     0.040 A 
ATOM     82  F   UNL A   1      44.638  33.201  29.147  1.00  0.00    -0.206 F 
ATOM     83  C   UNL A   1      44.799  34.971  32.305  1.00  0.00     0.006 A 
ENDBRANCH  59  76
ENDBRANCH  33  34
ENDBRANCH  25  28
ENDBRANCH  23  24
ENDBRANCH  22  23
ENDBRANCH   1  22
TORSDOF 14
ENDMDL
MODEL 2
REMARK VINA RESULT:     -11.5      0.345      6.395
REMARK SMILES CCc1cccc(NC(=O)NCC(=O)NCCCCNC(=O)c2ccc(-c3c4nc(c(-c5c(F)cccc5F)c5ccc([nH]5)c(-c5c(F)cccc5F)c5nc(c(-c6c(F)cccc6F)c6ccc3[nH]6)C=C5)C=C4)cc2)c1
REMARK SMILES IDX 17 1 16 2 15 3 13 4 14 5 12 7 11 8 8 9 9 10 10 12 7 14 3 15
REMARK SMILES IDX 4 16 77 17 5 18 6 19 2 20 1 21 18 22 19 23 20 24 21 25 22 27
REMARK SMILES IDX 23 28 24 29 76 30 25 31 75 32 26 33 27 34 28 35 69 36 29 37
REMARK SMILES IDX 74 38 68 39 70 40 30 41 73 42 67 43 66 44 31 46 57 47 40 48
REMARK SMILES IDX 56 49 41 50 44 51 55 52 71 53 42 54 43 55 54 57 72 58 45 59
REMARK SMILES IDX 32 60 33 61 38 62 34 63 35 64 37 65 39 66 36 67 58 68 59 69
REMARK SMILES IDX 64 70 60 71 61 72 63 73 65 74 62 75 46 76 47 77 52 78 48 79
REMARK SMILES IDX 49 80 51 81 53 82 50 83
REMARK H PARENT 15 6 8 11 11 13 20 26 70 45 44 56
REMARK Flexibility Score: inf
ROOT
ATOM      1  C   UNL A   1      36.117  21.728  25.015  1.00  0.00     0.023 C 
ENDROOT
BRANCH   1   2
ATOM      2  C   UNL A   1      35.050  21.579  26.094  1.00  0.00     0.116 C 
BRANCH   2   3
ATOM      3  N   UNL A   1      34.156  20.468  25.838  1.00  0.00    -0.355 N 
ATOM      4  C   UNL A   1      32.835  20.425  25.518  1.00  0.00     0.239 C 
ATOM      5  O   UNL A   1      32.372  19.309  25.246  1.00  0.00    -0.273 OA
ATOM      6  H   UNL A   1      34.582  19.583  25.908  1.00  0.00     0.163 HD
BRANCH   4   7
ATOM      7  C   UNL A   1      31.935  21.671  25.359  1.00  0.00     0.217 C 
BRANCH   7   8
ATOM      8  N   UNL A   1      31.015  22.043  26.407  1.00  0.00    -0.329 N 
ATOM      9  N   UNL A   1      30.968  24.422  26.767  1.00  0.00    -0.308 N 
ATOM     10  C   UNL A   1      30.521  23.171  26.901  1.00  0.00     0.319 C 
ATOM     11  H   UNL A   1      30.310  25.039  27.161  1.00  0.00     0.171 HD
ATOM     12  O   UNL A   1      29.527  23.032  27.629  1.00  0.00    -0.248 OA
ATOM     13  H   UNL A   1      30.659  21.254  26.877  1.00  0.00     0.165 HD
BRANCH   9  14
ATOM     14  C   UNL A   1      32.048  25.171  26.262  1.00  0.00     0.043 A 
ATOM     15  C   UNL A   1      33.096  27.409  26.226  1.00  0.00    -0.046 A 
ATOM     16  C   UNL A   1      34.097  26.916  25.390  1.00  0.00     0.004 A 
ATOM     17  C   UNL A   1      32.064  26.533  26.621  1.00  0.00     0.029 A 
ATOM     18  C   UNL A   1      34.111  25.571  25.043  1.00  0.00     0.002 A 
ATOM     19  C   UNL A   1      33.109  24.709  25.501  1.00  0.00     0.026 A 
BRANCH  15  20
ATOM     20  C   UNL A   1      33.068  28.844  26.699  1.00  0.00     0.032 C 
ATOM     21  C   UNL A   1      31.717  29.340  27.204  1.00  0.00     0.009 C 
ENDBRANCH  15  20
ENDBRANCH   9  14
ENDBRANCH   7   8
ENDBRANCH   4   7
ENDBRANCH   2   3
ENDBRANCH   1   2
BRANCH   1  22
ATOM     22  C   UNL A   1      37.138  20.588  25.001  1.00  0.00     0.023 C 
BRANCH  22  23
ATOM     23  C   UNL A   1      38.507  20.935  25.582  1.00  0.00     0.116 C 
BRANCH  23  24
ATOM     24  N   UNL A   1      39.439  19.818  25.576  1.00  0.00    -0.352 N 
ATOM     25  C   UNL A   1      40.754  19.793  25.975  1.00  0.00     0.251 C 
ATOM     26  H   UNL A   1      39.078  18.965  25.241  1.00  0.00     0.163 HD
ATOM     27  O   UNL A   1      41.440  18.790  25.805  1.00  0.00    -0.269 OA
BRANCH  25  28
ATOM     28  C   UNL A   1      41.352  21.002  26.577  1.00  0.00     0.039 A 
ATOM     29  C   UNL A   1      41.929  21.958  25.738  1.00  0.00     0.014 A 
ATOM     30  C   UNL A   1      41.303  21.209  27.958  1.00  0.00     0.014 A 
ATOM     31  C   UNL A   1      42.387  23.162  26.277  1.00  0.00     0.010 A 
ATOM     32  C   UNL A   1      41.698  22.435  28.485  1.00  0.00     0.010 A 
ATOM     33  C   UNL A   1      42.236  23.427  27.648  1.00  0.00    -0.014 A 
BRANCH  33  34
ATOM     34  C   UNL A   1      42.618  24.740  28.227  1.00  0.00     0.031 A 
ATOM     35  C   UNL A   1      41.583  25.812  28.415  1.00  0.00     0.074 A 
ATOM     36  C   UNL A   1      43.909  24.989  28.519  1.00  0.00     0.049 A 
ATOM     37  N   UNL A   1      41.737  27.046  28.825  1.00  0.00    -0.248 NA
ATOM     38  C   UNL A   1      40.197  25.461  28.072  1.00  0.00     0.031 C 
ATOM     39  C   UNL A   1      45.016  24.048  28.341  1.00  0.00     0.029 A 
ATOM     40  N   UNL A   1      44.510  26.118  29.018  1.00  0.00    -0.354 N 
ATOM     41  C   UNL A   1      40.473  27.619  28.776  1.00  0.00     0.074 A 
ATOM     42  C   UNL A   1      39.573  26.616  28.250  1.00  0.00     0.031 C 
ATOM     43  C   UNL A   1      46.156  24.627  28.750  1.00  0.00     0.029 A 
ATOM     44  C   UNL A   1      45.869  25.992  29.183  1.00  0.00     0.049 A 
ATOM     45  H   UNL A   1      44.015  26.940  29.237  1.00  0.00     0.167 HD
ATOM     46  C   UNL A   1      40.091  28.861  29.158  1.00  0.00     0.037 A 
ATOM     47  C   UNL A   1      46.779  26.877  29.628  1.00  0.00     0.037 A 
ATOM     48  C   UNL A   1      40.981  29.852  29.705  1.00  0.00     0.049 A 
ATOM     49  C   UNL A   1      46.332  28.251  30.040  1.00  0.00     0.074 A 
ATOM     50  C   UNL A   1      40.680  31.122  30.165  1.00  0.00     0.029 A 
ATOM     51  N   UNL A   1      42.347  29.680  29.870  1.00  0.00    -0.354 N 
ATOM     52  N   UNL A   1      45.125  28.763  30.034  1.00  0.00    -0.248 NA
ATOM     53  C   UNL A   1      47.372  29.170  30.524  1.00  0.00     0.031 C 
ATOM     54  C   UNL A   1      41.870  31.731  30.577  1.00  0.00     0.029 A 
ATOM     55  C   UNL A   1      42.905  30.825  30.413  1.00  0.00     0.049 A 
ATOM     56  H   UNL A   1      42.846  28.864  29.637  1.00  0.00     0.167 HD
ATOM     57  C   UNL A   1      45.257  30.051  30.537  1.00  0.00     0.074 A 
ATOM     58  C   UNL A   1      46.658  30.238  30.848  1.00  0.00     0.031 C 
ATOM     59  C   UNL A   1      44.301  30.993  30.725  1.00  0.00     0.037 A 
BRANCH  46  60
ATOM     60  C   UNL A   1      38.641  29.214  29.003  1.00  0.00     0.057 A 
ATOM     61  C   UNL A   1      38.107  29.593  27.765  1.00  0.00     0.134 A 
ATOM     62  C   UNL A   1      37.765  29.145  30.092  1.00  0.00     0.134 A 
ATOM     63  F   UNL A   1      38.897  29.692  26.685  1.00  0.00    -0.206 F 
ATOM     64  C   UNL A   1      36.758  29.917  27.621  1.00  0.00     0.040 A 
ATOM     65  C   UNL A   1      36.409  29.442  29.955  1.00  0.00     0.040 A 
ATOM     66  F   UNL A   1      38.211  28.784  31.305  1.00  0.00    -0.206 F 
ATOM     67  C   UNL A   1      35.902  29.836  28.718  1.00  0.00     0.006 A 
ENDBRANCH  46  60
BRANCH  47  68
ATOM     68  C   UNL A   1      48.205  26.483  29.739  1.00  0.00     0.057 A 
ATOM     69  C   UNL A   1      49.106  26.748  28.701  1.00  0.00     0.134 A 
ATOM     70  C   UNL A   1      48.701  25.834  30.876  1.00  0.00     0.134 A 
ATOM     71  F   UNL A   1      48.684  27.350  27.580  1.00  0.00    -0.206 F 
ATOM     72  C   UNL A   1      50.445  26.365  28.780  1.00  0.00     0.040 A 
ATOM     73  C   UNL A   1      50.044  25.466  30.978  1.00  0.00     0.040 A 
ATOM     74  F   UNL A   1      47.890  25.558  31.907  1.00  0.00    -0.206 F 
ATOM     75  C   UNL A   1      50.919  25.727  29.924  1.00  0.00     0.006 A 
ENDBRANCH  47  68
BRANCH  59  76
ATOM     76  C   UNL A   1      44.732  32.297  31.326  1.00  0.00     0.057 A 
ATOM     77  C   UNL A   1      45.122  33.382  30.532  1.00  0.00     0.134 A 
ATOM     78  C   UNL A   1      44.719  32.480  32.715  1.00  0.00     0.134 A 
ATOM     79  F   UNL A   1      45.169  33.266  29.197  1.00  0.00    -0.206 F 
ATOM     80  C   UNL A   1      45.502  34.600  31.101  1.00  0.00     0.040 A 
ATOM     81  C   UNL A   1      45.074  33.700  33.293  1.00  0.00     0.040 A 
ATOM     82  F   UNL A   1      44.348  31.481  33.530  1.00  0.00    -0.206 F 
ATOM     83  C   UNL A   1      45.472  34.763  32.485  1.00  0.00     0.006 A 
ENDBRANCH  59  76
ENDBRANCH  33  34
ENDBRANCH  25  28
ENDBRANCH  23  24
ENDBRANCH  22  23
ENDBRANCH   1  22
TORSDOF 14
ENDMDL
MODEL 3
REMARK VINA RESULT:     -11.4      2.934      7.772
REMARK SMILES CCc1cccc(NC(=O)NCC(=O)NCCCCNC(=O)c2ccc(-c3c4nc(c(-c5c(F)cccc5F)c5ccc([nH]5)c(-c5c(F)cccc5F)c5nc(c(-c6c(F)cccc6F)c6ccc3[nH]6)C=C5)C=C4)cc2)c1
REMARK SMILES IDX 17 1 16 2 15 3 13 4 14 5 12 7 11 8 8 9 9 10 10 12 7 14 3 15
REMARK SMILES IDX 4 16 77 17 5 18 6 19 2 20 1 21 18 22 19 23 20 24 21 25 22 27
REMARK SMILES IDX 23 28 24 29 76 30 25 31 75 32 26 33 27 34 28 35 69 36 29 37
REMARK SMILES IDX 74 38 68 39 70 40 30 41 73 42 67 43 66 44 31 46 57 47 40 48
REMARK SMILES IDX 56 49 41 50 44 51 55 52 71 53 42 54 43 55 54 57 72 58 45 59
REMARK SMILES IDX 32 60 33 61 38 62 34 63 35 64 37 65 39 66 36 67 58 68 59 69
REMARK SMILES IDX 64 70 60 71 61 72 63 73 65 74 62 75 46 76 47 77 52 78 48 79
REMARK SMILES IDX 49 80 51 81 53 82 50 83
REMARK H PARENT 15 6 8 11 11 13 20 26 70 45 44 56
REMARK Flexibility Score: inf
ROOT
ATOM      1  C   UNL A   1      32.888  29.628  25.003  1.00  0.00     0.023 C 
ENDROOT
BRANCH   1   2
ATOM      2  C   UNL A   1      31.371  29.483  24.980  1.00  0.00     0.116 C 
BRANCH   2   3
ATOM      3  N   UNL A   1      30.815  29.702  23.660  1.00  0.00    -0.355 N 
ATOM      4  C   UNL A   1      30.641  28.867  22.601  1.00  0.00     0.239 C 
ATOM      5  O   UNL A   1      30.024  29.330  21.633  1.00  0.00    -0.273 OA
ATOM      6  H   UNL A   1      30.505  30.624  23.501  1.00  0.00     0.163 HD
BRANCH   4   7
ATOM      7  C   UNL A   1      31.052  27.379  22.588  1.00  0.00     0.217 C 
BRANCH   7   8
ATOM      8  N   UNL A   1      31.867  26.856  21.518  1.00  0.00    -0.329 N 
ATOM      9  N   UNL A   1      33.033  24.853  22.163  1.00  0.00    -0.308 N 
ATOM     10  C   UNL A   1      32.579  25.759  21.294  1.00  0.00     0.319 C 
ATOM     11  H   UNL A   1      33.427  24.102  21.663  1.00  0.00     0.171 HD
ATOM     12  O   UNL A   1      32.905  25.578  20.112  1.00  0.00    -0.248 OA
ATOM     13  H   UNL A   1      31.904  27.475  20.752  1.00  0.00     0.165 HD
BRANCH   9  14
ATOM     14  C   UNL A   1      33.149  24.591  23.542  1.00  0.00     0.043 A 
ATOM     15  C   UNL A   1      32.167  23.348  25.439  1.00  0.00    -0.046 A 
ATOM     16  C   UNL A   1      33.135  23.892  26.283  1.00  0.00     0.004 A 
ATOM     17  C   UNL A   1      32.169  23.736  24.083  1.00  0.00     0.029 A 
ATOM     18  C   UNL A   1      34.122  24.720  25.764  1.00  0.00     0.002 A 
ATOM     19  C   UNL A   1      34.139  25.038  24.402  1.00  0.00     0.026 A 
BRANCH  15  20
ATOM     20  C   UNL A   1      31.112  22.384  25.930  1.00  0.00     0.032 C 
ATOM     21  C   UNL A   1      30.072  22.978  26.874  1.00  0.00     0.009 C 
ENDBRANCH  15  20
ENDBRANCH   9  14
ENDBRANCH   7   8
ENDBRANCH   4   7
ENDBRANCH   2   3
ENDBRANCH   1   2
BRANCH   1  22
ATOM     22  C   UNL A   1      33.606  28.454  25.671  1.00  0.00     0.023 C 
BRANCH  22  23
ATOM     23  C   UNL A   1      33.731  28.548  27.190  1.00  0.00     0.116 C 
BRANCH  23  24
ATOM     24  N   UNL A   1      33.715  29.914  27.689  1.00  0.00    -0.352 N 
ATOM     25  C   UNL A   1      34.730  30.624  28.286  1.00  0.00     0.251 C 
ATOM     26  H   UNL A   1      32.862  30.396  27.585  1.00  0.00     0.163 HD
ATOM     27  O   UNL A   1      34.523  31.740  28.752  1.00  0.00    -0.269 OA
BRANCH  25  28
ATOM     28  C   UNL A   1      36.071  30.014  28.400  1.00  0.00     0.039 A 
ATOM     29  C   UNL A   1      36.949  30.107  27.319  1.00  0.00     0.014 A 
ATOM     30  C   UNL A   1      36.471  29.393  29.587  1.00  0.00     0.014 A 
ATOM     31  C   UNL A   1      38.260  29.647  27.453  1.00  0.00     0.010 A 
ATOM     32  C   UNL A   1      37.796  28.996  29.742  1.00  0.00     0.010 A 
ATOM     33  C   UNL A   1      38.705  29.127  28.680  1.00  0.00    -0.014 A 
BRANCH  33  34
ATOM     34  C   UNL A   1      40.122  28.729  28.880  1.00  0.00     0.031 A 
ATOM     35  C   UNL A   1      41.106  29.705  29.460  1.00  0.00     0.074 A 
ATOM     36  C   UNL A   1      40.536  27.513  28.475  1.00  0.00     0.049 A 
ATOM     37  N   UNL A   1      42.396  29.572  29.633  1.00  0.00    -0.248 NA
ATOM     38  C   UNL A   1      40.574  31.012  29.876  1.00  0.00     0.031 C 
ATOM     39  C   UNL A   1      39.690  26.491  27.857  1.00  0.00     0.029 A 
ATOM     40  N   UNL A   1      41.780  26.935  28.514  1.00  0.00    -0.354 N 
ATOM     41  C   UNL A   1      42.831  30.779  30.165  1.00  0.00     0.074 A 
ATOM     42  C   UNL A   1      41.677  31.649  30.239  1.00  0.00     0.031 C 
ATOM     43  C   UNL A   1      40.432  25.402  27.600  1.00  0.00     0.029 A 
ATOM     44  C   UNL A   1      41.812  25.661  27.999  1.00  0.00     0.049 A 
ATOM     45  H   UNL A   1      42.574  27.388  28.878  1.00  0.00     0.167 HD
ATOM     46  C   UNL A   1      44.074  31.125  30.576  1.00  0.00     0.037 A 
ATOM     47  C   UNL A   1      42.839  24.801  27.860  1.00  0.00     0.037 A 
ATOM     48  C   UNL A   1      45.218  30.252  30.526  1.00  0.00     0.049 A 
ATOM     49  C   UNL A   1      44.210  25.210  28.319  1.00  0.00     0.074 A 
ATOM     50  C   UNL A   1      46.508  30.494  30.964  1.00  0.00     0.029 A 
ATOM     51  N   UNL A   1      45.205  28.964  30.012  1.00  0.00    -0.354 N 
ATOM     52  N   UNL A   1      44.596  26.338  28.864  1.00  0.00    -0.248 NA
ATOM     53  C   UNL A   1      45.288  24.226  28.147  1.00  0.00     0.031 C 
ATOM     54  C   UNL A   1      47.285  29.366  30.683  1.00  0.00     0.029 A 
ATOM     55  C   UNL A   1      46.468  28.405  30.108  1.00  0.00     0.049 A 
ATOM     56  H   UNL A   1      44.415  28.514  29.634  1.00  0.00     0.167 HD
ATOM     57  C   UNL A   1      45.952  26.189  29.124  1.00  0.00     0.074 A 
ATOM     58  C   UNL A   1      46.319  24.858  28.687  1.00  0.00     0.031 C 
ATOM     59  C   UNL A   1      46.815  27.075  29.677  1.00  0.00     0.037 A 
BRANCH  46  60
ATOM     60  C   UNL A   1      44.258  32.508  31.126  1.00  0.00     0.057 A 
ATOM     61  C   UNL A   1      44.129  32.777  32.495  1.00  0.00     0.134 A 
ATOM     62  C   UNL A   1      44.593  33.576  30.286  1.00  0.00     0.134 A 
ATOM     63  F   UNL A   1      43.795  31.800  33.351  1.00  0.00    -0.206 F 
ATOM     64  C   UNL A   1      44.304  34.064  33.006  1.00  0.00     0.040 A 
ATOM     65  C   UNL A   1      44.795  34.862  30.788  1.00  0.00     0.040 A 
ATOM     66  F   UNL A   1      44.737  33.386  28.965  1.00  0.00    -0.206 F 
ATOM     67  C   UNL A   1      44.644  35.111  32.151  1.00  0.00     0.006 A 
ENDBRANCH  46  60
BRANCH  47  68
ATOM     68  C   UNL A   1      42.606  23.453  27.288  1.00  0.00     0.057 A 
ATOM     69  C   UNL A   1      42.248  22.377  28.109  1.00  0.00     0.134 A 
ATOM     70  C   UNL A   1      42.737  23.204  25.916  1.00  0.00     0.134 A 
ATOM     71  F   UNL A   1      42.125  22.551  29.432  1.00  0.00    -0.206 F 
ATOM     72  C   UNL A   1      42.046  21.098  27.590  1.00  0.00     0.040 A 
ATOM     73  C   UNL A   1      42.516  21.934  25.381  1.00  0.00     0.040 A 
ATOM     74  F   UNL A   1      43.072  24.194  25.077  1.00  0.00    -0.206 F 
ATOM     75  C   UNL A   1      42.175  20.875  26.221  1.00  0.00     0.006 A 
ENDBRANCH  47  68
BRANCH  59  76
ATOM     76  C   UNL A   1      48.232  26.623  29.873  1.00  0.00     0.057 A 
ATOM     77  C   UNL A   1      49.227  26.880  28.923  1.00  0.00     0.134 A 
ATOM     78  C   UNL A   1      48.610  25.956  31.045  1.00  0.00     0.134 A 
ATOM     79  F   UNL A   1      48.925  27.503  27.773  1.00  0.00    -0.206 F 
ATOM     80  C   UNL A   1      50.548  26.474  29.124  1.00  0.00     0.040 A 
ATOM     81  C   UNL A   1      49.931  25.565  31.267  1.00  0.00     0.040 A 
ATOM     82  F   UNL A   1      47.705  25.686  31.998  1.00  0.00    -0.206 F 
ATOM     83  C   UNL A   1      50.904  25.820  30.302  1.00  0.00     0.006 A 
ENDBRANCH  59  76
ENDBRANCH  33  34
ENDBRANCH  25  28
ENDBRANCH  23  24
ENDBRANCH  22  23
ENDBRANCH   1  22
TORSDOF 14
ENDMDL
