MODEL 1
REMARK VINA RESULT:     -11.1      0.000      0.000
REMARK SMILES CO[C@@H]1CCC[C@@H]1n1c(SCC(=O)NCCCCNC(=O)c2ccc(-c3c4nc(c(-c5c(F)cccc5F)c5ccc([nH]5)c(-c5c(F)cccc5F)c5nc(c(-c6c(F)cccc6F)c6ccc3[nH]6)C=C5)C=C4)cc2)nc2cnccc21
REMARK SMILES IDX 15 1 14 2 12 3 13 4 11 6 10 7 9 8 8 9 82 10 76 11 77 12
REMARK SMILES IDX 81 13 78 14 80 15 79 16 7 17 3 18 4 19 5 20 6 21 2 22 1 23
REMARK SMILES IDX 16 24 17 25 18 26 19 27 20 28 21 30 22 31 23 32 75 33 24 34
REMARK SMILES IDX 74 35 25 36 26 37 27 38 68 39 28 40 73 41 67 42 69 43 29 44
REMARK SMILES IDX 72 45 66 46 65 47 30 49 56 50 39 51 55 52 40 53 43 54 54 55
REMARK SMILES IDX 70 56 41 57 42 58 53 60 71 61 44 62 31 63 32 64 37 65 33 66
REMARK SMILES IDX 34 67 36 68 38 69 35 70 57 71 58 72 63 73 59 74 60 75 62 76
REMARK SMILES IDX 64 77 61 78 45 79 46 80 51 81 47 82 48 83 50 84 52 85 49 86
REMARK H PARENT 14 5 19 29 69 48 43 59
REMARK Flexibility Score: inf
ROOT
ATOM      1  C   UNL A   1      39.580  21.369  25.906  1.00  0.00     0.116 C 
ENDROOT
BRANCH   1   2
ATOM      2  N   UNL A   1      38.938  22.399  26.696  1.00  0.00    -0.355 N 
ATOM      3  C   UNL A   1      38.037  23.259  26.128  1.00  0.00     0.230 C 
ATOM      4  O   UNL A   1      38.351  24.451  26.120  1.00  0.00    -0.274 OA
ATOM      5  H   UNL A   1      39.152  22.480  27.653  1.00  0.00     0.163 HD
BRANCH   3   6
ATOM      6  C   UNL A   1      36.735  22.637  25.662  1.00  0.00     0.178 C 
BRANCH   6   7
ATOM      7  S   UNL A   1      35.873  23.439  24.292  1.00  0.00    -0.078 SA
BRANCH   7   8
ATOM      8  C   UNL A   1      34.237  23.593  24.843  1.00  0.00     0.169 A 
ATOM      9  N   UNL A   1      33.373  24.598  24.411  1.00  0.00    -0.313 N 
ATOM     10  C   UNL A   1      32.230  24.467  25.193  1.00  0.00     0.072 A 
ATOM     11  N   UNL A   1      33.723  22.832  25.777  1.00  0.00    -0.221 NA
ATOM     12  C   UNL A   1      32.492  23.374  26.032  1.00  0.00     0.108 A 
ATOM     13  C   UNL A   1      31.017  25.152  25.322  1.00  0.00     0.049 A 
ATOM     14  C   UNL A   1      31.546  22.995  26.997  1.00  0.00     0.141 A 
ATOM     15  C   UNL A   1      30.154  24.720  26.322  1.00  0.00     0.113 A 
ATOM     16  N   UNL A   1      30.384  23.680  27.144  1.00  0.00    -0.262 NA
BRANCH   9  17
ATOM     17  C   UNL A   1      33.772  25.629  23.451  1.00  0.00     0.119 C 
ATOM     18  C   UNL A   1      33.290  27.089  23.570  1.00  0.00     0.140 C 
ATOM     19  C   UNL A   1      31.859  27.067  23.018  1.00  0.00     0.034 C 
ATOM     20  C   UNL A   1      31.870  25.967  21.958  1.00  0.00     0.005 C 
ATOM     21  C   UNL A   1      33.284  25.391  22.003  1.00  0.00     0.028 C 
BRANCH  18  22
ATOM     22  O   UNL A   1      33.498  27.680  24.835  1.00  0.00    -0.379 OA
ATOM     23  C   UNL A   1      32.455  28.568  25.212  1.00  0.00     0.195 C 
ENDBRANCH  18  22
ENDBRANCH   9  17
ENDBRANCH   7   8
ENDBRANCH   6   7
ENDBRANCH   3   6
ENDBRANCH   1   2
BRANCH   1  24
ATOM     24  C   UNL A   1      40.637  20.640  26.745  1.00  0.00     0.023 C 
BRANCH  24  25
ATOM     25  C   UNL A   1      41.175  19.343  26.119  1.00  0.00     0.023 C 
BRANCH  25  26
ATOM     26  C   UNL A   1      42.655  19.062  26.387  1.00  0.00     0.116 C 
BRANCH  26  27
ATOM     27  N   UNL A   1      43.531  19.429  25.295  1.00  0.00    -0.352 N 
ATOM     28  C   UNL A   1      44.095  20.601  24.879  1.00  0.00     0.251 C 
ATOM     29  H   UNL A   1      43.775  18.664  24.726  1.00  0.00     0.163 HD
ATOM     30  O   UNL A   1      44.758  20.550  23.839  1.00  0.00    -0.269 OA
BRANCH  28  31
ATOM     31  C   UNL A   1      43.938  21.909  25.570  1.00  0.00     0.039 A 
ATOM     32  C   UNL A   1      44.654  22.312  26.698  1.00  0.00     0.014 A 
ATOM     33  C   UNL A   1      43.016  22.808  25.007  1.00  0.00     0.014 A 
ATOM     34  C   UNL A   1      44.402  23.539  27.300  1.00  0.00     0.010 A 
ATOM     35  C   UNL A   1      42.798  24.060  25.577  1.00  0.00     0.010 A 
ATOM     36  C   UNL A   1      43.468  24.414  26.748  1.00  0.00    -0.014 A 
BRANCH  36  37
ATOM     37  C   UNL A   1      43.284  25.706  27.408  1.00  0.00     0.031 A 
ATOM     38  C   UNL A   1      44.295  26.775  27.133  1.00  0.00     0.074 A 
ATOM     39  C   UNL A   1      42.197  26.020  28.137  1.00  0.00     0.049 A 
ATOM     40  N   UNL A   1      44.983  27.472  27.984  1.00  0.00    -0.248 NA
ATOM     41  C   UNL A   1      44.579  27.103  25.727  1.00  0.00     0.031 C 
ATOM     42  C   UNL A   1      40.962  25.253  28.294  1.00  0.00     0.029 A 
ATOM     43  N   UNL A   1      41.935  27.184  28.800  1.00  0.00    -0.354 N 
ATOM     44  C   UNL A   1      45.679  28.425  27.241  1.00  0.00     0.074 A 
ATOM     45  C   UNL A   1      45.444  28.110  25.854  1.00  0.00     0.031 C 
ATOM     46  C   UNL A   1      40.006  26.063  28.797  1.00  0.00     0.029 A 
ATOM     47  C   UNL A   1      40.598  27.355  29.107  1.00  0.00     0.049 A 
ATOM     48  H   UNL A   1      42.631  27.838  29.038  1.00  0.00     0.167 HD
ATOM     49  C   UNL A   1      46.294  29.501  27.806  1.00  0.00     0.037 A 
ATOM     50  C   UNL A   1      39.997  28.501  29.504  1.00  0.00     0.037 A 
ATOM     51  C   UNL A   1      46.508  29.341  29.215  1.00  0.00     0.049 A 
ATOM     52  C   UNL A   1      41.032  29.413  30.044  1.00  0.00     0.074 A 
ATOM     53  C   UNL A   1      47.179  28.425  30.005  1.00  0.00     0.029 A 
ATOM     54  N   UNL A   1      45.768  30.094  30.092  1.00  0.00    -0.354 N 
ATOM     55  N   UNL A   1      41.656  29.240  31.176  1.00  0.00    -0.248 NA
ATOM     56  C   UNL A   1      41.652  30.365  29.133  1.00  0.00     0.031 C 
ATOM     57  C   UNL A   1      46.424  28.352  31.212  1.00  0.00     0.029 A 
ATOM     58  C   UNL A   1      45.350  29.229  31.068  1.00  0.00     0.049 A 
ATOM     59  H   UNL A   1      45.578  31.059  30.032  1.00  0.00     0.167 HD
ATOM     60  C   UNL A   1      42.935  29.728  30.955  1.00  0.00     0.074 A 
ATOM     61  C   UNL A   1      42.835  30.515  29.731  1.00  0.00     0.031 C 
ATOM     62  C   UNL A   1      44.017  29.225  31.619  1.00  0.00     0.037 A 
BRANCH  49  63
ATOM     63  C   UNL A   1      46.480  30.831  27.125  1.00  0.00     0.057 A 
ATOM     64  C   UNL A   1      45.407  31.660  26.749  1.00  0.00     0.134 A 
ATOM     65  C   UNL A   1      47.750  31.438  27.098  1.00  0.00     0.134 A 
ATOM     66  F   UNL A   1      44.135  31.244  26.826  1.00  0.00    -0.206 F 
ATOM     67  C   UNL A   1      45.581  32.994  26.367  1.00  0.00     0.040 A 
ATOM     68  C   UNL A   1      47.931  32.786  26.764  1.00  0.00     0.040 A 
ATOM     69  F   UNL A   1      48.846  30.758  27.468  1.00  0.00    -0.206 F 
ATOM     70  C   UNL A   1      46.843  33.570  26.398  1.00  0.00     0.006 A 
ENDBRANCH  49  63
BRANCH  50  71
ATOM     71  C   UNL A   1      38.607  28.921  29.234  1.00  0.00     0.057 A 
ATOM     72  C   UNL A   1      38.218  29.420  27.976  1.00  0.00     0.134 A 
ATOM     73  C   UNL A   1      37.665  29.042  30.261  1.00  0.00     0.134 A 
ATOM     74  F   UNL A   1      39.078  29.460  26.947  1.00  0.00    -0.206 F 
ATOM     75  C   UNL A   1      36.957  29.973  27.744  1.00  0.00     0.040 A 
ATOM     76  C   UNL A   1      36.403  29.611  30.047  1.00  0.00     0.040 A 
ATOM     77  F   UNL A   1      37.964  28.657  31.510  1.00  0.00    -0.206 F 
ATOM     78  C   UNL A   1      36.044  30.076  28.783  1.00  0.00     0.006 A 
ENDBRANCH  50  71
BRANCH  62  79
ATOM     79  C   UNL A   1      43.778  28.330  32.799  1.00  0.00     0.057 A 
ATOM     80  C   UNL A   1      43.791  28.879  34.087  1.00  0.00     0.134 A 
ATOM     81  C   UNL A   1      43.701  26.933  32.704  1.00  0.00     0.134 A 
ATOM     82  F   UNL A   1      43.934  30.203  34.258  1.00  0.00    -0.206 F 
ATOM     83  C   UNL A   1      43.710  28.078  35.229  1.00  0.00     0.040 A 
ATOM     84  C   UNL A   1      43.585  26.124  33.837  1.00  0.00     0.040 A 
ATOM     85  F   UNL A   1      43.800  26.314  31.520  1.00  0.00    -0.206 F 
ATOM     86  C   UNL A   1      43.594  26.696  35.106  1.00  0.00     0.006 A 
ENDBRANCH  62  79
ENDBRANCH  36  37
ENDBRANCH  28  31
ENDBRANCH  26  27
ENDBRANCH  25  26
ENDBRANCH  24  25
ENDBRANCH   1  24
TORSDOF 15
ENDMDL
MODEL 2
REMARK VINA RESULT:     -10.7      2.688      7.996
REMARK SMILES CO[C@@H]1CCC[C@@H]1n1c(SCC(=O)NCCCCNC(=O)c2ccc(-c3c4nc(c(-c5c(F)cccc5F)c5ccc([nH]5)c(-c5c(F)cccc5F)c5nc(c(-c6c(F)cccc6F)c6ccc3[nH]6)C=C5)C=C4)cc2)nc2cnccc21
REMARK SMILES IDX 15 1 14 2 12 3 13 4 11 6 10 7 9 8 8 9 82 10 76 11 77 12
REMARK SMILES IDX 81 13 78 14 80 15 79 16 7 17 3 18 4 19 5 20 6 21 2 22 1 23
REMARK SMILES IDX 16 24 17 25 18 26 19 27 20 28 21 30 22 31 23 32 75 33 24 34
REMARK SMILES IDX 74 35 25 36 26 37 27 38 68 39 28 40 73 41 67 42 69 43 29 44
REMARK SMILES IDX 72 45 66 46 65 47 30 49 56 50 39 51 55 52 40 53 43 54 54 55
REMARK SMILES IDX 70 56 41 57 42 58 53 60 71 61 44 62 31 63 32 64 37 65 33 66
REMARK SMILES IDX 34 67 36 68 38 69 35 70 57 71 58 72 63 73 59 74 60 75 62 76
REMARK SMILES IDX 64 77 61 78 45 79 46 80 51 81 47 82 48 83 50 84 52 85 49 86
REMARK H PARENT 14 5 19 29 69 48 43 59
REMARK Flexibility Score: inf
ROOT
ATOM      1  C   UNL A   1      33.255  27.278  26.111  1.00  0.00     0.116 C 
ENDROOT
BRANCH   1   2
ATOM      2  N   UNL A   1      32.784  27.763  24.831  1.00  0.00    -0.355 N 
ATOM      3  C   UNL A   1      32.929  27.009  23.698  1.00  0.00     0.230 C 
ATOM      4  O   UNL A   1      33.649  27.483  22.816  1.00  0.00    -0.274 OA
ATOM      5  H   UNL A   1      32.353  28.646  24.776  1.00  0.00     0.163 HD
BRANCH   3   6
ATOM      6  C   UNL A   1      32.115  25.731  23.648  1.00  0.00     0.178 C 
BRANCH   6   7
ATOM      7  S   UNL A   1      32.517  24.540  22.351  1.00  0.00    -0.078 SA
BRANCH   7   8
ATOM      8  C   UNL A   1      33.831  23.618  23.005  1.00  0.00     0.169 A 
ATOM      9  N   UNL A   1      33.667  22.383  23.629  1.00  0.00    -0.313 N 
ATOM     10  C   UNL A   1      34.917  22.057  24.143  1.00  0.00     0.072 A 
ATOM     11  N   UNL A   1      35.063  24.060  23.045  1.00  0.00    -0.221 NA
ATOM     12  C   UNL A   1      35.748  23.124  23.772  1.00  0.00     0.108 A 
ATOM     13  C   UNL A   1      35.450  21.010  24.903  1.00  0.00     0.049 A 
ATOM     14  C   UNL A   1      37.091  23.136  24.181  1.00  0.00     0.141 A 
ATOM     15  C   UNL A   1      36.783  21.121  25.281  1.00  0.00     0.113 A 
ATOM     16  N   UNL A   1      37.599  22.137  24.945  1.00  0.00    -0.262 NA
BRANCH   9  17
ATOM     17  C   UNL A   1      32.359  21.747  23.799  1.00  0.00     0.119 C 
ATOM     18  C   UNL A   1      31.916  21.133  25.142  1.00  0.00     0.140 C 
ATOM     19  C   UNL A   1      32.631  19.777  25.200  1.00  0.00     0.034 C 
ATOM     20  C   UNL A   1      32.741  19.337  23.741  1.00  0.00     0.005 C 
ATOM     21  C   UNL A   1      32.134  20.484  22.936  1.00  0.00     0.028 C 
BRANCH  18  22
ATOM     22  O   UNL A   1      32.042  21.991  26.257  1.00  0.00    -0.379 OA
ATOM     23  C   UNL A   1      31.124  23.075  26.230  1.00  0.00     0.195 C 
ENDBRANCH  18  22
ENDBRANCH   9  17
ENDBRANCH   7   8
ENDBRANCH   6   7
ENDBRANCH   3   6
ENDBRANCH   1   2
BRANCH   1  24
ATOM     24  C   UNL A   1      34.084  28.359  26.814  1.00  0.00     0.023 C 
BRANCH  24  25
ATOM     25  C   UNL A   1      33.278  29.574  27.303  1.00  0.00     0.023 C 
BRANCH  25  26
ATOM     26  C   UNL A   1      34.012  30.913  27.214  1.00  0.00     0.116 C 
BRANCH  26  27
ATOM     27  N   UNL A   1      33.992  31.679  28.441  1.00  0.00    -0.352 N 
ATOM     28  C   UNL A   1      34.859  31.830  29.485  1.00  0.00     0.251 C 
ATOM     29  H   UNL A   1      33.170  32.210  28.548  1.00  0.00     0.163 HD
ATOM     30  O   UNL A   1      34.473  32.538  30.420  1.00  0.00    -0.269 OA
BRANCH  28  31
ATOM     31  C   UNL A   1      36.196  31.185  29.574  1.00  0.00     0.039 A 
ATOM     32  C   UNL A   1      37.418  31.849  29.458  1.00  0.00     0.014 A 
ATOM     33  C   UNL A   1      36.209  29.803  29.829  1.00  0.00     0.014 A 
ATOM     34  C   UNL A   1      38.618  31.149  29.510  1.00  0.00     0.010 A 
ATOM     35  C   UNL A   1      37.410  29.104  29.934  1.00  0.00     0.010 A 
ATOM     36  C   UNL A   1      38.618  29.773  29.739  1.00  0.00    -0.014 A 
BRANCH  36  37
ATOM     37  C   UNL A   1      39.918  29.107  29.825  1.00  0.00     0.031 A 
ATOM     38  C   UNL A   1      40.515  28.924  31.185  1.00  0.00     0.074 A 
ATOM     39  C   UNL A   1      40.533  28.542  28.770  1.00  0.00     0.049 A 
ATOM     40  N   UNL A   1      41.693  29.271  31.601  1.00  0.00    -0.248 NA
ATOM     41  C   UNL A   1      39.687  28.278  32.215  1.00  0.00     0.031 C 
ATOM     42  C   UNL A   1      40.009  28.337  27.420  1.00  0.00     0.029 A 
ATOM     43  N   UNL A   1      41.743  27.910  28.740  1.00  0.00    -0.354 N 
ATOM     44  C   UNL A   1      41.820  28.764  32.894  1.00  0.00     0.074 A 
ATOM     45  C   UNL A   1      40.532  28.220  33.245  1.00  0.00     0.031 C 
ATOM     46  C   UNL A   1      40.784  27.432  26.784  1.00  0.00     0.029 A 
ATOM     47  C   UNL A   1      41.914  27.098  27.634  1.00  0.00     0.049 A 
ATOM     48  H   UNL A   1      42.428  28.023  29.438  1.00  0.00     0.167 HD
ATOM     49  C   UNL A   1      43.012  28.695  33.550  1.00  0.00     0.037 A 
ATOM     50  C   UNL A   1      42.867  26.152  27.463  1.00  0.00     0.037 A 
ATOM     51  C   UNL A   1      44.013  29.546  32.973  1.00  0.00     0.049 A 
ATOM     52  C   UNL A   1      43.989  26.440  28.386  1.00  0.00     0.074 A 
ATOM     53  C   UNL A   1      44.121  30.902  32.726  1.00  0.00     0.029 A 
ATOM     54  N   UNL A   1      45.064  28.975  32.299  1.00  0.00    -0.354 N 
ATOM     55  N   UNL A   1      44.823  27.434  28.252  1.00  0.00    -0.248 NA
ATOM     56  C   UNL A   1      43.977  25.813  29.700  1.00  0.00     0.031 C 
ATOM     57  C   UNL A   1      44.898  31.003  31.536  1.00  0.00     0.029 A 
ATOM     58  C   UNL A   1      45.207  29.700  31.146  1.00  0.00     0.049 A 
ATOM     59  H   UNL A   1      45.605  28.204  32.587  1.00  0.00     0.167 HD
ATOM     60  C   UNL A   1      45.127  27.820  29.548  1.00  0.00     0.074 A 
ATOM     61  C   UNL A   1      44.680  26.714  30.388  1.00  0.00     0.031 C 
ATOM     62  C   UNL A   1      45.453  29.110  29.853  1.00  0.00     0.037 A 
BRANCH  49  63
ATOM     63  C   UNL A   1      43.360  27.652  34.579  1.00  0.00     0.057 A 
ATOM     64  C   UNL A   1      43.315  27.894  35.964  1.00  0.00     0.134 A 
ATOM     65  C   UNL A   1      43.466  26.300  34.205  1.00  0.00     0.134 A 
ATOM     66  F   UNL A   1      43.114  29.123  36.459  1.00  0.00    -0.206 F 
ATOM     67  C   UNL A   1      43.377  26.867  36.912  1.00  0.00     0.040 A 
ATOM     68  C   UNL A   1      43.480  25.260  35.143  1.00  0.00     0.040 A 
ATOM     69  F   UNL A   1      43.484  25.943  32.912  1.00  0.00    -0.206 F 
ATOM     70  C   UNL A   1      43.433  25.543  36.503  1.00  0.00     0.006 A 
ENDBRANCH  49  63
BRANCH  50  71
ATOM     71  C   UNL A   1      42.749  24.894  26.698  1.00  0.00     0.057 A 
ATOM     72  C   UNL A   1      42.125  23.755  27.242  1.00  0.00     0.134 A 
ATOM     73  C   UNL A   1      43.428  24.704  25.490  1.00  0.00     0.134 A 
ATOM     74  F   UNL A   1      41.541  23.790  28.449  1.00  0.00    -0.206 F 
ATOM     75  C   UNL A   1      42.143  22.512  26.606  1.00  0.00     0.040 A 
ATOM     76  C   UNL A   1      43.471  23.458  24.850  1.00  0.00     0.040 A 
ATOM     77  F   UNL A   1      44.110  25.710  24.925  1.00  0.00    -0.206 F 
ATOM     78  C   UNL A   1      42.824  22.357  25.407  1.00  0.00     0.006 A 
ENDBRANCH  50  71
BRANCH  62  79
ATOM     79  C   UNL A   1      45.756  30.054  28.727  1.00  0.00     0.057 A 
ATOM     80  C   UNL A   1      44.699  30.678  28.054  1.00  0.00     0.134 A 
ATOM     81  C   UNL A   1      47.041  30.231  28.194  1.00  0.00     0.134 A 
ATOM     82  F   UNL A   1      43.433  30.497  28.465  1.00  0.00    -0.206 F 
ATOM     83  C   UNL A   1      44.911  31.461  26.916  1.00  0.00     0.040 A 
ATOM     84  C   UNL A   1      47.270  31.037  27.077  1.00  0.00     0.040 A 
ATOM     85  F   UNL A   1      48.096  29.578  28.701  1.00  0.00    -0.206 F 
ATOM     86  C   UNL A   1      46.202  31.652  26.431  1.00  0.00     0.006 A 
ENDBRANCH  62  79
ENDBRANCH  36  37
ENDBRANCH  28  31
ENDBRANCH  26  27
ENDBRANCH  25  26
ENDBRANCH  24  25
ENDBRANCH   1  24
TORSDOF 15
ENDMDL
MODEL 3
REMARK VINA RESULT:     -10.6      1.160      2.382
REMARK SMILES CO[C@@H]1CCC[C@@H]1n1c(SCC(=O)NCCCCNC(=O)c2ccc(-c3c4nc(c(-c5c(F)cccc5F)c5ccc([nH]5)c(-c5c(F)cccc5F)c5nc(c(-c6c(F)cccc6F)c6ccc3[nH]6)C=C5)C=C4)cc2)nc2cnccc21
REMARK SMILES IDX 15 1 14 2 12 3 13 4 11 6 10 7 9 8 8 9 82 10 76 11 77 12
REMARK SMILES IDX 81 13 78 14 80 15 79 16 7 17 3 18 4 19 5 20 6 21 2 22 1 23
REMARK SMILES IDX 16 24 17 25 18 26 19 27 20 28 21 30 22 31 23 32 75 33 24 34
REMARK SMILES IDX 74 35 25 36 26 37 27 38 68 39 28 40 73 41 67 42 69 43 29 44
REMARK SMILES IDX 72 45 66 46 65 47 30 49 56 50 39 51 55 52 40 53 43 54 54 55
REMARK SMILES IDX 70 56 41 57 42 58 53 60 71 61 44 62 31 63 32 64 37 65 33 66
REMARK SMILES IDX 34 67 36 68 38 69 35 70 57 71 58 72 63 73 59 74 60 75 62 76
REMARK SMILES IDX 64 77 61 78 45 79 46 80 51 81 47 82 48 83 50 84 52 85 49 86
REMARK H PARENT 14 5 19 29 69 48 43 59
REMARK Flexibility Score: inf
ROOT
ATOM      1  C   UNL A   1      39.086  21.003  25.604  1.00  0.00     0.116 C 
ENDROOT
BRANCH   1   2
ATOM      2  N   UNL A   1      38.247  21.946  26.314  1.00  0.00    -0.355 N 
ATOM      3  C   UNL A   1      38.063  23.217  25.840  1.00  0.00     0.230 C 
ATOM      4  O   UNL A   1      38.480  24.131  26.554  1.00  0.00    -0.274 OA
ATOM      5  H   UNL A   1      37.805  21.669  27.149  1.00  0.00     0.163 HD
BRANCH   3   6
ATOM      6  C   UNL A   1      37.292  23.328  24.539  1.00  0.00     0.178 C 
BRANCH   6   7
ATOM      7  S   UNL A   1      35.837  22.275  24.343  1.00  0.00    -0.078 SA
BRANCH   7   8
ATOM      8  C   UNL A   1      34.570  23.369  23.892  1.00  0.00     0.169 A 
ATOM      9  N   UNL A   1      33.353  23.452  24.566  1.00  0.00    -0.313 N 
ATOM     10  C   UNL A   1      32.569  24.317  23.810  1.00  0.00     0.072 A 
ATOM     11  N   UNL A   1      34.628  24.130  22.828  1.00  0.00    -0.221 NA
ATOM     12  C   UNL A   1      33.388  24.704  22.740  1.00  0.00     0.108 A 
ATOM     13  C   UNL A   1      31.258  24.802  23.876  1.00  0.00     0.049 A 
ATOM     14  C   UNL A   1      32.880  25.553  21.744  1.00  0.00     0.141 A 
ATOM     15  C   UNL A   1      30.836  25.618  22.832  1.00  0.00     0.113 A 
ATOM     16  N   UNL A   1      31.599  25.997  21.791  1.00  0.00    -0.262 NA
BRANCH   9  17
ATOM     17  C   UNL A   1      33.025  22.612  25.719  1.00  0.00     0.119 C 
ATOM     18  C   UNL A   1      31.838  21.626  25.703  1.00  0.00     0.140 C 
ATOM     19  C   UNL A   1      30.604  22.507  25.938  1.00  0.00     0.034 C 
ATOM     20  C   UNL A   1      31.107  23.650  26.816  1.00  0.00     0.005 C 
ATOM     21  C   UNL A   1      32.602  23.388  26.988  1.00  0.00     0.028 C 
BRANCH  18  22
ATOM     22  O   UNL A   1      31.816  20.743  24.601  1.00  0.00    -0.379 OA
ATOM     23  C   UNL A   1      32.748  19.678  24.725  1.00  0.00     0.195 C 
ENDBRANCH  18  22
ENDBRANCH   9  17
ENDBRANCH   7   8
ENDBRANCH   6   7
ENDBRANCH   3   6
ENDBRANCH   1   2
BRANCH   1  24
ATOM     24  C   UNL A   1      40.364  20.725  26.403  1.00  0.00     0.023 C 
BRANCH  24  25
ATOM     25  C   UNL A   1      41.021  19.364  26.115  1.00  0.00     0.023 C 
BRANCH  25  26
ATOM     26  C   UNL A   1      42.517  19.291  26.429  1.00  0.00     0.116 C 
BRANCH  26  27
ATOM     27  N   UNL A   1      43.370  19.647  25.315  1.00  0.00    -0.352 N 
ATOM     28  C   UNL A   1      43.943  20.811  24.889  1.00  0.00     0.251 C 
ATOM     29  H   UNL A   1      43.585  18.880  24.737  1.00  0.00     0.163 HD
ATOM     30  O   UNL A   1      44.578  20.753  23.831  1.00  0.00    -0.269 OA
BRANCH  28  31
ATOM     31  C   UNL A   1      43.828  22.118  25.589  1.00  0.00     0.039 A 
ATOM     32  C   UNL A   1      44.447  22.440  26.797  1.00  0.00     0.014 A 
ATOM     33  C   UNL A   1      43.057  23.104  24.949  1.00  0.00     0.014 A 
ATOM     34  C   UNL A   1      44.240  23.678  27.396  1.00  0.00     0.010 A 
ATOM     35  C   UNL A   1      42.888  24.364  25.520  1.00  0.00     0.010 A 
ATOM     36  C   UNL A   1      43.453  24.640  26.765  1.00  0.00    -0.014 A 
BRANCH  36  37
ATOM     37  C   UNL A   1      43.313  25.935  27.431  1.00  0.00     0.031 A 
ATOM     38  C   UNL A   1      44.358  26.972  27.159  1.00  0.00     0.074 A 
ATOM     39  C   UNL A   1      42.238  26.282  28.163  1.00  0.00     0.049 A 
ATOM     40  N   UNL A   1      45.069  27.642  28.012  1.00  0.00    -0.248 NA
ATOM     41  C   UNL A   1      44.651  27.295  25.754  1.00  0.00     0.031 C 
ATOM     42  C   UNL A   1      40.978  25.555  28.318  1.00  0.00     0.029 A 
ATOM     43  N   UNL A   1      42.014  27.450  28.830  1.00  0.00    -0.354 N 
ATOM     44  C   UNL A   1      45.796  28.574  27.272  1.00  0.00     0.074 A 
ATOM     45  C   UNL A   1      45.550  28.273  25.883  1.00  0.00     0.031 C 
ATOM     46  C   UNL A   1      40.050  26.394  28.825  1.00  0.00     0.029 A 
ATOM     47  C   UNL A   1      40.684  27.664  29.139  1.00  0.00     0.049 A 
ATOM     48  H   UNL A   1      42.732  28.080  29.070  1.00  0.00     0.167 HD
ATOM     49  C   UNL A   1      46.446  29.627  27.840  1.00  0.00     0.037 A 
ATOM     50  C   UNL A   1      40.122  28.828  29.542  1.00  0.00     0.037 A 
ATOM     51  C   UNL A   1      46.657  29.454  29.249  1.00  0.00     0.049 A 
ATOM     52  C   UNL A   1      41.187  29.703  30.084  1.00  0.00     0.074 A 
ATOM     53  C   UNL A   1      47.298  28.514  30.035  1.00  0.00     0.029 A 
ATOM     54  N   UNL A   1      45.943  30.228  30.129  1.00  0.00    -0.354 N 
ATOM     55  N   UNL A   1      41.806  29.505  31.215  1.00  0.00    -0.248 NA
ATOM     56  C   UNL A   1      41.836  30.638  29.177  1.00  0.00     0.031 C 
ATOM     57  C   UNL A   1      46.542  28.461  31.242  1.00  0.00     0.029 A 
ATOM     58  C   UNL A   1      45.498  29.373  31.103  1.00  0.00     0.049 A 
ATOM     59  H   UNL A   1      45.784  31.199  30.073  1.00  0.00     0.167 HD
ATOM     60  C   UNL A   1      43.100  29.951  30.994  1.00  0.00     0.074 A 
ATOM     61  C   UNL A   1      43.024  30.747  29.774  1.00  0.00     0.031 C 
ATOM     62  C   UNL A   1      44.165  29.410  31.655  1.00  0.00     0.037 A 
BRANCH  49  63
ATOM     63  C   UNL A   1      46.676  30.954  27.165  1.00  0.00     0.057 A 
ATOM     64  C   UNL A   1      45.630  31.823  26.802  1.00  0.00     0.134 A 
ATOM     65  C   UNL A   1      47.967  31.514  27.130  1.00  0.00     0.134 A 
ATOM     66  F   UNL A   1      44.345  31.453  26.887  1.00  0.00    -0.206 F 
ATOM     67  C   UNL A   1      45.850  33.151  26.425  1.00  0.00     0.040 A 
ATOM     68  C   UNL A   1      48.194  32.856  26.801  1.00  0.00     0.040 A 
ATOM     69  F   UNL A   1      49.040  30.792  27.487  1.00  0.00    -0.206 F 
ATOM     70  C   UNL A   1      47.132  33.681  26.449  1.00  0.00     0.006 A 
ENDBRANCH  49  63
BRANCH  50  71
ATOM     71  C   UNL A   1      38.746  29.294  29.276  1.00  0.00     0.057 A 
ATOM     72  C   UNL A   1      37.754  29.275  30.275  1.00  0.00     0.134 A 
ATOM     73  C   UNL A   1      38.305  29.576  27.978  1.00  0.00     0.134 A 
ATOM     74  F   UNL A   1      38.039  28.906  31.533  1.00  0.00    -0.206 F 
ATOM     75  C   UNL A   1      36.412  29.555  30.008  1.00  0.00     0.040 A 
ATOM     76  C   UNL A   1      36.959  29.841  27.693  1.00  0.00     0.040 A 
ATOM     77  F   UNL A   1      39.161  29.552  26.947  1.00  0.00    -0.206 F 
ATOM     78  C   UNL A   1      36.008  29.834  28.710  1.00  0.00     0.006 A 
ENDBRANCH  50  71
BRANCH  62  79
ATOM     79  C   UNL A   1      43.898  28.519  32.832  1.00  0.00     0.057 A 
ATOM     80  C   UNL A   1      44.061  29.028  34.126  1.00  0.00     0.134 A 
ATOM     81  C   UNL A   1      43.649  27.144  32.716  1.00  0.00     0.134 A 
ATOM     82  F   UNL A   1      44.372  30.321  34.311  1.00  0.00    -0.206 F 
ATOM     83  C   UNL A   1      43.959  28.212  35.256  1.00  0.00     0.040 A 
ATOM     84  C   UNL A   1      43.511  26.325  33.839  1.00  0.00     0.040 A 
ATOM     85  F   UNL A   1      43.596  26.549  31.517  1.00  0.00    -0.206 F 
ATOM     86  C   UNL A   1      43.671  26.857  35.115  1.00  0.00     0.006 A 
ENDBRANCH  62  79
ENDBRANCH  36  37
ENDBRANCH  28  31
ENDBRANCH  26  27
ENDBRANCH  25  26
ENDBRANCH  24  25
ENDBRANCH   1  24
TORSDOF 15
ENDMDL
