MODEL 1
REMARK VINA RESULT:     -11.7      0.000      0.000
REMARK SMILES CCC(C)(C)NC(=O)[C@@H](C)Oc1ccc(C)nc1C(=O)NCCCCNC(=O)c1ccc(-c2c3nc(c(-c4c(F)cccc4F)c4ccc([nH]4)c(-c4c(F)cccc4F)c4nc(c(-c5c(F)cccc5F)c5ccc2[nH]5)C=C4)C=C3)cc1
REMARK SMILES IDX 22 1 21 2 19 3 20 4 18 6 12 7 13 8 14 9 17 10 15 11 16 12
REMARK SMILES IDX 11 13 9 14 10 15 7 16 6 17 8 19 3 20 4 21 5 22 2 23 1 24
REMARK SMILES IDX 23 25 24 26 25 27 26 28 27 29 28 31 29 32 30 33 82 34 31 35
REMARK SMILES IDX 81 36 32 37 33 38 34 39 75 40 35 41 80 42 74 43 76 44 36 45
REMARK SMILES IDX 79 46 73 47 72 48 37 50 63 51 46 52 62 53 47 54 50 55 61 56
REMARK SMILES IDX 77 57 48 58 49 59 60 61 78 62 51 63 38 64 39 65 44 66 40 67
REMARK SMILES IDX 41 68 43 69 45 70 42 71 64 72 65 73 70 74 66 75 67 76 69 77
REMARK SMILES IDX 71 78 68 79 52 80 53 81 58 82 54 83 55 84 57 85 59 86 56 87
REMARK H PARENT 21 5 6 18 26 30 76 49 50 60
REMARK Flexibility Score: inf
ROOT
ATOM      1  C   UNL A   1      36.779  22.496  25.317  1.00  0.00     0.116 C 
ENDROOT
BRANCH   1   2
ATOM      2  N   UNL A   1      35.949  22.043  26.401  1.00  0.00    -0.351 N 
ATOM      3  C   UNL A   1      34.635  21.647  26.469  1.00  0.00     0.273 C 
ATOM      4  O   UNL A   1      34.207  21.522  27.624  1.00  0.00    -0.267 OA
ATOM      5  H   UNL A   1      36.416  22.007  27.267  1.00  0.00     0.163 HD
BRANCH   3   6
ATOM      6  C   UNL A   1      33.742  21.258  25.305  1.00  0.00     0.170 A 
ATOM      7  C   UNL A   1      33.074  22.074  24.382  1.00  0.00     0.151 A 
ATOM      8  C   UNL A   1      32.562  21.444  23.242  1.00  0.00     0.051 A 
ATOM      9  C   UNL A   1      32.415  20.057  23.215  1.00  0.00     0.027 A 
ATOM     10  N   UNL A   1      33.569  19.900  25.282  1.00  0.00    -0.244 NA
ATOM     11  C   UNL A   1      32.821  19.336  24.318  1.00  0.00     0.038 A 
ATOM     12  C   UNL A   1      32.388  17.920  24.542  1.00  0.00     0.067 C 
BRANCH   7  13
ATOM     13  O   UNL A   1      32.764  23.367  24.708  1.00  0.00    -0.478 OA
BRANCH  13  14
ATOM     14  C   UNL A   1      31.439  23.733  25.085  1.00  0.00     0.259 C 
ATOM     15  C   UNL A   1      30.737  24.468  23.920  1.00  0.00     0.064 C 
BRANCH  14  16
ATOM     16  C   UNL A   1      31.023  24.550  26.337  1.00  0.00     0.261 C 
ATOM     17  N   UNL A   1      30.767  25.888  26.285  1.00  0.00    -0.348 N 
ATOM     18  H   UNL A   1      29.813  26.111  26.378  1.00  0.00     0.164 HD
ATOM     19  O   UNL A   1      30.687  23.960  27.370  1.00  0.00    -0.271 OA
BRANCH  17  20
ATOM     20  C   UNL A   1      31.640  27.074  26.114  1.00  0.00     0.034 C 
ATOM     21  C   UNL A   1      31.517  27.919  27.405  1.00  0.00     0.034 C 
ATOM     22  C   UNL A   1      31.023  27.895  24.961  1.00  0.00     0.034 C 
BRANCH  20  23
ATOM     23  C   UNL A   1      33.146  26.888  25.811  1.00  0.00     0.024 C 
ATOM     24  C   UNL A   1      34.151  27.866  26.391  1.00  0.00     0.006 C 
ENDBRANCH  20  23
ENDBRANCH  17  20
ENDBRANCH  14  16
ENDBRANCH  13  14
ENDBRANCH   7  13
ENDBRANCH   3   6
ENDBRANCH   1   2
BRANCH   1  25
ATOM     25  C   UNL A   1      37.131  21.309  24.426  1.00  0.00     0.023 C 
BRANCH  25  26
ATOM     26  C   UNL A   1      37.759  20.100  25.113  1.00  0.00     0.023 C 
BRANCH  26  27
ATOM     27  C   UNL A   1      39.091  20.426  25.770  1.00  0.00     0.116 C 
BRANCH  27  28
ATOM     28  N   UNL A   1      40.042  19.318  25.768  1.00  0.00    -0.352 N 
ATOM     29  C   UNL A   1      41.368  19.341  26.125  1.00  0.00     0.251 C 
ATOM     30  H   UNL A   1      39.690  18.447  25.473  1.00  0.00     0.163 HD
ATOM     31  O   UNL A   1      42.067  18.337  26.026  1.00  0.00    -0.269 OA
BRANCH  29  32
ATOM     32  C   UNL A   1      41.953  20.624  26.555  1.00  0.00     0.039 A 
ATOM     33  C   UNL A   1      42.380  21.526  25.580  1.00  0.00     0.014 A 
ATOM     34  C   UNL A   1      41.960  20.974  27.906  1.00  0.00     0.014 A 
ATOM     35  C   UNL A   1      42.743  22.816  25.962  1.00  0.00     0.010 A 
ATOM     36  C   UNL A   1      42.207  22.289  28.267  1.00  0.00     0.010 A 
ATOM     37  C   UNL A   1      42.616  23.219  27.301  1.00  0.00    -0.014 A 
BRANCH  37  38
ATOM     38  C   UNL A   1      42.946  24.602  27.721  1.00  0.00     0.031 A 
ATOM     39  C   UNL A   1      44.387  25.027  27.800  1.00  0.00     0.074 A 
ATOM     40  C   UNL A   1      41.960  25.452  28.070  1.00  0.00     0.049 A 
ATOM     41  N   UNL A   1      44.890  26.173  28.179  1.00  0.00    -0.248 NA
ATOM     42  C   UNL A   1      45.399  24.020  27.440  1.00  0.00     0.031 C 
ATOM     43  C   UNL A   1      40.531  25.133  28.099  1.00  0.00     0.029 A 
ATOM     44  N   UNL A   1      42.013  26.763  28.466  1.00  0.00    -0.354 N 
ATOM     45  C   UNL A   1      46.268  26.018  28.110  1.00  0.00     0.074 A 
ATOM     46  C   UNL A   1      46.526  24.647  27.736  1.00  0.00     0.031 C 
ATOM     47  C   UNL A   1      39.841  26.231  28.447  1.00  0.00     0.029 A 
ATOM     48  C   UNL A   1      40.779  27.321  28.695  1.00  0.00     0.049 A 
ATOM     49  H   UNL A   1      42.858  27.259  28.576  1.00  0.00     0.167 HD
ATOM     50  C   UNL A   1      47.234  26.946  28.292  1.00  0.00     0.037 A 
ATOM     51  C   UNL A   1      40.448  28.576  29.051  1.00  0.00     0.037 A 
ATOM     52  C   UNL A   1      46.975  28.320  28.623  1.00  0.00     0.049 A 
ATOM     53  C   UNL A   1      41.543  29.591  29.242  1.00  0.00     0.074 A 
ATOM     54  C   UNL A   1      47.878  29.353  28.794  1.00  0.00     0.029 A 
ATOM     55  N   UNL A   1      45.710  28.853  28.819  1.00  0.00    -0.354 N 
ATOM     56  N   UNL A   1      42.839  29.446  29.107  1.00  0.00    -0.248 NA
ATOM     57  C   UNL A   1      41.126  30.949  29.622  1.00  0.00     0.031 C 
ATOM     58  C   UNL A   1      47.160  30.508  29.116  1.00  0.00     0.029 A 
ATOM     59  C   UNL A   1      45.808  30.201  29.111  1.00  0.00     0.049 A 
ATOM     60  H   UNL A   1      44.868  28.347  28.758  1.00  0.00     0.167 HD
ATOM     61  C   UNL A   1      43.389  30.697  29.353  1.00  0.00     0.074 A 
ATOM     62  C   UNL A   1      42.285  31.593  29.629  1.00  0.00     0.031 C 
ATOM     63  C   UNL A   1      44.690  31.074  29.358  1.00  0.00     0.037 A 
BRANCH  50  64
ATOM     64  C   UNL A   1      48.656  26.506  28.098  1.00  0.00     0.057 A 
ATOM     65  C   UNL A   1      49.306  26.660  26.866  1.00  0.00     0.134 A 
ATOM     66  C   UNL A   1      49.386  25.941  29.149  1.00  0.00     0.134 A 
ATOM     67  F   UNL A   1      48.654  27.177  25.814  1.00  0.00    -0.206 F 
ATOM     68  C   UNL A   1      50.624  26.244  26.678  1.00  0.00     0.040 A 
ATOM     69  C   UNL A   1      50.715  25.546  28.981  1.00  0.00     0.040 A 
ATOM     70  F   UNL A   1      48.825  25.766  30.355  1.00  0.00    -0.206 F 
ATOM     71  C   UNL A   1      51.334  25.691  27.741  1.00  0.00     0.006 A 
ENDBRANCH  50  64
BRANCH  51  72
ATOM     72  C   UNL A   1      39.024  28.967  29.213  1.00  0.00     0.057 A 
ATOM     73  C   UNL A   1      38.367  28.796  30.439  1.00  0.00     0.134 A 
ATOM     74  C   UNL A   1      38.275  29.475  28.146  1.00  0.00     0.134 A 
ATOM     75  F   UNL A   1      39.028  28.297  31.493  1.00  0.00    -0.206 F 
ATOM     76  C   UNL A   1      37.010  29.085  30.589  1.00  0.00     0.040 A 
ATOM     77  C   UNL A   1      36.923  29.793  28.290  1.00  0.00     0.040 A 
ATOM     78  F   UNL A   1      38.846  29.671  26.949  1.00  0.00    -0.206 F 
ATOM     79  C   UNL A   1      36.284  29.586  29.511  1.00  0.00     0.006 A 
ENDBRANCH  51  72
BRANCH  63  80
ATOM     80  C   UNL A   1      44.983  32.519  29.625  1.00  0.00     0.057 A 
ATOM     81  C   UNL A   1      45.257  32.990  30.914  1.00  0.00     0.134 A 
ATOM     82  C   UNL A   1      45.029  33.441  28.572  1.00  0.00     0.134 A 
ATOM     83  F   UNL A   1      45.216  32.157  31.965  1.00  0.00    -0.206 F 
ATOM     84  C   UNL A   1      45.546  34.334  31.151  1.00  0.00     0.040 A 
ATOM     85  C   UNL A   1      45.342  34.782  28.792  1.00  0.00     0.040 A 
ATOM     86  F   UNL A   1      44.785  33.050  27.311  1.00  0.00    -0.206 F 
ATOM     87  C   UNL A   1      45.595  35.233  30.087  1.00  0.00     0.006 A 
ENDBRANCH  63  80
ENDBRANCH  37  38
ENDBRANCH  29  32
ENDBRANCH  27  28
ENDBRANCH  26  27
ENDBRANCH  25  26
ENDBRANCH   1  25
TORSDOF 16
ENDMDL
MODEL 2
REMARK VINA RESULT:     -11.7      0.839      1.646
REMARK SMILES CCC(C)(C)NC(=O)[C@@H](C)Oc1ccc(C)nc1C(=O)NCCCCNC(=O)c1ccc(-c2c3nc(c(-c4c(F)cccc4F)c4ccc([nH]4)c(-c4c(F)cccc4F)c4nc(c(-c5c(F)cccc5F)c5ccc2[nH]5)C=C4)C=C3)cc1
REMARK SMILES IDX 22 1 21 2 19 3 20 4 18 6 12 7 13 8 14 9 17 10 15 11 16 12
REMARK SMILES IDX 11 13 9 14 10 15 7 16 6 17 8 19 3 20 4 21 5 22 2 23 1 24
REMARK SMILES IDX 23 25 24 26 25 27 26 28 27 29 28 31 29 32 30 33 82 34 31 35
REMARK SMILES IDX 81 36 32 37 33 38 34 39 75 40 35 41 80 42 74 43 76 44 36 45
REMARK SMILES IDX 79 46 73 47 72 48 37 50 63 51 46 52 62 53 47 54 50 55 61 56
REMARK SMILES IDX 77 57 48 58 49 59 60 61 78 62 51 63 38 64 39 65 44 66 40 67
REMARK SMILES IDX 41 68 43 69 45 70 42 71 64 72 65 73 70 74 66 75 67 76 69 77
REMARK SMILES IDX 71 78 68 79 52 80 53 81 58 82 54 83 55 84 57 85 59 86 56 87
REMARK H PARENT 21 5 6 18 26 30 76 49 50 60
REMARK Flexibility Score: inf
ROOT
ATOM      1  C   UNL A   1      36.869  22.560  25.306  1.00  0.00     0.116 C 
ENDROOT
BRANCH   1   2
ATOM      2  N   UNL A   1      36.068  22.058  26.391  1.00  0.00    -0.351 N 
ATOM      3  C   UNL A   1      34.754  21.667  26.478  1.00  0.00     0.273 C 
ATOM      4  O   UNL A   1      34.360  21.487  27.638  1.00  0.00    -0.267 OA
ATOM      5  H   UNL A   1      36.561  21.976  27.239  1.00  0.00     0.163 HD
BRANCH   3   6
ATOM      6  C   UNL A   1      33.824  21.343  25.324  1.00  0.00     0.170 A 
ATOM      7  C   UNL A   1      33.183  22.206  24.425  1.00  0.00     0.151 A 
ATOM      8  C   UNL A   1      32.622  21.621  23.285  1.00  0.00     0.051 A 
ATOM      9  C   UNL A   1      32.404  20.244  23.238  1.00  0.00     0.027 A 
ATOM     10  N   UNL A   1      33.582  19.995  25.283  1.00  0.00    -0.244 NA
ATOM     11  C   UNL A   1      32.791  19.486  24.323  1.00  0.00     0.038 A 
ATOM     12  C   UNL A   1      32.290  18.090  24.532  1.00  0.00     0.067 C 
BRANCH   7  13
ATOM     13  O   UNL A   1      32.944  23.508  24.776  1.00  0.00    -0.478 OA
BRANCH  13  14
ATOM     14  C   UNL A   1      33.709  24.572  24.219  1.00  0.00     0.259 C 
ATOM     15  C   UNL A   1      34.296  25.454  25.346  1.00  0.00     0.064 C 
BRANCH  14  16
ATOM     16  C   UNL A   1      33.232  25.602  23.161  1.00  0.00     0.261 C 
ATOM     17  N   UNL A   1      32.582  26.751  23.499  1.00  0.00    -0.348 N 
ATOM     18  H   UNL A   1      33.129  27.562  23.383  1.00  0.00     0.164 HD
ATOM     19  O   UNL A   1      33.636  25.514  21.995  1.00  0.00    -0.271 OA
BRANCH  17  20
ATOM     20  C   UNL A   1      31.218  27.024  24.009  1.00  0.00     0.034 C 
ATOM     21  C   UNL A   1      30.488  27.861  22.930  1.00  0.00     0.034 C 
ATOM     22  C   UNL A   1      31.397  27.924  25.251  1.00  0.00     0.034 C 
BRANCH  20  23
ATOM     23  C   UNL A   1      30.292  25.849  24.404  1.00  0.00     0.024 C 
ATOM     24  C   UNL A   1      29.925  25.647  25.863  1.00  0.00     0.006 C 
ENDBRANCH  20  23
ENDBRANCH  17  20
ENDBRANCH  14  16
ENDBRANCH  13  14
ENDBRANCH   7  13
ENDBRANCH   3   6
ENDBRANCH   1   2
BRANCH   1  25
ATOM     25  C   UNL A   1      37.226  21.408  24.372  1.00  0.00     0.023 C 
BRANCH  25  26
ATOM     26  C   UNL A   1      37.781  20.145  25.024  1.00  0.00     0.023 C 
BRANCH  26  27
ATOM     27  C   UNL A   1      39.064  20.402  25.799  1.00  0.00     0.116 C 
BRANCH  27  28
ATOM     28  N   UNL A   1      40.003  19.283  25.781  1.00  0.00    -0.352 N 
ATOM     29  C   UNL A   1      41.338  19.295  26.104  1.00  0.00     0.251 C 
ATOM     30  H   UNL A   1      39.634  18.414  25.503  1.00  0.00     0.163 HD
ATOM     31  O   UNL A   1      42.023  18.282  25.996  1.00  0.00    -0.269 OA
BRANCH  29  32
ATOM     32  C   UNL A   1      41.947  20.574  26.508  1.00  0.00     0.039 A 
ATOM     33  C   UNL A   1      42.287  21.497  25.518  1.00  0.00     0.014 A 
ATOM     34  C   UNL A   1      42.064  20.900  27.859  1.00  0.00     0.014 A 
ATOM     35  C   UNL A   1      42.671  22.784  25.892  1.00  0.00     0.010 A 
ATOM     36  C   UNL A   1      42.332  22.210  28.223  1.00  0.00     0.010 A 
ATOM     37  C   UNL A   1      42.652  23.161  27.245  1.00  0.00    -0.014 A 
BRANCH  37  38
ATOM     38  C   UNL A   1      43.007  24.539  27.662  1.00  0.00     0.031 A 
ATOM     39  C   UNL A   1      44.451  24.958  27.680  1.00  0.00     0.074 A 
ATOM     40  C   UNL A   1      42.041  25.389  28.061  1.00  0.00     0.049 A 
ATOM     41  N   UNL A   1      44.976  26.098  28.047  1.00  0.00    -0.248 NA
ATOM     42  C   UNL A   1      45.443  23.949  27.268  1.00  0.00     0.031 C 
ATOM     43  C   UNL A   1      40.613  25.076  28.150  1.00  0.00     0.029 A 
ATOM     44  N   UNL A   1      42.117  26.697  28.465  1.00  0.00    -0.354 N 
ATOM     45  C   UNL A   1      46.349  25.938  27.915  1.00  0.00     0.074 A 
ATOM     46  C   UNL A   1      46.585  24.569  27.519  1.00  0.00     0.031 C 
ATOM     47  C   UNL A   1      39.944  26.174  28.537  1.00  0.00     0.029 A 
ATOM     48  C   UNL A   1      40.897  27.258  28.753  1.00  0.00     0.049 A 
ATOM     49  H   UNL A   1      42.968  27.188  28.542  1.00  0.00     0.167 HD
ATOM     50  C   UNL A   1      47.326  26.860  28.063  1.00  0.00     0.037 A 
ATOM     51  C   UNL A   1      40.587  28.512  29.134  1.00  0.00     0.037 A 
ATOM     52  C   UNL A   1      47.088  28.233  28.417  1.00  0.00     0.049 A 
ATOM     53  C   UNL A   1      41.694  29.520  29.285  1.00  0.00     0.074 A 
ATOM     54  C   UNL A   1      48.003  29.260  28.557  1.00  0.00     0.029 A 
ATOM     55  N   UNL A   1      45.835  28.769  28.673  1.00  0.00    -0.354 N 
ATOM     56  N   UNL A   1      42.983  29.371  29.092  1.00  0.00    -0.248 NA
ATOM     57  C   UNL A   1      41.301  30.876  29.695  1.00  0.00     0.031 C 
ATOM     58  C   UNL A   1      47.304  30.416  28.920  1.00  0.00     0.029 A 
ATOM     59  C   UNL A   1      45.952  30.114  28.972  1.00  0.00     0.049 A 
ATOM     60  H   UNL A   1      44.989  28.267  28.644  1.00  0.00     0.167 HD
ATOM     61  C   UNL A   1      43.548  30.617  29.325  1.00  0.00     0.074 A 
ATOM     62  C   UNL A   1      42.461  31.515  29.656  1.00  0.00     0.031 C 
ATOM     63  C   UNL A   1      44.850  30.989  29.275  1.00  0.00     0.037 A 
BRANCH  50  64
ATOM     64  C   UNL A   1      48.736  26.416  27.803  1.00  0.00     0.057 A 
ATOM     65  C   UNL A   1      49.288  26.457  26.515  1.00  0.00     0.134 A 
ATOM     66  C   UNL A   1      49.553  25.961  28.844  1.00  0.00     0.134 A 
ATOM     67  F   UNL A   1      48.550  26.866  25.472  1.00  0.00    -0.206 F 
ATOM     68  C   UNL A   1      50.595  26.037  26.267  1.00  0.00     0.040 A 
ATOM     69  C   UNL A   1      50.871  25.563  28.612  1.00  0.00     0.040 A 
ATOM     70  F   UNL A   1      49.087  25.897  30.100  1.00  0.00    -0.206 F 
ATOM     71  C   UNL A   1      51.393  25.595  27.320  1.00  0.00     0.006 A 
ENDBRANCH  50  64
BRANCH  51  72
ATOM     72  C   UNL A   1      39.173  28.906  29.362  1.00  0.00     0.057 A 
ATOM     73  C   UNL A   1      38.565  28.711  30.609  1.00  0.00     0.134 A 
ATOM     74  C   UNL A   1      38.385  29.443  28.338  1.00  0.00     0.134 A 
ATOM     75  F   UNL A   1      39.264  28.184  31.624  1.00  0.00    -0.206 F 
ATOM     76  C   UNL A   1      37.217  29.004  30.820  1.00  0.00     0.040 A 
ATOM     77  C   UNL A   1      37.043  29.765  28.543  1.00  0.00     0.040 A 
ATOM     78  F   UNL A   1      38.910  29.663  27.124  1.00  0.00    -0.206 F 
ATOM     79  C   UNL A   1      36.452  29.534  29.784  1.00  0.00     0.006 A 
ENDBRANCH  51  72
BRANCH  63  80
ATOM     80  C   UNL A   1      45.160  32.430  29.541  1.00  0.00     0.057 A 
ATOM     81  C   UNL A   1      45.148  33.388  28.521  1.00  0.00     0.134 A 
ATOM     82  C   UNL A   1      45.434  32.870  30.842  1.00  0.00     0.134 A 
ATOM     83  F   UNL A   1      44.904  33.027  27.252  1.00  0.00    -0.206 F 
ATOM     84  C   UNL A   1      45.421  34.732  28.780  1.00  0.00     0.040 A 
ATOM     85  C   UNL A   1      45.684  34.214  31.119  1.00  0.00     0.040 A 
ATOM     86  F   UNL A   1      45.452  32.002  31.866  1.00  0.00    -0.206 F 
ATOM     87  C   UNL A   1      45.683  35.148  30.084  1.00  0.00     0.006 A 
ENDBRANCH  63  80
ENDBRANCH  37  38
ENDBRANCH  29  32
ENDBRANCH  27  28
ENDBRANCH  26  27
ENDBRANCH  25  26
ENDBRANCH   1  25
TORSDOF 16
ENDMDL
MODEL 3
REMARK VINA RESULT:     -11.6      4.708      9.533
REMARK SMILES CCC(C)(C)NC(=O)[C@@H](C)Oc1ccc(C)nc1C(=O)NCCCCNC(=O)c1ccc(-c2c3nc(c(-c4c(F)cccc4F)c4ccc([nH]4)c(-c4c(F)cccc4F)c4nc(c(-c5c(F)cccc5F)c5ccc2[nH]5)C=C4)C=C3)cc1
REMARK SMILES IDX 22 1 21 2 19 3 20 4 18 6 12 7 13 8 14 9 17 10 15 11 16 12
REMARK SMILES IDX 11 13 9 14 10 15 7 16 6 17 8 19 3 20 4 21 5 22 2 23 1 24
REMARK SMILES IDX 23 25 24 26 25 27 26 28 27 29 28 31 29 32 30 33 82 34 31 35
REMARK SMILES IDX 81 36 32 37 33 38 34 39 75 40 35 41 80 42 74 43 76 44 36 45
REMARK SMILES IDX 79 46 73 47 72 48 37 50 63 51 46 52 62 53 47 54 50 55 61 56
REMARK SMILES IDX 77 57 48 58 49 59 60 61 78 62 51 63 38 64 39 65 44 66 40 67
REMARK SMILES IDX 41 68 43 69 45 70 42 71 64 72 65 73 70 74 66 75 67 76 69 77
REMARK SMILES IDX 71 78 68 79 52 80 53 81 58 82 54 83 55 84 57 85 59 86 56 87
REMARK H PARENT 21 5 6 18 26 30 76 49 50 60
REMARK Flexibility Score: inf
ROOT
ATOM      1  C   UNL A   1      33.191  29.740  25.804  1.00  0.00     0.116 C 
ENDROOT
BRANCH   1   2
ATOM      2  N   UNL A   1      33.469  29.342  24.449  1.00  0.00    -0.351 N 
ATOM      3  C   UNL A   1      33.628  28.116  23.850  1.00  0.00     0.273 C 
ATOM      4  O   UNL A   1      34.068  28.175  22.695  1.00  0.00    -0.267 OA
ATOM      5  H   UNL A   1      33.562  30.099  23.828  1.00  0.00     0.163 HD
BRANCH   3   6
ATOM      6  C   UNL A   1      33.221  26.769  24.416  1.00  0.00     0.170 A 
ATOM      7  C   UNL A   1      31.955  26.312  24.809  1.00  0.00     0.151 A 
ATOM      8  C   UNL A   1      31.822  24.934  25.018  1.00  0.00     0.051 A 
ATOM      9  C   UNL A   1      32.955  24.136  25.175  1.00  0.00     0.027 A 
ATOM     10  N   UNL A   1      34.328  25.984  24.599  1.00  0.00    -0.244 NA
ATOM     11  C   UNL A   1      34.194  24.736  25.080  1.00  0.00     0.038 A 
ATOM     12  C   UNL A   1      35.437  24.067  25.578  1.00  0.00     0.067 C 
BRANCH   7  13
ATOM     13  O   UNL A   1      30.986  27.207  25.174  1.00  0.00    -0.478 OA
BRANCH  13  14
ATOM     14  C   UNL A   1      29.952  27.580  24.268  1.00  0.00     0.259 C 
ATOM     15  C   UNL A   1      29.024  26.374  23.990  1.00  0.00     0.064 C 
BRANCH  14  16
ATOM     16  C   UNL A   1      30.133  28.231  22.870  1.00  0.00     0.261 C 
ATOM     17  N   UNL A   1      29.987  29.569  22.662  1.00  0.00    -0.348 N 
ATOM     18  H   UNL A   1      30.836  30.037  22.491  1.00  0.00     0.164 HD
ATOM     19  O   UNL A   1      30.644  27.578  21.953  1.00  0.00    -0.271 OA
BRANCH  17  20
ATOM     20  C   UNL A   1      28.804  30.462  22.643  1.00  0.00     0.034 C 
ATOM     21  C   UNL A   1      27.558  29.572  22.872  1.00  0.00     0.034 C 
ATOM     22  C   UNL A   1      28.715  31.022  21.207  1.00  0.00     0.034 C 
BRANCH  20  23
ATOM     23  C   UNL A   1      28.721  31.656  23.623  1.00  0.00     0.024 C 
ATOM     24  C   UNL A   1      28.865  33.070  23.092  1.00  0.00     0.006 C 
ENDBRANCH  20  23
ENDBRANCH  17  20
ENDBRANCH  14  16
ENDBRANCH  13  14
ENDBRANCH   7  13
ENDBRANCH   3   6
ENDBRANCH   1   2
BRANCH   1  25
ATOM     25  C   UNL A   1      31.854  30.471  25.846  1.00  0.00     0.023 C 
BRANCH  25  26
ATOM     26  C   UNL A   1      31.640  31.441  27.005  1.00  0.00     0.023 C 
BRANCH  26  27
ATOM     27  C   UNL A   1      32.800  32.409  27.180  1.00  0.00     0.116 C 
BRANCH  27  28
ATOM     28  N   UNL A   1      32.393  33.765  27.539  1.00  0.00    -0.352 N 
ATOM     29  C   UNL A   1      33.015  34.631  28.405  1.00  0.00     0.251 C 
ATOM     30  H   UNL A   1      31.574  34.099  27.109  1.00  0.00     0.163 HD
ATOM     31  O   UNL A   1      32.531  35.732  28.652  1.00  0.00    -0.269 OA
BRANCH  29  32
ATOM     32  C   UNL A   1      34.235  34.176  29.094  1.00  0.00     0.039 A 
ATOM     33  C   UNL A   1      34.109  33.292  30.166  1.00  0.00     0.014 A 
ATOM     34  C   UNL A   1      35.492  34.525  28.599  1.00  0.00     0.014 A 
ATOM     35  C   UNL A   1      35.254  32.696  30.692  1.00  0.00     0.010 A 
ATOM     36  C   UNL A   1      36.613  33.844  29.046  1.00  0.00     0.010 A 
ATOM     37  C   UNL A   1      36.508  32.934  30.106  1.00  0.00    -0.014 A 
BRANCH  37  38
ATOM     38  C   UNL A   1      37.732  32.272  30.616  1.00  0.00     0.031 A 
ATOM     39  C   UNL A   1      38.398  32.801  31.856  1.00  0.00     0.074 A 
ATOM     40  C   UNL A   1      38.262  31.230  29.945  1.00  0.00     0.049 A 
ATOM     41  N   UNL A   1      39.493  32.393  32.444  1.00  0.00    -0.248 NA
ATOM     42  C   UNL A   1      37.773  33.969  32.501  1.00  0.00     0.031 C 
ATOM     43  C   UNL A   1      37.743  30.670  28.694  1.00  0.00     0.029 A 
ATOM     44  N   UNL A   1      39.356  30.454  30.224  1.00  0.00    -0.354 N 
ATOM     45  C   UNL A   1      39.686  33.255  33.515  1.00  0.00     0.074 A 
ATOM     46  C   UNL A   1      38.649  34.259  33.450  1.00  0.00     0.031 C 
ATOM     47  C   UNL A   1      38.493  29.613  28.341  1.00  0.00     0.029 A 
ATOM     48  C   UNL A   1      39.560  29.440  29.320  1.00  0.00     0.049 A 
ATOM     49  H   UNL A   1      39.942  30.609  31.001  1.00  0.00     0.167 HD
ATOM     50  C   UNL A   1      40.614  33.191  34.496  1.00  0.00     0.037 A 
ATOM     51  C   UNL A   1      40.497  28.473  29.298  1.00  0.00     0.037 A 
ATOM     52  C   UNL A   1      41.620  32.168  34.584  1.00  0.00     0.049 A 
ATOM     53  C   UNL A   1      41.514  28.421  30.406  1.00  0.00     0.074 A 
ATOM     54  C   UNL A   1      42.586  31.987  35.557  1.00  0.00     0.029 A 
ATOM     55  N   UNL A   1      41.775  31.142  33.664  1.00  0.00    -0.354 N 
ATOM     56  N   UNL A   1      41.643  29.205  31.450  1.00  0.00    -0.248 NA
ATOM     57  C   UNL A   1      42.509  27.341  30.339  1.00  0.00     0.031 C 
ATOM     58  C   UNL A   1      43.342  30.863  35.213  1.00  0.00     0.029 A 
ATOM     59  C   UNL A   1      42.824  30.325  34.045  1.00  0.00     0.049 A 
ATOM     60  H   UNL A   1      41.221  31.015  32.861  1.00  0.00     0.167 HD
ATOM     61  C   UNL A   1      42.709  28.695  32.177  1.00  0.00     0.074 A 
ATOM     62  C   UNL A   1      43.181  27.525  31.466  1.00  0.00     0.031 C 
ATOM     63  C   UNL A   1      43.256  29.153  33.329  1.00  0.00     0.037 A 
BRANCH  50  64
ATOM     64  C   UNL A   1      40.554  34.237  35.570  1.00  0.00     0.057 A 
ATOM     65  C   UNL A   1      41.251  35.447  35.450  1.00  0.00     0.134 A 
ATOM     66  C   UNL A   1      39.783  34.046  36.722  1.00  0.00     0.134 A 
ATOM     67  F   UNL A   1      42.023  35.683  34.379  1.00  0.00    -0.206 F 
ATOM     68  C   UNL A   1      41.205  36.419  36.450  1.00  0.00     0.040 A 
ATOM     69  C   UNL A   1      39.708  35.023  37.716  1.00  0.00     0.040 A 
ATOM     70  F   UNL A   1      39.090  32.911  36.899  1.00  0.00    -0.206 F 
ATOM     71  C   UNL A   1      40.425  36.210  37.584  1.00  0.00     0.006 A 
ENDBRANCH  50  64
BRANCH  51  72
ATOM     72  C   UNL A   1      40.502  27.449  28.222  1.00  0.00     0.057 A 
ATOM     73  C   UNL A   1      41.225  27.654  27.040  1.00  0.00     0.134 A 
ATOM     74  C   UNL A   1      39.758  26.270  28.326  1.00  0.00     0.134 A 
ATOM     75  F   UNL A   1      41.944  28.774  26.875  1.00  0.00    -0.206 F 
ATOM     76  C   UNL A   1      41.182  26.739  25.987  1.00  0.00     0.040 A 
ATOM     77  C   UNL A   1      39.726  25.333  27.291  1.00  0.00     0.040 A 
ATOM     78  F   UNL A   1      39.051  26.009  29.435  1.00  0.00    -0.206 F 
ATOM     79  C   UNL A   1      40.430  25.573  26.112  1.00  0.00     0.006 A 
ENDBRANCH  51  72
BRANCH  63  80
ATOM     80  C   UNL A   1      44.390  28.364  33.909  1.00  0.00     0.057 A 
ATOM     81  C   UNL A   1      45.725  28.669  33.618  1.00  0.00     0.134 A 
ATOM     82  C   UNL A   1      44.142  27.313  34.801  1.00  0.00     0.134 A 
ATOM     83  F   UNL A   1      46.026  29.657  32.762  1.00  0.00    -0.206 F 
ATOM     84  C   UNL A   1      46.776  27.940  34.176  1.00  0.00     0.040 A 
ATOM     85  C   UNL A   1      45.185  26.593  35.385  1.00  0.00     0.040 A 
ATOM     86  F   UNL A   1      42.885  26.978  35.128  1.00  0.00    -0.206 F 
ATOM     87  C   UNL A   1      46.506  26.903  35.068  1.00  0.00     0.006 A 
ENDBRANCH  63  80
ENDBRANCH  37  38
ENDBRANCH  29  32
ENDBRANCH  27  28
ENDBRANCH  26  27
ENDBRANCH  25  26
ENDBRANCH   1  25
TORSDOF 16
ENDMDL
