MODEL 1
REMARK VINA RESULT:     -12.3      0.000      0.000
REMARK SMILES CCc1cc(/C=C/C(=O)NCCCCNC(=O)c2ccc(-c3c4nc(c(-c5c(F)cccc5F)c5ccc([nH]5)c(-c5c(F)cccc5F)c5nc(c(-c6c(F)cccc6F)c6ccc3[nH]6)C=C5)C=C4)cc2)cc(C(=O)c2ccccc2)c1
REMARK SMILES IDX 12 1 11 2 10 3 8 4 9 5 7 7 6 8 5 9 3 10 4 11 82 12 73 13
REMARK SMILES IDX 72 14 2 15 1 16 74 17 75 18 76 19 77 20 81 21 78 22 80 23
REMARK SMILES IDX 79 24 13 25 14 26 15 27 16 28 17 30 18 31 19 32 71 33 20 34
REMARK SMILES IDX 70 35 21 36 22 37 23 38 64 39 24 40 69 41 63 42 65 43 25 44
REMARK SMILES IDX 68 45 62 46 61 47 26 49 52 50 35 51 51 52 36 53 39 54 50 55
REMARK SMILES IDX 66 56 37 57 38 58 49 60 67 61 40 62 27 63 28 64 33 65 29 66
REMARK SMILES IDX 30 67 32 68 34 69 31 70 53 71 54 72 59 73 55 74 56 75 58 76
REMARK SMILES IDX 60 77 57 78 41 79 42 80 47 81 43 82 44 83 46 84 48 85 45 86
REMARK H PARENT 10 6 15 29 65 48 39 59
REMARK Flexibility Score: inf
ROOT
ATOM      1  C   UNL A   1      33.559  27.969  24.637  1.00  0.00     0.023 C 
ENDROOT
BRANCH   1   2
ATOM      2  C   UNL A   1      32.482  27.084  24.005  1.00  0.00     0.116 C 
BRANCH   2   3
ATOM      3  N   UNL A   1      32.707  26.922  22.581  1.00  0.00    -0.353 N 
ATOM      4  C   UNL A   1      33.096  25.833  21.866  1.00  0.00     0.243 C 
ATOM      5  O   UNL A   1      33.123  25.897  20.639  1.00  0.00    -0.270 OA
ATOM      6  H   UNL A   1      32.549  27.732  22.045  1.00  0.00     0.163 HD
BRANCH   4   7
ATOM      7  C   UNL A   1      33.423  24.545  22.524  1.00  0.00     0.072 C 
ATOM      8  C   UNL A   1      34.577  24.273  23.149  1.00  0.00     0.014 C 
BRANCH   8   9
ATOM      9  C   UNL A   1      34.924  22.976  23.741  1.00  0.00    -0.024 A 
ATOM     10  C   UNL A   1      36.537  21.465  24.787  1.00  0.00    -0.047 A 
ATOM     11  C   UNL A   1      36.232  22.674  24.140  1.00  0.00     0.011 A 
ATOM     12  C   UNL A   1      35.496  20.563  25.045  1.00  0.00     0.016 A 
ATOM     13  C   UNL A   1      34.176  20.863  24.679  1.00  0.00     0.023 A 
ATOM     14  C   UNL A   1      33.899  22.064  24.016  1.00  0.00     0.020 A 
BRANCH  10  15
ATOM     15  C   UNL A   1      37.951  21.239  25.272  1.00  0.00     0.032 C 
ATOM     16  C   UNL A   1      38.599  22.396  26.021  1.00  0.00     0.009 C 
ENDBRANCH  10  15
BRANCH  13  17
ATOM     17  C   UNL A   1      33.045  19.933  24.966  1.00  0.00     0.193 C 
ATOM     18  O   UNL A   1      31.946  20.375  25.288  1.00  0.00    -0.289 OA
BRANCH  17  19
ATOM     19  C   UNL A   1      33.215  18.469  24.842  1.00  0.00     0.022 A 
ATOM     20  C   UNL A   1      32.611  17.644  25.794  1.00  0.00     0.012 A 
ATOM     21  C   UNL A   1      33.950  17.914  23.787  1.00  0.00     0.012 A 
ATOM     22  C   UNL A   1      32.696  16.258  25.659  1.00  0.00     0.001 A 
ATOM     23  C   UNL A   1      34.031  16.528  23.659  1.00  0.00     0.001 A 
ATOM     24  C   UNL A   1      33.396  15.702  24.587  1.00  0.00     0.000 A 
ENDBRANCH  17  19
ENDBRANCH  13  17
ENDBRANCH   8   9
ENDBRANCH   4   7
ENDBRANCH   2   3
ENDBRANCH   1   2
BRANCH   1  25
ATOM     25  C   UNL A   1      33.055  28.901  25.741  1.00  0.00     0.023 C 
BRANCH  25  26
ATOM     26  C   UNL A   1      33.931  28.958  26.988  1.00  0.00     0.116 C 
BRANCH  26  27
ATOM     27  N   UNL A   1      33.833  30.215  27.713  1.00  0.00    -0.352 N 
ATOM     28  C   UNL A   1      34.787  30.823  28.496  1.00  0.00     0.251 C 
ATOM     29  H   UNL A   1      32.974  30.690  27.634  1.00  0.00     0.163 HD
ATOM     30  O   UNL A   1      34.527  31.839  29.122  1.00  0.00    -0.269 OA
BRANCH  28  31
ATOM     31  C   UNL A   1      36.120  30.199  28.609  1.00  0.00     0.039 A 
ATOM     32  C   UNL A   1      36.998  30.295  27.527  1.00  0.00     0.014 A 
ATOM     33  C   UNL A   1      36.515  29.566  29.791  1.00  0.00     0.014 A 
ATOM     34  C   UNL A   1      38.303  29.818  27.657  1.00  0.00     0.010 A 
ATOM     35  C   UNL A   1      37.833  29.152  29.941  1.00  0.00     0.010 A 
ATOM     36  C   UNL A   1      38.740  29.278  28.878  1.00  0.00    -0.014 A 
BRANCH  36  37
ATOM     37  C   UNL A   1      40.147  28.849  29.066  1.00  0.00     0.031 A 
ATOM     38  C   UNL A   1      41.155  29.802  29.640  1.00  0.00     0.074 A 
ATOM     39  C   UNL A   1      40.529  27.625  28.651  1.00  0.00     0.049 A 
ATOM     40  N   UNL A   1      42.442  29.636  29.817  1.00  0.00    -0.248 NA
ATOM     41  C   UNL A   1      40.658  31.126  30.043  1.00  0.00     0.031 C 
ATOM     42  C   UNL A   1      39.653  26.631  28.027  1.00  0.00     0.029 A 
ATOM     43  N   UNL A   1      41.757  27.014  28.682  1.00  0.00    -0.354 N 
ATOM     44  C   UNL A   1      42.908  30.837  30.334  1.00  0.00     0.074 A 
ATOM     45  C   UNL A   1      41.778  31.739  30.396  1.00  0.00     0.031 C 
ATOM     46  C   UNL A   1      40.368  25.527  27.754  1.00  0.00     0.029 A 
ATOM     47  C   UNL A   1      41.755  25.747  28.153  1.00  0.00     0.049 A 
ATOM     48  H   UNL A   1      42.563  27.444  29.048  1.00  0.00     0.167 HD
ATOM     49  C   UNL A   1      44.160  31.152  30.744  1.00  0.00     0.037 A 
ATOM     50  C   UNL A   1      42.760  24.864  28.004  1.00  0.00     0.037 A 
ATOM     51  C   UNL A   1      45.274  30.243  30.707  1.00  0.00     0.049 A 
ATOM     52  C   UNL A   1      44.138  25.234  28.474  1.00  0.00     0.074 A 
ATOM     53  C   UNL A   1      46.567  30.445  31.160  1.00  0.00     0.029 A 
ATOM     54  N   UNL A   1      45.227  28.958  30.188  1.00  0.00    -0.354 N 
ATOM     55  N   UNL A   1      44.551  26.348  29.028  1.00  0.00    -0.248 NA
ATOM     56  C   UNL A   1      45.189  24.221  28.304  1.00  0.00     0.031 C 
ATOM     57  C   UNL A   1      47.311  29.293  30.880  1.00  0.00     0.029 A 
ATOM     58  C   UNL A   1      46.472  28.360  30.293  1.00  0.00     0.049 A 
ATOM     59  H   UNL A   1      44.427  28.533  29.803  1.00  0.00     0.167 HD
ATOM     60  C   UNL A   1      45.900  26.162  29.296  1.00  0.00     0.074 A 
ATOM     61  C   UNL A   1      46.233  24.823  28.857  1.00  0.00     0.031 C 
ATOM     62  C   UNL A   1      46.784  27.023  29.856  1.00  0.00     0.037 A 
BRANCH  49  63
ATOM     63  C   UNL A   1      44.384  32.538  31.273  1.00  0.00     0.057 A 
ATOM     64  C   UNL A   1      44.222  32.842  32.631  1.00  0.00     0.134 A 
ATOM     65  C   UNL A   1      44.791  33.573  30.422  1.00  0.00     0.134 A 
ATOM     66  F   UNL A   1      43.820  31.898  33.497  1.00  0.00    -0.206 F 
ATOM     67  C   UNL A   1      44.430  34.133  33.120  1.00  0.00     0.040 A 
ATOM     68  C   UNL A   1      45.028  34.861  30.903  1.00  0.00     0.040 A 
ATOM     69  F   UNL A   1      44.970  33.348  29.112  1.00  0.00    -0.206 F 
ATOM     70  C   UNL A   1      44.840  35.145  32.255  1.00  0.00     0.006 A 
ENDBRANCH  49  63
BRANCH  50  71
ATOM     71  C   UNL A   1      42.495  23.531  27.407  1.00  0.00     0.057 A 
ATOM     72  C   UNL A   1      42.133  22.442  28.209  1.00  0.00     0.134 A 
ATOM     73  C   UNL A   1      42.601  23.311  26.028  1.00  0.00     0.134 A 
ATOM     74  F   UNL A   1      42.034  22.588  29.538  1.00  0.00    -0.206 F 
ATOM     75  C   UNL A   1      41.906  21.178  27.666  1.00  0.00     0.040 A 
ATOM     76  C   UNL A   1      42.353  22.056  25.468  1.00  0.00     0.040 A 
ATOM     77  F   UNL A   1      42.935  24.315  25.206  1.00  0.00    -0.206 F 
ATOM     78  C   UNL A   1      42.011  20.983  26.290  1.00  0.00     0.006 A 
ENDBRANCH  50  71
BRANCH  62  79
ATOM     79  C   UNL A   1      48.188  26.532  30.051  1.00  0.00     0.057 A 
ATOM     80  C   UNL A   1      48.580  25.864  31.217  1.00  0.00     0.134 A 
ATOM     81  C   UNL A   1      49.146  26.698  29.043  1.00  0.00     0.134 A 
ATOM     82  F   UNL A   1      47.711  25.687  32.224  1.00  0.00    -0.206 F 
ATOM     83  C   UNL A   1      49.884  25.394  31.383  1.00  0.00     0.040 A 
ATOM     84  C   UNL A   1      50.446  26.210  29.187  1.00  0.00     0.040 A 
ATOM     85  F   UNL A   1      48.831  27.322  27.899  1.00  0.00    -0.206 F 
ATOM     86  C   UNL A   1      50.819  25.561  30.363  1.00  0.00     0.006 A 
ENDBRANCH  62  79
ENDBRANCH  36  37
ENDBRANCH  28  31
ENDBRANCH  26  27
ENDBRANCH  25  26
ENDBRANCH   1  25
TORSDOF 15
ENDMDL
MODEL 2
REMARK VINA RESULT:     -11.9      2.003      2.714
REMARK SMILES CCc1cc(/C=C/C(=O)NCCCCNC(=O)c2ccc(-c3c4nc(c(-c5c(F)cccc5F)c5ccc([nH]5)c(-c5c(F)cccc5F)c5nc(c(-c6c(F)cccc6F)c6ccc3[nH]6)C=C5)C=C4)cc2)cc(C(=O)c2ccccc2)c1
REMARK SMILES IDX 12 1 11 2 10 3 8 4 9 5 7 7 6 8 5 9 3 10 4 11 82 12 73 13
REMARK SMILES IDX 72 14 2 15 1 16 74 17 75 18 76 19 77 20 81 21 78 22 80 23
REMARK SMILES IDX 79 24 13 25 14 26 15 27 16 28 17 30 18 31 19 32 71 33 20 34
REMARK SMILES IDX 70 35 21 36 22 37 23 38 64 39 24 40 69 41 63 42 65 43 25 44
REMARK SMILES IDX 68 45 62 46 61 47 26 49 52 50 35 51 51 52 36 53 39 54 50 55
REMARK SMILES IDX 66 56 37 57 38 58 49 60 67 61 40 62 27 63 28 64 33 65 29 66
REMARK SMILES IDX 30 67 32 68 34 69 31 70 53 71 54 72 59 73 55 74 56 75 58 76
REMARK SMILES IDX 60 77 57 78 41 79 42 80 47 81 43 82 44 83 46 84 48 85 45 86
REMARK H PARENT 10 6 15 29 65 48 39 59
REMARK Flexibility Score: inf
ROOT
ATOM      1  C   UNL A   1      32.714  27.155  25.518  1.00  0.00     0.023 C 
ENDROOT
BRANCH   1   2
ATOM      2  C   UNL A   1      31.738  26.909  24.366  1.00  0.00     0.116 C 
BRANCH   2   3
ATOM      3  N   UNL A   1      32.406  27.011  23.082  1.00  0.00    -0.353 N 
ATOM      4  C   UNL A   1      33.152  26.103  22.399  1.00  0.00     0.243 C 
ATOM      5  O   UNL A   1      33.540  26.374  21.264  1.00  0.00    -0.270 OA
ATOM      6  H   UNL A   1      32.301  27.880  22.632  1.00  0.00     0.163 HD
BRANCH   4   7
ATOM      7  C   UNL A   1      33.450  24.761  22.957  1.00  0.00     0.072 C 
ATOM      8  C   UNL A   1      34.657  24.354  23.374  1.00  0.00     0.014 C 
BRANCH   8   9
ATOM      9  C   UNL A   1      34.963  23.006  23.864  1.00  0.00    -0.024 A 
ATOM     10  C   UNL A   1      36.531  21.367  24.777  1.00  0.00    -0.047 A 
ATOM     11  C   UNL A   1      36.262  22.631  24.225  1.00  0.00     0.011 A 
ATOM     12  C   UNL A   1      35.462  20.484  24.978  1.00  0.00     0.016 A 
ATOM     13  C   UNL A   1      34.149  20.855  24.649  1.00  0.00     0.023 A 
ATOM     14  C   UNL A   1      33.910  22.111  24.081  1.00  0.00     0.020 A 
BRANCH  10  15
ATOM     15  C   UNL A   1      37.941  21.057  25.229  1.00  0.00     0.032 C 
ATOM     16  C   UNL A   1      38.665  22.165  25.981  1.00  0.00     0.009 C 
ENDBRANCH  10  15
BRANCH  13  17
ATOM     17  C   UNL A   1      32.990  19.945  24.878  1.00  0.00     0.193 C 
ATOM     18  O   UNL A   1      31.879  20.407  25.128  1.00  0.00    -0.289 OA
BRANCH  17  19
ATOM     19  C   UNL A   1      33.145  18.477  24.781  1.00  0.00     0.022 A 
ATOM     20  C   UNL A   1      32.661  17.685  25.826  1.00  0.00     0.012 A 
ATOM     21  C   UNL A   1      33.747  17.887  23.664  1.00  0.00     0.012 A 
ATOM     22  C   UNL A   1      32.731  16.295  25.726  1.00  0.00     0.001 A 
ATOM     23  C   UNL A   1      33.812  16.497  23.571  1.00  0.00     0.001 A 
ATOM     24  C   UNL A   1      33.296  15.703  24.595  1.00  0.00     0.000 A 
ENDBRANCH  17  19
ENDBRANCH  13  17
ENDBRANCH   8   9
ENDBRANCH   4   7
ENDBRANCH   2   3
ENDBRANCH   1   2
BRANCH   1  25
ATOM     25  C   UNL A   1      33.746  28.255  25.260  1.00  0.00     0.023 C 
BRANCH  25  26
ATOM     26  C   UNL A   1      34.442  28.793  26.506  1.00  0.00     0.116 C 
BRANCH  26  27
ATOM     27  N   UNL A   1      34.034  30.142  26.865  1.00  0.00    -0.352 N 
ATOM     28  C   UNL A   1      34.642  31.010  27.744  1.00  0.00     0.251 C 
ATOM     29  H   UNL A   1      33.220  30.476  26.425  1.00  0.00     0.163 HD
ATOM     30  O   UNL A   1      34.129  32.084  28.016  1.00  0.00    -0.269 OA
BRANCH  28  31
ATOM     31  C   UNL A   1      35.902  30.599  28.393  1.00  0.00     0.039 A 
ATOM     32  C   UNL A   1      35.841  29.730  29.485  1.00  0.00     0.014 A 
ATOM     33  C   UNL A   1      37.135  31.033  27.899  1.00  0.00     0.014 A 
ATOM     34  C   UNL A   1      37.023  29.236  30.037  1.00  0.00     0.010 A 
ATOM     35  C   UNL A   1      38.309  30.488  28.406  1.00  0.00     0.010 A 
ATOM     36  C   UNL A   1      38.264  29.582  29.476  1.00  0.00    -0.014 A 
BRANCH  36  37
ATOM     37  C   UNL A   1      39.526  28.997  29.989  1.00  0.00     0.031 A 
ATOM     38  C   UNL A   1      40.188  29.580  31.204  1.00  0.00     0.074 A 
ATOM     39  C   UNL A   1      40.111  27.986  29.317  1.00  0.00     0.049 A 
ATOM     40  N   UNL A   1      41.326  29.252  31.763  1.00  0.00    -0.248 NA
ATOM     41  C   UNL A   1      39.494  30.697  31.863  1.00  0.00     0.031 C 
ATOM     42  C   UNL A   1      39.593  27.372  28.092  1.00  0.00     0.029 A 
ATOM     43  N   UNL A   1      41.277  27.306  29.562  1.00  0.00    -0.354 N 
ATOM     44  C   UNL A   1      41.490  30.132  32.824  1.00  0.00     0.074 A 
ATOM     45  C   UNL A   1      40.363  31.038  32.802  1.00  0.00     0.031 C 
ATOM     46  C   UNL A   1      40.427  26.391  27.707  1.00  0.00     0.029 A 
ATOM     47  C   UNL A   1      41.551  26.330  28.636  1.00  0.00     0.049 A 
ATOM     48  H   UNL A   1      41.862  27.500  30.330  1.00  0.00     0.167 HD
ATOM     49  C   UNL A   1      42.479  30.166  33.749  1.00  0.00     0.037 A 
ATOM     50  C   UNL A   1      42.594  25.484  28.545  1.00  0.00     0.037 A 
ATOM     51  C   UNL A   1      43.584  29.245  33.784  1.00  0.00     0.049 A 
ATOM     52  C   UNL A   1      43.675  25.536  29.588  1.00  0.00     0.074 A 
ATOM     53  C   UNL A   1      44.602  29.154  34.717  1.00  0.00     0.029 A 
ATOM     54  N   UNL A   1      43.814  28.253  32.843  1.00  0.00    -0.354 N 
ATOM     55  N   UNL A   1      43.782  26.326  30.628  1.00  0.00    -0.248 NA
ATOM     56  C   UNL A   1      44.777  24.574  29.447  1.00  0.00     0.031 C 
ATOM     57  C   UNL A   1      45.469  28.130  34.319  1.00  0.00     0.029 A 
ATOM     58  C   UNL A   1      44.968  27.556  33.162  1.00  0.00     0.049 A 
ATOM     59  H   UNL A   1      43.241  28.070  32.063  1.00  0.00     0.167 HD
ATOM     60  C   UNL A   1      44.946  25.941  31.280  1.00  0.00     0.074 A 
ATOM     61  C   UNL A   1      45.502  24.838  30.525  1.00  0.00     0.031 C 
ATOM     62  C   UNL A   1      45.503  26.455  32.403  1.00  0.00     0.037 A 
BRANCH  49  63
ATOM     63  C   UNL A   1      42.403  31.232  34.801  1.00  0.00     0.057 A 
ATOM     64  C   UNL A   1      43.016  32.481  34.628  1.00  0.00     0.134 A 
ATOM     65  C   UNL A   1      41.690  31.020  35.987  1.00  0.00     0.134 A 
ATOM     66  F   UNL A   1      43.726  32.743  33.520  1.00  0.00    -0.206 F 
ATOM     67  C   UNL A   1      42.944  33.471  35.610  1.00  0.00     0.040 A 
ATOM     68  C   UNL A   1      41.589  32.012  36.964  1.00  0.00     0.040 A 
ATOM     69  F   UNL A   1      41.076  29.849  36.213  1.00  0.00    -0.206 F 
ATOM     70  C   UNL A   1      42.224  33.239  36.779  1.00  0.00     0.006 A 
ENDBRANCH  49  63
BRANCH  50  71
ATOM     71  C   UNL A   1      42.654  24.496  27.440  1.00  0.00     0.057 A 
ATOM     72  C   UNL A   1      43.211  24.834  26.201  1.00  0.00     0.134 A 
ATOM     73  C   UNL A   1      42.153  23.197  27.590  1.00  0.00     0.134 A 
ATOM     74  F   UNL A   1      43.689  26.068  25.992  1.00  0.00    -0.206 F 
ATOM     75  C   UNL A   1      43.252  23.923  25.144  1.00  0.00     0.040 A 
ATOM     76  C   UNL A   1      42.209  22.268  26.549  1.00  0.00     0.040 A 
ATOM     77  F   UNL A   1      41.615  22.809  28.755  1.00  0.00    -0.206 F 
ATOM     78  C   UNL A   1      42.753  22.633  25.319  1.00  0.00     0.006 A 
ENDBRANCH  50  71
BRANCH  62  79
ATOM     79  C   UNL A   1      46.763  25.810  32.898  1.00  0.00     0.057 A 
ATOM     80  C   UNL A   1      46.741  24.759  33.822  1.00  0.00     0.134 A 
ATOM     81  C   UNL A   1      48.012  26.223  32.414  1.00  0.00     0.134 A 
ATOM     82  F   UNL A   1      45.577  24.328  34.333  1.00  0.00    -0.206 F 
ATOM     83  C   UNL A   1      47.917  24.152  34.263  1.00  0.00     0.040 A 
ATOM     84  C   UNL A   1      49.193  25.607  32.829  1.00  0.00     0.040 A 
ATOM     85  F   UNL A   1      48.101  27.219  31.521  1.00  0.00    -0.206 F 
ATOM     86  C   UNL A   1      49.148  24.572  33.761  1.00  0.00     0.006 A 
ENDBRANCH  62  79
ENDBRANCH  36  37
ENDBRANCH  28  31
ENDBRANCH  26  27
ENDBRANCH  25  26
ENDBRANCH   1  25
TORSDOF 15
ENDMDL
MODEL 3
REMARK VINA RESULT:     -11.9      0.508      6.166
REMARK SMILES CCc1cc(/C=C/C(=O)NCCCCNC(=O)c2ccc(-c3c4nc(c(-c5c(F)cccc5F)c5ccc([nH]5)c(-c5c(F)cccc5F)c5nc(c(-c6c(F)cccc6F)c6ccc3[nH]6)C=C5)C=C4)cc2)cc(C(=O)c2ccccc2)c1
REMARK SMILES IDX 12 1 11 2 10 3 8 4 9 5 7 7 6 8 5 9 3 10 4 11 82 12 73 13
REMARK SMILES IDX 72 14 2 15 1 16 74 17 75 18 76 19 77 20 81 21 78 22 80 23
REMARK SMILES IDX 79 24 13 25 14 26 15 27 16 28 17 30 18 31 19 32 71 33 20 34
REMARK SMILES IDX 70 35 21 36 22 37 23 38 64 39 24 40 69 41 63 42 65 43 25 44
REMARK SMILES IDX 68 45 62 46 61 47 26 49 52 50 35 51 51 52 36 53 39 54 50 55
REMARK SMILES IDX 66 56 37 57 38 58 49 60 67 61 40 62 27 63 28 64 33 65 29 66
REMARK SMILES IDX 30 67 32 68 34 69 31 70 53 71 54 72 59 73 55 74 56 75 58 76
REMARK SMILES IDX 60 77 57 78 41 79 42 80 47 81 43 82 44 83 46 84 48 85 45 86
REMARK H PARENT 10 6 15 29 65 48 39 59
REMARK Flexibility Score: inf
ROOT
ATOM      1  C   UNL A   1      33.751  27.985  24.584  1.00  0.00     0.023 C 
ENDROOT
BRANCH   1   2
ATOM      2  C   UNL A   1      32.682  27.077  23.973  1.00  0.00     0.116 C 
BRANCH   2   3
ATOM      3  N   UNL A   1      32.851  26.960  22.537  1.00  0.00    -0.353 N 
ATOM      4  C   UNL A   1      33.176  25.886  21.769  1.00  0.00     0.243 C 
ATOM      5  O   UNL A   1      33.163  25.995  20.545  1.00  0.00    -0.270 OA
ATOM      6  H   UNL A   1      32.705  27.795  22.036  1.00  0.00     0.163 HD
BRANCH   4   7
ATOM      7  C   UNL A   1      33.477  24.563  22.368  1.00  0.00     0.072 C 
ATOM      8  C   UNL A   1      34.428  24.333  23.284  1.00  0.00     0.014 C 
BRANCH   8   9
ATOM      9  C   UNL A   1      34.768  23.013  23.826  1.00  0.00    -0.024 A 
ATOM     10  C   UNL A   1      36.366  21.463  24.836  1.00  0.00    -0.047 A 
ATOM     11  C   UNL A   1      36.069  22.698  24.236  1.00  0.00     0.011 A 
ATOM     12  C   UNL A   1      35.324  20.547  25.034  1.00  0.00     0.016 A 
ATOM     13  C   UNL A   1      34.010  20.859  24.657  1.00  0.00     0.023 A 
ATOM     14  C   UNL A   1      33.741  22.087  24.042  1.00  0.00     0.020 A 
BRANCH  10  15
ATOM     15  C   UNL A   1      37.772  21.219  25.337  1.00  0.00     0.032 C 
ATOM     16  C   UNL A   1      38.503  22.429  25.904  1.00  0.00     0.009 C 
ENDBRANCH  10  15
BRANCH  13  17
ATOM     17  C   UNL A   1      32.877  19.915  24.882  1.00  0.00     0.193 C 
ATOM     18  O   UNL A   1      31.755  20.342  25.139  1.00  0.00    -0.289 OA
BRANCH  17  19
ATOM     19  C   UNL A   1      33.074  18.452  24.774  1.00  0.00     0.022 A 
ATOM     20  C   UNL A   1      33.686  17.944  23.625  1.00  0.00     0.012 A 
ATOM     21  C   UNL A   1      32.673  17.592  25.803  1.00  0.00     0.012 A 
ATOM     22  C   UNL A   1      33.948  16.577  23.531  1.00  0.00     0.001 A 
ATOM     23  C   UNL A   1      32.938  16.227  25.702  1.00  0.00     0.001 A 
ATOM     24  C   UNL A   1      33.583  15.722  24.572  1.00  0.00     0.000 A 
ENDBRANCH  17  19
ENDBRANCH  13  17
ENDBRANCH   8   9
ENDBRANCH   4   7
ENDBRANCH   2   3
ENDBRANCH   1   2
BRANCH   1  25
ATOM     25  C   UNL A   1      33.278  28.819  25.776  1.00  0.00     0.023 C 
BRANCH  25  26
ATOM     26  C   UNL A   1      34.214  28.815  26.979  1.00  0.00     0.116 C 
BRANCH  26  27
ATOM     27  N   UNL A   1      34.086  29.993  27.823  1.00  0.00    -0.352 N 
ATOM     28  C   UNL A   1      35.041  30.573  28.626  1.00  0.00     0.251 C 
ATOM     29  H   UNL A   1      33.204  30.430  27.818  1.00  0.00     0.163 HD
ATOM     30  O   UNL A   1      34.759  31.513  29.353  1.00  0.00    -0.269 OA
BRANCH  28  31
ATOM     31  C   UNL A   1      36.405  30.008  28.634  1.00  0.00     0.039 A 
ATOM     32  C   UNL A   1      37.204  30.170  27.499  1.00  0.00     0.014 A 
ATOM     33  C   UNL A   1      36.906  29.365  29.769  1.00  0.00     0.014 A 
ATOM     34  C   UNL A   1      38.534  29.751  27.529  1.00  0.00     0.010 A 
ATOM     35  C   UNL A   1      38.249  29.009  29.820  1.00  0.00     0.010 A 
ATOM     36  C   UNL A   1      39.076  29.203  28.703  1.00  0.00    -0.014 A 
BRANCH  36  37
ATOM     37  C   UNL A   1      40.510  28.834  28.786  1.00  0.00     0.031 A 
ATOM     38  C   UNL A   1      40.959  27.458  28.388  1.00  0.00     0.074 A 
ATOM     39  C   UNL A   1      41.394  29.719  29.287  1.00  0.00     0.049 A 
ATOM     40  N   UNL A   1      42.153  26.927  28.454  1.00  0.00    -0.248 NA
ATOM     41  C   UNL A   1      39.923  26.548  27.875  1.00  0.00     0.031 C 
ATOM     42  C   UNL A   1      41.070  31.067  29.759  1.00  0.00     0.029 A 
ATOM     43  N   UNL A   1      42.746  29.610  29.494  1.00  0.00    -0.354 N 
ATOM     44  C   UNL A   1      42.010  25.621  28.007  1.00  0.00     0.074 A 
ATOM     45  C   UNL A   1      40.605  25.423  27.722  1.00  0.00     0.031 C 
ATOM     46  C   UNL A   1      42.195  31.667  30.179  1.00  0.00     0.029 A 
ATOM     47  C   UNL A   1      43.312  30.737  30.038  1.00  0.00     0.049 A 
ATOM     48  H   UNL A   1      43.261  28.801  29.274  1.00  0.00     0.167 HD
ATOM     49  C   UNL A   1      42.966  24.678  27.829  1.00  0.00     0.037 A 
ATOM     50  C   UNL A   1      44.587  30.990  30.387  1.00  0.00     0.037 A 
ATOM     51  C   UNL A   1      44.365  24.888  28.088  1.00  0.00     0.049 A 
ATOM     52  C   UNL A   1      45.631  29.931  30.171  1.00  0.00     0.074 A 
ATOM     53  C   UNL A   1      45.421  24.019  27.877  1.00  0.00     0.029 A 
ATOM     54  N   UNL A   1      44.904  26.052  28.614  1.00  0.00    -0.354 N 
ATOM     55  N   UNL A   1      45.493  28.723  29.681  1.00  0.00    -0.248 NA
ATOM     56  C   UNL A   1      47.009  30.272  30.551  1.00  0.00     0.031 C 
ATOM     57  C   UNL A   1      46.595  24.644  28.311  1.00  0.00     0.029 A 
ATOM     58  C   UNL A   1      46.276  25.918  28.752  1.00  0.00     0.049 A 
ATOM     59  H   UNL A   1      44.388  26.856  28.854  1.00  0.00     0.167 HD
ATOM     60  C   UNL A   1      46.766  28.170  29.670  1.00  0.00     0.074 A 
ATOM     61  C   UNL A   1      47.665  29.179  30.188  1.00  0.00     0.031 C 
ATOM     62  C   UNL A   1      47.156  26.937  29.265  1.00  0.00     0.037 A 
BRANCH  49  63
ATOM     63  C   UNL A   1      42.525  23.336  27.323  1.00  0.00     0.057 A 
ATOM     64  C   UNL A   1      42.003  22.361  28.184  1.00  0.00     0.134 A 
ATOM     65  C   UNL A   1      42.598  23.024  25.960  1.00  0.00     0.134 A 
ATOM     66  F   UNL A   1      41.919  22.593  29.503  1.00  0.00    -0.206 F 
ATOM     67  C   UNL A   1      41.595  21.114  27.710  1.00  0.00     0.040 A 
ATOM     68  C   UNL A   1      42.169  21.790  25.471  1.00  0.00     0.040 A 
ATOM     69  F   UNL A   1      43.083  23.915  25.082  1.00  0.00    -0.206 F 
ATOM     70  C   UNL A   1      41.671  20.828  26.349  1.00  0.00     0.006 A 
ENDBRANCH  49  63
BRANCH  50  71
ATOM     71  C   UNL A   1      44.954  32.313  30.951  1.00  0.00     0.057 A 
ATOM     72  C   UNL A   1      44.892  32.550  32.329  1.00  0.00     0.134 A 
ATOM     73  C   UNL A   1      45.370  33.369  30.132  1.00  0.00     0.134 A 
ATOM     74  F   UNL A   1      44.483  31.582  33.161  1.00  0.00    -0.206 F 
ATOM     75  C   UNL A   1      45.210  33.795  32.872  1.00  0.00     0.040 A 
ATOM     76  C   UNL A   1      45.714  34.613  30.664  1.00  0.00     0.040 A 
ATOM     77  F   UNL A   1      45.459  33.203  28.805  1.00  0.00    -0.206 F 
ATOM     78  C   UNL A   1      45.627  34.831  32.037  1.00  0.00     0.006 A 
ENDBRANCH  50  71
BRANCH  62  79
ATOM     79  C   UNL A   1      48.621  26.623  29.340  1.00  0.00     0.057 A 
ATOM     80  C   UNL A   1      49.502  26.959  28.306  1.00  0.00     0.134 A 
ATOM     81  C   UNL A   1      49.160  26.011  30.479  1.00  0.00     0.134 A 
ATOM     82  F   UNL A   1      49.044  27.535  27.183  1.00  0.00    -0.206 F 
ATOM     83  C   UNL A   1      50.867  26.680  28.393  1.00  0.00     0.040 A 
ATOM     84  C   UNL A   1      50.526  25.749  30.588  1.00  0.00     0.040 A 
ATOM     85  F   UNL A   1      48.370  25.672  31.509  1.00  0.00    -0.206 F 
ATOM     86  C   UNL A   1      51.383  26.079  29.539  1.00  0.00     0.006 A 
ENDBRANCH  62  79
ENDBRANCH  36  37
ENDBRANCH  28  31
ENDBRANCH  26  27
ENDBRANCH  25  26
ENDBRANCH   1  25
TORSDOF 15
ENDMDL
