MODEL 1
REMARK VINA RESULT:     -11.6      0.000      0.000
REMARK SMILES O=C(NCCCCNC(=O)c1sccc1Oc1ccc(NS(=O)(=O)Cc2ccccc2)cc1)c1ccc(-c2c3nc(c(-c4c(F)cccc4F)c4ccc([nH]4)c(-c4c(F)cccc4F)c4nc(c(-c5c(F)cccc5F)c5ccc2[nH]5)C=C4)C=C3)cc1
REMARK SMILES IDX 8 1 9 2 10 3 7 5 6 6 5 7 4 8 3 9 1 10 2 11 34 13 35 14 87 15
REMARK SMILES IDX 36 16 86 17 37 18 38 19 39 20 80 21 40 22 85 23 79 24 81 25
REMARK SMILES IDX 41 26 84 27 78 28 77 29 42 31 68 32 51 33 67 34 52 35 55 36
REMARK SMILES IDX 66 37 82 38 53 39 54 40 65 42 83 43 56 44 43 45 44 46 49 47
REMARK SMILES IDX 45 48 46 49 48 50 50 51 47 52 69 53 70 54 75 55 71 56 72 57
REMARK SMILES IDX 74 58 76 59 73 60 57 61 58 62 63 63 59 64 60 65 62 66 64 67
REMARK SMILES IDX 61 68 11 69 12 70 15 71 13 72 14 73 16 74 17 75 18 76 33 77
REMARK SMILES IDX 19 78 32 79 20 80 21 81 22 83 23 84 24 85 25 86 26 87 27 88
REMARK SMILES IDX 31 89 28 90 30 91 29 92
REMARK H PARENT 8 4 3 12 81 30 55 41 21 82
REMARK Flexibility Score: inf
ROOT
ATOM      1  N   UNL A   1      33.276  29.371  25.009  1.00  0.00    -0.351 N 
ATOM      2  C   UNL A   1      32.833  29.018  23.750  1.00  0.00     0.265 C 
ATOM      3  O   UNL A   1      33.583  29.212  22.794  1.00  0.00    -0.268 OA
ATOM      4  H   UNL A   1      34.219  29.650  25.070  1.00  0.00     0.163 HD
ENDROOT
BRANCH   1   5
ATOM      5  C   UNL A   1      32.530  29.381  26.254  1.00  0.00     0.116 C 
BRANCH   5   6
ATOM      6  C   UNL A   1      32.927  30.509  27.199  1.00  0.00     0.023 C 
BRANCH   6   7
ATOM      7  C   UNL A   1      31.970  31.702  27.251  1.00  0.00     0.023 C 
BRANCH   7   8
ATOM      8  C   UNL A   1      32.456  33.011  26.632  1.00  0.00     0.116 C 
BRANCH   8   9
ATOM      9  N   UNL A   1      32.305  34.170  27.502  1.00  0.00    -0.352 N 
ATOM     10  O   UNL A   1      32.649  35.557  29.231  1.00  0.00    -0.269 OA
ATOM     11  C   UNL A   1      33.024  34.565  28.608  1.00  0.00     0.251 C 
ATOM     12  H   UNL A   1      31.566  34.773  27.257  1.00  0.00     0.163 HD
BRANCH  11  13
ATOM     13  C   UNL A   1      34.240  33.841  29.069  1.00  0.00     0.039 A 
ATOM     14  C   UNL A   1      34.155  32.745  29.923  1.00  0.00     0.014 A 
ATOM     15  C   UNL A   1      35.498  34.218  28.582  1.00  0.00     0.014 A 
ATOM     16  C   UNL A   1      35.292  32.078  30.363  1.00  0.00     0.010 A 
ATOM     17  C   UNL A   1      36.652  33.542  29.005  1.00  0.00     0.010 A 
ATOM     18  C   UNL A   1      36.551  32.482  29.918  1.00  0.00    -0.014 A 
BRANCH  18  19
ATOM     19  C   UNL A   1      37.738  31.802  30.480  1.00  0.00     0.031 A 
ATOM     20  C   UNL A   1      38.132  32.063  31.903  1.00  0.00     0.074 A 
ATOM     21  C   UNL A   1      38.371  30.862  29.755  1.00  0.00     0.049 A 
ATOM     22  N   UNL A   1      39.086  31.516  32.612  1.00  0.00    -0.248 NA
ATOM     23  C   UNL A   1      37.332  33.059  32.635  1.00  0.00     0.031 C 
ATOM     24  C   UNL A   1      38.013  30.469  28.391  1.00  0.00     0.029 A 
ATOM     25  N   UNL A   1      39.427  30.048  30.072  1.00  0.00    -0.354 N 
ATOM     26  C   UNL A   1      38.997  32.091  33.871  1.00  0.00     0.074 A 
ATOM     27  C   UNL A   1      37.911  33.046  33.827  1.00  0.00     0.031 C 
ATOM     28  C   UNL A   1      38.829  29.480  27.993  1.00  0.00     0.029 A 
ATOM     29  C   UNL A   1      39.788  29.197  29.057  1.00  0.00     0.049 A 
ATOM     30  H   UNL A   1      39.883  30.072  30.945  1.00  0.00     0.167 HD
ATOM     31  C   UNL A   1      39.751  31.838  34.966  1.00  0.00     0.037 A 
ATOM     32  C   UNL A   1      40.792  28.302  28.992  1.00  0.00     0.037 A 
ATOM     33  C   UNL A   1      40.840  30.899  34.997  1.00  0.00     0.049 A 
ATOM     34  C   UNL A   1      41.682  28.119  30.191  1.00  0.00     0.074 A 
ATOM     35  C   UNL A   1      41.692  30.596  36.044  1.00  0.00     0.029 A 
ATOM     36  N   UNL A   1      41.232  30.112  33.923  1.00  0.00    -0.354 N 
ATOM     37  N   UNL A   1      41.599  28.678  31.375  1.00  0.00    -0.248 NA
ATOM     38  C   UNL A   1      42.810  27.188  30.045  1.00  0.00     0.031 C 
ATOM     39  C   UNL A   1      42.628  29.661  35.589  1.00  0.00     0.029 A 
ATOM     40  C   UNL A   1      42.329  29.346  34.273  1.00  0.00     0.049 A 
ATOM     41  H   UNL A   1      40.793  30.102  33.041  1.00  0.00     0.167 HD
ATOM     42  C   UNL A   1      42.645  28.150  32.120  1.00  0.00     0.074 A 
ATOM     43  C   UNL A   1      43.340  27.215  31.259  1.00  0.00     0.031 C 
ATOM     44  C   UNL A   1      43.001  28.417  33.401  1.00  0.00     0.037 A 
BRANCH  31  45
ATOM     45  C   UNL A   1      39.450  32.625  36.206  1.00  0.00     0.057 A 
ATOM     46  C   UNL A   1      40.052  33.863  36.463  1.00  0.00     0.134 A 
ATOM     47  C   UNL A   1      38.527  32.146  37.145  1.00  0.00     0.134 A 
ATOM     48  F   UNL A   1      40.957  34.368  35.611  1.00  0.00    -0.206 F 
ATOM     49  C   UNL A   1      39.758  34.590  37.618  1.00  0.00     0.040 A 
ATOM     50  C   UNL A   1      38.212  32.873  38.294  1.00  0.00     0.040 A 
ATOM     51  F   UNL A   1      37.917  30.966  36.958  1.00  0.00    -0.206 F 
ATOM     52  C   UNL A   1      38.831  34.097  38.535  1.00  0.00     0.006 A 
ENDBRANCH  31  45
BRANCH  32  53
ATOM     53  C   UNL A   1      41.032  27.536  27.742  1.00  0.00     0.057 A 
ATOM     54  C   UNL A   1      40.417  26.301  27.509  1.00  0.00     0.134 A 
ATOM     55  C   UNL A   1      41.913  28.012  26.761  1.00  0.00     0.134 A 
ATOM     56  F   UNL A   1      39.583  25.779  28.420  1.00  0.00    -0.206 F 
ATOM     57  C   UNL A   1      40.681  25.559  26.355  1.00  0.00     0.040 A 
ATOM     58  C   UNL A   1      42.166  27.292  25.592  1.00  0.00     0.040 A 
ATOM     59  F   UNL A   1      42.538  29.186  26.924  1.00  0.00    -0.206 F 
ATOM     60  C   UNL A   1      41.555  26.057  25.391  1.00  0.00     0.006 A 
ENDBRANCH  32  53
BRANCH  44  61
ATOM     61  C   UNL A   1      44.178  27.668  33.952  1.00  0.00     0.057 A 
ATOM     62  C   UNL A   1      45.476  28.190  33.891  1.00  0.00     0.134 A 
ATOM     63  C   UNL A   1      44.002  26.433  34.589  1.00  0.00     0.134 A 
ATOM     64  F   UNL A   1      45.711  29.362  33.283  1.00  0.00    -0.206 F 
ATOM     65  C   UNL A   1      46.563  27.498  34.428  1.00  0.00     0.040 A 
ATOM     66  C   UNL A   1      45.078  25.745  35.150  1.00  0.00     0.040 A 
ATOM     67  F   UNL A   1      42.782  25.885  34.687  1.00  0.00    -0.206 F 
ATOM     68  C   UNL A   1      46.364  26.275  35.066  1.00  0.00     0.006 A 
ENDBRANCH  44  61
ENDBRANCH  18  19
ENDBRANCH  11  13
ENDBRANCH   8   9
ENDBRANCH   7   8
ENDBRANCH   6   7
ENDBRANCH   5   6
ENDBRANCH   1   5
BRANCH   2  69
ATOM     69  C   UNL A   1      31.517  28.436  23.622  1.00  0.00     0.135 A 
ATOM     70  S   UNL A   1      30.277  29.434  22.969  1.00  0.00    -0.135 S 
ATOM     71  C   UNL A   1      31.021  27.205  24.015  1.00  0.00     0.151 A 
ATOM     72  C   UNL A   1      29.105  28.206  23.142  1.00  0.00     0.069 A 
ATOM     73  C   UNL A   1      29.634  27.068  23.704  1.00  0.00     0.059 A 
BRANCH  71  74
ATOM     74  O   UNL A   1      31.676  26.205  24.663  1.00  0.00    -0.456 OA
BRANCH  74  75
ATOM     75  C   UNL A   1      31.751  24.935  24.167  1.00  0.00     0.127 A 
ATOM     76  C   UNL A   1      31.015  23.911  24.744  1.00  0.00     0.049 A 
ATOM     77  C   UNL A   1      32.644  24.661  23.137  1.00  0.00     0.049 A 
ATOM     78  C   UNL A   1      31.118  22.617  24.234  1.00  0.00     0.030 A 
ATOM     79  C   UNL A   1      32.815  23.343  22.701  1.00  0.00     0.030 A 
ATOM     80  C   UNL A   1      32.060  22.307  23.257  1.00  0.00     0.049 A 
BRANCH  80  81
ATOM     81  N   UNL A   1      32.470  20.962  23.005  1.00  0.00    -0.283 N 
ATOM     82  H   UNL A   1      32.597  20.685  22.068  1.00  0.00     0.180 HD
BRANCH  81  83
ATOM     83  S   UNL A   1      32.745  19.841  24.200  1.00  0.00     0.236 S 
ATOM     84  O   UNL A   1      31.842  20.146  25.292  1.00  0.00    -0.206 OA
ATOM     85  O   UNL A   1      32.647  18.557  23.531  1.00  0.00    -0.206 OA
BRANCH  83  86
ATOM     86  C   UNL A   1      34.455  20.014  24.786  1.00  0.00     0.195 C 
BRANCH  86  87
ATOM     87  C   UNL A   1      34.882  21.438  25.009  1.00  0.00    -0.031 A 
ATOM     88  C   UNL A   1      34.311  22.189  26.053  1.00  0.00     0.005 A 
ATOM     89  C   UNL A   1      35.878  22.031  24.229  1.00  0.00     0.005 A 
ATOM     90  C   UNL A   1      34.639  23.530  26.238  1.00  0.00     0.000 A 
ATOM     91  C   UNL A   1      36.239  23.363  24.443  1.00  0.00     0.000 A 
ATOM     92  C   UNL A   1      35.602  24.118  25.428  1.00  0.00     0.000 A 
ENDBRANCH  86  87
ENDBRANCH  83  86
ENDBRANCH  81  83
ENDBRANCH  80  81
ENDBRANCH  74  75
ENDBRANCH  71  74
ENDBRANCH   2  69
TORSDOF 17
ENDMDL
MODEL 2
REMARK VINA RESULT:     -11.5      4.117      9.454
REMARK SMILES O=C(NCCCCNC(=O)c1sccc1Oc1ccc(NS(=O)(=O)Cc2ccccc2)cc1)c1ccc(-c2c3nc(c(-c4c(F)cccc4F)c4ccc([nH]4)c(-c4c(F)cccc4F)c4nc(c(-c5c(F)cccc5F)c5ccc2[nH]5)C=C4)C=C3)cc1
REMARK SMILES IDX 8 1 9 2 10 3 7 5 6 6 5 7 4 8 3 9 1 10 2 11 34 13 35 14 87 15
REMARK SMILES IDX 36 16 86 17 37 18 38 19 39 20 80 21 40 22 85 23 79 24 81 25
REMARK SMILES IDX 41 26 84 27 78 28 77 29 42 31 68 32 51 33 67 34 52 35 55 36
REMARK SMILES IDX 66 37 82 38 53 39 54 40 65 42 83 43 56 44 43 45 44 46 49 47
REMARK SMILES IDX 45 48 46 49 48 50 50 51 47 52 69 53 70 54 75 55 71 56 72 57
REMARK SMILES IDX 74 58 76 59 73 60 57 61 58 62 63 63 59 64 60 65 62 66 64 67
REMARK SMILES IDX 61 68 11 69 12 70 15 71 13 72 14 73 16 74 17 75 18 76 33 77
REMARK SMILES IDX 19 78 32 79 20 80 21 81 22 83 23 84 24 85 25 86 26 87 27 88
REMARK SMILES IDX 31 89 28 90 30 91 29 92
REMARK H PARENT 8 4 3 12 81 30 55 41 21 82
REMARK Flexibility Score: inf
ROOT
ATOM      1  N   UNL A   1      37.362  23.276  24.460  1.00  0.00    -0.351 N 
ATOM      2  C   UNL A   1      36.128  22.946  23.938  1.00  0.00     0.265 C 
ATOM      3  O   UNL A   1      35.945  23.103  22.731  1.00  0.00    -0.268 OA
ATOM      4  H   UNL A   1      38.058  23.510  23.803  1.00  0.00     0.163 HD
ENDROOT
BRANCH   1   5
ATOM      5  C   UNL A   1      37.766  23.323  25.853  1.00  0.00     0.116 C 
BRANCH   5   6
ATOM      6  C   UNL A   1      38.917  22.384  26.192  1.00  0.00     0.023 C 
BRANCH   6   7
ATOM      7  C   UNL A   1      38.964  21.076  25.400  1.00  0.00     0.023 C 
BRANCH   7   8
ATOM      8  C   UNL A   1      39.196  19.791  26.193  1.00  0.00     0.116 C 
BRANCH   8   9
ATOM      9  N   UNL A   1      40.445  19.113  25.872  1.00  0.00    -0.352 N 
ATOM     10  O   UNL A   1      42.640  18.807  25.528  1.00  0.00    -0.269 OA
ATOM     11  C   UNL A   1      41.749  19.552  25.933  1.00  0.00     0.251 C 
ATOM     12  H   UNL A   1      40.339  18.186  25.559  1.00  0.00     0.163 HD
BRANCH  11  13
ATOM     13  C   UNL A   1      42.116  20.886  26.480  1.00  0.00     0.039 A 
ATOM     14  C   UNL A   1      42.081  21.148  27.847  1.00  0.00     0.014 A 
ATOM     15  C   UNL A   1      42.577  21.888  25.615  1.00  0.00     0.014 A 
ATOM     16  C   UNL A   1      42.411  22.398  28.355  1.00  0.00     0.010 A 
ATOM     17  C   UNL A   1      42.929  23.148  26.118  1.00  0.00     0.010 A 
ATOM     18  C   UNL A   1      42.824  23.414  27.491  1.00  0.00    -0.014 A 
BRANCH  18  19
ATOM     19  C   UNL A   1      43.079  24.753  28.064  1.00  0.00     0.031 A 
ATOM     20  C   UNL A   1      44.491  25.193  28.309  1.00  0.00     0.074 A 
ATOM     21  C   UNL A   1      42.055  25.609  28.233  1.00  0.00     0.049 A 
ATOM     22  N   UNL A   1      44.937  26.349  28.729  1.00  0.00    -0.248 NA
ATOM     23  C   UNL A   1      45.546  24.206  28.025  1.00  0.00     0.031 C 
ATOM     24  C   UNL A   1      40.652  25.310  27.941  1.00  0.00     0.029 A 
ATOM     25  N   UNL A   1      42.038  26.910  28.665  1.00  0.00    -0.354 N 
ATOM     26  C   UNL A   1      46.320  26.234  28.751  1.00  0.00     0.074 A 
ATOM     27  C   UNL A   1      46.642  24.889  28.324  1.00  0.00     0.031 C 
ATOM     28  C   UNL A   1      39.912  26.403  28.191  1.00  0.00     0.029 A 
ATOM     29  C   UNL A   1      40.782  27.462  28.695  1.00  0.00     0.049 A 
ATOM     30  H   UNL A   1      42.851  27.401  28.928  1.00  0.00     0.167 HD
ATOM     31  C   UNL A   1      47.236  27.169  29.092  1.00  0.00     0.037 A 
ATOM     32  C   UNL A   1      40.381  28.682  29.099  1.00  0.00     0.037 A 
ATOM     33  C   UNL A   1      46.907  28.499  29.532  1.00  0.00     0.049 A 
ATOM     34  C   UNL A   1      41.414  29.667  29.575  1.00  0.00     0.074 A 
ATOM     35  C   UNL A   1      47.758  29.511  29.938  1.00  0.00     0.029 A 
ATOM     36  N   UNL A   1      45.615  28.998  29.629  1.00  0.00    -0.354 N 
ATOM     37  N   UNL A   1      42.720  29.545  29.605  1.00  0.00    -0.248 NA
ATOM     38  C   UNL A   1      40.921  30.956  30.079  1.00  0.00     0.031 C 
ATOM     39  C   UNL A   1      46.979  30.607  30.324  1.00  0.00     0.029 A 
ATOM     40  C   UNL A   1      45.645  30.294  30.115  1.00  0.00     0.049 A 
ATOM     41  H   UNL A   1      44.799  28.503  29.389  1.00  0.00     0.167 HD
ATOM     42  C   UNL A   1      43.204  30.745  30.107  1.00  0.00     0.074 A 
ATOM     43  C   UNL A   1      42.052  31.589  30.354  1.00  0.00     0.031 C 
ATOM     44  C   UNL A   1      44.486  31.116  30.346  1.00  0.00     0.037 A 
BRANCH  31  45
ATOM     45  C   UNL A   1      48.679  26.768  29.045  1.00  0.00     0.057 A 
ATOM     46  C   UNL A   1      49.300  26.106  30.111  1.00  0.00     0.134 A 
ATOM     47  C   UNL A   1      49.454  27.030  27.907  1.00  0.00     0.134 A 
ATOM     48  F   UNL A   1      48.618  25.842  31.237  1.00  0.00    -0.206 F 
ATOM     49  C   UNL A   1      50.643  25.731  30.054  1.00  0.00     0.040 A 
ATOM     50  C   UNL A   1      50.792  26.643  27.830  1.00  0.00     0.040 A 
ATOM     51  F   UNL A   1      48.919  27.662  26.851  1.00  0.00    -0.206 F 
ATOM     52  C   UNL A   1      51.392  25.995  28.908  1.00  0.00     0.006 A 
ENDBRANCH  31  45
BRANCH  32  53
ATOM     53  C   UNL A   1      38.937  29.031  29.107  1.00  0.00     0.057 A 
ATOM     54  C   UNL A   1      38.299  29.535  27.968  1.00  0.00     0.134 A 
ATOM     55  C   UNL A   1      38.167  28.896  30.270  1.00  0.00     0.134 A 
ATOM     56  F   UNL A   1      38.986  29.711  26.831  1.00  0.00    -0.206 F 
ATOM     57  C   UNL A   1      36.953  29.909  27.990  1.00  0.00     0.040 A 
ATOM     58  C   UNL A   1      36.815  29.242  30.298  1.00  0.00     0.040 A 
ATOM     59  F   UNL A   1      38.719  28.423  31.397  1.00  0.00    -0.206 F 
ATOM     60  C   UNL A   1      36.206  29.758  29.158  1.00  0.00     0.006 A 
ENDBRANCH  32  53
BRANCH  44  61
ATOM     61  C   UNL A   1      44.708  32.502  30.877  1.00  0.00     0.057 A 
ATOM     62  C   UNL A   1      44.793  32.759  32.251  1.00  0.00     0.134 A 
ATOM     63  C   UNL A   1      44.881  33.581  30.002  1.00  0.00     0.134 A 
ATOM     64  F   UNL A   1      44.623  31.769  33.141  1.00  0.00    -0.206 F 
ATOM     65  C   UNL A   1      45.024  34.047  32.737  1.00  0.00     0.040 A 
ATOM     66  C   UNL A   1      45.136  34.868  30.475  1.00  0.00     0.040 A 
ATOM     67  F   UNL A   1      44.819  33.398  28.674  1.00  0.00    -0.206 F 
ATOM     68  C   UNL A   1      45.203  35.104  31.847  1.00  0.00     0.006 A 
ENDBRANCH  44  61
ENDBRANCH  18  19
ENDBRANCH  11  13
ENDBRANCH   8   9
ENDBRANCH   7   8
ENDBRANCH   6   7
ENDBRANCH   5   6
ENDBRANCH   1   5
BRANCH   2  69
ATOM     69  C   UNL A   1      35.118  22.429  24.833  1.00  0.00     0.135 A 
ATOM     70  S   UNL A   1      34.989  20.719  24.968  1.00  0.00    -0.135 S 
ATOM     71  C   UNL A   1      34.139  23.071  25.572  1.00  0.00     0.151 A 
ATOM     72  C   UNL A   1      33.684  20.837  26.063  1.00  0.00     0.069 A 
ATOM     73  C   UNL A   1      33.335  22.146  26.305  1.00  0.00     0.059 A 
BRANCH  71  74
ATOM     74  O   UNL A   1      33.864  24.401  25.624  1.00  0.00    -0.456 OA
BRANCH  74  75
ATOM     75  C   UNL A   1      32.894  24.981  24.858  1.00  0.00     0.127 A 
ATOM     76  C   UNL A   1      33.108  25.212  23.508  1.00  0.00     0.049 A 
ATOM     77  C   UNL A   1      31.724  25.421  25.466  1.00  0.00     0.049 A 
ATOM     78  C   UNL A   1      32.111  25.820  22.746  1.00  0.00     0.030 A 
ATOM     79  C   UNL A   1      30.774  26.121  24.716  1.00  0.00     0.030 A 
ATOM     80  C   UNL A   1      30.967  26.336  23.348  1.00  0.00     0.049 A 
BRANCH  80  81
ATOM     81  N   UNL A   1      30.138  27.297  22.692  1.00  0.00    -0.283 N 
ATOM     82  H   UNL A   1      29.363  26.968  22.181  1.00  0.00     0.180 HD
BRANCH  81  83
ATOM     83  S   UNL A   1      30.406  28.936  22.743  1.00  0.00     0.236 S 
ATOM     84  O   UNL A   1      30.076  29.467  21.435  1.00  0.00    -0.206 OA
ATOM     85  O   UNL A   1      29.670  29.395  23.905  1.00  0.00    -0.206 OA
BRANCH  83  86
ATOM     86  C   UNL A   1      32.168  29.233  23.069  1.00  0.00     0.195 C 
BRANCH  86  87
ATOM     87  C   UNL A   1      32.529  29.219  24.528  1.00  0.00    -0.031 A 
ATOM     88  C   UNL A   1      31.730  29.909  25.458  1.00  0.00     0.005 A 
ATOM     89  C   UNL A   1      33.624  28.490  25.001  1.00  0.00     0.005 A 
ATOM     90  C   UNL A   1      32.081  29.968  26.805  1.00  0.00     0.000 A 
ATOM     91  C   UNL A   1      33.951  28.514  26.358  1.00  0.00     0.000 A 
ATOM     92  C   UNL A   1      33.196  29.272  27.254  1.00  0.00     0.000 A 
ENDBRANCH  86  87
ENDBRANCH  83  86
ENDBRANCH  81  83
ENDBRANCH  80  81
ENDBRANCH  74  75
ENDBRANCH  71  74
ENDBRANCH   2  69
TORSDOF 17
ENDMDL
MODEL 3
REMARK VINA RESULT:     -11.5      1.169      2.007
REMARK SMILES O=C(NCCCCNC(=O)c1sccc1Oc1ccc(NS(=O)(=O)Cc2ccccc2)cc1)c1ccc(-c2c3nc(c(-c4c(F)cccc4F)c4ccc([nH]4)c(-c4c(F)cccc4F)c4nc(c(-c5c(F)cccc5F)c5ccc2[nH]5)C=C4)C=C3)cc1
REMARK SMILES IDX 8 1 9 2 10 3 7 5 6 6 5 7 4 8 3 9 1 10 2 11 34 13 35 14 87 15
REMARK SMILES IDX 36 16 86 17 37 18 38 19 39 20 80 21 40 22 85 23 79 24 81 25
REMARK SMILES IDX 41 26 84 27 78 28 77 29 42 31 68 32 51 33 67 34 52 35 55 36
REMARK SMILES IDX 66 37 82 38 53 39 54 40 65 42 83 43 56 44 43 45 44 46 49 47
REMARK SMILES IDX 45 48 46 49 48 50 50 51 47 52 69 53 70 54 75 55 71 56 72 57
REMARK SMILES IDX 74 58 76 59 73 60 57 61 58 62 63 63 59 64 60 65 62 66 64 67
REMARK SMILES IDX 61 68 11 69 12 70 15 71 13 72 14 73 16 74 17 75 18 76 33 77
REMARK SMILES IDX 19 78 32 79 20 80 21 81 22 83 23 84 24 85 25 86 26 87 27 88
REMARK SMILES IDX 31 89 28 90 30 91 29 92
REMARK H PARENT 8 4 3 12 81 30 55 41 21 82
REMARK Flexibility Score: inf
ROOT
ATOM      1  N   UNL A   1      32.744  29.309  25.095  1.00  0.00    -0.351 N 
ATOM      2  C   UNL A   1      32.382  28.897  23.828  1.00  0.00     0.265 C 
ATOM      3  O   UNL A   1      33.209  29.005  22.923  1.00  0.00    -0.268 OA
ATOM      4  H   UNL A   1      33.690  29.556  25.213  1.00  0.00     0.163 HD
ENDROOT
BRANCH   1   5
ATOM      5  C   UNL A   1      31.908  29.422  26.277  1.00  0.00     0.116 C 
BRANCH   5   6
ATOM      6  C   UNL A   1      32.346  30.521  27.236  1.00  0.00     0.023 C 
BRANCH   6   7
ATOM      7  C   UNL A   1      31.661  31.877  27.052  1.00  0.00     0.023 C 
BRANCH   7   8
ATOM      8  C   UNL A   1      32.557  33.070  26.724  1.00  0.00     0.116 C 
BRANCH   8   9
ATOM      9  N   UNL A   1      32.379  34.208  27.616  1.00  0.00    -0.352 N 
ATOM     10  O   UNL A   1      32.682  35.566  29.376  1.00  0.00    -0.269 OA
ATOM     11  C   UNL A   1      33.080  34.592  28.738  1.00  0.00     0.251 C 
ATOM     12  H   UNL A   1      31.633  34.804  27.375  1.00  0.00     0.163 HD
BRANCH  11  13
ATOM     13  C   UNL A   1      34.301  33.878  29.197  1.00  0.00     0.039 A 
ATOM     14  C   UNL A   1      34.223  32.689  29.916  1.00  0.00     0.014 A 
ATOM     15  C   UNL A   1      35.566  34.367  28.842  1.00  0.00     0.014 A 
ATOM     16  C   UNL A   1      35.365  32.031  30.357  1.00  0.00     0.010 A 
ATOM     17  C   UNL A   1      36.725  33.702  29.266  1.00  0.00     0.010 A 
ATOM     18  C   UNL A   1      36.626  32.541  30.046  1.00  0.00    -0.014 A 
BRANCH  18  19
ATOM     19  C   UNL A   1      37.810  31.859  30.609  1.00  0.00     0.031 A 
ATOM     20  C   UNL A   1      38.214  32.131  32.027  1.00  0.00     0.074 A 
ATOM     21  C   UNL A   1      38.432  30.906  29.890  1.00  0.00     0.049 A 
ATOM     22  N   UNL A   1      39.167  31.584  32.737  1.00  0.00    -0.248 NA
ATOM     23  C   UNL A   1      37.425  33.140  32.753  1.00  0.00     0.031 C 
ATOM     24  C   UNL A   1      38.064  30.502  28.533  1.00  0.00     0.029 A 
ATOM     25  N   UNL A   1      39.484  30.088  30.210  1.00  0.00    -0.354 N 
ATOM     26  C   UNL A   1      39.089  32.172  33.991  1.00  0.00     0.074 A 
ATOM     27  C   UNL A   1      38.009  33.135  33.942  1.00  0.00     0.031 C 
ATOM     28  C   UNL A   1      38.871  29.503  28.141  1.00  0.00     0.029 A 
ATOM     29  C   UNL A   1      39.833  29.223  29.203  1.00  0.00     0.049 A 
ATOM     30  H   UNL A   1      39.945  30.117  31.081  1.00  0.00     0.167 HD
ATOM     31  C   UNL A   1      39.847  31.926  35.085  1.00  0.00     0.037 A 
ATOM     32  C   UNL A   1      40.830  28.320  29.142  1.00  0.00     0.037 A 
ATOM     33  C   UNL A   1      40.929  30.978  35.120  1.00  0.00     0.049 A 
ATOM     34  C   UNL A   1      41.725  28.143  30.338  1.00  0.00     0.074 A 
ATOM     35  C   UNL A   1      41.784  30.680  36.165  1.00  0.00     0.029 A 
ATOM     36  N   UNL A   1      41.308  30.178  34.051  1.00  0.00    -0.354 N 
ATOM     37  N   UNL A   1      41.652  28.714  31.517  1.00  0.00    -0.248 NA
ATOM     38  C   UNL A   1      42.845  27.202  30.197  1.00  0.00     0.031 C 
ATOM     39  C   UNL A   1      42.710  29.733  35.716  1.00  0.00     0.029 A 
ATOM     40  C   UNL A   1      42.402  29.406  34.404  1.00  0.00     0.049 A 
ATOM     41  H   UNL A   1      40.865  30.161  33.172  1.00  0.00     0.167 HD
ATOM     42  C   UNL A   1      42.697  28.187  32.262  1.00  0.00     0.074 A 
ATOM     43  C   UNL A   1      43.381  27.237  31.407  1.00  0.00     0.031 C 
ATOM     44  C   UNL A   1      43.062  28.464  33.538  1.00  0.00     0.037 A 
BRANCH  31  45
ATOM     45  C   UNL A   1      39.557  32.727  36.318  1.00  0.00     0.057 A 
ATOM     46  C   UNL A   1      40.240  33.916  36.606  1.00  0.00     0.134 A 
ATOM     47  C   UNL A   1      38.567  32.315  37.218  1.00  0.00     0.134 A 
ATOM     48  F   UNL A   1      41.212  34.356  35.793  1.00  0.00    -0.206 F 
ATOM     49  C   UNL A   1      39.957  34.658  37.754  1.00  0.00     0.040 A 
ATOM     50  C   UNL A   1      38.262  33.058  38.359  1.00  0.00     0.040 A 
ATOM     51  F   UNL A   1      37.877  31.185  37.000  1.00  0.00    -0.206 F 
ATOM     52  C   UNL A   1      38.962  34.231  38.632  1.00  0.00     0.006 A 
ENDBRANCH  31  45
BRANCH  32  53
ATOM     53  C   UNL A   1      41.058  27.540  27.899  1.00  0.00     0.057 A 
ATOM     54  C   UNL A   1      41.829  28.047  26.846  1.00  0.00     0.134 A 
ATOM     55  C   UNL A   1      40.480  26.275  27.722  1.00  0.00     0.134 A 
ATOM     56  F   UNL A   1      42.388  29.261  26.943  1.00  0.00    -0.206 F 
ATOM     57  C   UNL A   1      42.003  27.333  25.658  1.00  0.00     0.040 A 
ATOM     58  C   UNL A   1      40.667  25.541  26.550  1.00  0.00     0.040 A 
ATOM     59  F   UNL A   1      39.726  25.734  28.690  1.00  0.00    -0.206 F 
ATOM     60  C   UNL A   1      41.424  26.073  25.510  1.00  0.00     0.006 A 
ENDBRANCH  32  53
BRANCH  44  61
ATOM     61  C   UNL A   1      44.236  27.712  34.091  1.00  0.00     0.057 A 
ATOM     62  C   UNL A   1      45.541  28.211  33.996  1.00  0.00     0.134 A 
ATOM     63  C   UNL A   1      44.052  26.497  34.764  1.00  0.00     0.134 A 
ATOM     64  F   UNL A   1      45.784  29.363  33.353  1.00  0.00    -0.206 F 
ATOM     65  C   UNL A   1      46.626  27.517  34.535  1.00  0.00     0.040 A 
ATOM     66  C   UNL A   1      45.126  25.807  35.327  1.00  0.00     0.040 A 
ATOM     67  F   UNL A   1      42.826  25.970  34.896  1.00  0.00    -0.206 F 
ATOM     68  C   UNL A   1      46.418  26.315  35.208  1.00  0.00     0.006 A 
ENDBRANCH  44  61
ENDBRANCH  18  19
ENDBRANCH  11  13
ENDBRANCH   8   9
ENDBRANCH   7   8
ENDBRANCH   6   7
ENDBRANCH   5   6
ENDBRANCH   1   5
BRANCH   2  69
ATOM     69  C   UNL A   1      31.057  28.357  23.632  1.00  0.00     0.135 A 
ATOM     70  S   UNL A   1      29.954  29.297  22.705  1.00  0.00    -0.135 S 
ATOM     71  C   UNL A   1      30.451  27.218  24.136  1.00  0.00     0.151 A 
ATOM     72  C   UNL A   1      28.701  28.157  22.914  1.00  0.00     0.069 A 
ATOM     73  C   UNL A   1      29.101  27.094  23.690  1.00  0.00     0.059 A 
BRANCH  71  74
ATOM     74  O   UNL A   1      30.973  26.300  24.991  1.00  0.00    -0.456 OA
BRANCH  74  75
ATOM     75  C   UNL A   1      31.935  25.407  24.612  1.00  0.00     0.127 A 
ATOM     76  C   UNL A   1      31.581  24.195  24.037  1.00  0.00     0.049 A 
ATOM     77  C   UNL A   1      33.267  25.686  24.892  1.00  0.00     0.049 A 
ATOM     78  C   UNL A   1      32.576  23.289  23.671  1.00  0.00     0.030 A 
ATOM     79  C   UNL A   1      34.249  24.728  24.616  1.00  0.00     0.030 A 
ATOM     80  C   UNL A   1      33.907  23.515  24.012  1.00  0.00     0.049 A 
BRANCH  80  81
ATOM     81  N   UNL A   1      34.872  22.462  24.022  1.00  0.00    -0.283 N 
ATOM     82  H   UNL A   1      35.379  22.290  23.195  1.00  0.00     0.180 HD
BRANCH  81  83
ATOM     83  S   UNL A   1      35.186  21.509  25.347  1.00  0.00     0.236 S 
ATOM     84  O   UNL A   1      36.331  20.683  25.021  1.00  0.00    -0.206 OA
ATOM     85  O   UNL A   1      35.271  22.439  26.458  1.00  0.00    -0.206 OA
BRANCH  83  86
ATOM     86  C   UNL A   1      33.754  20.435  25.652  1.00  0.00     0.195 C 
BRANCH  86  87
ATOM     87  C   UNL A   1      33.568  19.359  24.619  1.00  0.00    -0.031 A 
ATOM     88  C   UNL A   1      32.535  19.465  23.670  1.00  0.00     0.005 A 
ATOM     89  C   UNL A   1      34.433  18.264  24.544  1.00  0.00     0.005 A 
ATOM     90  C   UNL A   1      32.299  18.449  22.746  1.00  0.00     0.000 A 
ATOM     91  C   UNL A   1      34.223  17.266  23.589  1.00  0.00     0.000 A 
ATOM     92  C   UNL A   1      33.143  17.346  22.710  1.00  0.00     0.000 A 
ENDBRANCH  86  87
ENDBRANCH  83  86
ENDBRANCH  81  83
ENDBRANCH  80  81
ENDBRANCH  74  75
ENDBRANCH  71  74
ENDBRANCH   2  69
TORSDOF 17
ENDMDL
