MODEL 1
REMARK VINA RESULT:     -10.1      0.000      0.000
REMARK SMILES CCOC(=O)c1cc(C[NH2+]CC(=O)NCCCCNC(=O)c2ccc(-c3c4nc(c(-c5c(F)cccc5F)c5ccc([nH]5)c(-c5c(F)cccc5F)c5nc(c(-c6c(F)cccc6F)c6ccc3[nH]6)C=C5)C=C4)cc2)c(C)o1
REMARK SMILES IDX 12 1 13 2 14 3 11 5 10 6 9 9 8 10 6 11 7 12 78 13 76 14
REMARK SMILES IDX 77 15 4 16 5 17 3 18 2 19 1 20 15 21 16 22 17 23 18 24 19 25
REMARK SMILES IDX 20 26 21 28 22 29 23 30 75 31 24 32 74 33 25 34 26 35 27 36
REMARK SMILES IDX 68 37 28 38 73 39 67 40 69 41 29 42 72 43 66 44 65 45 30 47
REMARK SMILES IDX 56 48 39 49 55 50 40 51 43 52 54 53 70 54 41 55 42 56 53 58
REMARK SMILES IDX 71 59 44 60 31 61 32 62 37 63 33 64 34 65 36 66 38 67 35 68
REMARK SMILES IDX 57 69 58 70 63 71 59 72 60 73 62 74 64 75 61 76 45 77 46 78
REMARK SMILES IDX 51 79 47 80 48 81 50 82 52 83 49 84
REMARK H PARENT 14 4 10 7 10 8 19 27 69 46 43 57
REMARK Flexibility Score: inf
ROOT
ATOM      1  C   UNL A   1      31.784  25.376  26.596  1.00  0.00     0.275 C 
ATOM      2  O   UNL A   1      31.362  24.412  27.239  1.00  0.00    -0.269 OA
ATOM      3  N   UNL A   1      31.205  26.596  26.832  1.00  0.00    -0.351 N 
ATOM      4  H   UNL A   1      30.570  26.604  27.585  1.00  0.00     0.163 HD
ENDROOT
BRANCH   1   5
ATOM      5  C   UNL A   1      32.895  25.193  25.536  1.00  0.00     0.362 C 
BRANCH   5   6
ATOM      6  N   UNL A   1      32.379  24.792  24.192  1.00  0.00    -0.335 N 
ATOM      7  H   UNL A   1      32.537  23.796  24.042  1.00  0.00     0.347 HD
ATOM      8  H   UNL A   1      31.377  24.971  24.126  1.00  0.00     0.347 HD
BRANCH   6   9
ATOM      9  C   UNL A   1      33.096  25.560  23.198  1.00  0.00     0.301 C 
BRANCH   9  10
ATOM     10  C   UNL A   1      32.480  26.806  22.696  1.00  0.00     0.048 A 
ATOM     11  C   UNL A   1      30.711  28.168  22.427  1.00  0.00     0.212 A 
ATOM     12  C   UNL A   1      31.135  26.870  22.231  1.00  0.00     0.068 A 
ATOM     13  O   UNL A   1      31.794  28.952  22.719  1.00  0.00    -0.454 OA
ATOM     14  C   UNL A   1      32.867  28.118  22.888  1.00  0.00     0.110 A 
ATOM     15  C   UNL A   1      34.103  28.750  23.391  1.00  0.00     0.088 C 
BRANCH  11  16
ATOM     16  C   UNL A   1      29.370  28.691  22.570  1.00  0.00     0.374 C 
ATOM     17  O   UNL A   1      28.448  28.201  23.208  1.00  0.00    -0.242 OA
BRANCH  16  18
ATOM     18  O   UNL A   1      29.232  29.737  21.700  1.00  0.00    -0.460 OA
BRANCH  18  19
ATOM     19  C   UNL A   1      27.999  30.462  21.793  1.00  0.00     0.230 C 
ATOM     20  C   UNL A   1      28.259  31.651  22.707  1.00  0.00     0.049 C 
ENDBRANCH  18  19
ENDBRANCH  16  18
ENDBRANCH  11  16
ENDBRANCH   9  10
ENDBRANCH   6   9
ENDBRANCH   5   6
ENDBRANCH   1   5
BRANCH   3  21
ATOM     21  C   UNL A   1      31.364  27.880  26.166  1.00  0.00     0.116 C 
BRANCH  21  22
ATOM     22  C   UNL A   1      31.924  28.956  27.110  1.00  0.00     0.023 C 
BRANCH  22  23
ATOM     23  C   UNL A   1      31.717  30.391  26.651  1.00  0.00     0.023 C 
BRANCH  23  24
ATOM     24  C   UNL A   1      32.856  31.322  27.013  1.00  0.00     0.116 C 
BRANCH  24  25
ATOM     25  N   UNL A   1      32.419  32.681  27.308  1.00  0.00    -0.352 N 
ATOM     26  C   UNL A   1      33.031  33.638  28.082  1.00  0.00     0.251 C 
ATOM     27  H   UNL A   1      31.566  32.950  26.896  1.00  0.00     0.163 HD
ATOM     28  O   UNL A   1      32.468  34.701  28.319  1.00  0.00    -0.269 OA
BRANCH  26  29
ATOM     29  C   UNL A   1      34.358  33.350  28.661  1.00  0.00     0.039 A 
ATOM     30  C   UNL A   1      34.437  32.699  29.893  1.00  0.00     0.014 A 
ATOM     31  C   UNL A   1      35.517  33.657  27.946  1.00  0.00     0.014 A 
ATOM     32  C   UNL A   1      35.681  32.283  30.369  1.00  0.00     0.010 A 
ATOM     33  C   UNL A   1      36.733  33.137  28.359  1.00  0.00     0.010 A 
ATOM     34  C   UNL A   1      36.832  32.459  29.583  1.00  0.00    -0.014 A 
BRANCH  34  35
ATOM     35  C   UNL A   1      38.161  31.979  30.026  1.00  0.00     0.031 A 
ATOM     36  C   UNL A   1      38.692  30.676  29.493  1.00  0.00     0.074 A 
ATOM     37  C   UNL A   1      38.847  32.663  30.962  1.00  0.00     0.049 A 
ATOM     38  N   UNL A   1      39.778  30.027  29.826  1.00  0.00    -0.248 NA
ATOM     39  C   UNL A   1      37.868  29.988  28.486  1.00  0.00     0.031 C 
ATOM     40  C   UNL A   1      38.407  33.904  31.602  1.00  0.00     0.029 A 
ATOM     41  N   UNL A   1      40.061  32.402  31.544  1.00  0.00    -0.354 N 
ATOM     42  C   UNL A   1      39.748  28.848  29.091  1.00  0.00     0.074 A 
ATOM     43  C   UNL A   1      38.506  28.837  28.353  1.00  0.00     0.031 C 
ATOM     44  C   UNL A   1      39.354  34.316  32.461  1.00  0.00     0.029 A 
ATOM     45  C   UNL A   1      40.449  33.351  32.459  1.00  0.00     0.049 A 
ATOM     46  H   UNL A   1      40.604  31.611  31.327  1.00  0.00     0.167 HD
ATOM     47  C   UNL A   1      40.687  27.876  29.011  1.00  0.00     0.037 A 
ATOM     48  C   UNL A   1      41.564  33.431  33.208  1.00  0.00     0.037 A 
ATOM     49  C   UNL A   1      41.942  27.917  29.710  1.00  0.00     0.049 A 
ATOM     50  C   UNL A   1      42.607  32.356  33.081  1.00  0.00     0.074 A 
ATOM     51  C   UNL A   1      42.995  27.022  29.645  1.00  0.00     0.029 A 
ATOM     52  N   UNL A   1      42.315  28.915  30.598  1.00  0.00    -0.354 N 
ATOM     53  N   UNL A   1      42.597  31.279  32.333  1.00  0.00    -0.248 NA
ATOM     54  C   UNL A   1      43.819  32.510  33.898  1.00  0.00     0.031 C 
ATOM     55  C   UNL A   1      43.993  27.462  30.522  1.00  0.00     0.029 A 
ATOM     56  C   UNL A   1      43.579  28.653  31.098  1.00  0.00     0.049 A 
ATOM     57  H   UNL A   1      41.763  29.695  30.836  1.00  0.00     0.167 HD
ATOM     58  C   UNL A   1      43.811  30.645  32.563  1.00  0.00     0.074 A 
ATOM     59  C   UNL A   1      44.536  31.462  33.514  1.00  0.00     0.031 C 
ATOM     60  C   UNL A   1      44.285  29.489  32.035  1.00  0.00     0.037 A 
BRANCH  47  61
ATOM     61  C   UNL A   1      40.386  26.703  28.125  1.00  0.00     0.057 A 
ATOM     62  C   UNL A   1      39.531  25.668  28.531  1.00  0.00     0.134 A 
ATOM     63  C   UNL A   1      40.956  26.604  26.850  1.00  0.00     0.134 A 
ATOM     64  F   UNL A   1      38.967  25.691  29.748  1.00  0.00    -0.206 F 
ATOM     65  C   UNL A   1      39.285  24.561  27.718  1.00  0.00     0.040 A 
ATOM     66  C   UNL A   1      40.693  25.517  26.014  1.00  0.00     0.040 A 
ATOM     67  F   UNL A   1      41.781  27.560  26.395  1.00  0.00    -0.206 F 
ATOM     68  C   UNL A   1      39.863  24.487  26.453  1.00  0.00     0.006 A 
ENDBRANCH  47  61
BRANCH  48  69
ATOM     69  C   UNL A   1      41.773  34.592  34.108  1.00  0.00     0.057 A 
ATOM     70  C   UNL A   1      41.402  34.529  35.457  1.00  0.00     0.134 A 
ATOM     71  C   UNL A   1      42.347  35.784  33.652  1.00  0.00     0.134 A 
ATOM     72  F   UNL A   1      40.833  33.419  35.949  1.00  0.00    -0.206 F 
ATOM     73  C   UNL A   1      41.577  35.615  36.316  1.00  0.00     0.040 A 
ATOM     74  C   UNL A   1      42.550  36.871  34.505  1.00  0.00     0.040 A 
ATOM     75  F   UNL A   1      42.733  35.904  32.373  1.00  0.00    -0.206 F 
ATOM     76  C   UNL A   1      42.158  36.790  35.841  1.00  0.00     0.006 A 
ENDBRANCH  48  69
BRANCH  60  77
ATOM     77  C   UNL A   1      45.664  29.064  32.443  1.00  0.00     0.057 A 
ATOM     78  C   UNL A   1      46.804  29.495  31.755  1.00  0.00     0.134 A 
ATOM     79  C   UNL A   1      45.852  28.249  33.567  1.00  0.00     0.134 A 
ATOM     80  F   UNL A   1      46.689  30.267  30.664  1.00  0.00    -0.206 F 
ATOM     81  C   UNL A   1      48.084  29.111  32.157  1.00  0.00     0.040 A 
ATOM     82  C   UNL A   1      47.128  27.881  33.994  1.00  0.00     0.040 A 
ATOM     83  F   UNL A   1      44.800  27.811  34.275  1.00  0.00    -0.206 F 
ATOM     84  C   UNL A   1      48.248  28.307  33.285  1.00  0.00     0.006 A 
ENDBRANCH  60  77
ENDBRANCH  34  35
ENDBRANCH  26  29
ENDBRANCH  24  25
ENDBRANCH  23  24
ENDBRANCH  22  23
ENDBRANCH  21  22
ENDBRANCH   3  21
TORSDOF 17
ENDMDL
MODEL 2
REMARK VINA RESULT:     -10.1      4.233     10.107
REMARK SMILES CCOC(=O)c1cc(C[NH2+]CC(=O)NCCCCNC(=O)c2ccc(-c3c4nc(c(-c5c(F)cccc5F)c5ccc([nH]5)c(-c5c(F)cccc5F)c5nc(c(-c6c(F)cccc6F)c6ccc3[nH]6)C=C5)C=C4)cc2)c(C)o1
REMARK SMILES IDX 12 1 13 2 14 3 11 5 10 6 9 9 8 10 6 11 7 12 78 13 76 14
REMARK SMILES IDX 77 15 4 16 5 17 3 18 2 19 1 20 15 21 16 22 17 23 18 24 19 25
REMARK SMILES IDX 20 26 21 28 22 29 23 30 75 31 24 32 74 33 25 34 26 35 27 36
REMARK SMILES IDX 68 37 28 38 73 39 67 40 69 41 29 42 72 43 66 44 65 45 30 47
REMARK SMILES IDX 56 48 39 49 55 50 40 51 43 52 54 53 70 54 41 55 42 56 53 58
REMARK SMILES IDX 71 59 44 60 31 61 32 62 37 63 33 64 34 65 36 66 38 67 35 68
REMARK SMILES IDX 57 69 58 70 63 71 59 72 60 73 62 74 64 75 61 76 45 77 46 78
REMARK SMILES IDX 51 79 47 80 48 81 50 82 52 83 49 84
REMARK H PARENT 14 4 10 7 10 8 19 27 69 46 43 57
REMARK Flexibility Score: inf
ROOT
ATOM      1  C   UNL A   1      37.244  34.168  34.744  1.00  0.00     0.275 C 
ATOM      2  O   UNL A   1      38.181  34.953  34.909  1.00  0.00    -0.269 OA
ATOM      3  N   UNL A   1      36.075  34.678  34.242  1.00  0.00    -0.351 N 
ATOM      4  H   UNL A   1      36.132  35.618  33.954  1.00  0.00     0.163 HD
ENDROOT
BRANCH   1   5
ATOM      5  C   UNL A   1      37.383  32.678  35.134  1.00  0.00     0.362 C 
BRANCH   5   6
ATOM      6  N   UNL A   1      38.777  32.154  35.005  1.00  0.00    -0.335 N 
ATOM      7  H   UNL A   1      39.376  32.861  34.579  1.00  0.00     0.347 HD
ATOM      8  H   UNL A   1      39.158  31.922  35.922  1.00  0.00     0.347 HD
BRANCH   6   9
ATOM      9  C   UNL A   1      38.729  30.978  34.164  1.00  0.00     0.301 C 
BRANCH   9  10
ATOM     10  C   UNL A   1      39.917  30.100  34.118  1.00  0.00     0.048 A 
ATOM     11  C   UNL A   1      41.585  28.975  35.123  1.00  0.00     0.212 A 
ATOM     12  C   UNL A   1      41.005  30.224  35.028  1.00  0.00     0.068 A 
ATOM     13  O   UNL A   1      41.094  28.179  34.124  1.00  0.00    -0.454 OA
ATOM     14  C   UNL A   1      40.075  28.865  33.519  1.00  0.00     0.110 A 
ATOM     15  C   UNL A   1      39.285  28.107  32.528  1.00  0.00     0.088 C 
BRANCH  11  16
ATOM     16  C   UNL A   1      42.390  28.408  36.181  1.00  0.00     0.374 C 
ATOM     17  O   UNL A   1      42.141  27.415  36.852  1.00  0.00    -0.242 OA
BRANCH  16  18
ATOM     18  O   UNL A   1      43.401  29.287  36.457  1.00  0.00    -0.460 OA
BRANCH  18  19
ATOM     19  C   UNL A   1      44.544  28.729  37.118  1.00  0.00     0.230 C 
ATOM     20  C   UNL A   1      45.772  29.321  36.440  1.00  0.00     0.049 C 
ENDBRANCH  18  19
ENDBRANCH  16  18
ENDBRANCH  11  16
ENDBRANCH   9  10
ENDBRANCH   6   9
ENDBRANCH   5   6
ENDBRANCH   1   5
BRANCH   3  21
ATOM     21  C   UNL A   1      34.763  34.073  34.060  1.00  0.00     0.116 C 
BRANCH  21  22
ATOM     22  C   UNL A   1      34.314  34.097  32.590  1.00  0.00     0.023 C 
BRANCH  22  23
ATOM     23  C   UNL A   1      33.304  35.179  32.239  1.00  0.00     0.023 C 
BRANCH  23  24
ATOM     24  C   UNL A   1      33.623  35.925  30.960  1.00  0.00     0.116 C 
BRANCH  24  25
ATOM     25  N   UNL A   1      32.858  35.453  29.812  1.00  0.00    -0.352 N 
ATOM     26  C   UNL A   1      33.197  34.506  28.876  1.00  0.00     0.251 C 
ATOM     27  H   UNL A   1      31.975  35.871  29.692  1.00  0.00     0.163 HD
ATOM     28  O   UNL A   1      32.478  34.306  27.903  1.00  0.00    -0.269 OA
BRANCH  26  29
ATOM     29  C   UNL A   1      34.463  33.763  29.035  1.00  0.00     0.039 A 
ATOM     30  C   UNL A   1      35.642  34.308  28.524  1.00  0.00     0.014 A 
ATOM     31  C   UNL A   1      34.489  32.568  29.756  1.00  0.00     0.014 A 
ATOM     32  C   UNL A   1      36.861  33.691  28.809  1.00  0.00     0.010 A 
ATOM     33  C   UNL A   1      35.705  32.027  30.140  1.00  0.00     0.010 A 
ATOM     34  C   UNL A   1      36.904  32.572  29.657  1.00  0.00    -0.014 A 
BRANCH  34  35
ATOM     35  C   UNL A   1      38.183  31.925  30.031  1.00  0.00     0.031 A 
ATOM     36  C   UNL A   1      39.132  32.640  30.954  1.00  0.00     0.074 A 
ATOM     37  C   UNL A   1      38.527  30.745  29.480  1.00  0.00     0.049 A 
ATOM     38  N   UNL A   1      40.340  32.301  31.324  1.00  0.00    -0.248 NA
ATOM     39  C   UNL A   1      38.679  33.932  31.496  1.00  0.00     0.031 C 
ATOM     40  C   UNL A   1      37.722  29.986  28.522  1.00  0.00     0.029 A 
ATOM     41  N   UNL A   1      39.655  29.981  29.644  1.00  0.00    -0.354 N 
ATOM     42  C   UNL A   1      40.796  33.349  32.114  1.00  0.00     0.074 A 
ATOM     43  C   UNL A   1      39.768  34.365  32.111  1.00  0.00     0.031 C 
ATOM     44  C   UNL A   1      38.364  28.847  28.211  1.00  0.00     0.029 A 
ATOM     45  C   UNL A   1      39.640  28.815  28.918  1.00  0.00     0.049 A 
ATOM     46  H   UNL A   1      40.404  30.243  30.226  1.00  0.00     0.167 HD
ATOM     47  C   UNL A   1      41.953  33.443  32.810  1.00  0.00     0.037 A 
ATOM     48  C   UNL A   1      40.555  27.831  28.837  1.00  0.00     0.037 A 
ATOM     49  C   UNL A   1      42.950  32.409  32.848  1.00  0.00     0.049 A 
ATOM     50  C   UNL A   1      41.821  27.942  29.641  1.00  0.00     0.074 A 
ATOM     51  C   UNL A   1      44.126  32.370  33.576  1.00  0.00     0.029 A 
ATOM     52  N   UNL A   1      42.881  31.224  32.131  1.00  0.00    -0.354 N 
ATOM     53  N   UNL A   1      42.211  28.908  30.437  1.00  0.00    -0.248 NA
ATOM     54  C   UNL A   1      42.769  26.825  29.540  1.00  0.00     0.031 C 
ATOM     55  C   UNL A   1      44.785  31.174  33.272  1.00  0.00     0.029 A 
ATOM     56  C   UNL A   1      44.000  30.451  32.389  1.00  0.00     0.049 A 
ATOM     57  H   UNL A   1      42.145  30.970  31.528  1.00  0.00     0.167 HD
ATOM     58  C   UNL A   1      43.433  28.502  30.956  1.00  0.00     0.074 A 
ATOM     59  C   UNL A   1      43.714  27.198  30.392  1.00  0.00     0.031 C 
ATOM     60  C   UNL A   1      44.251  29.149  31.823  1.00  0.00     0.037 A 
BRANCH  47  61
ATOM     61  C   UNL A   1      42.184  34.704  33.590  1.00  0.00     0.057 A 
ATOM     62  C   UNL A   1      41.794  34.827  34.932  1.00  0.00     0.134 A 
ATOM     63  C   UNL A   1      42.803  35.810  32.996  1.00  0.00     0.134 A 
ATOM     64  F   UNL A   1      41.179  33.811  35.556  1.00  0.00    -0.206 F 
ATOM     65  C   UNL A   1      41.977  36.015  35.641  1.00  0.00     0.040 A 
ATOM     66  C   UNL A   1      43.020  36.994  33.704  1.00  0.00     0.040 A 
ATOM     67  F   UNL A   1      43.205  35.762  31.716  1.00  0.00    -0.206 F 
ATOM     68  C   UNL A   1      42.597  37.101  35.028  1.00  0.00     0.006 A 
ENDBRANCH  47  61
BRANCH  48  69
ATOM     69  C   UNL A   1      40.287  26.634  28.000  1.00  0.00     0.057 A 
ATOM     70  C   UNL A   1      40.867  26.503  26.733  1.00  0.00     0.134 A 
ATOM     71  C   UNL A   1      39.457  25.598  28.441  1.00  0.00     0.134 A 
ATOM     72  F   UNL A   1      41.659  27.471  26.249  1.00  0.00    -0.206 F 
ATOM     73  C   UNL A   1      40.617  25.393  25.925  1.00  0.00     0.040 A 
ATOM     74  C   UNL A   1      39.216  24.470  27.653  1.00  0.00     0.040 A 
ATOM     75  F   UNL A   1      38.880  25.659  29.650  1.00  0.00    -0.206 F 
ATOM     76  C   UNL A   1      39.791  24.369  26.388  1.00  0.00     0.006 A 
ENDBRANCH  48  69
BRANCH  60  77
ATOM     77  C   UNL A   1      45.503  28.439  32.244  1.00  0.00     0.057 A 
ATOM     78  C   UNL A   1      45.506  27.495  33.276  1.00  0.00     0.134 A 
ATOM     79  C   UNL A   1      46.711  28.676  31.574  1.00  0.00     0.134 A 
ATOM     80  F   UNL A   1      44.384  27.234  33.963  1.00  0.00    -0.206 F 
ATOM     81  C   UNL A   1      46.674  26.824  33.644  1.00  0.00     0.040 A 
ATOM     82  C   UNL A   1      47.878  27.992  31.915  1.00  0.00     0.040 A 
ATOM     83  F   UNL A   1      46.771  29.562  30.569  1.00  0.00    -0.206 F 
ATOM     84  C   UNL A   1      47.862  27.067  32.957  1.00  0.00     0.006 A 
ENDBRANCH  60  77
ENDBRANCH  34  35
ENDBRANCH  26  29
ENDBRANCH  24  25
ENDBRANCH  23  24
ENDBRANCH  22  23
ENDBRANCH  21  22
ENDBRANCH   3  21
TORSDOF 17
ENDMDL
MODEL 3
REMARK VINA RESULT:     -10.0      4.147      9.147
REMARK SMILES CCOC(=O)c1cc(C[NH2+]CC(=O)NCCCCNC(=O)c2ccc(-c3c4nc(c(-c5c(F)cccc5F)c5ccc([nH]5)c(-c5c(F)cccc5F)c5nc(c(-c6c(F)cccc6F)c6ccc3[nH]6)C=C5)C=C4)cc2)c(C)o1
REMARK SMILES IDX 12 1 13 2 14 3 11 5 10 6 9 9 8 10 6 11 7 12 78 13 76 14
REMARK SMILES IDX 77 15 4 16 5 17 3 18 2 19 1 20 15 21 16 22 17 23 18 24 19 25
REMARK SMILES IDX 20 26 21 28 22 29 23 30 75 31 24 32 74 33 25 34 26 35 27 36
REMARK SMILES IDX 68 37 28 38 73 39 67 40 69 41 29 42 72 43 66 44 65 45 30 47
REMARK SMILES IDX 56 48 39 49 55 50 40 51 43 52 54 53 70 54 41 55 42 56 53 58
REMARK SMILES IDX 71 59 44 60 31 61 32 62 37 63 33 64 34 65 36 66 38 67 35 68
REMARK SMILES IDX 57 69 58 70 63 71 59 72 60 73 62 74 64 75 61 76 45 77 46 78
REMARK SMILES IDX 51 79 47 80 48 81 50 82 52 83 49 84
REMARK H PARENT 14 4 10 7 10 8 19 27 69 46 43 57
REMARK Flexibility Score: inf
ROOT
ATOM      1  C   UNL A   1      38.850  23.871  26.989  1.00  0.00     0.275 C 
ATOM      2  O   UNL A   1      38.805  24.911  27.650  1.00  0.00    -0.269 OA
ATOM      3  N   UNL A   1      39.864  22.991  27.266  1.00  0.00    -0.351 N 
ATOM      4  H   UNL A   1      40.404  23.229  28.054  1.00  0.00     0.163 HD
ENDROOT
BRANCH   1   5
ATOM      5  C   UNL A   1      37.822  23.603  25.866  1.00  0.00     0.362 C 
BRANCH   5   6
ATOM      6  N   UNL A   1      36.594  22.892  26.337  1.00  0.00    -0.335 N 
ATOM      7  H   UNL A   1      36.628  21.913  26.053  1.00  0.00     0.347 HD
ATOM      8  H   UNL A   1      36.528  22.929  27.355  1.00  0.00     0.347 HD
BRANCH   6   9
ATOM      9  C   UNL A   1      35.451  23.540  25.732  1.00  0.00     0.301 C 
BRANCH   9  10
ATOM     10  C   UNL A   1      34.281  22.710  25.376  1.00  0.00     0.048 A 
ATOM     11  C   UNL A   1      33.286  20.714  25.093  1.00  0.00     0.212 A 
ATOM     12  C   UNL A   1      34.399  21.446  24.732  1.00  0.00     0.068 A 
ATOM     13  O   UNL A   1      32.376  21.548  25.683  1.00  0.00    -0.454 OA
ATOM     14  C   UNL A   1      32.988  22.760  25.859  1.00  0.00     0.110 A 
ATOM     15  C   UNL A   1      32.235  23.754  26.650  1.00  0.00     0.088 C 
BRANCH  11  16
ATOM     16  C   UNL A   1      33.092  19.281  25.122  1.00  0.00     0.374 C 
ATOM     17  O   UNL A   1      32.525  18.627  25.987  1.00  0.00    -0.242 OA
BRANCH  16  18
ATOM     18  O   UNL A   1      33.830  18.736  24.108  1.00  0.00    -0.460 OA
BRANCH  18  19
ATOM     19  C   UNL A   1      34.418  17.459  24.387  1.00  0.00     0.230 C 
ATOM     20  C   UNL A   1      34.058  16.549  23.221  1.00  0.00     0.049 C 
ENDBRANCH  18  19
ENDBRANCH  16  18
ENDBRANCH  11  16
ENDBRANCH   9  10
ENDBRANCH   6   9
ENDBRANCH   5   6
ENDBRANCH   1   5
BRANCH   3  21
ATOM     21  C   UNL A   1      40.282  21.767  26.599  1.00  0.00     0.116 C 
BRANCH  21  22
ATOM     22  C   UNL A   1      41.707  21.349  26.996  1.00  0.00     0.023 C 
BRANCH  22  23
ATOM     23  C   UNL A   1      42.756  21.510  25.906  1.00  0.00     0.023 C 
BRANCH  23  24
ATOM     24  C   UNL A   1      42.633  22.800  25.122  1.00  0.00     0.116 C 
BRANCH  24  25
ATOM     25  N   UNL A   1      43.921  23.402  24.799  1.00  0.00    -0.352 N 
ATOM     26  C   UNL A   1      44.456  24.589  25.239  1.00  0.00     0.251 C 
ATOM     27  H   UNL A   1      44.487  22.886  24.180  1.00  0.00     0.163 HD
ATOM     28  O   UNL A   1      45.514  25.005  24.779  1.00  0.00    -0.269 OA
BRANCH  26  29
ATOM     29  C   UNL A   1      43.716  25.380  26.242  1.00  0.00     0.039 A 
ATOM     30  C   UNL A   1      43.063  24.719  27.285  1.00  0.00     0.014 A 
ATOM     31  C   UNL A   1      43.735  26.775  26.190  1.00  0.00     0.014 A 
ATOM     32  C   UNL A   1      42.499  25.465  28.320  1.00  0.00     0.010 A 
ATOM     33  C   UNL A   1      43.284  27.506  27.276  1.00  0.00     0.010 A 
ATOM     34  C   UNL A   1      42.646  26.862  28.345  1.00  0.00    -0.014 A 
BRANCH  34  35
ATOM     35  C   UNL A   1      42.112  27.683  29.457  1.00  0.00     0.031 A 
ATOM     36  C   UNL A   1      42.781  27.629  30.804  1.00  0.00     0.074 A 
ATOM     37  C   UNL A   1      40.988  28.403  29.283  1.00  0.00     0.049 A 
ATOM     38  N   UNL A   1      42.418  28.184  31.931  1.00  0.00    -0.248 NA
ATOM     39  C   UNL A   1      43.995  26.802  30.906  1.00  0.00     0.031 C 
ATOM     40  C   UNL A   1      40.212  28.484  28.044  1.00  0.00     0.029 A 
ATOM     41  N   UNL A   1      40.297  29.201  30.159  1.00  0.00    -0.354 N 
ATOM     42  C   UNL A   1      43.340  27.749  32.875  1.00  0.00     0.074 A 
ATOM     43  C   UNL A   1      44.234  26.830  32.208  1.00  0.00     0.031 C 
ATOM     44  C   UNL A   1      39.173  29.316  28.229  1.00  0.00     0.029 A 
ATOM     45  C   UNL A   1      39.189  29.796  29.607  1.00  0.00     0.049 A 
ATOM     46  H   UNL A   1      40.569  29.336  31.095  1.00  0.00     0.167 HD
ATOM     47  C   UNL A   1      43.456  28.109  34.175  1.00  0.00     0.037 A 
ATOM     48  C   UNL A   1      38.291  30.637  30.153  1.00  0.00     0.037 A 
ATOM     49  C   UNL A   1      42.594  29.061  34.821  1.00  0.00     0.049 A 
ATOM     50  C   UNL A   1      38.455  31.047  31.590  1.00  0.00     0.074 A 
ATOM     51  C   UNL A   1      42.665  29.552  36.112  1.00  0.00     0.029 A 
ATOM     52  N   UNL A   1      41.506  29.673  34.215  1.00  0.00    -0.354 N 
ATOM     53  N   UNL A   1      39.371  30.681  32.455  1.00  0.00    -0.248 NA
ATOM     54  C   UNL A   1      37.466  31.992  32.125  1.00  0.00     0.031 C 
ATOM     55  C   UNL A   1      41.598  30.437  36.299  1.00  0.00     0.029 A 
ATOM     56  C   UNL A   1      40.889  30.529  35.111  1.00  0.00     0.049 A 
ATOM     57  H   UNL A   1      41.217  29.521  33.287  1.00  0.00     0.167 HD
ATOM     58  C   UNL A   1      39.087  31.373  33.624  1.00  0.00     0.074 A 
ATOM     59  C   UNL A   1      37.920  32.188  33.356  1.00  0.00     0.031 C 
ATOM     60  C   UNL A   1      39.734  31.339  34.815  1.00  0.00     0.037 A 
BRANCH  47  61
ATOM     61  C   UNL A   1      44.562  27.476  34.967  1.00  0.00     0.057 A 
ATOM     62  C   UNL A   1      45.842  28.045  35.036  1.00  0.00     0.134 A 
ATOM     63  C   UNL A   1      44.348  26.284  35.670  1.00  0.00     0.134 A 
ATOM     64  F   UNL A   1      46.120  29.177  34.371  1.00  0.00    -0.206 F 
ATOM     65  C   UNL A   1      46.878  27.432  35.743  1.00  0.00     0.040 A 
ATOM     66  C   UNL A   1      45.367  25.678  36.406  1.00  0.00     0.040 A 
ATOM     67  F   UNL A   1      43.147  25.687  35.650  1.00  0.00    -0.206 F 
ATOM     68  C   UNL A   1      46.639  26.247  36.436  1.00  0.00     0.006 A 
ENDBRANCH  47  61
BRANCH  48  69
ATOM     69  C   UNL A   1      37.186  31.183  29.326  1.00  0.00     0.057 A 
ATOM     70  C   UNL A   1      37.255  32.482  28.807  1.00  0.00     0.134 A 
ATOM     71  C   UNL A   1      36.045  30.430  29.030  1.00  0.00     0.134 A 
ATOM     72  F   UNL A   1      38.316  33.259  29.069  1.00  0.00    -0.206 F 
ATOM     73  C   UNL A   1      36.220  33.018  28.039  1.00  0.00     0.040 A 
ATOM     74  C   UNL A   1      35.013  30.945  28.244  1.00  0.00     0.040 A 
ATOM     75  F   UNL A   1      35.924  29.175  29.489  1.00  0.00    -0.206 F 
ATOM     76  C   UNL A   1      35.096  32.246  27.752  1.00  0.00     0.006 A 
ENDBRANCH  48  69
BRANCH  60  77
ATOM     77  C   UNL A   1      39.219  32.236  35.901  1.00  0.00     0.057 A 
ATOM     78  C   UNL A   1      39.627  33.570  36.013  1.00  0.00     0.134 A 
ATOM     79  C   UNL A   1      38.270  31.766  36.818  1.00  0.00     0.134 A 
ATOM     80  F   UNL A   1      40.542  34.075  35.173  1.00  0.00    -0.206 F 
ATOM     81  C   UNL A   1      39.123  34.402  37.015  1.00  0.00     0.040 A 
ATOM     82  C   UNL A   1      37.739  32.596  37.807  1.00  0.00     0.040 A 
ATOM     83  F   UNL A   1      37.831  30.500  36.757  1.00  0.00    -0.206 F 
ATOM     84  C   UNL A   1      38.171  33.917  37.910  1.00  0.00     0.006 A 
ENDBRANCH  60  77
ENDBRANCH  34  35
ENDBRANCH  26  29
ENDBRANCH  24  25
ENDBRANCH  23  24
ENDBRANCH  22  23
ENDBRANCH  21  22
ENDBRANCH   3  21
TORSDOF 17
ENDMDL
