MODEL 1
REMARK VINA RESULT:     -10.5      0.000      0.000
REMARK SMILES CCCC1(CCC)CN(c2cncc(C(=O)NCCCCNC(=O)c3ccc(-c4c5nc(c(-c6c(F)cccc6F)c6ccc([nH]6)c(-c6c(F)cccc6F)c6nc(c(-c7c(F)cccc7F)c7ccc4[nH]7)C=C6)C=C5)cc3)c2)C1
REMARK SMILES IDX 19 1 18 2 17 3 15 4 16 5 14 7 10 8 11 9 79 10 12 11 13 12
REMARK SMILES IDX 9 13 4 14 8 15 80 16 3 17 2 18 1 19 5 20 6 21 7 22 20 23
REMARK SMILES IDX 21 24 22 25 23 26 24 28 25 29 26 30 78 31 27 32 77 33 28 34
REMARK SMILES IDX 29 35 30 36 71 37 31 38 76 39 70 40 72 41 32 42 75 43 69 44
REMARK SMILES IDX 68 45 33 47 59 48 42 49 58 50 43 51 46 52 57 53 73 54 44 55
REMARK SMILES IDX 45 56 56 58 74 59 47 60 34 61 35 62 40 63 36 64 37 65 39 66
REMARK SMILES IDX 41 67 38 68 60 69 61 70 66 71 62 72 63 73 65 74 67 75 64 76
REMARK SMILES IDX 48 77 49 78 54 79 50 80 51 81 53 82 55 83 52 84
REMARK H PARENT 17 6 22 27 72 46 46 57
REMARK Flexibility Score: inf
ROOT
ATOM      1  C   UNL A   1      39.144  22.603  26.450  1.00  0.00     0.023 C 
ENDROOT
BRANCH   1   2
ATOM      2  C   UNL A   1      38.010  23.544  26.033  1.00  0.00     0.116 C 
BRANCH   2   3
ATOM      3  N   UNL A   1      37.629  23.314  24.652  1.00  0.00    -0.352 N 
ATOM      4  C   UNL A   1      36.418  23.265  24.007  1.00  0.00     0.252 C 
ATOM      5  O   UNL A   1      36.444  23.055  22.793  1.00  0.00    -0.269 OA
ATOM      6  H   UNL A   1      38.398  23.162  24.054  1.00  0.00     0.163 HD
BRANCH   4   7
ATOM      7  C   UNL A   1      35.104  23.483  24.664  1.00  0.00     0.060 A 
ATOM      8  C   UNL A   1      33.373  24.802  25.749  1.00  0.00     0.056 A 
ATOM      9  C   UNL A   1      32.575  23.664  25.743  1.00  0.00     0.136 A 
ATOM     10  C   UNL A   1      34.673  24.665  25.257  1.00  0.00     0.043 A 
ATOM     11  N   UNL A   1      32.963  22.470  25.235  1.00  0.00    -0.262 NA
ATOM     12  C   UNL A   1      34.207  22.417  24.690  1.00  0.00     0.125 A 
BRANCH   8  13
ATOM     13  N   UNL A   1      32.883  26.057  26.119  1.00  0.00    -0.369 N 
ATOM     14  C   UNL A   1      32.059  27.969  25.940  1.00  0.00     0.005 C 
ATOM     15  C   UNL A   1      33.491  27.338  26.031  1.00  0.00     0.125 C 
ATOM     16  C   UNL A   1      31.539  26.526  26.116  1.00  0.00     0.125 C 
BRANCH  14  17
ATOM     17  C   UNL A   1      31.836  28.961  27.099  1.00  0.00     0.010 C 
BRANCH  17  18
ATOM     18  C   UNL A   1      32.400  30.378  26.935  1.00  0.00    -0.003 C 
ATOM     19  C   UNL A   1      31.402  31.440  26.499  1.00  0.00     0.004 C 
ENDBRANCH  17  18
ENDBRANCH  14  17
BRANCH  14  20
ATOM     20  C   UNL A   1      31.873  28.538  24.509  1.00  0.00     0.010 C 
BRANCH  20  21
ATOM     21  C   UNL A   1      30.444  28.479  23.970  1.00  0.00    -0.003 C 
ATOM     22  C   UNL A   1      30.185  29.542  22.908  1.00  0.00     0.004 C 
ENDBRANCH  20  21
ENDBRANCH  14  20
ENDBRANCH   8  13
ENDBRANCH   4   7
ENDBRANCH   2   3
ENDBRANCH   1   2
BRANCH   1  23
ATOM     23  C   UNL A   1      39.155  21.271  25.691  1.00  0.00     0.023 C 
BRANCH  23  24
ATOM     24  C   UNL A   1      39.630  20.071  26.504  1.00  0.00     0.116 C 
BRANCH  24  25
ATOM     25  N   UNL A   1      40.764  19.382  25.909  1.00  0.00    -0.352 N 
ATOM     26  C   UNL A   1      42.066  19.811  25.795  1.00  0.00     0.251 C 
ATOM     27  H   UNL A   1      40.576  18.490  25.540  1.00  0.00     0.163 HD
ATOM     28  O   UNL A   1      42.883  19.148  25.174  1.00  0.00    -0.269 OA
BRANCH  26  29
ATOM     29  C   UNL A   1      42.456  21.106  26.392  1.00  0.00     0.039 A 
ATOM     30  C   UNL A   1      42.803  22.157  25.541  1.00  0.00     0.014 A 
ATOM     31  C   UNL A   1      42.450  21.290  27.777  1.00  0.00     0.014 A 
ATOM     32  C   UNL A   1      43.077  23.416  26.077  1.00  0.00     0.010 A 
ATOM     33  C   UNL A   1      42.657  22.561  28.305  1.00  0.00     0.010 A 
ATOM     34  C   UNL A   1      42.969  23.637  27.460  1.00  0.00    -0.014 A 
BRANCH  34  35
ATOM     35  C   UNL A   1      43.160  24.993  28.033  1.00  0.00     0.031 A 
ATOM     36  C   UNL A   1      44.521  25.439  28.490  1.00  0.00     0.074 A 
ATOM     37  C   UNL A   1      42.091  25.797  28.201  1.00  0.00     0.049 A 
ATOM     38  N   UNL A   1      44.873  26.569  29.051  1.00  0.00    -0.248 NA
ATOM     39  C   UNL A   1      45.627  24.485  28.319  1.00  0.00     0.031 C 
ATOM     40  C   UNL A   1      40.710  25.457  27.851  1.00  0.00     0.029 A 
ATOM     41  N   UNL A   1      41.999  27.066  28.715  1.00  0.00    -0.354 N 
ATOM     42  C   UNL A   1      46.231  26.452  29.317  1.00  0.00     0.074 A 
ATOM     43  C   UNL A   1      46.633  25.127  28.896  1.00  0.00     0.031 C 
ATOM     44  C   UNL A   1      39.914  26.499  28.136  1.00  0.00     0.029 A 
ATOM     45  C   UNL A   1      40.718  27.567  28.720  1.00  0.00     0.049 A 
ATOM     46  H   UNL A   1      42.775  27.569  29.051  1.00  0.00     0.167 HD
ATOM     47  C   UNL A   1      47.071  27.373  29.845  1.00  0.00     0.037 A 
ATOM     48  C   UNL A   1      40.248  28.754  29.148  1.00  0.00     0.037 A 
ATOM     49  C   UNL A   1      46.677  28.704  30.225  1.00  0.00     0.049 A 
ATOM     50  C   UNL A   1      41.208  29.759  29.721  1.00  0.00     0.074 A 
ATOM     51  C   UNL A   1      47.474  29.739  30.682  1.00  0.00     0.029 A 
ATOM     52  N   UNL A   1      45.376  29.182  30.196  1.00  0.00    -0.354 N 
ATOM     53  N   UNL A   1      42.507  29.670  29.875  1.00  0.00    -0.248 NA
ATOM     54  C   UNL A   1      40.637  31.036  30.174  1.00  0.00     0.031 C 
ATOM     55  C   UNL A   1      46.647  30.830  30.975  1.00  0.00     0.029 A 
ATOM     56  C   UNL A   1      45.344  30.488  30.654  1.00  0.00     0.049 A 
ATOM     57  H   UNL A   1      44.592  28.668  29.894  1.00  0.00     0.167 HD
ATOM     58  C   UNL A   1      42.911  30.887  30.411  1.00  0.00     0.074 A 
ATOM     59  C   UNL A   1      41.722  31.702  30.541  1.00  0.00     0.031 C 
ATOM     60  C   UNL A   1      44.154  31.292  30.764  1.00  0.00     0.037 A 
BRANCH  47  61
ATOM     61  C   UNL A   1      48.506  26.981  30.039  1.00  0.00     0.057 A 
ATOM     62  C   UNL A   1      49.478  27.219  29.059  1.00  0.00     0.134 A 
ATOM     63  C   UNL A   1      48.932  26.413  31.247  1.00  0.00     0.134 A 
ATOM     64  F   UNL A   1      49.134  27.750  27.876  1.00  0.00    -0.206 F 
ATOM     65  C   UNL A   1      50.819  26.892  29.266  1.00  0.00     0.040 A 
ATOM     66  C   UNL A   1      50.274  26.105  31.476  1.00  0.00     0.040 A 
ATOM     67  F   UNL A   1      48.054  26.164  32.230  1.00  0.00    -0.206 F 
ATOM     68  C   UNL A   1      51.221  26.342  30.482  1.00  0.00     0.006 A 
ENDBRANCH  47  61
BRANCH  48  69
ATOM     69  C   UNL A   1      38.803  29.076  29.036  1.00  0.00     0.057 A 
ATOM     70  C   UNL A   1      38.259  29.535  27.830  1.00  0.00     0.134 A 
ATOM     71  C   UNL A   1      37.940  28.971  30.134  1.00  0.00     0.134 A 
ATOM     72  F   UNL A   1      39.038  29.674  26.748  1.00  0.00    -0.206 F 
ATOM     73  C   UNL A   1      36.917  29.907  27.726  1.00  0.00     0.040 A 
ATOM     74  C   UNL A   1      36.590  29.316  30.037  1.00  0.00     0.040 A 
ATOM     75  F   UNL A   1      38.397  28.531  31.315  1.00  0.00    -0.206 F 
ATOM     76  C   UNL A   1      36.078  29.796  28.833  1.00  0.00     0.006 A 
ENDBRANCH  48  69
BRANCH  60  77
ATOM     77  C   UNL A   1      44.297  32.691  31.286  1.00  0.00     0.057 A 
ATOM     78  C   UNL A   1      44.506  33.782  30.433  1.00  0.00     0.134 A 
ATOM     79  C   UNL A   1      44.194  32.953  32.658  1.00  0.00     0.134 A 
ATOM     80  F   UNL A   1      44.627  33.595  29.110  1.00  0.00    -0.206 F 
ATOM     81  C   UNL A   1      44.633  35.080  30.928  1.00  0.00     0.040 A 
ATOM     82  C   UNL A   1      44.291  34.250  33.163  1.00  0.00     0.040 A 
ATOM     83  F   UNL A   1      43.985  31.954  33.529  1.00  0.00    -0.206 F 
ATOM     84  C   UNL A   1      44.518  35.318  32.297  1.00  0.00     0.006 A 
ENDBRANCH  60  77
ENDBRANCH  34  35
ENDBRANCH  26  29
ENDBRANCH  24  25
ENDBRANCH  23  24
ENDBRANCH   1  23
TORSDOF 16
ENDMDL
MODEL 2
REMARK VINA RESULT:     -10.4      1.777      2.613
REMARK SMILES CCCC1(CCC)CN(c2cncc(C(=O)NCCCCNC(=O)c3ccc(-c4c5nc(c(-c6c(F)cccc6F)c6ccc([nH]6)c(-c6c(F)cccc6F)c6nc(c(-c7c(F)cccc7F)c7ccc4[nH]7)C=C6)C=C5)cc3)c2)C1
REMARK SMILES IDX 19 1 18 2 17 3 15 4 16 5 14 7 10 8 11 9 79 10 12 11 13 12
REMARK SMILES IDX 9 13 4 14 8 15 80 16 3 17 2 18 1 19 5 20 6 21 7 22 20 23
REMARK SMILES IDX 21 24 22 25 23 26 24 28 25 29 26 30 78 31 27 32 77 33 28 34
REMARK SMILES IDX 29 35 30 36 71 37 31 38 76 39 70 40 72 41 32 42 75 43 69 44
REMARK SMILES IDX 68 45 33 47 59 48 42 49 58 50 43 51 46 52 57 53 73 54 44 55
REMARK SMILES IDX 45 56 56 58 74 59 47 60 34 61 35 62 40 63 36 64 37 65 39 66
REMARK SMILES IDX 41 67 38 68 60 69 61 70 66 71 62 72 63 73 65 74 67 75 64 76
REMARK SMILES IDX 48 77 49 78 54 79 50 80 51 81 53 82 55 83 52 84
REMARK H PARENT 17 6 22 27 72 46 46 57
REMARK Flexibility Score: inf
ROOT
ATOM      1  C   UNL A   1      37.086  21.213  24.546  1.00  0.00     0.023 C 
ENDROOT
BRANCH   1   2
ATOM      2  C   UNL A   1      36.764  22.179  25.690  1.00  0.00     0.116 C 
BRANCH   2   3
ATOM      3  N   UNL A   1      35.675  21.672  26.502  1.00  0.00    -0.352 N 
ATOM      4  C   UNL A   1      34.309  21.782  26.416  1.00  0.00     0.252 C 
ATOM      5  O   UNL A   1      33.650  21.206  27.284  1.00  0.00    -0.269 OA
ATOM      6  H   UNL A   1      35.977  21.138  27.273  1.00  0.00     0.163 HD
BRANCH   4   7
ATOM      7  C   UNL A   1      33.588  22.510  25.341  1.00  0.00     0.060 A 
ATOM      8  C   UNL A   1      32.571  24.455  24.295  1.00  0.00     0.056 A 
ATOM      9  C   UNL A   1      32.351  23.670  23.170  1.00  0.00     0.136 A 
ATOM     10  C   UNL A   1      33.139  23.825  25.404  1.00  0.00     0.043 A 
ATOM     11  N   UNL A   1      32.712  22.368  23.072  1.00  0.00    -0.262 NA
ATOM     12  C   UNL A   1      33.340  21.830  24.151  1.00  0.00     0.125 A 
BRANCH   8  13
ATOM     13  N   UNL A   1      32.347  25.834  24.299  1.00  0.00    -0.369 N 
ATOM     14  C   UNL A   1      31.346  27.658  24.098  1.00  0.00     0.005 C 
ATOM     15  C   UNL A   1      32.272  26.752  23.216  1.00  0.00     0.125 C 
ATOM     16  C   UNL A   1      31.576  26.610  25.209  1.00  0.00     0.125 C 
BRANCH  14  17
ATOM     17  C   UNL A   1      31.978  29.052  24.280  1.00  0.00     0.010 C 
BRANCH  17  18
ATOM     18  C   UNL A   1      31.403  29.949  25.384  1.00  0.00    -0.003 C 
ATOM     19  C   UNL A   1      32.140  29.916  26.714  1.00  0.00     0.004 C 
ENDBRANCH  17  18
ENDBRANCH  14  17
BRANCH  14  20
ATOM     20  C   UNL A   1      29.920  27.629  23.488  1.00  0.00     0.010 C 
BRANCH  20  21
ATOM     21  C   UNL A   1      29.589  28.796  22.560  1.00  0.00    -0.003 C 
ATOM     22  C   UNL A   1      28.318  29.525  22.981  1.00  0.00     0.004 C 
ENDBRANCH  20  21
ENDBRANCH  14  20
ENDBRANCH   8  13
ENDBRANCH   4   7
ENDBRANCH   2   3
ENDBRANCH   1   2
BRANCH   1  23
ATOM     23  C   UNL A   1      37.840  19.954  24.991  1.00  0.00     0.023 C 
BRANCH  23  24
ATOM     24  C   UNL A   1      39.008  20.206  25.940  1.00  0.00     0.116 C 
BRANCH  24  25
ATOM     25  N   UNL A   1      40.029  19.172  25.886  1.00  0.00    -0.352 N 
ATOM     26  C   UNL A   1      41.388  19.297  26.055  1.00  0.00     0.251 C 
ATOM     27  H   UNL A   1      39.704  18.261  25.706  1.00  0.00     0.163 HD
ATOM     28  O   UNL A   1      42.124  18.337  25.879  1.00  0.00    -0.269 OA
BRANCH  26  29
ATOM     29  C   UNL A   1      41.955  20.616  26.407  1.00  0.00     0.039 A 
ATOM     30  C   UNL A   1      42.286  21.497  25.376  1.00  0.00     0.014 A 
ATOM     31  C   UNL A   1      42.129  20.992  27.742  1.00  0.00     0.014 A 
ATOM     32  C   UNL A   1      42.729  22.785  25.686  1.00  0.00     0.010 A 
ATOM     33  C   UNL A   1      42.504  22.296  28.048  1.00  0.00     0.010 A 
ATOM     34  C   UNL A   1      42.804  23.206  27.023  1.00  0.00    -0.014 A 
BRANCH  34  35
ATOM     35  C   UNL A   1      43.176  24.603  27.364  1.00  0.00     0.031 A 
ATOM     36  C   UNL A   1      44.613  25.042  27.302  1.00  0.00     0.074 A 
ATOM     37  C   UNL A   1      42.224  25.456  27.790  1.00  0.00     0.049 A 
ATOM     38  N   UNL A   1      45.133  26.206  27.601  1.00  0.00    -0.248 NA
ATOM     39  C   UNL A   1      45.598  24.037  26.875  1.00  0.00     0.031 C 
ATOM     40  C   UNL A   1      40.804  25.133  27.948  1.00  0.00     0.029 A 
ATOM     41  N   UNL A   1      42.309  26.771  28.177  1.00  0.00    -0.354 N 
ATOM     42  C   UNL A   1      46.502  26.067  27.418  1.00  0.00     0.074 A 
ATOM     43  C   UNL A   1      46.740  24.695  27.023  1.00  0.00     0.031 C 
ATOM     44  C   UNL A   1      40.148  26.225  28.372  1.00  0.00     0.029 A 
ATOM     45  C   UNL A   1      41.103  27.314  28.550  1.00  0.00     0.049 A 
ATOM     46  H   UNL A   1      43.154  27.275  28.187  1.00  0.00     0.167 HD
ATOM     47  C   UNL A   1      47.471  27.004  27.546  1.00  0.00     0.037 A 
ATOM     48  C   UNL A   1      40.802  28.551  28.987  1.00  0.00     0.037 A 
ATOM     49  C   UNL A   1      47.227  28.378  27.899  1.00  0.00     0.049 A 
ATOM     50  C   UNL A   1      41.899  29.572  29.110  1.00  0.00     0.074 A 
ATOM     51  C   UNL A   1      48.132  29.423  27.964  1.00  0.00     0.029 A 
ATOM     52  N   UNL A   1      45.990  28.896  28.250  1.00  0.00    -0.354 N 
ATOM     53  N   UNL A   1      43.176  29.452  28.839  1.00  0.00    -0.248 NA
ATOM     54  C   UNL A   1      41.512  30.905  29.595  1.00  0.00     0.031 C 
ATOM     55  C   UNL A   1      47.451  30.564  28.401  1.00  0.00     0.029 A 
ATOM     56  C   UNL A   1      46.113  30.240  28.560  1.00  0.00     0.049 A 
ATOM     57  H   UNL A   1      45.150  28.384  28.275  1.00  0.00     0.167 HD
ATOM     58  C   UNL A   1      43.737  30.699  29.088  1.00  0.00     0.074 A 
ATOM     59  C   UNL A   1      42.659  31.564  29.518  1.00  0.00     0.031 C 
ATOM     60  C   UNL A   1      45.028  31.092  28.973  1.00  0.00     0.037 A 
BRANCH  47  61
ATOM     61  C   UNL A   1      48.889  26.581  27.298  1.00  0.00     0.057 A 
ATOM     62  C   UNL A   1      49.714  26.116  28.331  1.00  0.00     0.134 A 
ATOM     63  C   UNL A   1      49.416  26.581  26.000  1.00  0.00     0.134 A 
ATOM     64  F   UNL A   1      49.274  26.101  29.598  1.00  0.00    -0.206 F 
ATOM     65  C   UNL A   1      51.018  25.681  28.083  1.00  0.00     0.040 A 
ATOM     66  C   UNL A   1      50.709  26.127  25.737  1.00  0.00     0.040 A 
ATOM     67  F   UNL A   1      48.677  27.009  24.965  1.00  0.00    -0.206 F 
ATOM     68  C   UNL A   1      51.514  25.677  26.782  1.00  0.00     0.006 A 
ENDBRANCH  47  61
BRANCH  48  69
ATOM     69  C   UNL A   1      39.401  28.912  29.323  1.00  0.00     0.057 A 
ATOM     70  C   UNL A   1      38.887  28.687  30.605  1.00  0.00     0.134 A 
ATOM     71  C   UNL A   1      38.533  29.453  28.366  1.00  0.00     0.134 A 
ATOM     72  F   UNL A   1      39.664  28.154  31.559  1.00  0.00    -0.206 F 
ATOM     73  C   UNL A   1      37.553  28.956  30.917  1.00  0.00     0.040 A 
ATOM     74  C   UNL A   1      37.204  29.751  28.671  1.00  0.00     0.040 A 
ATOM     75  F   UNL A   1      38.966  29.700  27.121  1.00  0.00    -0.206 F 
ATOM     76  C   UNL A   1      36.708  29.492  29.948  1.00  0.00     0.006 A 
ENDBRANCH  48  69
BRANCH  60  77
ATOM     77  C   UNL A   1      45.338  32.527  29.276  1.00  0.00     0.057 A 
ATOM     78  C   UNL A   1      45.752  32.943  30.548  1.00  0.00     0.134 A 
ATOM     79  C   UNL A   1      45.249  33.502  28.274  1.00  0.00     0.134 A 
ATOM     80  F   UNL A   1      45.843  32.060  31.554  1.00  0.00    -0.206 F 
ATOM     81  C   UNL A   1      46.041  34.281  30.819  1.00  0.00     0.040 A 
ATOM     82  C   UNL A   1      45.562  34.838  28.525  1.00  0.00     0.040 A 
ATOM     83  F   UNL A   1      44.867  33.169  27.032  1.00  0.00    -0.206 F 
ATOM     84  C   UNL A   1      45.954  35.232  29.804  1.00  0.00     0.006 A 
ENDBRANCH  60  77
ENDBRANCH  34  35
ENDBRANCH  26  29
ENDBRANCH  24  25
ENDBRANCH  23  24
ENDBRANCH   1  23
TORSDOF 16
ENDMDL
MODEL 3
REMARK VINA RESULT:     -10.3      1.281      6.571
REMARK SMILES CCCC1(CCC)CN(c2cncc(C(=O)NCCCCNC(=O)c3ccc(-c4c5nc(c(-c6c(F)cccc6F)c6ccc([nH]6)c(-c6c(F)cccc6F)c6nc(c(-c7c(F)cccc7F)c7ccc4[nH]7)C=C6)C=C5)cc3)c2)C1
REMARK SMILES IDX 19 1 18 2 17 3 15 4 16 5 14 7 10 8 11 9 79 10 12 11 13 12
REMARK SMILES IDX 9 13 4 14 8 15 80 16 3 17 2 18 1 19 5 20 6 21 7 22 20 23
REMARK SMILES IDX 21 24 22 25 23 26 24 28 25 29 26 30 78 31 27 32 77 33 28 34
REMARK SMILES IDX 29 35 30 36 71 37 31 38 76 39 70 40 72 41 32 42 75 43 69 44
REMARK SMILES IDX 68 45 33 47 59 48 42 49 58 50 43 51 46 52 57 53 73 54 44 55
REMARK SMILES IDX 45 56 56 58 74 59 47 60 34 61 35 62 40 63 36 64 37 65 39 66
REMARK SMILES IDX 41 67 38 68 60 69 61 70 66 71 62 72 63 73 65 74 67 75 64 76
REMARK SMILES IDX 48 77 49 78 54 79 50 80 51 81 53 82 55 83 52 84
REMARK H PARENT 17 6 22 27 72 46 46 57
REMARK Flexibility Score: inf
ROOT
ATOM      1  C   UNL A   1      37.016  21.631  24.425  1.00  0.00     0.023 C 
ENDROOT
BRANCH   1   2
ATOM      2  C   UNL A   1      36.572  22.589  25.535  1.00  0.00     0.116 C 
BRANCH   2   3
ATOM      3  N   UNL A   1      35.680  21.923  26.465  1.00  0.00    -0.352 N 
ATOM      4  C   UNL A   1      34.328  21.685  26.461  1.00  0.00     0.252 C 
ATOM      5  O   UNL A   1      33.871  21.065  27.424  1.00  0.00    -0.269 OA
ATOM      6  H   UNL A   1      36.138  21.569  27.261  1.00  0.00     0.163 HD
BRANCH   4   7
ATOM      7  C   UNL A   1      33.403  22.090  25.372  1.00  0.00     0.060 A 
ATOM      8  C   UNL A   1      31.870  23.588  24.225  1.00  0.00     0.056 A 
ATOM      9  C   UNL A   1      31.829  22.667  23.185  1.00  0.00     0.136 A 
ATOM     10  C   UNL A   1      32.622  23.240  25.349  1.00  0.00     0.043 A 
ATOM     11  N   UNL A   1      32.521  21.502  23.178  1.00  0.00    -0.262 NA
ATOM     12  C   UNL A   1      33.305  21.255  24.261  1.00  0.00     0.125 A 
BRANCH   8  13
ATOM     13  N   UNL A   1      31.287  24.854  24.124  1.00  0.00    -0.369 N 
ATOM     14  C   UNL A   1      31.062  26.926  24.280  1.00  0.00     0.005 C 
ATOM     15  C   UNL A   1      30.678  25.662  25.122  1.00  0.00     0.125 C 
ATOM     16  C   UNL A   1      31.622  25.923  23.247  1.00  0.00     0.125 C 
BRANCH  14  17
ATOM     17  C   UNL A   1      29.798  27.721  23.900  1.00  0.00     0.010 C 
BRANCH  17  18
ATOM     18  C   UNL A   1      29.959  28.862  22.886  1.00  0.00    -0.003 C 
ATOM     19  C   UNL A   1      29.219  30.149  23.218  1.00  0.00     0.004 C 
ENDBRANCH  17  18
ENDBRANCH  14  17
BRANCH  14  20
ATOM     20  C   UNL A   1      32.154  27.709  25.056  1.00  0.00     0.010 C 
BRANCH  20  21
ATOM     21  C   UNL A   1      31.634  28.834  25.949  1.00  0.00    -0.003 C 
ATOM     22  C   UNL A   1      31.627  28.444  27.423  1.00  0.00     0.004 C 
ENDBRANCH  20  21
ENDBRANCH  14  20
ENDBRANCH   8  13
ENDBRANCH   4   7
ENDBRANCH   2   3
ENDBRANCH   1   2
BRANCH   1  23
ATOM     23  C   UNL A   1      37.684  20.351  24.941  1.00  0.00     0.023 C 
BRANCH  23  24
ATOM     24  C   UNL A   1      38.872  20.576  25.872  1.00  0.00     0.116 C 
BRANCH  24  25
ATOM     25  N   UNL A   1      39.881  19.532  25.783  1.00  0.00    -0.352 N 
ATOM     26  C   UNL A   1      41.224  19.611  26.067  1.00  0.00     0.251 C 
ATOM     27  H   UNL A   1      39.560  18.653  25.480  1.00  0.00     0.163 HD
ATOM     28  O   UNL A   1      41.960  18.660  25.844  1.00  0.00    -0.269 OA
BRANCH  26  29
ATOM     29  C   UNL A   1      41.779  20.871  26.602  1.00  0.00     0.039 A 
ATOM     30  C   UNL A   1      42.225  21.841  25.702  1.00  0.00     0.014 A 
ATOM     31  C   UNL A   1      41.830  21.108  27.979  1.00  0.00     0.014 A 
ATOM     32  C   UNL A   1      42.659  23.078  26.180  1.00  0.00     0.010 A 
ATOM     33  C   UNL A   1      42.198  22.365  28.450  1.00  0.00     0.010 A 
ATOM     34  C   UNL A   1      42.612  23.363  27.555  1.00  0.00    -0.014 A 
BRANCH  34  35
ATOM     35  C   UNL A   1      42.976  24.708  28.068  1.00  0.00     0.031 A 
ATOM     36  C   UNL A   1      41.910  25.740  28.314  1.00  0.00     0.074 A 
ATOM     37  C   UNL A   1      44.275  25.018  28.252  1.00  0.00     0.049 A 
ATOM     38  N   UNL A   1      42.039  26.978  28.721  1.00  0.00    -0.248 NA
ATOM     39  C   UNL A   1      40.521  25.340  28.042  1.00  0.00     0.031 C 
ATOM     40  C   UNL A   1      45.405  24.123  27.994  1.00  0.00     0.029 A 
ATOM     41  N   UNL A   1      44.865  26.177  28.691  1.00  0.00    -0.354 N 
ATOM     42  C   UNL A   1      40.756  27.508  28.735  1.00  0.00     0.074 A 
ATOM     43  C   UNL A   1      39.865  26.473  28.255  1.00  0.00     0.031 C 
ATOM     44  C   UNL A   1      46.547  24.755  28.304  1.00  0.00     0.029 A 
ATOM     45  C   UNL A   1      46.236  26.109  28.749  1.00  0.00     0.049 A 
ATOM     46  H   UNL A   1      44.354  26.980  28.940  1.00  0.00     0.167 HD
ATOM     47  C   UNL A   1      40.354  28.738  29.132  1.00  0.00     0.037 A 
ATOM     48  C   UNL A   1      47.139  27.036  29.119  1.00  0.00     0.037 A 
ATOM     49  C   UNL A   1      41.237  29.751  29.646  1.00  0.00     0.049 A 
ATOM     50  C   UNL A   1      46.661  28.390  29.563  1.00  0.00     0.074 A 
ATOM     51  C   UNL A   1      40.912  30.995  30.160  1.00  0.00     0.029 A 
ATOM     52  N   UNL A   1      42.617  29.639  29.709  1.00  0.00    -0.354 N 
ATOM     53  N   UNL A   1      45.435  28.843  29.663  1.00  0.00    -0.248 NA
ATOM     54  C   UNL A   1      47.692  29.362  29.952  1.00  0.00     0.031 C 
ATOM     55  C   UNL A   1      42.101  31.654  30.490  1.00  0.00     0.029 A 
ATOM     56  C   UNL A   1      43.161  30.802  30.227  1.00  0.00     0.049 A 
ATOM     57  H   UNL A   1      43.133  28.849  29.428  1.00  0.00     0.167 HD
ATOM     58  C   UNL A   1      45.546  30.137  30.157  1.00  0.00     0.074 A 
ATOM     59  C   UNL A   1      46.958  30.391  30.350  1.00  0.00     0.031 C 
ATOM     60  C   UNL A   1      44.568  31.035  30.426  1.00  0.00     0.037 A 
BRANCH  47  61
ATOM     61  C   UNL A   1      38.892  29.061  29.032  1.00  0.00     0.057 A 
ATOM     62  C   UNL A   1      38.040  28.985  30.142  1.00  0.00     0.134 A 
ATOM     63  C   UNL A   1      38.343  29.514  27.826  1.00  0.00     0.134 A 
ATOM     64  F   UNL A   1      38.501  28.549  31.324  1.00  0.00    -0.206 F 
ATOM     65  C   UNL A   1      36.691  29.332  30.051  1.00  0.00     0.040 A 
ATOM     66  C   UNL A   1      37.002  29.887  27.729  1.00  0.00     0.040 A 
ATOM     67  F   UNL A   1      39.105  29.616  26.726  1.00  0.00    -0.206 F 
ATOM     68  C   UNL A   1      36.171  29.794  28.844  1.00  0.00     0.006 A 
ENDBRANCH  47  61
BRANCH  48  69
ATOM     69  C   UNL A   1      48.590  26.720  29.110  1.00  0.00     0.057 A 
ATOM     70  C   UNL A   1      49.207  26.135  30.223  1.00  0.00     0.134 A 
ATOM     71  C   UNL A   1      49.402  27.026  28.011  1.00  0.00     0.134 A 
ATOM     72  F   UNL A   1      48.486  25.835  31.313  1.00  0.00    -0.206 F 
ATOM     73  C   UNL A   1      50.582  25.894  30.257  1.00  0.00     0.040 A 
ATOM     74  C   UNL A   1      50.774  26.767  28.021  1.00  0.00     0.040 A 
ATOM     75  F   UNL A   1      48.872  27.580  26.911  1.00  0.00    -0.206 F 
ATOM     76  C   UNL A   1      51.369  26.210  29.151  1.00  0.00     0.006 A 
ENDBRANCH  48  69
BRANCH  60  77
ATOM     77  C   UNL A   1      44.988  32.357  30.995  1.00  0.00     0.057 A 
ATOM     78  C   UNL A   1      45.129  32.559  32.374  1.00  0.00     0.134 A 
ATOM     79  C   UNL A   1      45.285  33.434  30.150  1.00  0.00     0.134 A 
ATOM     80  F   UNL A   1      44.846  31.572  33.237  1.00  0.00    -0.206 F 
ATOM     81  C   UNL A   1      45.524  33.793  32.893  1.00  0.00     0.040 A 
ATOM     82  C   UNL A   1      45.709  34.664  30.654  1.00  0.00     0.040 A 
ATOM     83  F   UNL A   1      45.179  33.304  28.818  1.00  0.00    -0.206 F 
ATOM     84  C   UNL A   1      45.823  34.847  32.031  1.00  0.00     0.006 A 
ENDBRANCH  60  77
ENDBRANCH  34  35
ENDBRANCH  26  29
ENDBRANCH  24  25
ENDBRANCH  23  24
ENDBRANCH   1  23
TORSDOF 16
ENDMDL
