MODEL 1
REMARK VINA RESULT:     -12.0      0.000      0.000
REMARK SMILES O=C(NCCCCNC(=O)c1ccc(Cn2nnc3ccccc32)nc1)c1ccc(-c2c3nc(c(-c4c(F)cccc4F)c4ccc([nH]4)c(-c4c(F)cccc4F)c4nc(c(-c5c(F)cccc5F)c5ccc2[nH]5)C=C4)C=C3)cc1
REMARK SMILES IDX 5 1 4 2 3 3 1 4 2 5 27 7 28 8 80 9 29 10 79 11 30 12 31 13
REMARK SMILES IDX 32 14 73 15 33 16 78 17 72 18 74 19 34 20 77 21 71 22 70 23
REMARK SMILES IDX 35 25 61 26 44 27 60 28 45 29 48 30 59 31 75 32 46 33 47 34
REMARK SMILES IDX 58 36 76 37 49 38 36 39 37 40 42 41 38 42 39 43 41 44 43 45
REMARK SMILES IDX 40 46 62 47 63 48 68 49 64 50 65 51 67 52 69 53 66 54 50 55
REMARK SMILES IDX 51 56 56 57 52 58 53 59 55 60 57 61 54 62 6 63 7 64 8 65
REMARK SMILES IDX 9 66 10 68 11 69 12 70 26 71 13 72 25 73 14 74 15 75 16 76
REMARK SMILES IDX 17 77 24 78 18 79 19 80 23 81 20 82 22 83 21 84
REMARK H PARENT 3 6 74 24 48 35 8 67
REMARK Flexibility Score: inf
ROOT
ATOM      1  C   UNL A   1      38.212  19.701  25.053  1.00  0.00     0.023 C 
ENDROOT
BRANCH   1   2
ATOM      2  C   UNL A   1      39.332  20.036  26.020  1.00  0.00     0.116 C 
BRANCH   2   3
ATOM      3  N   UNL A   1      40.542  19.220  25.845  1.00  0.00    -0.352 N 
ATOM      4  O   UNL A   1      42.736  18.983  25.250  1.00  0.00    -0.269 OA
ATOM      5  C   UNL A   1      41.854  19.664  25.776  1.00  0.00     0.251 C 
ATOM      6  H   UNL A   1      40.406  18.248  25.767  1.00  0.00     0.163 HD
BRANCH   5   7
ATOM      7  C   UNL A   1      42.178  20.967  26.375  1.00  0.00     0.039 A 
ATOM      8  C   UNL A   1      42.472  22.114  25.637  1.00  0.00     0.014 A 
ATOM      9  C   UNL A   1      42.103  21.020  27.760  1.00  0.00     0.014 A 
ATOM     10  C   UNL A   1      42.635  23.314  26.328  1.00  0.00     0.010 A 
ATOM     11  C   UNL A   1      41.937  22.221  28.373  1.00  0.00     0.010 A 
ATOM     12  C   UNL A   1      42.353  23.354  27.706  1.00  0.00    -0.014 A 
BRANCH  12  13
ATOM     13  C   UNL A   1      42.407  24.576  28.493  1.00  0.00     0.031 A 
ATOM     14  C   UNL A   1      41.240  25.456  28.272  1.00  0.00     0.074 A 
ATOM     15  C   UNL A   1      43.332  24.796  29.458  1.00  0.00     0.049 A 
ATOM     16  N   UNL A   1      41.217  26.533  27.564  1.00  0.00    -0.248 NA
ATOM     17  C   UNL A   1      39.910  24.984  28.686  1.00  0.00     0.031 C 
ATOM     18  C   UNL A   1      44.361  23.884  29.983  1.00  0.00     0.029 A 
ATOM     19  N   UNL A   1      43.504  25.898  30.239  1.00  0.00    -0.354 N 
ATOM     20  C   UNL A   1      39.919  27.018  27.661  1.00  0.00     0.074 A 
ATOM     21  C   UNL A   1      39.126  25.923  28.151  1.00  0.00     0.031 C 
ATOM     22  C   UNL A   1      44.887  24.383  31.123  1.00  0.00     0.029 A 
ATOM     23  C   UNL A   1      44.378  25.726  31.313  1.00  0.00     0.049 A 
ATOM     24  H   UNL A   1      43.049  26.753  30.058  1.00  0.00     0.167 HD
ATOM     25  C   UNL A   1      39.694  28.360  27.608  1.00  0.00     0.037 A 
ATOM     26  C   UNL A   1      44.664  26.636  32.281  1.00  0.00     0.037 A 
ATOM     27  C   UNL A   1      40.860  29.041  27.086  1.00  0.00     0.049 A 
ATOM     28  C   UNL A   1      44.283  27.965  31.747  1.00  0.00     0.074 A 
ATOM     29  C   UNL A   1      41.571  28.998  25.902  1.00  0.00     0.029 A 
ATOM     30  N   UNL A   1      41.698  29.626  28.007  1.00  0.00    -0.354 N 
ATOM     31  N   UNL A   1      44.908  28.550  30.763  1.00  0.00    -0.248 NA
ATOM     32  C   UNL A   1      42.919  28.412  31.974  1.00  0.00     0.031 C 
ATOM     33  C   UNL A   1      42.940  29.133  26.285  1.00  0.00     0.029 A 
ATOM     34  C   UNL A   1      42.992  29.339  27.664  1.00  0.00     0.049 A 
ATOM     35  H   UNL A   1      41.414  30.163  28.781  1.00  0.00     0.167 HD
ATOM     36  C   UNL A   1      43.899  29.085  29.975  1.00  0.00     0.074 A 
ATOM     37  C   UNL A   1      42.702  29.044  30.816  1.00  0.00     0.031 C 
ATOM     38  C   UNL A   1      44.066  29.223  28.626  1.00  0.00     0.037 A 
BRANCH  25  39
ATOM     39  C   UNL A   1      38.658  29.086  28.443  1.00  0.00     0.057 A 
ATOM     40  C   UNL A   1      37.490  29.695  27.943  1.00  0.00     0.134 A 
ATOM     41  C   UNL A   1      38.667  28.880  29.836  1.00  0.00     0.134 A 
ATOM     42  F   UNL A   1      37.301  29.962  26.648  1.00  0.00    -0.206 F 
ATOM     43  C   UNL A   1      36.385  29.988  28.746  1.00  0.00     0.040 A 
ATOM     44  C   UNL A   1      37.550  29.129  30.641  1.00  0.00     0.040 A 
ATOM     45  F   UNL A   1      39.732  28.336  30.447  1.00  0.00    -0.206 F 
ATOM     46  C   UNL A   1      36.394  29.665  30.092  1.00  0.00     0.006 A 
ENDBRANCH  25  39
BRANCH  26  47
ATOM     47  C   UNL A   1      44.990  26.432  33.712  1.00  0.00     0.057 A 
ATOM     48  C   UNL A   1      46.278  26.693  34.210  1.00  0.00     0.134 A 
ATOM     49  C   UNL A   1      44.143  25.697  34.558  1.00  0.00     0.134 A 
ATOM     50  F   UNL A   1      47.190  27.328  33.460  1.00  0.00    -0.206 F 
ATOM     51  C   UNL A   1      46.708  26.228  35.458  1.00  0.00     0.040 A 
ATOM     52  C   UNL A   1      44.562  25.224  35.810  1.00  0.00     0.040 A 
ATOM     53  F   UNL A   1      42.907  25.362  34.159  1.00  0.00    -0.206 F 
ATOM     54  C   UNL A   1      45.854  25.477  36.257  1.00  0.00     0.006 A 
ENDBRANCH  26  47
BRANCH  38  55
ATOM     55  C   UNL A   1      45.458  29.044  28.076  1.00  0.00     0.057 A 
ATOM     56  C   UNL A   1      46.240  30.183  27.862  1.00  0.00     0.134 A 
ATOM     57  C   UNL A   1      45.996  27.820  27.644  1.00  0.00     0.134 A 
ATOM     58  F   UNL A   1      45.772  31.395  28.198  1.00  0.00    -0.206 F 
ATOM     59  C   UNL A   1      47.499  30.115  27.259  1.00  0.00     0.040 A 
ATOM     60  C   UNL A   1      47.269  27.732  27.070  1.00  0.00     0.040 A 
ATOM     61  F   UNL A   1      45.289  26.685  27.717  1.00  0.00    -0.206 F 
ATOM     62  C   UNL A   1      48.024  28.884  26.873  1.00  0.00     0.006 A 
ENDBRANCH  38  55
ENDBRANCH  12  13
ENDBRANCH   5   7
ENDBRANCH   2   3
ENDBRANCH   1   2
BRANCH   1  63
ATOM     63  C   UNL A   1      37.358  20.899  24.617  1.00  0.00     0.023 C 
BRANCH  63  64
ATOM     64  C   UNL A   1      36.001  21.068  25.308  1.00  0.00     0.116 C 
BRANCH  64  65
ATOM     65  N   UNL A   1      35.126  19.918  25.142  1.00  0.00    -0.352 N 
ATOM     66  C   UNL A   1      33.774  19.898  24.902  1.00  0.00     0.252 C 
ATOM     67  H   UNL A   1      35.560  19.038  25.212  1.00  0.00     0.163 HD
ATOM     68  O   UNL A   1      33.143  18.848  24.930  1.00  0.00    -0.269 OA
BRANCH  66  69
ATOM     69  C   UNL A   1      33.075  21.163  24.656  1.00  0.00     0.058 A 
ATOM     70  C   UNL A   1      32.669  21.564  23.385  1.00  0.00     0.017 A 
ATOM     71  C   UNL A   1      32.852  22.007  25.724  1.00  0.00     0.125 A 
ATOM     72  C   UNL A   1      32.085  22.821  23.223  1.00  0.00     0.026 A 
ATOM     73  N   UNL A   1      32.329  23.245  25.583  1.00  0.00    -0.258 NA
ATOM     74  C   UNL A   1      31.928  23.638  24.343  1.00  0.00     0.062 A 
BRANCH  74  75
ATOM     75  C   UNL A   1      31.281  24.995  24.239  1.00  0.00     0.202 C 
BRANCH  75  76
ATOM     76  N   UNL A   1      32.242  26.042  24.524  1.00  0.00    -0.239 N 
ATOM     77  N   UNL A   1      33.264  26.269  23.671  1.00  0.00    -0.066 NA
ATOM     78  C   UNL A   1      32.267  26.911  25.586  1.00  0.00     0.089 A 
ATOM     79  N   UNL A   1      33.935  27.321  24.125  1.00  0.00    -0.130 NA
ATOM     80  C   UNL A   1      33.335  27.745  25.281  1.00  0.00     0.113 A 
ATOM     81  C   UNL A   1      31.467  27.083  26.722  1.00  0.00     0.030 A 
ATOM     82  C   UNL A   1      33.624  28.827  26.125  1.00  0.00     0.032 A 
ATOM     83  C   UNL A   1      31.753  28.180  27.540  1.00  0.00     0.002 A 
ATOM     84  C   UNL A   1      32.811  29.041  27.247  1.00  0.00     0.002 A 
ENDBRANCH  75  76
ENDBRANCH  74  75
ENDBRANCH  66  69
ENDBRANCH  64  65
ENDBRANCH  63  64
ENDBRANCH   1  63
TORSDOF 13
ENDMDL
MODEL 2
REMARK VINA RESULT:     -12.0      2.979      6.806
REMARK SMILES O=C(NCCCCNC(=O)c1ccc(Cn2nnc3ccccc32)nc1)c1ccc(-c2c3nc(c(-c4c(F)cccc4F)c4ccc([nH]4)c(-c4c(F)cccc4F)c4nc(c(-c5c(F)cccc5F)c5ccc2[nH]5)C=C4)C=C3)cc1
REMARK SMILES IDX 5 1 4 2 3 3 1 4 2 5 27 7 28 8 80 9 29 10 79 11 30 12 31 13
REMARK SMILES IDX 32 14 73 15 33 16 78 17 72 18 74 19 34 20 77 21 71 22 70 23
REMARK SMILES IDX 35 25 61 26 44 27 60 28 45 29 48 30 59 31 75 32 46 33 47 34
REMARK SMILES IDX 58 36 76 37 49 38 36 39 37 40 42 41 38 42 39 43 41 44 43 45
REMARK SMILES IDX 40 46 62 47 63 48 68 49 64 50 65 51 67 52 69 53 66 54 50 55
REMARK SMILES IDX 51 56 56 57 52 58 53 59 55 60 57 61 54 62 6 63 7 64 8 65
REMARK SMILES IDX 9 66 10 68 11 69 12 70 26 71 13 72 25 73 14 74 15 75 16 76
REMARK SMILES IDX 17 77 24 78 18 79 19 80 23 81 20 82 22 83 21 84
REMARK H PARENT 3 6 74 24 48 35 8 67
REMARK Flexibility Score: inf
ROOT
ATOM      1  C   UNL A   1      40.514  22.269  27.646  1.00  0.00     0.023 C 
ENDROOT
BRANCH   1   2
ATOM      2  C   UNL A   1      41.943  22.716  27.900  1.00  0.00     0.116 C 
BRANCH   2   3
ATOM      3  N   UNL A   1      42.792  22.723  26.701  1.00  0.00    -0.352 N 
ATOM      4  O   UNL A   1      43.365  23.552  24.649  1.00  0.00    -0.269 OA
ATOM      5  C   UNL A   1      42.962  23.759  25.796  1.00  0.00     0.251 C 
ATOM      6  H   UNL A   1      43.299  21.898  26.520  1.00  0.00     0.163 HD
BRANCH   5   7
ATOM      7  C   UNL A   1      42.673  25.128  26.246  1.00  0.00     0.039 A 
ATOM      8  C   UNL A   1      41.622  25.906  25.756  1.00  0.00     0.014 A 
ATOM      9  C   UNL A   1      43.481  25.601  27.270  1.00  0.00     0.014 A 
ATOM     10  C   UNL A   1      41.382  27.139  26.362  1.00  0.00     0.010 A 
ATOM     11  C   UNL A   1      43.041  26.624  28.049  1.00  0.00     0.010 A 
ATOM     12  C   UNL A   1      42.100  27.483  27.523  1.00  0.00    -0.014 A 
BRANCH  12  13
ATOM     13  C   UNL A   1      41.857  28.704  28.274  1.00  0.00     0.031 A 
ATOM     14  C   UNL A   1      42.925  29.711  28.098  1.00  0.00     0.074 A 
ATOM     15  C   UNL A   1      40.693  28.959  28.919  1.00  0.00     0.049 A 
ATOM     16  N   UNL A   1      43.856  29.996  28.942  1.00  0.00    -0.248 NA
ATOM     17  C   UNL A   1      43.122  30.304  26.767  1.00  0.00     0.031 C 
ATOM     18  C   UNL A   1      39.446  28.178  28.926  1.00  0.00     0.029 A 
ATOM     19  N   UNL A   1      40.355  30.042  29.672  1.00  0.00    -0.354 N 
ATOM     20  C   UNL A   1      44.607  31.001  28.347  1.00  0.00     0.074 A 
ATOM     21  C   UNL A   1      44.261  30.977  26.951  1.00  0.00     0.031 C 
ATOM     22  C   UNL A   1      38.441  28.913  29.453  1.00  0.00     0.029 A 
ATOM     23  C   UNL A   1      39.000  30.136  29.990  1.00  0.00     0.049 A 
ATOM     24  H   UNL A   1      41.017  30.708  29.971  1.00  0.00     0.167 HD
ATOM     25  C   UNL A   1      45.212  31.942  29.124  1.00  0.00     0.037 A 
ATOM     26  C   UNL A   1      38.391  31.150  30.660  1.00  0.00     0.037 A 
ATOM     27  C   UNL A   1      45.254  31.499  30.502  1.00  0.00     0.049 A 
ATOM     28  C   UNL A   1      39.453  31.875  31.398  1.00  0.00     0.074 A 
ATOM     29  C   UNL A   1      45.811  30.425  31.169  1.00  0.00     0.029 A 
ATOM     30  N   UNL A   1      44.292  32.005  31.343  1.00  0.00    -0.354 N 
ATOM     31  N   UNL A   1      40.106  31.363  32.404  1.00  0.00    -0.248 NA
ATOM     32  C   UNL A   1      40.122  32.965  30.709  1.00  0.00     0.031 C 
ATOM     33  C   UNL A   1      44.851  30.065  32.162  1.00  0.00     0.029 A 
ATOM     34  C   UNL A   1      43.803  30.983  32.113  1.00  0.00     0.049 A 
ATOM     35  H   UNL A   1      44.004  32.945  31.386  1.00  0.00     0.167 HD
ATOM     36  C   UNL A   1      41.425  31.737  32.194  1.00  0.00     0.074 A 
ATOM     37  C   UNL A   1      41.360  32.795  31.184  1.00  0.00     0.031 C 
ATOM     38  C   UNL A   1      42.452  30.949  32.630  1.00  0.00     0.037 A 
BRANCH  25  39
ATOM     39  C   UNL A   1      45.326  33.408  28.758  1.00  0.00     0.057 A 
ATOM     40  C   UNL A   1      44.244  34.297  28.608  1.00  0.00     0.134 A 
ATOM     41  C   UNL A   1      46.585  34.027  28.886  1.00  0.00     0.134 A 
ATOM     42  F   UNL A   1      42.977  33.892  28.479  1.00  0.00    -0.206 F 
ATOM     43  C   UNL A   1      44.388  35.685  28.674  1.00  0.00     0.040 A 
ATOM     44  C   UNL A   1      46.735  35.414  28.997  1.00  0.00     0.040 A 
ATOM     45  F   UNL A   1      47.705  33.296  29.005  1.00  0.00    -0.206 F 
ATOM     46  C   UNL A   1      45.629  36.248  28.913  1.00  0.00     0.006 A 
ENDBRANCH  25  39
BRANCH  26  47
ATOM     47  C   UNL A   1      37.025  31.703  30.512  1.00  0.00     0.057 A 
ATOM     48  C   UNL A   1      36.715  32.616  29.489  1.00  0.00     0.134 A 
ATOM     49  C   UNL A   1      36.074  31.587  31.539  1.00  0.00     0.134 A 
ATOM     50  F   UNL A   1      37.581  32.855  28.495  1.00  0.00    -0.206 F 
ATOM     51  C   UNL A   1      35.548  33.388  29.502  1.00  0.00     0.040 A 
ATOM     52  C   UNL A   1      34.901  32.356  31.564  1.00  0.00     0.040 A 
ATOM     53  F   UNL A   1      36.294  30.772  32.581  1.00  0.00    -0.206 F 
ATOM     54  C   UNL A   1      34.642  33.271  30.549  1.00  0.00     0.006 A 
ENDBRANCH  26  47
BRANCH  38  55
ATOM     55  C   UNL A   1      42.113  29.827  33.578  1.00  0.00     0.057 A 
ATOM     56  C   UNL A   1      42.224  30.059  34.951  1.00  0.00     0.134 A 
ATOM     57  C   UNL A   1      41.806  28.514  33.184  1.00  0.00     0.134 A 
ATOM     58  F   UNL A   1      42.568  31.276  35.403  1.00  0.00    -0.206 F 
ATOM     59  C   UNL A   1      42.030  29.046  35.893  1.00  0.00     0.040 A 
ATOM     60  C   UNL A   1      41.575  27.496  34.117  1.00  0.00     0.040 A 
ATOM     61  F   UNL A   1      41.769  28.165  31.892  1.00  0.00    -0.206 F 
ATOM     62  C   UNL A   1      41.691  27.761  35.477  1.00  0.00     0.006 A 
ENDBRANCH  38  55
ENDBRANCH  12  13
ENDBRANCH   5   7
ENDBRANCH   2   3
ENDBRANCH   1   2
BRANCH   1  63
ATOM     63  C   UNL A   1      39.539  23.398  27.292  1.00  0.00     0.023 C 
BRANCH  63  64
ATOM     64  C   UNL A   1      38.598  23.153  26.108  1.00  0.00     0.116 C 
BRANCH  64  65
ATOM     65  N   UNL A   1      38.649  21.787  25.609  1.00  0.00    -0.352 N 
ATOM     66  C   UNL A   1      37.704  21.105  24.882  1.00  0.00     0.252 C 
ATOM     67  H   UNL A   1      39.469  21.286  25.819  1.00  0.00     0.163 HD
ATOM     68  O   UNL A   1      37.826  19.907  24.654  1.00  0.00    -0.269 OA
BRANCH  66  69
ATOM     69  C   UNL A   1      36.512  21.819  24.416  1.00  0.00     0.058 A 
ATOM     70  C   UNL A   1      35.252  21.632  24.982  1.00  0.00     0.017 A 
ATOM     71  C   UNL A   1      36.640  22.679  23.345  1.00  0.00     0.125 A 
ATOM     72  C   UNL A   1      34.153  22.287  24.426  1.00  0.00     0.026 A 
ATOM     73  N   UNL A   1      35.582  23.288  22.764  1.00  0.00    -0.258 NA
ATOM     74  C   UNL A   1      34.352  23.109  23.317  1.00  0.00     0.062 A 
BRANCH  74  75
ATOM     75  C   UNL A   1      33.210  23.865  22.686  1.00  0.00     0.202 C 
BRANCH  75  76
ATOM     76  N   UNL A   1      33.471  25.291  22.702  1.00  0.00    -0.239 N 
ATOM     77  N   UNL A   1      33.590  25.965  21.538  1.00  0.00    -0.066 NA
ATOM     78  C   UNL A   1      33.606  26.122  23.785  1.00  0.00     0.089 A 
ATOM     79  N   UNL A   1      33.743  27.250  21.838  1.00  0.00    -0.130 NA
ATOM     80  C   UNL A   1      33.735  27.376  23.202  1.00  0.00     0.113 A 
ATOM     81  C   UNL A   1      33.581  25.925  25.172  1.00  0.00     0.030 A 
ATOM     82  C   UNL A   1      33.822  28.509  24.023  1.00  0.00     0.032 A 
ATOM     83  C   UNL A   1      33.645  27.067  25.975  1.00  0.00     0.002 A 
ATOM     84  C   UNL A   1      33.760  28.339  25.413  1.00  0.00     0.002 A 
ENDBRANCH  75  76
ENDBRANCH  74  75
ENDBRANCH  66  69
ENDBRANCH  64  65
ENDBRANCH  63  64
ENDBRANCH   1  63
TORSDOF 13
ENDMDL
MODEL 3
REMARK VINA RESULT:     -12.0      2.977      7.521
REMARK SMILES O=C(NCCCCNC(=O)c1ccc(Cn2nnc3ccccc32)nc1)c1ccc(-c2c3nc(c(-c4c(F)cccc4F)c4ccc([nH]4)c(-c4c(F)cccc4F)c4nc(c(-c5c(F)cccc5F)c5ccc2[nH]5)C=C4)C=C3)cc1
REMARK SMILES IDX 5 1 4 2 3 3 1 4 2 5 27 7 28 8 80 9 29 10 79 11 30 12 31 13
REMARK SMILES IDX 32 14 73 15 33 16 78 17 72 18 74 19 34 20 77 21 71 22 70 23
REMARK SMILES IDX 35 25 61 26 44 27 60 28 45 29 48 30 59 31 75 32 46 33 47 34
REMARK SMILES IDX 58 36 76 37 49 38 36 39 37 40 42 41 38 42 39 43 41 44 43 45
REMARK SMILES IDX 40 46 62 47 63 48 68 49 64 50 65 51 67 52 69 53 66 54 50 55
REMARK SMILES IDX 51 56 56 57 52 58 53 59 55 60 57 61 54 62 6 63 7 64 8 65
REMARK SMILES IDX 9 66 10 68 11 69 12 70 26 71 13 72 25 73 14 74 15 75 16 76
REMARK SMILES IDX 17 77 24 78 18 79 19 80 23 81 20 82 22 83 21 84
REMARK H PARENT 3 6 74 24 48 35 8 67
REMARK Flexibility Score: inf
ROOT
ATOM      1  C   UNL A   1      34.027  28.730  26.954  1.00  0.00     0.023 C 
ENDROOT
BRANCH   1   2
ATOM      2  C   UNL A   1      35.385  29.279  27.353  1.00  0.00     0.116 C 
BRANCH   2   3
ATOM      3  N   UNL A   1      35.482  29.673  28.766  1.00  0.00    -0.352 N 
ATOM      4  O   UNL A   1      36.289  29.375  30.884  1.00  0.00    -0.269 OA
ATOM      5  C   UNL A   1      36.481  29.336  29.666  1.00  0.00     0.251 C 
ATOM      6  H   UNL A   1      34.756  30.241  29.112  1.00  0.00     0.163 HD
BRANCH   5   7
ATOM      7  C   UNL A   1      37.796  28.952  29.133  1.00  0.00     0.039 A 
ATOM      8  C   UNL A   1      38.401  29.564  28.033  1.00  0.00     0.014 A 
ATOM      9  C   UNL A   1      38.463  27.966  29.846  1.00  0.00     0.014 A 
ATOM     10  C   UNL A   1      39.706  29.190  27.712  1.00  0.00     0.010 A 
ATOM     11  C   UNL A   1      39.813  27.857  29.731  1.00  0.00     0.010 A 
ATOM     12  C   UNL A   1      40.408  28.336  28.583  1.00  0.00    -0.014 A 
BRANCH  12  13
ATOM     13  C   UNL A   1      41.798  27.962  28.380  1.00  0.00     0.031 A 
ATOM     14  C   UNL A   1      41.952  26.708  27.615  1.00  0.00     0.074 A 
ATOM     15  C   UNL A   1      42.838  28.771  28.700  1.00  0.00     0.049 A 
ATOM     16  N   UNL A   1      42.256  25.550  28.095  1.00  0.00    -0.248 NA
ATOM     17  C   UNL A   1      41.507  26.676  26.213  1.00  0.00     0.031 C 
ATOM     18  C   UNL A   1      42.817  30.159  29.189  1.00  0.00     0.029 A 
ATOM     19  N   UNL A   1      44.173  28.529  28.585  1.00  0.00    -0.354 N 
ATOM     20  C   UNL A   1      42.296  24.691  27.004  1.00  0.00     0.074 A 
ATOM     21  C   UNL A   1      41.609  25.373  25.940  1.00  0.00     0.031 C 
ATOM     22  C   UNL A   1      44.055  30.696  29.114  1.00  0.00     0.029 A 
ATOM     23  C   UNL A   1      44.988  29.649  28.754  1.00  0.00     0.049 A 
ATOM     24  H   UNL A   1      44.535  27.633  28.399  1.00  0.00     0.167 HD
ATOM     25  C   UNL A   1      43.153  23.633  27.009  1.00  0.00     0.037 A 
ATOM     26  C   UNL A   1      46.339  29.697  28.616  1.00  0.00     0.037 A 
ATOM     27  C   UNL A   1      43.632  23.385  28.353  1.00  0.00     0.049 A 
ATOM     28  C   UNL A   1      46.833  28.304  28.735  1.00  0.00     0.074 A 
ATOM     29  C   UNL A   1      43.040  23.059  29.559  1.00  0.00     0.029 A 
ATOM     30  N   UNL A   1      44.876  23.878  28.667  1.00  0.00    -0.354 N 
ATOM     31  N   UNL A   1      46.792  27.620  29.844  1.00  0.00    -0.248 NA
ATOM     32  C   UNL A   1      46.912  27.516  27.517  1.00  0.00     0.031 C 
ATOM     33  C   UNL A   1      43.769  23.794  30.542  1.00  0.00     0.029 A 
ATOM     34  C   UNL A   1      44.817  24.459  29.906  1.00  0.00     0.049 A 
ATOM     35  H   UNL A   1      45.677  23.820  28.097  1.00  0.00     0.167 HD
ATOM     36  C   UNL A   1      46.380  26.352  29.459  1.00  0.00     0.074 A 
ATOM     37  C   UNL A   1      46.555  26.325  28.006  1.00  0.00     0.031 C 
ATOM     38  C   UNL A   1      45.658  25.564  30.310  1.00  0.00     0.037 A 
BRANCH  25  39
ATOM     39  C   UNL A   1      43.914  23.143  25.794  1.00  0.00     0.057 A 
ATOM     40  C   UNL A   1      44.879  23.883  25.083  1.00  0.00     0.134 A 
ATOM     41  C   UNL A   1      43.918  21.759  25.528  1.00  0.00     0.134 A 
ATOM     42  F   UNL A   1      45.028  25.205  25.212  1.00  0.00    -0.206 F 
ATOM     43  C   UNL A   1      45.830  23.288  24.250  1.00  0.00     0.040 A 
ATOM     44  C   UNL A   1      44.892  21.148  24.731  1.00  0.00     0.040 A 
ATOM     45  F   UNL A   1      43.030  20.941  26.115  1.00  0.00    -0.206 F 
ATOM     46  C   UNL A   1      45.868  21.912  24.106  1.00  0.00     0.006 A 
ENDBRANCH  25  39
BRANCH  26  47
ATOM     47  C   UNL A   1      47.208  30.796  28.134  1.00  0.00     0.057 A 
ATOM     48  C   UNL A   1      48.056  31.492  29.011  1.00  0.00     0.134 A 
ATOM     49  C   UNL A   1      47.008  31.388  26.876  1.00  0.00     0.134 A 
ATOM     50  F   UNL A   1      48.264  31.054  30.261  1.00  0.00    -0.206 F 
ATOM     51  C   UNL A   1      48.647  32.716  28.671  1.00  0.00     0.040 A 
ATOM     52  C   UNL A   1      47.592  32.613  26.523  1.00  0.00     0.040 A 
ATOM     53  F   UNL A   1      46.184  30.822  25.981  1.00  0.00    -0.206 F 
ATOM     54  C   UNL A   1      48.404  33.288  27.428  1.00  0.00     0.006 A 
ENDBRANCH  26  47
BRANCH  38  55
ATOM     55  C   UNL A   1      45.569  25.997  31.752  1.00  0.00     0.057 A 
ATOM     56  C   UNL A   1      44.455  26.736  32.157  1.00  0.00     0.134 A 
ATOM     57  C   UNL A   1      46.586  25.816  32.704  1.00  0.00     0.134 A 
ATOM     58  F   UNL A   1      43.466  26.996  31.287  1.00  0.00    -0.206 F 
ATOM     59  C   UNL A   1      44.344  27.264  33.445  1.00  0.00     0.040 A 
ATOM     60  C   UNL A   1      46.474  26.310  34.009  1.00  0.00     0.040 A 
ATOM     61  F   UNL A   1      47.735  25.205  32.389  1.00  0.00    -0.206 F 
ATOM     62  C   UNL A   1      45.350  27.040  34.382  1.00  0.00     0.006 A 
ENDBRANCH  38  55
ENDBRANCH  12  13
ENDBRANCH   5   7
ENDBRANCH   2   3
ENDBRANCH   1   2
BRANCH   1  63
ATOM     63  C   UNL A   1      33.166  29.685  26.118  1.00  0.00     0.023 C 
BRANCH  63  64
ATOM     64  C   UNL A   1      32.974  29.328  24.641  1.00  0.00     0.116 C 
BRANCH  64  65
ATOM     65  N   UNL A   1      31.623  29.577  24.161  1.00  0.00    -0.352 N 
ATOM     66  C   UNL A   1      30.630  28.669  23.889  1.00  0.00     0.252 C 
ATOM     67  H   UNL A   1      31.391  30.522  24.012  1.00  0.00     0.163 HD
ATOM     68  O   UNL A   1      29.584  29.018  23.352  1.00  0.00    -0.269 OA
BRANCH  66  69
ATOM     69  C   UNL A   1      30.850  27.256  24.208  1.00  0.00     0.058 A 
ATOM     70  C   UNL A   1      30.659  26.733  25.486  1.00  0.00     0.017 A 
ATOM     71  C   UNL A   1      31.306  26.422  23.208  1.00  0.00     0.125 A 
ATOM     72  C   UNL A   1      30.971  25.394  25.726  1.00  0.00     0.026 A 
ATOM     73  N   UNL A   1      31.656  25.136  23.430  1.00  0.00    -0.258 NA
ATOM     74  C   UNL A   1      31.468  24.622  24.676  1.00  0.00     0.062 A 
BRANCH  74  75
ATOM     75  C   UNL A   1      31.800  23.163  24.865  1.00  0.00     0.202 C 
BRANCH  75  76
ATOM     76  N   UNL A   1      33.111  23.011  25.463  1.00  0.00    -0.239 N 
ATOM     77  N   UNL A   1      33.226  22.836  26.797  1.00  0.00    -0.066 NA
ATOM     78  C   UNL A   1      34.335  22.997  24.842  1.00  0.00     0.089 A 
ATOM     79  N   UNL A   1      34.513  22.644  27.062  1.00  0.00    -0.130 NA
ATOM     80  C   UNL A   1      35.209  22.716  25.885  1.00  0.00     0.113 A 
ATOM     81  C   UNL A   1      34.756  23.147  23.515  1.00  0.00     0.030 A 
ATOM     82  C   UNL A   1      36.574  22.548  25.611  1.00  0.00     0.032 A 
ATOM     83  C   UNL A   1      36.115  22.952  23.255  1.00  0.00     0.002 A 
ATOM     84  C   UNL A   1      37.011  22.655  24.283  1.00  0.00     0.002 A 
ENDBRANCH  75  76
ENDBRANCH  74  75
ENDBRANCH  66  69
ENDBRANCH  64  65
ENDBRANCH  63  64
ENDBRANCH   1  63
TORSDOF 13
ENDMDL
