MODEL 1
REMARK VINA RESULT:     -12.5      0.000      0.000
REMARK SMILES Cc1nn(CC(=O)NCCCCNC(=O)c2ccc(-c3c4nc(c(-c5c(F)cccc5F)c5ccc([nH]5)c(-c5c(F)cccc5F)c5nc(c(-c6c(F)cccc6F)c6ccc3[nH]6)C=C5)C=C4)cc2)c(C)c1NS(=O)(=O)c1cccc2cccnc12
REMARK SMILES IDX 9 1 8 2 6 3 7 4 5 6 4 7 1 8 2 9 3 10 72 11 70 12 71 13 73 14
REMARK SMILES IDX 74 16 75 17 76 18 77 19 78 20 86 21 79 22 81 23 85 24 80 25
REMARK SMILES IDX 82 26 84 27 83 28 10 29 11 30 12 31 13 32 14 33 15 35 16 36
REMARK SMILES IDX 17 37 69 38 18 39 68 40 19 41 20 42 21 43 62 44 22 45 67 46
REMARK SMILES IDX 61 47 63 48 23 49 66 50 60 51 59 52 24 54 50 55 33 56 49 57
REMARK SMILES IDX 34 58 37 59 48 60 64 61 35 62 36 63 47 65 65 66 38 67 25 68
REMARK SMILES IDX 26 69 31 70 27 71 28 72 30 73 32 74 29 75 51 76 52 77 57 78
REMARK SMILES IDX 53 79 54 80 56 81 58 82 55 83 39 84 40 85 45 86 41 87 42 88
REMARK SMILES IDX 44 89 46 90 43 91
REMARK H PARENT 8 5 73 15 13 34 63 53 37 64
REMARK Flexibility Score: inf
ROOT
ATOM      1  C   UNL A   1      39.456  22.725  26.491  1.00  0.00     0.116 C 
ENDROOT
BRANCH   1   2
ATOM      2  N   UNL A   1      38.713  22.076  25.429  1.00  0.00    -0.354 N 
ATOM      3  C   UNL A   1      37.576  22.453  24.777  1.00  0.00     0.241 C 
ATOM      4  O   UNL A   1      37.340  21.861  23.714  1.00  0.00    -0.273 OA
ATOM      5  H   UNL A   1      39.094  21.221  25.125  1.00  0.00     0.163 HD
BRANCH   3   6
ATOM      6  C   UNL A   1      36.690  23.615  25.184  1.00  0.00     0.244 C 
BRANCH   6   7
ATOM      7  N   UNL A   1      35.355  23.274  25.632  1.00  0.00    -0.258 N 
ATOM      8  C   UNL A   1      33.163  21.017  27.184  1.00  0.00     0.071 C 
ATOM      9  C   UNL A   1      33.853  22.223  26.662  1.00  0.00     0.084 A 
ATOM     10  N   UNL A   1      35.078  22.063  26.137  1.00  0.00    -0.175 NA
ATOM     11  C   UNL A   1      33.395  23.575  26.528  1.00  0.00     0.093 A 
ATOM     12  C   UNL A   1      34.226  24.048  25.533  1.00  0.00     0.060 A 
ATOM     13  C   UNL A   1      34.045  25.055  24.470  1.00  0.00     0.069 C 
BRANCH  11  14
ATOM     14  N   UNL A   1      32.223  24.162  27.037  1.00  0.00    -0.276 N 
ATOM     15  H   UNL A   1      32.260  24.589  27.923  1.00  0.00     0.180 HD
BRANCH  14  16
ATOM     16  S   UNL A   1      30.719  24.170  26.181  1.00  0.00     0.264 S 
ATOM     17  O   UNL A   1      30.902  23.185  25.136  1.00  0.00    -0.201 OA
ATOM     18  O   UNL A   1      29.674  23.962  27.169  1.00  0.00    -0.201 OA
BRANCH  16  19
ATOM     19  C   UNL A   1      30.559  25.742  25.368  1.00  0.00     0.114 A 
ATOM     20  C   UNL A   1      29.952  25.746  24.097  1.00  0.00     0.024 A 
ATOM     21  C   UNL A   1      31.008  26.934  25.953  1.00  0.00     0.091 A 
ATOM     22  C   UNL A   1      29.943  26.906  23.330  1.00  0.00     0.002 A 
ATOM     23  C   UNL A   1      31.094  28.070  25.106  1.00  0.00     0.002 A 
ATOM     24  N   UNL A   1      31.364  27.068  27.246  1.00  0.00    -0.255 NA
ATOM     25  C   UNL A   1      30.572  28.046  23.809  1.00  0.00     0.010 A 
ATOM     26  C   UNL A   1      31.724  29.237  25.563  1.00  0.00     0.012 A 
ATOM     27  C   UNL A   1      31.823  28.263  27.681  1.00  0.00     0.112 A 
ATOM     28  C   UNL A   1      32.096  29.342  26.884  1.00  0.00     0.021 A 
ENDBRANCH  16  19
ENDBRANCH  14  16
ENDBRANCH  11  14
ENDBRANCH   6   7
ENDBRANCH   3   6
ENDBRANCH   1   2
BRANCH   1  29
ATOM     29  C   UNL A   1      40.423  21.822  27.258  1.00  0.00     0.023 C 
BRANCH  29  30
ATOM     30  C   UNL A   1      40.897  20.577  26.491  1.00  0.00     0.023 C 
BRANCH  30  31
ATOM     31  C   UNL A   1      42.129  19.872  27.068  1.00  0.00     0.116 C 
BRANCH  31  32
ATOM     32  N   UNL A   1      43.185  19.601  26.093  1.00  0.00    -0.352 N 
ATOM     33  C   UNL A   1      43.835  20.508  25.268  1.00  0.00     0.251 C 
ATOM     34  H   UNL A   1      43.469  18.662  26.014  1.00  0.00     0.163 HD
ATOM     35  O   UNL A   1      44.412  20.143  24.252  1.00  0.00    -0.269 OA
BRANCH  33  36
ATOM     36  C   UNL A   1      43.854  21.939  25.647  1.00  0.00     0.039 A 
ATOM     37  C   UNL A   1      43.166  22.916  24.935  1.00  0.00     0.014 A 
ATOM     38  C   UNL A   1      44.623  22.299  26.747  1.00  0.00     0.014 A 
ATOM     39  C   UNL A   1      43.165  24.227  25.420  1.00  0.00     0.010 A 
ATOM     40  C   UNL A   1      44.553  23.565  27.290  1.00  0.00     0.010 A 
ATOM     41  C   UNL A   1      43.825  24.543  26.625  1.00  0.00    -0.014 A 
BRANCH  41  42
ATOM     42  C   UNL A   1      43.558  25.825  27.289  1.00  0.00     0.031 A 
ATOM     43  C   UNL A   1      44.515  26.896  26.895  1.00  0.00     0.074 A 
ATOM     44  C   UNL A   1      42.443  26.140  27.987  1.00  0.00     0.049 A 
ATOM     45  N   UNL A   1      45.397  27.475  27.639  1.00  0.00    -0.248 NA
ATOM     46  C   UNL A   1      44.595  27.275  25.474  1.00  0.00     0.031 C 
ATOM     47  C   UNL A   1      41.245  25.315  28.163  1.00  0.00     0.029 A 
ATOM     48  N   UNL A   1      42.092  27.318  28.595  1.00  0.00    -0.354 N 
ATOM     49  C   UNL A   1      45.980  28.456  26.839  1.00  0.00     0.074 A 
ATOM     50  C   UNL A   1      45.597  28.156  25.486  1.00  0.00     0.031 C 
ATOM     51  C   UNL A   1      40.231  26.080  28.622  1.00  0.00     0.029 A 
ATOM     52  C   UNL A   1      40.743  27.405  28.928  1.00  0.00     0.049 A 
ATOM     53  H   UNL A   1      42.737  28.038  28.781  1.00  0.00     0.167 HD
ATOM     54  C   UNL A   1      46.453  29.603  27.399  1.00  0.00     0.037 A 
ATOM     55  C   UNL A   1      40.076  28.482  29.413  1.00  0.00     0.037 A 
ATOM     56  C   UNL A   1      46.576  29.456  28.828  1.00  0.00     0.049 A 
ATOM     57  C   UNL A   1      41.066  29.390  30.031  1.00  0.00     0.074 A 
ATOM     58  C   UNL A   1      47.369  28.759  29.711  1.00  0.00     0.029 A 
ATOM     59  N   UNL A   1      45.464  29.863  29.512  1.00  0.00    -0.354 N 
ATOM     60  N   UNL A   1      41.716  29.115  31.125  1.00  0.00    -0.248 NA
ATOM     61  C   UNL A   1      41.570  30.529  29.273  1.00  0.00     0.031 C 
ATOM     62  C   UNL A   1      46.587  28.593  30.897  1.00  0.00     0.029 A 
ATOM     63  C   UNL A   1      45.357  29.224  30.713  1.00  0.00     0.049 A 
ATOM     64  H   UNL A   1      44.823  30.532  29.180  1.00  0.00     0.167 HD
ATOM     65  C   UNL A   1      42.941  29.724  30.948  1.00  0.00     0.074 A 
ATOM     66  C   UNL A   1      42.720  30.732  29.921  1.00  0.00     0.031 C 
ATOM     67  C   UNL A   1      44.083  29.120  31.389  1.00  0.00     0.037 A 
BRANCH  54  68
ATOM     68  C   UNL A   1      46.277  30.988  26.795  1.00  0.00     0.057 A 
ATOM     69  C   UNL A   1      47.389  31.855  26.772  1.00  0.00     0.134 A 
ATOM     70  C   UNL A   1      45.033  31.616  26.580  1.00  0.00     0.134 A 
ATOM     71  F   UNL A   1      48.630  31.389  26.975  1.00  0.00    -0.206 F 
ATOM     72  C   UNL A   1      47.259  33.246  26.642  1.00  0.00     0.040 A 
ATOM     73  C   UNL A   1      44.899  32.997  26.400  1.00  0.00     0.040 A 
ATOM     74  F   UNL A   1      43.871  30.958  26.640  1.00  0.00    -0.206 F 
ATOM     75  C   UNL A   1      46.009  33.822  26.467  1.00  0.00     0.006 A 
ENDBRANCH  54  68
BRANCH  55  76
ATOM     76  C   UNL A   1      38.652  28.870  29.277  1.00  0.00     0.057 A 
ATOM     77  C   UNL A   1      37.795  28.895  30.390  1.00  0.00     0.134 A 
ATOM     78  C   UNL A   1      38.170  29.497  28.116  1.00  0.00     0.134 A 
ATOM     79  F   UNL A   1      38.171  28.346  31.554  1.00  0.00    -0.206 F 
ATOM     80  C   UNL A   1      36.555  29.545  30.364  1.00  0.00     0.040 A 
ATOM     81  C   UNL A   1      36.929  30.143  28.076  1.00  0.00     0.040 A 
ATOM     82  F   UNL A   1      38.923  29.582  27.010  1.00  0.00    -0.206 F 
ATOM     83  C   UNL A   1      36.126  30.187  29.208  1.00  0.00     0.006 A 
ENDBRANCH  55  76
BRANCH  67  84
ATOM     84  C   UNL A   1      43.957  28.157  32.528  1.00  0.00     0.057 A 
ATOM     85  C   UNL A   1      43.829  28.518  33.877  1.00  0.00     0.134 A 
ATOM     86  C   UNL A   1      43.915  26.790  32.229  1.00  0.00     0.134 A 
ATOM     87  F   UNL A   1      43.775  29.803  34.253  1.00  0.00    -0.206 F 
ATOM     88  C   UNL A   1      43.719  27.555  34.884  1.00  0.00     0.040 A 
ATOM     89  C   UNL A   1      43.765  25.821  33.220  1.00  0.00     0.040 A 
ATOM     90  F   UNL A   1      43.992  26.375  30.955  1.00  0.00    -0.206 F 
ATOM     91  C   UNL A   1      43.682  26.202  34.556  1.00  0.00     0.006 A 
ENDBRANCH  67  84
ENDBRANCH  41  42
ENDBRANCH  33  36
ENDBRANCH  31  32
ENDBRANCH  30  31
ENDBRANCH  29  30
ENDBRANCH   1  29
TORSDOF 15
ENDMDL
MODEL 2
REMARK VINA RESULT:     -12.4      2.814      7.433
REMARK SMILES Cc1nn(CC(=O)NCCCCNC(=O)c2ccc(-c3c4nc(c(-c5c(F)cccc5F)c5ccc([nH]5)c(-c5c(F)cccc5F)c5nc(c(-c6c(F)cccc6F)c6ccc3[nH]6)C=C5)C=C4)cc2)c(C)c1NS(=O)(=O)c1cccc2cccnc12
REMARK SMILES IDX 9 1 8 2 6 3 7 4 5 6 4 7 1 8 2 9 3 10 72 11 70 12 71 13 73 14
REMARK SMILES IDX 74 16 75 17 76 18 77 19 78 20 86 21 79 22 81 23 85 24 80 25
REMARK SMILES IDX 82 26 84 27 83 28 10 29 11 30 12 31 13 32 14 33 15 35 16 36
REMARK SMILES IDX 17 37 69 38 18 39 68 40 19 41 20 42 21 43 62 44 22 45 67 46
REMARK SMILES IDX 61 47 63 48 23 49 66 50 60 51 59 52 24 54 50 55 33 56 49 57
REMARK SMILES IDX 34 58 37 59 48 60 64 61 35 62 36 63 47 65 65 66 38 67 25 68
REMARK SMILES IDX 26 69 31 70 27 71 28 72 30 73 32 74 29 75 51 76 52 77 57 78
REMARK SMILES IDX 53 79 54 80 56 81 58 82 55 83 39 84 40 85 45 86 41 87 42 88
REMARK SMILES IDX 44 89 46 90 43 91
REMARK H PARENT 8 5 73 15 13 34 63 53 37 64
REMARK Flexibility Score: inf
ROOT
ATOM      1  C   UNL A   1      33.210  29.248  24.954  1.00  0.00     0.116 C 
ENDROOT
BRANCH   1   2
ATOM      2  N   UNL A   1      33.883  28.751  23.770  1.00  0.00    -0.354 N 
ATOM      3  C   UNL A   1      33.386  28.173  22.639  1.00  0.00     0.241 C 
ATOM      4  O   UNL A   1      34.159  28.127  21.671  1.00  0.00    -0.273 OA
ATOM      5  H   UNL A   1      34.862  28.848  23.783  1.00  0.00     0.163 HD
BRANCH   3   6
ATOM      6  C   UNL A   1      31.947  27.730  22.453  1.00  0.00     0.244 C 
BRANCH   6   7
ATOM      7  N   UNL A   1      31.659  26.345  22.763  1.00  0.00    -0.258 N 
ATOM      8  C   UNL A   1      32.475  22.945  22.488  1.00  0.00     0.071 C 
ATOM      9  C   UNL A   1      31.988  24.275  22.930  1.00  0.00     0.084 A 
ATOM     10  N   UNL A   1      32.368  25.347  22.216  1.00  0.00    -0.175 NA
ATOM     11  C   UNL A   1      31.072  24.635  23.973  1.00  0.00     0.093 A 
ATOM     12  C   UNL A   1      30.631  25.867  23.537  1.00  0.00     0.060 A 
ATOM     13  C   UNL A   1      29.351  26.584  23.688  1.00  0.00     0.069 C 
BRANCH  11  14
ATOM     14  N   UNL A   1      30.533  23.825  24.988  1.00  0.00    -0.276 N 
ATOM     15  H   UNL A   1      29.727  23.296  24.786  1.00  0.00     0.180 HD
BRANCH  14  16
ATOM     16  S   UNL A   1      31.214  23.713  26.574  1.00  0.00     0.264 S 
ATOM     17  O   UNL A   1      31.512  25.085  26.928  1.00  0.00    -0.201 OA
ATOM     18  O   UNL A   1      30.269  22.966  27.385  1.00  0.00    -0.201 OA
BRANCH  16  19
ATOM     19  C   UNL A   1      32.778  22.877  26.441  1.00  0.00     0.114 A 
ATOM     20  C   UNL A   1      33.893  23.512  27.023  1.00  0.00     0.024 A 
ATOM     21  C   UNL A   1      32.911  21.642  25.793  1.00  0.00     0.091 A 
ATOM     22  C   UNL A   1      35.172  23.006  26.815  1.00  0.00     0.002 A 
ATOM     23  C   UNL A   1      34.232  21.215  25.495  1.00  0.00     0.002 A 
ATOM     24  N   UNL A   1      31.883  20.850  25.433  1.00  0.00    -0.255 NA
ATOM     25  C   UNL A   1      35.344  21.897  25.999  1.00  0.00     0.010 A 
ATOM     26  C   UNL A   1      34.436  20.098  24.672  1.00  0.00     0.012 A 
ATOM     27  C   UNL A   1      32.140  19.698  24.772  1.00  0.00     0.112 A 
ATOM     28  C   UNL A   1      33.366  19.315  24.301  1.00  0.00     0.021 A 
ENDBRANCH  16  19
ENDBRANCH  14  16
ENDBRANCH  11  14
ENDBRANCH   6   7
ENDBRANCH   3   6
ENDBRANCH   1   2
BRANCH   1  29
ATOM     29  C   UNL A   1      32.929  28.202  26.034  1.00  0.00     0.023 C 
BRANCH  29  30
ATOM     30  C   UNL A   1      33.635  28.449  27.377  1.00  0.00     0.023 C 
BRANCH  30  31
ATOM     31  C   UNL A   1      34.948  29.235  27.302  1.00  0.00     0.116 C 
BRANCH  31  32
ATOM     32  N   UNL A   1      35.167  30.157  28.416  1.00  0.00    -0.352 N 
ATOM     33  C   UNL A   1      36.205  30.147  29.337  1.00  0.00     0.251 C 
ATOM     34  H   UNL A   1      34.498  30.870  28.524  1.00  0.00     0.163 HD
ATOM     35  O   UNL A   1      36.099  30.705  30.421  1.00  0.00    -0.269 OA
BRANCH  33  36
ATOM     36  C   UNL A   1      37.475  29.475  28.982  1.00  0.00     0.039 A 
ATOM     37  C   UNL A   1      38.177  29.758  27.814  1.00  0.00     0.014 A 
ATOM     38  C   UNL A   1      37.952  28.504  29.854  1.00  0.00     0.014 A 
ATOM     39  C   UNL A   1      39.415  29.143  27.607  1.00  0.00     0.010 A 
ATOM     40  C   UNL A   1      39.212  27.963  29.711  1.00  0.00     0.010 A 
ATOM     41  C   UNL A   1      39.953  28.276  28.579  1.00  0.00    -0.014 A 
BRANCH  41  42
ATOM     42  C   UNL A   1      41.369  27.891  28.510  1.00  0.00     0.031 A 
ATOM     43  C   UNL A   1      41.594  26.631  27.750  1.00  0.00     0.074 A 
ATOM     44  C   UNL A   1      42.420  28.671  28.849  1.00  0.00     0.049 A 
ATOM     45  N   UNL A   1      42.016  25.500  28.209  1.00  0.00    -0.248 NA
ATOM     46  C   UNL A   1      41.173  26.579  26.339  1.00  0.00     0.031 C 
ATOM     47  C   UNL A   1      42.383  30.072  29.277  1.00  0.00     0.029 A 
ATOM     48  N   UNL A   1      43.765  28.413  28.773  1.00  0.00    -0.354 N 
ATOM     49  C   UNL A   1      42.138  24.665  27.100  1.00  0.00     0.074 A 
ATOM     50  C   UNL A   1      41.426  25.306  26.028  1.00  0.00     0.031 C 
ATOM     51  C   UNL A   1      43.623  30.602  29.202  1.00  0.00     0.029 A 
ATOM     52  C   UNL A   1      44.568  29.545  28.881  1.00  0.00     0.049 A 
ATOM     53  H   UNL A   1      44.131  27.506  28.655  1.00  0.00     0.167 HD
ATOM     54  C   UNL A   1      43.083  23.686  27.082  1.00  0.00     0.037 A 
ATOM     55  C   UNL A   1      45.911  29.629  28.714  1.00  0.00     0.037 A 
ATOM     56  C   UNL A   1      43.600  23.455  28.409  1.00  0.00     0.049 A 
ATOM     57  C   UNL A   1      46.479  28.279  28.916  1.00  0.00     0.074 A 
ATOM     58  C   UNL A   1      43.147  22.925  29.596  1.00  0.00     0.029 A 
ATOM     59  N   UNL A   1      44.714  24.195  28.692  1.00  0.00    -0.354 N 
ATOM     60  N   UNL A   1      46.513  27.672  30.068  1.00  0.00    -0.248 NA
ATOM     61  C   UNL A   1      46.777  27.442  27.760  1.00  0.00     0.031 C 
ATOM     62  C   UNL A   1      43.919  23.547  30.626  1.00  0.00     0.029 A 
ATOM     63  C   UNL A   1      44.842  24.409  30.034  1.00  0.00     0.049 A 
ATOM     64  H   UNL A   1      45.343  24.532  28.014  1.00  0.00     0.167 HD
ATOM     65  C   UNL A   1      46.372  26.338  29.747  1.00  0.00     0.074 A 
ATOM     66  C   UNL A   1      46.750  26.242  28.344  1.00  0.00     0.031 C 
ATOM     67  C   UNL A   1      45.629  25.512  30.540  1.00  0.00     0.037 A 
BRANCH  54  68
ATOM     68  C   UNL A   1      43.934  23.337  25.870  1.00  0.00     0.057 A 
ATOM     69  C   UNL A   1      44.092  21.977  25.532  1.00  0.00     0.134 A 
ATOM     70  C   UNL A   1      44.864  24.208  25.267  1.00  0.00     0.134 A 
ATOM     71  F   UNL A   1      43.281  21.041  26.046  1.00  0.00    -0.206 F 
ATOM     72  C   UNL A   1      45.149  21.515  24.735  1.00  0.00     0.040 A 
ATOM     73  C   UNL A   1      45.892  23.761  24.429  1.00  0.00     0.040 A 
ATOM     74  F   UNL A   1      44.905  25.518  25.532  1.00  0.00    -0.206 F 
ATOM     75  C   UNL A   1      46.060  22.408  24.189  1.00  0.00     0.006 A 
ENDBRANCH  54  68
BRANCH  55  76
ATOM     76  C   UNL A   1      46.753  30.761  28.261  1.00  0.00     0.057 A 
ATOM     77  C   UNL A   1      46.524  31.388  27.025  1.00  0.00     0.134 A 
ATOM     78  C   UNL A   1      47.613  31.436  29.142  1.00  0.00     0.134 A 
ATOM     79  F   UNL A   1      45.699  30.839  26.122  1.00  0.00    -0.206 F 
ATOM     80  C   UNL A   1      47.077  32.634  26.705  1.00  0.00     0.040 A 
ATOM     81  C   UNL A   1      48.179  32.678  28.830  1.00  0.00     0.040 A 
ATOM     82  F   UNL A   1      47.863  30.958  30.369  1.00  0.00    -0.206 F 
ATOM     83  C   UNL A   1      47.895  33.291  27.617  1.00  0.00     0.006 A 
ENDBRANCH  55  76
BRANCH  67  84
ATOM     84  C   UNL A   1      45.488  25.886  31.983  1.00  0.00     0.057 A 
ATOM     85  C   UNL A   1      46.458  25.666  32.970  1.00  0.00     0.134 A 
ATOM     86  C   UNL A   1      44.319  26.549  32.375  1.00  0.00     0.134 A 
ATOM     87  F   UNL A   1      47.643  25.114  32.675  1.00  0.00    -0.206 F 
ATOM     88  C   UNL A   1      46.247  26.044  34.299  1.00  0.00     0.040 A 
ATOM     89  C   UNL A   1      44.113  26.966  33.689  1.00  0.00     0.040 A 
ATOM     90  F   UNL A   1      43.364  26.826  31.474  1.00  0.00    -0.206 F 
ATOM     91  C   UNL A   1      45.073  26.700  34.661  1.00  0.00     0.006 A 
ENDBRANCH  67  84
ENDBRANCH  41  42
ENDBRANCH  33  36
ENDBRANCH  31  32
ENDBRANCH  30  31
ENDBRANCH  29  30
ENDBRANCH   1  29
TORSDOF 15
ENDMDL
MODEL 3
REMARK VINA RESULT:     -12.4      4.125      9.674
REMARK SMILES Cc1nn(CC(=O)NCCCCNC(=O)c2ccc(-c3c4nc(c(-c5c(F)cccc5F)c5ccc([nH]5)c(-c5c(F)cccc5F)c5nc(c(-c6c(F)cccc6F)c6ccc3[nH]6)C=C5)C=C4)cc2)c(C)c1NS(=O)(=O)c1cccc2cccnc12
REMARK SMILES IDX 9 1 8 2 6 3 7 4 5 6 4 7 1 8 2 9 3 10 72 11 70 12 71 13 73 14
REMARK SMILES IDX 74 16 75 17 76 18 77 19 78 20 86 21 79 22 81 23 85 24 80 25
REMARK SMILES IDX 82 26 84 27 83 28 10 29 11 30 12 31 13 32 14 33 15 35 16 36
REMARK SMILES IDX 17 37 69 38 18 39 68 40 19 41 20 42 21 43 62 44 22 45 67 46
REMARK SMILES IDX 61 47 63 48 23 49 66 50 60 51 59 52 24 54 50 55 33 56 49 57
REMARK SMILES IDX 34 58 37 59 48 60 64 61 35 62 36 63 47 65 65 66 38 67 25 68
REMARK SMILES IDX 26 69 31 70 27 71 28 72 30 73 32 74 29 75 51 76 52 77 57 78
REMARK SMILES IDX 53 79 54 80 56 81 58 82 55 83 39 84 40 85 45 86 41 87 42 88
REMARK SMILES IDX 44 89 46 90 43 91
REMARK H PARENT 8 5 73 15 13 34 63 53 37 64
REMARK Flexibility Score: inf
ROOT
ATOM      1  C   UNL A   1      33.426  33.358  27.890  1.00  0.00     0.116 C 
ENDROOT
BRANCH   1   2
ATOM      2  N   UNL A   1      34.183  32.128  28.017  1.00  0.00    -0.354 N 
ATOM      3  C   UNL A   1      33.967  30.890  27.489  1.00  0.00     0.241 C 
ATOM      4  O   UNL A   1      34.935  30.115  27.515  1.00  0.00    -0.273 OA
ATOM      5  H   UNL A   1      34.990  32.200  28.576  1.00  0.00     0.163 HD
BRANCH   3   6
ATOM      6  C   UNL A   1      32.705  30.466  26.764  1.00  0.00     0.244 C 
BRANCH   6   7
ATOM      7  N   UNL A   1      32.753  29.183  26.092  1.00  0.00    -0.258 N 
ATOM      8  C   UNL A   1      33.604  27.266  23.280  1.00  0.00     0.071 C 
ATOM      9  C   UNL A   1      33.308  27.759  24.648  1.00  0.00     0.084 A 
ATOM     10  N   UNL A   1      33.150  29.081  24.815  1.00  0.00    -0.175 NA
ATOM     11  C   UNL A   1      33.059  27.041  25.865  1.00  0.00     0.093 A 
ATOM     12  C   UNL A   1      32.344  27.972  26.590  1.00  0.00     0.060 A 
ATOM     13  C   UNL A   1      31.280  27.850  27.605  1.00  0.00     0.069 C 
BRANCH  11  14
ATOM     14  N   UNL A   1      33.218  25.669  26.125  1.00  0.00    -0.276 N 
ATOM     15  H   UNL A   1      34.094  25.352  26.445  1.00  0.00     0.180 HD
BRANCH  14  16
ATOM     16  S   UNL A   1      31.952  24.510  25.909  1.00  0.00     0.264 S 
ATOM     17  O   UNL A   1      31.454  24.278  27.249  1.00  0.00    -0.201 OA
ATOM     18  O   UNL A   1      31.052  25.054  24.907  1.00  0.00    -0.201 OA
BRANCH  16  19
ATOM     19  C   UNL A   1      32.691  22.983  25.377  1.00  0.00     0.114 A 
ATOM     20  C   UNL A   1      31.873  21.837  25.395  1.00  0.00     0.024 A 
ATOM     21  C   UNL A   1      34.025  22.907  24.953  1.00  0.00     0.091 A 
ATOM     22  C   UNL A   1      32.423  20.581  25.155  1.00  0.00     0.002 A 
ATOM     23  C   UNL A   1      34.585  21.609  24.832  1.00  0.00     0.002 A 
ATOM     24  N   UNL A   1      34.800  23.971  24.665  1.00  0.00    -0.255 NA
ATOM     25  C   UNL A   1      33.788  20.464  24.939  1.00  0.00     0.010 A 
ATOM     26  C   UNL A   1      35.962  21.460  24.614  1.00  0.00     0.012 A 
ATOM     27  C   UNL A   1      36.087  23.769  24.306  1.00  0.00     0.112 A 
ATOM     28  C   UNL A   1      36.737  22.564  24.340  1.00  0.00     0.021 A 
ENDBRANCH  16  19
ENDBRANCH  14  16
ENDBRANCH  11  14
ENDBRANCH   6   7
ENDBRANCH   3   6
ENDBRANCH   1   2
BRANCH   1  29
ATOM     29  C   UNL A   1      34.002  34.560  28.639  1.00  0.00     0.023 C 
BRANCH  29  30
ATOM     30  C   UNL A   1      33.015  35.716  28.869  1.00  0.00     0.023 C 
BRANCH  30  31
ATOM     31  C   UNL A   1      33.380  36.684  30.000  1.00  0.00     0.116 C 
BRANCH  31  32
ATOM     32  N   UNL A   1      32.536  36.573  31.189  1.00  0.00    -0.352 N 
ATOM     33  C   UNL A   1      32.562  35.585  32.163  1.00  0.00     0.251 C 
ATOM     34  H   UNL A   1      31.870  37.287  31.314  1.00  0.00     0.163 HD
ATOM     35  O   UNL A   1      31.597  35.380  32.887  1.00  0.00    -0.269 OA
BRANCH  33  36
ATOM     36  C   UNL A   1      33.796  34.788  32.345  1.00  0.00     0.039 A 
ATOM     37  C   UNL A   1      33.832  33.406  32.182  1.00  0.00     0.014 A 
ATOM     38  C   UNL A   1      34.948  35.468  32.723  1.00  0.00     0.014 A 
ATOM     39  C   UNL A   1      35.061  32.748  32.283  1.00  0.00     0.010 A 
ATOM     40  C   UNL A   1      36.179  34.848  32.730  1.00  0.00     0.010 A 
ATOM     41  C   UNL A   1      36.244  33.478  32.515  1.00  0.00    -0.014 A 
BRANCH  41  42
ATOM     42  C   UNL A   1      37.549  32.838  32.302  1.00  0.00     0.031 A 
ATOM     43  C   UNL A   1      38.356  32.731  33.550  1.00  0.00     0.074 A 
ATOM     44  C   UNL A   1      37.934  32.171  31.191  1.00  0.00     0.049 A 
ATOM     45  N   UNL A   1      39.463  33.335  33.824  1.00  0.00    -0.248 NA
ATOM     46  C   UNL A   1      37.798  31.968  34.680  1.00  0.00     0.031 C 
ATOM     47  C   UNL A   1      37.122  31.877  30.008  1.00  0.00     0.029 A 
ATOM     48  N   UNL A   1      39.105  31.508  30.927  1.00  0.00    -0.354 N 
ATOM     49  C   UNL A   1      39.862  32.844  35.067  1.00  0.00     0.074 A 
ATOM     50  C   UNL A   1      38.719  32.174  35.624  1.00  0.00     0.031 C 
ATOM     51  C   UNL A   1      37.726  30.921  29.269  1.00  0.00     0.029 A 
ATOM     52  C   UNL A   1      39.039  30.652  29.831  1.00  0.00     0.049 A 
ATOM     53  H   UNL A   1      39.922  31.629  31.463  1.00  0.00     0.167 HD
ATOM     54  C   UNL A   1      41.185  32.758  35.375  1.00  0.00     0.037 A 
ATOM     55  C   UNL A   1      39.981  29.773  29.406  1.00  0.00     0.037 A 
ATOM     56  C   UNL A   1      41.973  33.534  34.450  1.00  0.00     0.049 A 
ATOM     57  C   UNL A   1      41.287  30.211  29.943  1.00  0.00     0.074 A 
ATOM     58  C   UNL A   1      42.180  34.864  34.161  1.00  0.00     0.029 A 
ATOM     59  N   UNL A   1      42.420  32.810  33.379  1.00  0.00    -0.354 N 
ATOM     60  N   UNL A   1      41.906  31.289  29.553  1.00  0.00    -0.248 NA
ATOM     61  C   UNL A   1      41.811  29.593  31.155  1.00  0.00     0.031 C 
ATOM     62  C   UNL A   1      42.581  34.912  32.789  1.00  0.00     0.029 A 
ATOM     63  C   UNL A   1      42.640  33.610  32.295  1.00  0.00     0.049 A 
ATOM     64  H   UNL A   1      42.564  31.837  33.389  1.00  0.00     0.167 HD
ATOM     65  C   UNL A   1      42.561  31.726  30.686  1.00  0.00     0.074 A 
ATOM     66  C   UNL A   1      42.643  30.559  31.552  1.00  0.00     0.031 C 
ATOM     67  C   UNL A   1      42.656  33.060  30.957  1.00  0.00     0.037 A 
BRANCH  54  68
ATOM     68  C   UNL A   1      41.820  31.586  36.108  1.00  0.00     0.057 A 
ATOM     69  C   UNL A   1      42.789  31.859  37.096  1.00  0.00     0.134 A 
ATOM     70  C   UNL A   1      41.797  30.251  35.657  1.00  0.00     0.134 A 
ATOM     71  F   UNL A   1      42.925  33.093  37.603  1.00  0.00    -0.206 F 
ATOM     72  C   UNL A   1      43.720  30.903  37.524  1.00  0.00     0.040 A 
ATOM     73  C   UNL A   1      42.690  29.277  36.116  1.00  0.00     0.040 A 
ATOM     74  F   UNL A   1      40.992  29.833  34.674  1.00  0.00    -0.206 F 
ATOM     75  C   UNL A   1      43.680  29.609  37.025  1.00  0.00     0.006 A 
ENDBRANCH  54  68
BRANCH  55  76
ATOM     76  C   UNL A   1      39.838  28.493  28.673  1.00  0.00     0.057 A 
ATOM     77  C   UNL A   1      40.425  28.310  27.410  1.00  0.00     0.134 A 
ATOM     78  C   UNL A   1      39.370  27.332  29.308  1.00  0.00     0.134 A 
ATOM     79  F   UNL A   1      40.925  29.351  26.730  1.00  0.00    -0.206 F 
ATOM     80  C   UNL A   1      40.581  27.042  26.835  1.00  0.00     0.040 A 
ATOM     81  C   UNL A   1      39.513  26.060  28.740  1.00  0.00     0.040 A 
ATOM     82  F   UNL A   1      38.841  27.380  30.538  1.00  0.00    -0.206 F 
ATOM     83  C   UNL A   1      40.139  25.910  27.509  1.00  0.00     0.006 A 
ENDBRANCH  55  76
BRANCH  67  84
ATOM     84  C   UNL A   1      42.591  34.005  29.798  1.00  0.00     0.057 A 
ATOM     85  C   UNL A   1      43.647  34.272  28.916  1.00  0.00     0.134 A 
ATOM     86  C   UNL A   1      41.369  34.640  29.539  1.00  0.00     0.134 A 
ATOM     87  F   UNL A   1      44.828  33.650  29.033  1.00  0.00    -0.206 F 
ATOM     88  C   UNL A   1      43.505  35.173  27.856  1.00  0.00     0.040 A 
ATOM     89  C   UNL A   1      41.203  35.510  28.462  1.00  0.00     0.040 A 
ATOM     90  F   UNL A   1      40.304  34.400  30.319  1.00  0.00    -0.206 F 
ATOM     91  C   UNL A   1      42.279  35.792  27.624  1.00  0.00     0.006 A 
ENDBRANCH  67  84
ENDBRANCH  41  42
ENDBRANCH  33  36
ENDBRANCH  31  32
ENDBRANCH  30  31
ENDBRANCH  29  30
ENDBRANCH   1  29
TORSDOF 15
ENDMDL
