MODEL 1
REMARK VINA RESULT:     -13.1      0.000      0.000
REMARK SMILES O=C(NCCCCNC(=O)c1cccc(NC(=O)c2ccc(N3C(=O)CCC3=O)cc2)c1)c1ccc(-c2c3nc(c(-c4c(F)cccc4F)c4ccc([nH]4)c(-c4c(F)cccc4F)c4nc(c(-c5c(F)cccc5F)c5ccc2[nH]5)C=C4)C=C3)cc1
REMARK SMILES IDX 6 1 5 2 4 3 3 4 1 5 2 6 33 8 34 9 86 10 35 11 85 12 36 13
REMARK SMILES IDX 37 14 38 15 79 16 39 17 84 18 78 19 80 20 40 21 83 22 77 23
REMARK SMILES IDX 76 24 41 26 67 27 50 28 66 29 51 30 54 31 65 32 81 33 52 34
REMARK SMILES IDX 53 35 64 37 82 38 55 39 42 40 43 41 48 42 44 43 45 44 47 45
REMARK SMILES IDX 49 46 46 47 68 48 69 49 74 50 70 51 71 52 73 53 75 54 72 55
REMARK SMILES IDX 56 56 57 57 62 58 58 59 59 60 61 61 63 62 60 63 7 64 8 65
REMARK SMILES IDX 9 66 10 68 11 69 12 70 32 71 13 72 15 73 14 74 16 75 17 76
REMARK SMILES IDX 18 78 19 79 20 80 31 81 21 82 30 83 22 84 23 85 24 86 28 87
REMARK SMILES IDX 25 88 26 89 27 90 29 91
REMARK H PARENT 3 7 80 25 54 36 8 67 16 77
REMARK Flexibility Score: inf
ROOT
ATOM      1  C   UNL A   1      31.689  30.660  26.131  1.00  0.00     0.023 C 
ENDROOT
BRANCH   1   2
ATOM      2  C   UNL A   1      31.410  32.088  26.591  1.00  0.00     0.023 C 
BRANCH   2   3
ATOM      3  C   UNL A   1      32.571  32.792  27.276  1.00  0.00     0.116 C 
BRANCH   3   4
ATOM      4  N   UNL A   1      32.273  34.163  27.658  1.00  0.00    -0.352 N 
ATOM      5  O   UNL A   1      32.478  36.072  28.849  1.00  0.00    -0.269 OA
ATOM      6  C   UNL A   1      32.925  34.972  28.564  1.00  0.00     0.251 C 
ATOM      7  H   UNL A   1      31.498  34.570  27.208  1.00  0.00     0.163 HD
BRANCH   6   8
ATOM      8  C   UNL A   1      34.158  34.476  29.219  1.00  0.00     0.039 A 
ATOM      9  C   UNL A   1      35.399  34.633  28.602  1.00  0.00     0.014 A 
ATOM     10  C   UNL A   1      34.062  33.820  30.450  1.00  0.00     0.014 A 
ATOM     11  C   UNL A   1      36.510  33.984  29.123  1.00  0.00     0.010 A 
ATOM     12  C   UNL A   1      35.205  33.253  31.025  1.00  0.00     0.010 A 
ATOM     13  C   UNL A   1      36.431  33.296  30.347  1.00  0.00    -0.014 A 
BRANCH  13  14
ATOM     14  C   UNL A   1      37.668  32.691  30.903  1.00  0.00     0.031 A 
ATOM     15  C   UNL A   1      38.260  33.159  32.204  1.00  0.00     0.074 A 
ATOM     16  C   UNL A   1      38.219  31.651  30.246  1.00  0.00     0.049 A 
ATOM     17  N   UNL A   1      39.288  32.676  32.857  1.00  0.00    -0.248 NA
ATOM     18  C   UNL A   1      37.627  34.316  32.854  1.00  0.00     0.031 C 
ATOM     19  C   UNL A   1      37.746  31.125  28.961  1.00  0.00     0.029 A 
ATOM     20  N   UNL A   1      39.263  30.829  30.577  1.00  0.00    -0.354 N 
ATOM     21  C   UNL A   1      39.432  33.473  33.987  1.00  0.00     0.074 A 
ATOM     22  C   UNL A   1      38.404  34.491  33.915  1.00  0.00     0.031 C 
ATOM     23  C   UNL A   1      38.455  30.033  28.647  1.00  0.00     0.029 A 
ATOM     24  C   UNL A   1      39.469  29.816  29.672  1.00  0.00     0.049 A 
ATOM     25  H   UNL A   1      39.813  30.952  31.384  1.00  0.00     0.167 HD
ATOM     26  C   UNL A   1      40.333  33.360  34.993  1.00  0.00     0.037 A 
ATOM     27  C   UNL A   1      40.376  28.824  29.661  1.00  0.00     0.037 A 
ATOM     28  C   UNL A   1      41.349  32.340  35.065  1.00  0.00     0.049 A 
ATOM     29  C   UNL A   1      41.352  28.717  30.793  1.00  0.00     0.074 A 
ATOM     30  C   UNL A   1      42.305  32.140  36.048  1.00  0.00     0.029 A 
ATOM     31  N   UNL A   1      41.538  31.344  34.119  1.00  0.00    -0.354 N 
ATOM     32  N   UNL A   1      41.464  29.472  31.859  1.00  0.00    -0.248 NA
ATOM     33  C   UNL A   1      42.330  27.624  30.721  1.00  0.00     0.031 C 
ATOM     34  C   UNL A   1      43.091  31.042  35.680  1.00  0.00     0.029 A 
ATOM     35  C   UNL A   1      42.600  30.533  34.489  1.00  0.00     0.049 A 
ATOM     36  H   UNL A   1      40.998  31.229  33.304  1.00  0.00     0.167 HD
ATOM     37  C   UNL A   1      42.522  28.946  32.585  1.00  0.00     0.074 A 
ATOM     38  C   UNL A   1      42.994  27.787  31.857  1.00  0.00     0.031 C 
ATOM     39  C   UNL A   1      43.062  29.391  33.746  1.00  0.00     0.037 A 
BRANCH  26  40
ATOM     40  C   UNL A   1      40.266  34.367  36.105  1.00  0.00     0.057 A 
ATOM     41  C   UNL A   1      40.953  35.586  36.037  1.00  0.00     0.134 A 
ATOM     42  C   UNL A   1      39.460  34.142  37.228  1.00  0.00     0.134 A 
ATOM     43  F   UNL A   1      41.751  35.858  34.993  1.00  0.00    -0.206 F 
ATOM     44  C   UNL A   1      40.851  36.540  37.052  1.00  0.00     0.040 A 
ATOM     45  C   UNL A   1      39.333  35.097  38.239  1.00  0.00     0.040 A 
ATOM     46  F   UNL A   1      38.769  32.999  37.354  1.00  0.00    -0.206 F 
ATOM     47  C   UNL A   1      40.032  36.299  38.153  1.00  0.00     0.006 A 
ENDBRANCH  26  40
BRANCH  27  48
ATOM     48  C   UNL A   1      40.399  27.860  28.533  1.00  0.00     0.057 A 
ATOM     49  C   UNL A   1      41.112  28.129  27.361  1.00  0.00     0.134 A 
ATOM     50  C   UNL A   1      39.715  26.641  28.610  1.00  0.00     0.134 A 
ATOM     51  F   UNL A   1      41.773  29.287  27.222  1.00  0.00    -0.206 F 
ATOM     52  C   UNL A   1      41.134  27.224  26.298  1.00  0.00     0.040 A 
ATOM     53  C   UNL A   1      39.751  25.715  27.568  1.00  0.00     0.040 A 
ATOM     54  F   UNL A   1      39.022  26.321  29.713  1.00  0.00    -0.206 F 
ATOM     55  C   UNL A   1      40.457  26.010  26.404  1.00  0.00     0.006 A 
ENDBRANCH  27  48
BRANCH  39  56
ATOM     56  C   UNL A   1      44.219  28.609  34.291  1.00  0.00     0.057 A 
ATOM     57  C   UNL A   1      44.028  27.512  35.142  1.00  0.00     0.134 A 
ATOM     58  C   UNL A   1      45.535  28.954  33.962  1.00  0.00     0.134 A 
ATOM     59  F   UNL A   1      42.791  27.142  35.506  1.00  0.00    -0.206 F 
ATOM     60  C   UNL A   1      45.107  26.804  35.671  1.00  0.00     0.040 A 
ATOM     61  C   UNL A   1      46.622  28.238  34.466  1.00  0.00     0.040 A 
ATOM     62  F   UNL A   1      45.785  29.990  33.147  1.00  0.00    -0.206 F 
ATOM     63  C   UNL A   1      46.410  27.165  35.330  1.00  0.00     0.006 A 
ENDBRANCH  39  56
ENDBRANCH  13  14
ENDBRANCH   6   8
ENDBRANCH   3   4
ENDBRANCH   2   3
ENDBRANCH   1   2
BRANCH   1  64
ATOM     64  C   UNL A   1      32.167  29.705  27.220  1.00  0.00     0.116 C 
BRANCH  64  65
ATOM     65  N   UNL A   1      33.289  28.883  26.793  1.00  0.00    -0.352 N 
ATOM     66  C   UNL A   1      33.307  27.676  26.143  1.00  0.00     0.251 C 
ATOM     67  H   UNL A   1      34.177  29.252  27.003  1.00  0.00     0.163 HD
ATOM     68  O   UNL A   1      34.363  27.063  26.021  1.00  0.00    -0.269 OA
BRANCH  66  69
ATOM     69  C   UNL A   1      32.060  27.097  25.607  1.00  0.00     0.041 A 
ATOM     70  C   UNL A   1      31.640  27.490  24.337  1.00  0.00     0.014 A 
ATOM     71  C   UNL A   1      31.297  26.196  26.360  1.00  0.00     0.040 A 
ATOM     72  C   UNL A   1      30.466  26.959  23.817  1.00  0.00     0.003 A 
ATOM     73  C   UNL A   1      30.164  25.589  25.811  1.00  0.00     0.042 A 
ATOM     74  C   UNL A   1      29.734  26.020  24.553  1.00  0.00     0.026 A 
BRANCH  73  75
ATOM     75  N   UNL A   1      29.564  24.577  26.588  1.00  0.00    -0.322 N 
ATOM     76  C   UNL A   1      29.966  23.319  26.976  1.00  0.00     0.255 C 
ATOM     77  H   UNL A   1      28.672  24.822  26.925  1.00  0.00     0.170 HD
ATOM     78  O   UNL A   1      29.208  22.597  27.618  1.00  0.00    -0.269 OA
BRANCH  76  79
ATOM     79  C   UNL A   1      31.304  22.816  26.649  1.00  0.00     0.040 A 
ATOM     80  C   UNL A   1      31.578  22.495  25.324  1.00  0.00     0.016 A 
ATOM     81  C   UNL A   1      32.300  22.735  27.623  1.00  0.00     0.016 A 
ATOM     82  C   UNL A   1      32.892  22.214  24.949  1.00  0.00     0.027 A 
ATOM     83  C   UNL A   1      33.613  22.437  27.236  1.00  0.00     0.027 A 
ATOM     84  C   UNL A   1      33.943  22.226  25.885  1.00  0.00     0.052 A 
BRANCH  84  85
ATOM     85  N   UNL A   1      35.298  22.079  25.460  1.00  0.00    -0.251 N 
ATOM     86  C   UNL A   1      36.211  23.104  25.371  1.00  0.00     0.234 C 
ATOM     87  C   UNL A   1      35.831  20.891  25.005  1.00  0.00     0.234 C 
ATOM     88  O   UNL A   1      36.072  24.289  25.640  1.00  0.00    -0.274 OA
ATOM     89  C   UNL A   1      37.532  22.547  24.930  1.00  0.00     0.111 C 
ATOM     90  C   UNL A   1      37.241  21.117  24.559  1.00  0.00     0.111 C 
ATOM     91  O   UNL A   1      35.286  19.803  24.866  1.00  0.00    -0.274 OA
ENDBRANCH  84  85
ENDBRANCH  76  79
ENDBRANCH  73  75
ENDBRANCH  66  69
ENDBRANCH  64  65
ENDBRANCH   1  64
TORSDOF 14
ENDMDL
MODEL 2
REMARK VINA RESULT:     -13.0      0.823      1.914
REMARK SMILES O=C(NCCCCNC(=O)c1cccc(NC(=O)c2ccc(N3C(=O)CCC3=O)cc2)c1)c1ccc(-c2c3nc(c(-c4c(F)cccc4F)c4ccc([nH]4)c(-c4c(F)cccc4F)c4nc(c(-c5c(F)cccc5F)c5ccc2[nH]5)C=C4)C=C3)cc1
REMARK SMILES IDX 6 1 5 2 4 3 3 4 1 5 2 6 33 8 34 9 86 10 35 11 85 12 36 13
REMARK SMILES IDX 37 14 38 15 79 16 39 17 84 18 78 19 80 20 40 21 83 22 77 23
REMARK SMILES IDX 76 24 41 26 67 27 50 28 66 29 51 30 54 31 65 32 81 33 52 34
REMARK SMILES IDX 53 35 64 37 82 38 55 39 42 40 43 41 48 42 44 43 45 44 47 45
REMARK SMILES IDX 49 46 46 47 68 48 69 49 74 50 70 51 71 52 73 53 75 54 72 55
REMARK SMILES IDX 56 56 57 57 62 58 58 59 59 60 61 61 63 62 60 63 7 64 8 65
REMARK SMILES IDX 9 66 10 68 11 69 12 70 32 71 13 72 15 73 14 74 16 75 17 76
REMARK SMILES IDX 18 78 19 79 20 80 31 81 21 82 30 83 22 84 23 85 24 86 28 87
REMARK SMILES IDX 25 88 26 89 27 90 29 91
REMARK H PARENT 3 7 80 25 54 36 8 67 16 77
REMARK Flexibility Score: inf
ROOT
ATOM      1  C   UNL A   1      31.218  30.864  25.861  1.00  0.00     0.023 C 
ENDROOT
BRANCH   1   2
ATOM      2  C   UNL A   1      31.139  32.277  26.431  1.00  0.00     0.023 C 
BRANCH   2   3
ATOM      3  C   UNL A   1      32.425  32.805  27.048  1.00  0.00     0.116 C 
BRANCH   3   4
ATOM      4  N   UNL A   1      32.266  34.094  27.703  1.00  0.00    -0.352 N 
ATOM      5  O   UNL A   1      32.730  35.734  29.186  1.00  0.00    -0.269 OA
ATOM      6  C   UNL A   1      33.066  34.685  28.658  1.00  0.00     0.251 C 
ATOM      7  H   UNL A   1      31.479  34.616  27.426  1.00  0.00     0.163 HD
BRANCH   6   8
ATOM      8  C   UNL A   1      34.322  34.014  29.066  1.00  0.00     0.039 A 
ATOM      9  C   UNL A   1      34.302  32.988  30.010  1.00  0.00     0.014 A 
ATOM     10  C   UNL A   1      35.535  34.442  28.517  1.00  0.00     0.014 A 
ATOM     11  C   UNL A   1      35.497  32.514  30.533  1.00  0.00     0.010 A 
ATOM     12  C   UNL A   1      36.736  33.890  28.974  1.00  0.00     0.010 A 
ATOM     13  C   UNL A   1      36.729  32.949  30.015  1.00  0.00    -0.014 A 
BRANCH  13  14
ATOM     14  C   UNL A   1      37.978  32.350  30.551  1.00  0.00     0.031 A 
ATOM     15  C   UNL A   1      38.610  32.847  31.822  1.00  0.00     0.074 A 
ATOM     16  C   UNL A   1      38.502  31.289  29.906  1.00  0.00     0.049 A 
ATOM     17  N   UNL A   1      39.654  32.374  32.457  1.00  0.00    -0.248 NA
ATOM     18  C   UNL A   1      38.004  34.025  32.460  1.00  0.00     0.031 C 
ATOM     19  C   UNL A   1      37.989  30.733  28.650  1.00  0.00     0.029 A 
ATOM     20  N   UNL A   1      39.551  30.468  30.228  1.00  0.00    -0.354 N 
ATOM     21  C   UNL A   1      39.836  33.199  33.561  1.00  0.00     0.074 A 
ATOM     22  C   UNL A   1      38.813  34.222  33.493  1.00  0.00     0.031 C 
ATOM     23  C   UNL A   1      38.682  29.628  28.343  1.00  0.00     0.029 A 
ATOM     24  C   UNL A   1      39.723  29.431  29.344  1.00  0.00     0.049 A 
ATOM     25  H   UNL A   1      40.124  30.609  31.015  1.00  0.00     0.167 HD
ATOM     26  C   UNL A   1      40.764  33.105  34.543  1.00  0.00     0.037 A 
ATOM     27  C   UNL A   1      40.623  28.432  29.334  1.00  0.00     0.037 A 
ATOM     28  C   UNL A   1      41.776  32.080  34.613  1.00  0.00     0.049 A 
ATOM     29  C   UNL A   1      41.632  28.347  30.439  1.00  0.00     0.074 A 
ATOM     30  C   UNL A   1      42.758  31.899  35.573  1.00  0.00     0.029 A 
ATOM     31  N   UNL A   1      41.930  31.059  33.688  1.00  0.00    -0.354 N 
ATOM     32  N   UNL A   1      41.779  29.129  31.482  1.00  0.00    -0.248 NA
ATOM     33  C   UNL A   1      42.600  27.246  30.368  1.00  0.00     0.031 C 
ATOM     34  C   UNL A   1      43.526  30.786  35.211  1.00  0.00     0.029 A 
ATOM     35  C   UNL A   1      42.998  30.250  34.049  1.00  0.00     0.049 A 
ATOM     36  H   UNL A   1      41.366  30.926  32.893  1.00  0.00     0.167 HD
ATOM     37  C   UNL A   1      42.854  28.615  32.190  1.00  0.00     0.074 A 
ATOM     38  C   UNL A   1      43.298  27.433  31.479  1.00  0.00     0.031 C 
ATOM     39  C   UNL A   1      43.430  29.085  33.323  1.00  0.00     0.037 A 
BRANCH  26  40
ATOM     40  C   UNL A   1      40.737  34.142  35.630  1.00  0.00     0.057 A 
ATOM     41  C   UNL A   1      39.970  33.973  36.789  1.00  0.00     0.134 A 
ATOM     42  C   UNL A   1      41.531  35.292  35.544  1.00  0.00     0.134 A 
ATOM     43  F   UNL A   1      39.178  32.898  36.930  1.00  0.00    -0.206 F 
ATOM     44  C   UNL A   1      39.983  34.917  37.819  1.00  0.00     0.040 A 
ATOM     45  C   UNL A   1      41.570  36.233  36.576  1.00  0.00     0.040 A 
ATOM     46  F   UNL A   1      42.296  35.513  34.464  1.00  0.00    -0.206 F 
ATOM     47  C   UNL A   1      40.792  36.047  37.716  1.00  0.00     0.006 A 
ENDBRANCH  26  40
BRANCH  27  48
ATOM     48  C   UNL A   1      40.607  27.439  28.231  1.00  0.00     0.057 A 
ATOM     49  C   UNL A   1      39.846  26.269  28.317  1.00  0.00     0.134 A 
ATOM     50  C   UNL A   1      41.345  27.648  27.059  1.00  0.00     0.134 A 
ATOM     51  F   UNL A   1      39.131  26.006  29.420  1.00  0.00    -0.206 F 
ATOM     52  C   UNL A   1      39.830  25.333  27.280  1.00  0.00     0.040 A 
ATOM     53  C   UNL A   1      41.316  26.736  26.005  1.00  0.00     0.040 A 
ATOM     54  F   UNL A   1      42.086  28.757  26.914  1.00  0.00    -0.206 F 
ATOM     55  C   UNL A   1      40.561  25.570  26.118  1.00  0.00     0.006 A 
ENDBRANCH  27  48
BRANCH  39  56
ATOM     56  C   UNL A   1      44.597  28.309  33.854  1.00  0.00     0.057 A 
ATOM     57  C   UNL A   1      45.909  28.580  33.440  1.00  0.00     0.134 A 
ATOM     58  C   UNL A   1      44.410  27.283  34.788  1.00  0.00     0.134 A 
ATOM     59  F   UNL A   1      46.151  29.540  32.536  1.00  0.00    -0.206 F 
ATOM     60  C   UNL A   1      46.989  27.836  33.915  1.00  0.00     0.040 A 
ATOM     61  C   UNL A   1      45.486  26.548  35.287  1.00  0.00     0.040 A 
ATOM     62  F   UNL A   1      43.180  26.979  35.229  1.00  0.00    -0.206 F 
ATOM     63  C   UNL A   1      46.780  26.819  34.844  1.00  0.00     0.006 A 
ENDBRANCH  39  56
ENDBRANCH  13  14
ENDBRANCH   6   8
ENDBRANCH   3   4
ENDBRANCH   2   3
ENDBRANCH   1   2
BRANCH   1  64
ATOM     64  C   UNL A   1      31.993  29.860  26.709  1.00  0.00     0.116 C 
BRANCH  64  65
ATOM     65  N   UNL A   1      33.009  29.147  25.948  1.00  0.00    -0.352 N 
ATOM     66  C   UNL A   1      32.920  27.991  25.218  1.00  0.00     0.251 C 
ATOM     67  H   UNL A   1      33.902  29.562  25.959  1.00  0.00     0.163 HD
ATOM     68  O   UNL A   1      33.938  27.462  24.784  1.00  0.00    -0.269 OA
BRANCH  66  69
ATOM     69  C   UNL A   1      31.608  27.365  24.965  1.00  0.00     0.041 A 
ATOM     70  C   UNL A   1      30.933  27.692  23.789  1.00  0.00     0.014 A 
ATOM     71  C   UNL A   1      31.034  26.486  25.891  1.00  0.00     0.040 A 
ATOM     72  C   UNL A   1      29.694  27.116  23.536  1.00  0.00     0.003 A 
ATOM     73  C   UNL A   1      29.831  25.833  25.604  1.00  0.00     0.042 A 
ATOM     74  C   UNL A   1      29.148  26.198  24.441  1.00  0.00     0.026 A 
BRANCH  73  75
ATOM     75  N   UNL A   1      29.426  24.847  26.527  1.00  0.00    -0.322 N 
ATOM     76  C   UNL A   1      29.968  23.647  26.929  1.00  0.00     0.255 C 
ATOM     77  H   UNL A   1      28.578  25.061  26.979  1.00  0.00     0.170 HD
ATOM     78  O   UNL A   1      29.365  22.930  27.723  1.00  0.00    -0.269 OA
BRANCH  76  79
ATOM     79  C   UNL A   1      31.275  23.203  26.435  1.00  0.00     0.040 A 
ATOM     80  C   UNL A   1      31.322  22.528  25.220  1.00  0.00     0.016 A 
ATOM     81  C   UNL A   1      32.448  23.516  27.122  1.00  0.00     0.016 A 
ATOM     82  C   UNL A   1      32.560  22.277  24.627  1.00  0.00     0.027 A 
ATOM     83  C   UNL A   1      33.686  23.245  26.524  1.00  0.00     0.027 A 
ATOM     84  C   UNL A   1      33.763  22.672  25.242  1.00  0.00     0.052 A 
BRANCH  84  85
ATOM     85  N   UNL A   1      35.008  22.538  24.556  1.00  0.00    -0.251 N 
ATOM     86  C   UNL A   1      36.042  21.719  24.953  1.00  0.00     0.234 C 
ATOM     87  C   UNL A   1      35.355  23.284  23.449  1.00  0.00     0.234 C 
ATOM     88  O   UNL A   1      36.104  20.962  25.911  1.00  0.00    -0.274 OA
ATOM     89  C   UNL A   1      37.157  21.821  23.955  1.00  0.00     0.111 C 
ATOM     90  C   UNL A   1      36.757  22.952  23.045  1.00  0.00     0.111 C 
ATOM     91  O   UNL A   1      34.720  24.163  22.880  1.00  0.00    -0.274 OA
ENDBRANCH  84  85
ENDBRANCH  76  79
ENDBRANCH  73  75
ENDBRANCH  66  69
ENDBRANCH  64  65
ENDBRANCH   1  64
TORSDOF 14
ENDMDL
MODEL 3
REMARK VINA RESULT:     -12.7      1.188      1.850
REMARK SMILES O=C(NCCCCNC(=O)c1cccc(NC(=O)c2ccc(N3C(=O)CCC3=O)cc2)c1)c1ccc(-c2c3nc(c(-c4c(F)cccc4F)c4ccc([nH]4)c(-c4c(F)cccc4F)c4nc(c(-c5c(F)cccc5F)c5ccc2[nH]5)C=C4)C=C3)cc1
REMARK SMILES IDX 6 1 5 2 4 3 3 4 1 5 2 6 33 8 34 9 86 10 35 11 85 12 36 13
REMARK SMILES IDX 37 14 38 15 79 16 39 17 84 18 78 19 80 20 40 21 83 22 77 23
REMARK SMILES IDX 76 24 41 26 67 27 50 28 66 29 51 30 54 31 65 32 81 33 52 34
REMARK SMILES IDX 53 35 64 37 82 38 55 39 42 40 43 41 48 42 44 43 45 44 47 45
REMARK SMILES IDX 49 46 46 47 68 48 69 49 74 50 70 51 71 52 73 53 75 54 72 55
REMARK SMILES IDX 56 56 57 57 62 58 58 59 59 60 61 61 63 62 60 63 7 64 8 65
REMARK SMILES IDX 9 66 10 68 11 69 12 70 32 71 13 72 15 73 14 74 16 75 17 76
REMARK SMILES IDX 18 78 19 79 20 80 31 81 21 82 30 83 22 84 23 85 24 86 28 87
REMARK SMILES IDX 25 88 26 89 27 90 29 91
REMARK H PARENT 3 7 80 25 54 36 8 67 16 77
REMARK Flexibility Score: inf
ROOT
ATOM      1  C   UNL A   1      31.661  30.427  26.589  1.00  0.00     0.023 C 
ENDROOT
BRANCH   1   2
ATOM      2  C   UNL A   1      31.433  31.921  26.799  1.00  0.00     0.023 C 
BRANCH   2   3
ATOM      3  C   UNL A   1      32.655  32.711  27.242  1.00  0.00     0.116 C 
BRANCH   3   4
ATOM      4  N   UNL A   1      32.350  34.078  27.634  1.00  0.00    -0.352 N 
ATOM      5  O   UNL A   1      32.528  35.971  28.854  1.00  0.00    -0.269 OA
ATOM      6  C   UNL A   1      32.980  34.874  28.567  1.00  0.00     0.251 C 
ATOM      7  H   UNL A   1      31.588  34.493  27.168  1.00  0.00     0.163 HD
BRANCH   6   8
ATOM      8  C   UNL A   1      34.194  34.367  29.248  1.00  0.00     0.039 A 
ATOM      9  C   UNL A   1      35.460  34.621  28.721  1.00  0.00     0.014 A 
ATOM     10  C   UNL A   1      34.057  33.600  30.409  1.00  0.00     0.014 A 
ATOM     11  C   UNL A   1      36.566  33.969  29.248  1.00  0.00     0.010 A 
ATOM     12  C   UNL A   1      35.188  33.026  31.000  1.00  0.00     0.010 A 
ATOM     13  C   UNL A   1      36.448  33.173  30.401  1.00  0.00    -0.014 A 
BRANCH  13  14
ATOM     14  C   UNL A   1      37.675  32.566  30.974  1.00  0.00     0.031 A 
ATOM     15  C   UNL A   1      38.259  33.043  32.276  1.00  0.00     0.074 A 
ATOM     16  C   UNL A   1      38.225  31.515  30.333  1.00  0.00     0.049 A 
ATOM     17  N   UNL A   1      39.278  32.561  32.943  1.00  0.00    -0.248 NA
ATOM     18  C   UNL A   1      37.628  34.210  32.909  1.00  0.00     0.031 C 
ATOM     19  C   UNL A   1      37.760  30.979  29.050  1.00  0.00     0.029 A 
ATOM     20  N   UNL A   1      39.261  30.690  30.682  1.00  0.00    -0.354 N 
ATOM     21  C   UNL A   1      39.417  33.368  34.066  1.00  0.00     0.074 A 
ATOM     22  C   UNL A   1      38.397  34.392  33.975  1.00  0.00     0.031 C 
ATOM     23  C   UNL A   1      38.465  29.879  28.753  1.00  0.00     0.029 A 
ATOM     24  C   UNL A   1      39.468  29.667  29.789  1.00  0.00     0.049 A 
ATOM     25  H   UNL A   1      39.804  30.818  31.492  1.00  0.00     0.167 HD
ATOM     26  C   UNL A   1      40.308  33.259  35.081  1.00  0.00     0.037 A 
ATOM     27  C   UNL A   1      40.369  28.668  29.797  1.00  0.00     0.037 A 
ATOM     28  C   UNL A   1      41.317  32.233  35.172  1.00  0.00     0.049 A 
ATOM     29  C   UNL A   1      41.334  28.567  30.938  1.00  0.00     0.074 A 
ATOM     30  C   UNL A   1      42.263  32.038  36.166  1.00  0.00     0.029 A 
ATOM     31  N   UNL A   1      41.507  31.227  34.239  1.00  0.00    -0.354 N 
ATOM     32  N   UNL A   1      41.442  29.332  31.998  1.00  0.00    -0.248 NA
ATOM     33  C   UNL A   1      42.305  27.467  30.887  1.00  0.00     0.031 C 
ATOM     34  C   UNL A   1      43.045  30.931  35.816  1.00  0.00     0.029 A 
ATOM     35  C   UNL A   1      42.561  30.413  34.627  1.00  0.00     0.049 A 
ATOM     36  H   UNL A   1      40.974  31.107  33.420  1.00  0.00     0.167 HD
ATOM     37  C   UNL A   1      42.490  28.807  32.738  1.00  0.00     0.074 A 
ATOM     38  C   UNL A   1      42.961  27.637  32.026  1.00  0.00     0.031 C 
ATOM     39  C   UNL A   1      43.022  29.260  33.900  1.00  0.00     0.037 A 
BRANCH  26  40
ATOM     40  C   UNL A   1      40.238  34.278  36.182  1.00  0.00     0.057 A 
ATOM     41  C   UNL A   1      40.944  35.486  36.114  1.00  0.00     0.134 A 
ATOM     42  C   UNL A   1      39.411  34.076  37.294  1.00  0.00     0.134 A 
ATOM     43  F   UNL A   1      41.763  35.737  35.080  1.00  0.00    -0.206 F 
ATOM     44  C   UNL A   1      40.839  36.451  37.118  1.00  0.00     0.040 A 
ATOM     45  C   UNL A   1      39.281  35.043  38.294  1.00  0.00     0.040 A 
ATOM     46  F   UNL A   1      38.701  32.944  37.419  1.00  0.00    -0.206 F 
ATOM     47  C   UNL A   1      39.999  36.234  38.208  1.00  0.00     0.006 A 
ENDBRANCH  26  40
BRANCH  27  48
ATOM     48  C   UNL A   1      40.395  27.693  28.679  1.00  0.00     0.057 A 
ATOM     49  C   UNL A   1      39.645  26.513  28.725  1.00  0.00     0.134 A 
ATOM     50  C   UNL A   1      41.163  27.928  27.532  1.00  0.00     0.134 A 
ATOM     51  F   UNL A   1      38.903  26.225  29.803  1.00  0.00    -0.206 F 
ATOM     52  C   UNL A   1      39.669  25.594  27.674  1.00  0.00     0.040 A 
ATOM     53  C   UNL A   1      41.175  27.033  26.464  1.00  0.00     0.040 A 
ATOM     54  F   UNL A   1      41.895  29.047  27.425  1.00  0.00    -0.206 F 
ATOM     55  C   UNL A   1      40.431  25.858  26.536  1.00  0.00     0.006 A 
ENDBRANCH  27  48
BRANCH  39  56
ATOM     56  C   UNL A   1      44.169  28.476  34.462  1.00  0.00     0.057 A 
ATOM     57  C   UNL A   1      45.498  28.790  34.148  1.00  0.00     0.134 A 
ATOM     58  C   UNL A   1      43.944  27.397  35.326  1.00  0.00     0.134 A 
ATOM     59  F   UNL A   1      45.777  29.802  33.314  1.00  0.00    -0.206 F 
ATOM     60  C   UNL A   1      46.561  28.040  34.650  1.00  0.00     0.040 A 
ATOM     61  C   UNL A   1      45.001  26.655  35.853  1.00  0.00     0.040 A 
ATOM     62  F   UNL A   1      42.695  27.049  35.671  1.00  0.00    -0.206 F 
ATOM     63  C   UNL A   1      46.314  26.970  35.509  1.00  0.00     0.006 A 
ENDBRANCH  39  56
ENDBRANCH  13  14
ENDBRANCH   6   8
ENDBRANCH   3   4
ENDBRANCH   2   3
ENDBRANCH   1   2
BRANCH   1  64
ATOM     64  C   UNL A   1      31.837  29.991  25.138  1.00  0.00     0.116 C 
BRANCH  64  65
ATOM     65  N   UNL A   1      30.690  30.323  24.308  1.00  0.00    -0.352 N 
ATOM     66  C   UNL A   1      29.938  29.533  23.477  1.00  0.00     0.251 C 
ATOM     67  H   UNL A   1      30.407  31.265  24.349  1.00  0.00     0.163 HD
ATOM     68  O   UNL A   1      29.109  30.045  22.731  1.00  0.00    -0.269 OA
BRANCH  66  69
ATOM     69  C   UNL A   1      30.133  28.070  23.458  1.00  0.00     0.041 A 
ATOM     70  C   UNL A   1      30.812  27.505  22.380  1.00  0.00     0.014 A 
ATOM     71  C   UNL A   1      29.626  27.259  24.481  1.00  0.00     0.040 A 
ATOM     72  C   UNL A   1      31.001  26.130  22.342  1.00  0.00     0.003 A 
ATOM     73  C   UNL A   1      29.889  25.886  24.498  1.00  0.00     0.042 A 
ATOM     74  C   UNL A   1      30.537  25.329  23.393  1.00  0.00     0.026 A 
BRANCH  73  75
ATOM     75  N   UNL A   1      29.476  25.190  25.653  1.00  0.00    -0.322 N 
ATOM     76  C   UNL A   1      30.052  24.200  26.417  1.00  0.00     0.255 C 
ATOM     77  H   UNL A   1      28.592  25.471  25.982  1.00  0.00     0.170 HD
ATOM     78  O   UNL A   1      29.437  23.710  27.361  1.00  0.00    -0.269 OA
BRANCH  76  79
ATOM     79  C   UNL A   1      31.408  23.718  26.137  1.00  0.00     0.040 A 
ATOM     80  C   UNL A   1      31.549  22.539  25.414  1.00  0.00     0.016 A 
ATOM     81  C   UNL A   1      32.527  24.460  26.515  1.00  0.00     0.016 A 
ATOM     82  C   UNL A   1      32.813  22.167  24.956  1.00  0.00     0.027 A 
ATOM     83  C   UNL A   1      33.794  24.068  26.062  1.00  0.00     0.027 A 
ATOM     84  C   UNL A   1      33.952  22.946  25.228  1.00  0.00     0.052 A 
BRANCH  84  85
ATOM     85  N   UNL A   1      35.210  22.629  24.632  1.00  0.00    -0.251 N 
ATOM     86  C   UNL A   1      35.644  23.097  23.413  1.00  0.00     0.234 C 
ATOM     87  C   UNL A   1      36.113  21.741  25.179  1.00  0.00     0.234 C 
ATOM     88  O   UNL A   1      35.086  23.855  22.632  1.00  0.00    -0.274 OA
ATOM     89  C   UNL A   1      37.028  22.578  23.153  1.00  0.00     0.111 C 
ATOM     90  C   UNL A   1      37.275  21.579  24.251  1.00  0.00     0.111 C 
ATOM     91  O   UNL A   1      36.018  21.077  26.204  1.00  0.00    -0.274 OA
ENDBRANCH  84  85
ENDBRANCH  76  79
ENDBRANCH  73  75
ENDBRANCH  66  69
ENDBRANCH  64  65
ENDBRANCH   1  64
TORSDOF 14
ENDMDL
