MODEL 1
REMARK VINA RESULT:     -12.8      0.000      0.000
REMARK SMILES O=C(NCCCCNC(=O)c1ccc(-c2c3nc(c(-c4c(F)cccc4F)c4ccc([nH]4)c(-c4c(F)cccc4F)c4nc(c(-c5c(F)cccc5F)c5ccc2[nH]5)C=C4)C=C3)cc1)C1=Cc2cc(S(F)(F)(F)(F)F)cc(Br)c2O[C@H]1C(F)(F)F
REMARK SMILES IDX 6 1 5 2 4 3 3 4 1 5 2 6 65 8 66 9 81 10 67 11 80 12 68 13
REMARK SMILES IDX 79 14 69 15 77 16 76 17 78 18 82 19 83 20 84 21 85 22 70 23
REMARK SMILES IDX 71 24 72 25 73 26 74 27 75 28 7 29 8 30 9 31 10 33 11 34
REMARK SMILES IDX 12 35 64 36 13 37 63 38 14 39 15 40 16 41 57 42 17 43 62 44
REMARK SMILES IDX 56 45 58 46 18 47 61 48 55 49 54 50 19 52 45 53 28 54 44 55
REMARK SMILES IDX 29 56 32 57 43 58 59 59 30 60 31 61 42 63 60 64 33 65 20 66
REMARK SMILES IDX 21 67 26 68 22 69 23 70 25 71 27 72 24 73 46 74 47 75 52 76
REMARK SMILES IDX 48 77 49 78 51 79 53 80 50 81 34 82 35 83 40 84 36 85 37 86
REMARK SMILES IDX 39 87 41 88 38 89
REMARK H PARENT 3 7 8 32 58 51 32 62
REMARK Flexibility Score: inf
ROOT
ATOM      1  C   UNL A   1      33.425  29.015  26.353  1.00  0.00     0.023 C 
ENDROOT
BRANCH   1   2
ATOM      2  C   UNL A   1      32.410  28.049  26.942  1.00  0.00     0.023 C 
BRANCH   2   3
ATOM      3  C   UNL A   1      32.808  26.623  26.593  1.00  0.00     0.116 C 
BRANCH   3   4
ATOM      4  N   UNL A   1      31.632  25.894  26.097  1.00  0.00    -0.352 N 
ATOM      5  O   UNL A   1      30.401  25.111  24.222  1.00  0.00    -0.270 OA
ATOM      6  C   UNL A   1      31.417  25.742  24.651  1.00  0.00     0.251 C 
ATOM      7  H   UNL A   1      30.989  25.507  26.733  1.00  0.00     0.163 HD
BRANCH   6   8
ATOM      8  C   UNL A   1      32.412  26.339  23.668  1.00  0.00     0.067 C 
ATOM      9  C   UNL A   1      33.654  25.798  23.545  1.00  0.00     0.025 C 
ATOM     10  C   UNL A   1      32.019  27.540  22.823  1.00  0.00     0.314 C 
ATOM     11  C   UNL A   1      34.048  24.598  24.391  1.00  0.00     0.020 A 
ATOM     12  O   UNL A   1      31.825  23.839  24.029  1.00  0.00    -0.474 OA
ATOM     13  C   UNL A   1      35.307  24.472  24.955  1.00  0.00     0.036 A 
ATOM     14  C   UNL A   1      33.155  23.619  24.475  1.00  0.00     0.142 A 
ATOM     15  C   UNL A   1      35.633  23.151  25.341  1.00  0.00     0.109 A 
ATOM     16  C   UNL A   1      33.506  22.394  24.989  1.00  0.00     0.062 A 
ATOM     17  C   UNL A   1      34.752  22.181  25.510  1.00  0.00     0.044 A 
ATOM     18  Br  UNL A   1      32.201  20.932  24.977  1.00  0.00    -0.047 Br
BRANCH  10  19
ATOM     19  C   UNL A   1      30.591  27.944  23.151  1.00  0.00     0.429 C 
ATOM     20  F   UNL A   1      29.752  26.982  22.776  1.00  0.00    -0.167 F 
ATOM     21  F   UNL A   1      30.475  28.147  24.460  1.00  0.00    -0.167 F 
ATOM     22  F   UNL A   1      30.298  29.066  22.500  1.00  0.00    -0.167 F 
ENDBRANCH  10  19
BRANCH  15  23
ATOM     23  S   UNL A   1      37.377  22.761  25.625  1.00  0.00     0.310 S 
ATOM     24  F   UNL A   1      37.858  24.110  24.942  1.00  0.00    -0.094 F 
ATOM     25  F   UNL A   1      37.430  22.099  24.196  1.00  0.00    -0.094 F 
ATOM     26  F   UNL A   1      38.875  22.422  25.868  1.00  0.00    -0.094 F 
ATOM     27  F   UNL A   1      37.343  23.551  26.992  1.00  0.00    -0.094 F 
ATOM     28  F   UNL A   1      35.888  23.212  25.344  1.00  0.00    -0.094 F 
ENDBRANCH  15  23
ENDBRANCH   6   8
ENDBRANCH   3   4
ENDBRANCH   2   3
ENDBRANCH   1   2
BRANCH   1  29
ATOM     29  C   UNL A   1      34.672  29.033  27.223  1.00  0.00     0.116 C 
BRANCH  29  30
ATOM     30  N   UNL A   1      34.537  30.076  28.250  1.00  0.00    -0.352 N 
ATOM     31  C   UNL A   1      35.700  30.462  29.063  1.00  0.00     0.251 C 
ATOM     32  H   UNL A   1      33.669  30.516  28.394  1.00  0.00     0.163 HD
ATOM     33  O   UNL A   1      35.583  31.364  29.951  1.00  0.00    -0.269 OA
BRANCH  31  34
ATOM     34  C   UNL A   1      37.041  29.781  28.843  1.00  0.00     0.039 A 
ATOM     35  C   UNL A   1      37.618  29.175  29.946  1.00  0.00     0.014 A 
ATOM     36  C   UNL A   1      37.683  29.855  27.682  1.00  0.00     0.014 A 
ATOM     37  C   UNL A   1      39.004  28.928  29.806  1.00  0.00     0.010 A 
ATOM     38  C   UNL A   1      38.999  29.469  27.586  1.00  0.00     0.010 A 
ATOM     39  C   UNL A   1      39.650  28.916  28.654  1.00  0.00    -0.014 A 
BRANCH  39  40
ATOM     40  C   UNL A   1      41.041  28.320  28.522  1.00  0.00     0.031 A 
ATOM     41  C   UNL A   1      41.239  26.971  28.218  1.00  0.00     0.074 A 
ATOM     42  C   UNL A   1      42.060  29.253  28.597  1.00  0.00     0.049 A 
ATOM     43  N   UNL A   1      42.390  26.364  27.924  1.00  0.00    -0.248 NA
ATOM     44  C   UNL A   1      40.163  25.970  28.171  1.00  0.00     0.031 C 
ATOM     45  C   UNL A   1      41.868  30.617  28.894  1.00  0.00     0.029 A 
ATOM     46  N   UNL A   1      43.409  29.050  28.407  1.00  0.00    -0.354 N 
ATOM     47  C   UNL A   1      42.177  25.070  27.672  1.00  0.00     0.074 A 
ATOM     48  C   UNL A   1      40.742  24.798  27.833  1.00  0.00     0.031 C 
ATOM     49  C   UNL A   1      43.083  31.223  28.895  1.00  0.00     0.029 A 
ATOM     50  C   UNL A   1      44.056  30.251  28.597  1.00  0.00     0.049 A 
ATOM     51  H   UNL A   1      43.837  28.194  28.177  1.00  0.00     0.167 HD
ATOM     52  C   UNL A   1      43.123  24.109  27.313  1.00  0.00     0.037 A 
ATOM     53  C   UNL A   1      45.418  30.503  28.523  1.00  0.00     0.037 A 
ATOM     54  C   UNL A   1      44.479  24.370  27.196  1.00  0.00     0.049 A 
ATOM     55  C   UNL A   1      46.371  29.528  28.220  1.00  0.00     0.074 A 
ATOM     56  C   UNL A   1      45.445  23.414  26.828  1.00  0.00     0.029 A 
ATOM     57  N   UNL A   1      45.129  25.566  27.410  1.00  0.00    -0.354 N 
ATOM     58  N   UNL A   1      46.153  28.244  27.931  1.00  0.00    -0.248 NA
ATOM     59  C   UNL A   1      47.818  29.776  28.171  1.00  0.00     0.031 C 
ATOM     60  C   UNL A   1      46.661  24.022  26.828  1.00  0.00     0.029 A 
ATOM     61  C   UNL A   1      46.475  25.368  27.198  1.00  0.00     0.049 A 
ATOM     62  H   UNL A   1      44.704  26.416  27.670  1.00  0.00     0.167 HD
ATOM     63  C   UNL A   1      47.310  27.628  27.677  1.00  0.00     0.074 A 
ATOM     64  C   UNL A   1      48.398  28.602  27.836  1.00  0.00     0.031 C 
ATOM     65  C   UNL A   1      47.500  26.293  27.317  1.00  0.00     0.037 A 
BRANCH  52  66
ATOM     66  C   UNL A   1      42.639  22.695  27.035  1.00  0.00     0.057 A 
ATOM     67  C   UNL A   1      42.338  22.284  25.747  1.00  0.00     0.134 A 
ATOM     68  C   UNL A   1      42.438  21.896  28.077  1.00  0.00     0.134 A 
ATOM     69  F   UNL A   1      42.750  22.937  24.663  1.00  0.00    -0.206 F 
ATOM     70  C   UNL A   1      41.554  21.109  25.687  1.00  0.00     0.040 A 
ATOM     71  C   UNL A   1      41.784  20.698  27.923  1.00  0.00     0.040 A 
ATOM     72  F   UNL A   1      42.874  22.260  29.279  1.00  0.00    -0.206 F 
ATOM     73  C   UNL A   1      41.406  20.256  26.686  1.00  0.00     0.006 A 
ENDBRANCH  52  66
BRANCH  53  74
ATOM     74  C   UNL A   1      45.899  31.920  28.785  1.00  0.00     0.057 A 
ATOM     75  C   UNL A   1      45.976  32.772  27.695  1.00  0.00     0.134 A 
ATOM     76  C   UNL A   1      46.177  32.345  30.012  1.00  0.00     0.134 A 
ATOM     77  F   UNL A   1      45.473  32.470  26.502  1.00  0.00    -0.206 F 
ATOM     78  C   UNL A   1      46.640  33.992  27.967  1.00  0.00     0.040 A 
ATOM     79  C   UNL A   1      46.696  33.600  30.217  1.00  0.00     0.040 A 
ATOM     80  F   UNL A   1      45.949  31.548  31.053  1.00  0.00    -0.206 F 
ATOM     81  C   UNL A   1      46.855  34.474  29.177  1.00  0.00     0.006 A 
ENDBRANCH  53  74
BRANCH  65  82
ATOM     82  C   UNL A   1      48.920  25.825  27.039  1.00  0.00     0.057 A 
ATOM     83  C   UNL A   1      49.675  25.402  28.119  1.00  0.00     0.134 A 
ATOM     84  C   UNL A   1      49.458  25.956  25.831  1.00  0.00     0.134 A 
ATOM     85  F   UNL A   1      49.138  25.015  29.273  1.00  0.00    -0.206 F 
ATOM     86  C   UNL A   1      51.071  25.416  27.885  1.00  0.00     0.040 A 
ATOM     87  C   UNL A   1      50.813  25.823  25.651  1.00  0.00     0.040 A 
ATOM     88  F   UNL A   1      48.677  26.218  24.787  1.00  0.00    -0.206 F 
ATOM     89  C   UNL A   1      51.629  25.465  26.689  1.00  0.00     0.006 A 
ENDBRANCH  65  82
ENDBRANCH  39  40
ENDBRANCH  31  34
ENDBRANCH  29  30
ENDBRANCH   1  29
TORSDOF 13
ENDMDL
MODEL 2
REMARK VINA RESULT:     -12.8      5.360      9.834
REMARK SMILES O=C(NCCCCNC(=O)c1ccc(-c2c3nc(c(-c4c(F)cccc4F)c4ccc([nH]4)c(-c4c(F)cccc4F)c4nc(c(-c5c(F)cccc5F)c5ccc2[nH]5)C=C4)C=C3)cc1)C1=Cc2cc(S(F)(F)(F)(F)F)cc(Br)c2O[C@H]1C(F)(F)F
REMARK SMILES IDX 6 1 5 2 4 3 3 4 1 5 2 6 65 8 66 9 81 10 67 11 80 12 68 13
REMARK SMILES IDX 79 14 69 15 77 16 76 17 78 18 82 19 83 20 84 21 85 22 70 23
REMARK SMILES IDX 71 24 72 25 73 26 74 27 75 28 7 29 8 30 9 31 10 33 11 34
REMARK SMILES IDX 12 35 64 36 13 37 63 38 14 39 15 40 16 41 57 42 17 43 62 44
REMARK SMILES IDX 56 45 58 46 18 47 61 48 55 49 54 50 19 52 45 53 28 54 44 55
REMARK SMILES IDX 29 56 32 57 43 58 59 59 30 60 31 61 42 63 60 64 33 65 20 66
REMARK SMILES IDX 21 67 26 68 22 69 23 70 25 71 27 72 24 73 46 74 47 75 52 76
REMARK SMILES IDX 48 77 49 78 51 79 53 80 50 81 34 82 35 83 40 84 36 85 37 86
REMARK SMILES IDX 39 87 41 88 38 89
REMARK H PARENT 3 7 8 32 58 51 32 62
REMARK Flexibility Score: inf
ROOT
ATOM      1  C   UNL A   1      36.768  23.012  25.782  1.00  0.00     0.023 C 
ENDROOT
BRANCH   1   2
ATOM      2  C   UNL A   1      36.308  23.254  24.354  1.00  0.00     0.023 C 
BRANCH   2   3
ATOM      3  C   UNL A   1      35.290  24.382  24.335  1.00  0.00     0.116 C 
BRANCH   3   4
ATOM      4  N   UNL A   1      34.177  24.024  23.444  1.00  0.00    -0.352 N 
ATOM      5  O   UNL A   1      31.956  23.208  23.236  1.00  0.00    -0.270 OA
ATOM      6  C   UNL A   1      32.918  23.518  24.007  1.00  0.00     0.251 C 
ATOM      7  H   UNL A   1      34.276  24.124  22.469  1.00  0.00     0.163 HD
BRANCH   6   8
ATOM      8  C   UNL A   1      32.765  23.365  25.512  1.00  0.00     0.067 C 
ATOM      9  C   UNL A   1      32.672  24.468  26.301  1.00  0.00     0.025 C 
ATOM     10  C   UNL A   1      32.717  21.979  26.134  1.00  0.00     0.314 C 
ATOM     11  C   UNL A   1      32.721  25.855  25.678  1.00  0.00     0.020 A 
ATOM     12  O   UNL A   1      31.430  24.914  23.918  1.00  0.00    -0.474 OA
ATOM     13  C   UNL A   1      33.403  26.906  26.269  1.00  0.00     0.036 A 
ATOM     14  C   UNL A   1      31.984  26.037  24.589  1.00  0.00     0.142 A 
ATOM     15  C   UNL A   1      33.010  28.181  25.798  1.00  0.00     0.109 A 
ATOM     16  C   UNL A   1      31.753  27.301  24.105  1.00  0.00     0.062 A 
ATOM     17  C   UNL A   1      32.347  28.393  24.675  1.00  0.00     0.044 A 
ATOM     18  Br  UNL A   1      30.554  27.544  22.573  1.00  0.00    -0.047 Br
BRANCH  10  19
ATOM     19  C   UNL A   1      32.841  20.929  25.043  1.00  0.00     0.429 C 
ATOM     20  F   UNL A   1      31.773  20.972  24.250  1.00  0.00    -0.167 F 
ATOM     21  F   UNL A   1      33.936  21.161  24.323  1.00  0.00    -0.167 F 
ATOM     22  F   UNL A   1      32.926  19.727  25.605  1.00  0.00    -0.167 F 
ENDBRANCH  10  19
BRANCH  15  23
ATOM     23  S   UNL A   1      33.446  29.621  26.802  1.00  0.00     0.310 S 
ATOM     24  F   UNL A   1      34.032  28.717  27.966  1.00  0.00    -0.094 F 
ATOM     25  F   UNL A   1      32.045  29.511  27.514  1.00  0.00    -0.094 F 
ATOM     26  F   UNL A   1      33.817  30.862  27.662  1.00  0.00    -0.094 F 
ATOM     27  F   UNL A   1      34.897  29.631  26.178  1.00  0.00    -0.094 F 
ATOM     28  F   UNL A   1      33.128  28.295  26.002  1.00  0.00    -0.094 F 
ENDBRANCH  15  23
ENDBRANCH   6   8
ENDBRANCH   3   4
ENDBRANCH   2   3
ENDBRANCH   1   2
BRANCH   1  29
ATOM     29  C   UNL A   1      37.779  24.077  26.177  1.00  0.00     0.116 C 
BRANCH  29  30
ATOM     30  N   UNL A   1      39.139  23.579  25.926  1.00  0.00    -0.352 N 
ATOM     31  C   UNL A   1      40.292  24.241  26.553  1.00  0.00     0.251 C 
ATOM     32  H   UNL A   1      39.278  22.802  25.339  1.00  0.00     0.163 HD
ATOM     33  O   UNL A   1      41.468  23.810  26.337  1.00  0.00    -0.269 OA
BRANCH  31  34
ATOM     34  C   UNL A   1      40.078  25.442  27.460  1.00  0.00     0.039 A 
ATOM     35  C   UNL A   1      40.809  26.581  27.164  1.00  0.00     0.014 A 
ATOM     36  C   UNL A   1      39.314  25.376  28.545  1.00  0.00     0.014 A 
ATOM     37  C   UNL A   1      40.896  27.501  28.236  1.00  0.00     0.010 A 
ATOM     38  C   UNL A   1      39.349  26.377  29.486  1.00  0.00     0.010 A 
ATOM     39  C   UNL A   1      40.095  27.505  29.287  1.00  0.00    -0.014 A 
BRANCH  39  40
ATOM     40  C   UNL A   1      40.010  28.698  30.224  1.00  0.00     0.031 A 
ATOM     41  C   UNL A   1      39.057  29.704  30.050  1.00  0.00     0.074 A 
ATOM     42  C   UNL A   1      40.859  28.616  31.314  1.00  0.00     0.049 A 
ATOM     43  N   UNL A   1      38.778  30.711  30.880  1.00  0.00    -0.248 NA
ATOM     44  C   UNL A   1      38.177  29.812  28.877  1.00  0.00     0.031 C 
ATOM     45  C   UNL A   1      41.816  27.600  31.501  1.00  0.00     0.029 A 
ATOM     46  N   UNL A   1      40.940  29.473  32.389  1.00  0.00    -0.354 N 
ATOM     47  C   UNL A   1      37.792  31.459  30.379  1.00  0.00     0.074 A 
ATOM     48  C   UNL A   1      37.396  30.895  29.081  1.00  0.00     0.031 C 
ATOM     49  C   UNL A   1      42.472  27.847  32.664  1.00  0.00     0.029 A 
ATOM     50  C   UNL A   1      41.936  29.021  33.226  1.00  0.00     0.049 A 
ATOM     51  H   UNL A   1      40.383  30.272  32.533  1.00  0.00     0.167 HD
ATOM     52  C   UNL A   1      37.207  32.588  30.955  1.00  0.00     0.037 A 
ATOM     53  C   UNL A   1      42.369  29.589  34.414  1.00  0.00     0.037 A 
ATOM     54  C   UNL A   1      37.610  33.130  32.165  1.00  0.00     0.049 A 
ATOM     55  C   UNL A   1      41.822  30.751  34.962  1.00  0.00     0.074 A 
ATOM     56  C   UNL A   1      37.026  34.264  32.763  1.00  0.00     0.029 A 
ATOM     57  N   UNL A   1      38.622  32.692  32.990  1.00  0.00    -0.354 N 
ATOM     58  N   UNL A   1      40.811  31.477  34.481  1.00  0.00    -0.248 NA
ATOM     59  C   UNL A   1      42.294  31.379  36.203  1.00  0.00     0.031 C 
ATOM     60  C   UNL A   1      37.683  34.511  33.928  1.00  0.00     0.029 A 
ATOM     61  C   UNL A   1      38.689  33.536  34.076  1.00  0.00     0.049 A 
ATOM     62  H   UNL A   1      39.199  31.910  32.831  1.00  0.00     0.167 HD
ATOM     63  C   UNL A   1      40.559  32.507  35.291  1.00  0.00     0.074 A 
ATOM     64  C   UNL A   1      41.514  32.464  36.406  1.00  0.00     0.031 C 
ATOM     65  C   UNL A   1      39.569  33.480  35.145  1.00  0.00     0.037 A 
BRANCH  52  66
ATOM     66  C   UNL A   1      36.063  33.261  30.213  1.00  0.00     0.057 A 
ATOM     67  C   UNL A   1      34.745  32.938  30.491  1.00  0.00     0.134 A 
ATOM     68  C   UNL A   1      36.374  34.106  29.238  1.00  0.00     0.134 A 
ATOM     69  F   UNL A   1      34.371  32.305  31.600  1.00  0.00    -0.206 F 
ATOM     70  C   UNL A   1      33.832  33.340  29.488  1.00  0.00     0.040 A 
ATOM     71  C   UNL A   1      35.407  34.568  28.378  1.00  0.00     0.040 A 
ATOM     72  F   UNL A   1      37.632  34.512  29.093  1.00  0.00    -0.206 F 
ATOM     73  C   UNL A   1      34.092  34.240  28.557  1.00  0.00     0.006 A 
ENDBRANCH  52  66
BRANCH  53  74
ATOM     74  C   UNL A   1      43.502  28.906  35.163  1.00  0.00     0.057 A 
ATOM     75  C   UNL A   1      43.150  27.958  36.111  1.00  0.00     0.134 A 
ATOM     76  C   UNL A   1      44.774  29.159  34.882  1.00  0.00     0.134 A 
ATOM     77  F   UNL A   1      41.912  27.493  36.248  1.00  0.00    -0.206 F 
ATOM     78  C   UNL A   1      44.229  27.532  36.922  1.00  0.00     0.040 A 
ATOM     79  C   UNL A   1      45.781  28.600  35.631  1.00  0.00     0.040 A 
ATOM     80  F   UNL A   1      45.077  29.962  33.864  1.00  0.00    -0.206 F 
ATOM     81  C   UNL A   1      45.503  27.701  36.622  1.00  0.00     0.006 A 
ENDBRANCH  53  74
BRANCH  65  82
ATOM     82  C   UNL A   1      39.448  34.543  36.226  1.00  0.00     0.057 A 
ATOM     83  C   UNL A   1      40.165  35.714  36.050  1.00  0.00     0.134 A 
ATOM     84  C   UNL A   1      38.798  34.296  37.358  1.00  0.00     0.134 A 
ATOM     85  F   UNL A   1      40.614  36.120  34.865  1.00  0.00    -0.206 F 
ATOM     86  C   UNL A   1      40.376  36.442  37.246  1.00  0.00     0.040 A 
ATOM     87  C   UNL A   1      38.945  35.124  38.443  1.00  0.00     0.040 A 
ATOM     88  F   UNL A   1      37.999  33.236  37.440  1.00  0.00    -0.206 F 
ATOM     89  C   UNL A   1      39.688  36.269  38.359  1.00  0.00     0.006 A 
ENDBRANCH  65  82
ENDBRANCH  39  40
ENDBRANCH  31  34
ENDBRANCH  29  30
ENDBRANCH   1  29
TORSDOF 13
ENDMDL
MODEL 3
REMARK VINA RESULT:     -12.6      3.448      8.163
REMARK SMILES O=C(NCCCCNC(=O)c1ccc(-c2c3nc(c(-c4c(F)cccc4F)c4ccc([nH]4)c(-c4c(F)cccc4F)c4nc(c(-c5c(F)cccc5F)c5ccc2[nH]5)C=C4)C=C3)cc1)C1=Cc2cc(S(F)(F)(F)(F)F)cc(Br)c2O[C@H]1C(F)(F)F
REMARK SMILES IDX 6 1 5 2 4 3 3 4 1 5 2 6 65 8 66 9 81 10 67 11 80 12 68 13
REMARK SMILES IDX 79 14 69 15 77 16 76 17 78 18 82 19 83 20 84 21 85 22 70 23
REMARK SMILES IDX 71 24 72 25 73 26 74 27 75 28 7 29 8 30 9 31 10 33 11 34
REMARK SMILES IDX 12 35 64 36 13 37 63 38 14 39 15 40 16 41 57 42 17 43 62 44
REMARK SMILES IDX 56 45 58 46 18 47 61 48 55 49 54 50 19 52 45 53 28 54 44 55
REMARK SMILES IDX 29 56 32 57 43 58 59 59 30 60 31 61 42 63 60 64 33 65 20 66
REMARK SMILES IDX 21 67 26 68 22 69 23 70 25 71 27 72 24 73 46 74 47 75 52 76
REMARK SMILES IDX 48 77 49 78 51 79 53 80 50 81 34 82 35 83 40 84 36 85 37 86
REMARK SMILES IDX 39 87 41 88 38 89
REMARK H PARENT 3 7 8 32 58 51 32 62
REMARK Flexibility Score: inf
ROOT
ATOM      1  C   UNL A   1      36.968  23.417  24.125  1.00  0.00     0.023 C 
ENDROOT
BRANCH   1   2
ATOM      2  C   UNL A   1      35.646  23.048  23.472  1.00  0.00     0.023 C 
BRANCH   2   3
ATOM      3  C   UNL A   1      34.680  24.216  23.591  1.00  0.00     0.116 C 
BRANCH   3   4
ATOM      4  N   UNL A   1      33.333  23.781  23.195  1.00  0.00    -0.352 N 
ATOM      5  O   UNL A   1      31.252  22.847  23.857  1.00  0.00    -0.270 OA
ATOM      6  C   UNL A   1      32.416  23.223  24.200  1.00  0.00     0.251 C 
ATOM      7  H   UNL A   1      33.046  23.863  22.258  1.00  0.00     0.163 HD
BRANCH   6   8
ATOM      8  C   UNL A   1      32.860  23.098  25.648  1.00  0.00     0.067 C 
ATOM      9  C   UNL A   1      32.967  24.209  26.425  1.00  0.00     0.025 C 
ATOM     10  C   UNL A   1      33.187  21.731  26.228  1.00  0.00     0.314 C 
ATOM     11  C   UNL A   1      32.642  25.576  25.845  1.00  0.00     0.020 A 
ATOM     12  O   UNL A   1      30.878  24.472  24.697  1.00  0.00    -0.474 OA
ATOM     13  C   UNL A   1      33.392  26.702  26.143  1.00  0.00     0.036 A 
ATOM     14  C   UNL A   1      31.533  25.659  25.119  1.00  0.00     0.142 A 
ATOM     15  C   UNL A   1      32.728  27.922  25.870  1.00  0.00     0.109 A 
ATOM     16  C   UNL A   1      31.015  26.883  24.772  1.00  0.00     0.062 A 
ATOM     17  C   UNL A   1      31.672  28.040  25.085  1.00  0.00     0.044 A 
ATOM     18  Br  UNL A   1      29.308  26.971  23.812  1.00  0.00    -0.047 Br
BRANCH  10  19
ATOM     19  C   UNL A   1      32.989  20.668  25.160  1.00  0.00     0.429 C 
ATOM     20  F   UNL A   1      31.695  20.553  24.871  1.00  0.00    -0.167 F 
ATOM     21  F   UNL A   1      33.659  21.008  24.063  1.00  0.00    -0.167 F 
ATOM     22  F   UNL A   1      33.445  19.505  25.616  1.00  0.00    -0.167 F 
ENDBRANCH  10  19
BRANCH  15  23
ATOM     23  S   UNL A   1      33.370  29.424  26.648  1.00  0.00     0.310 S 
ATOM     24  F   UNL A   1      34.006  28.609  27.851  1.00  0.00    -0.094 F 
ATOM     25  F   UNL A   1      32.046  29.512  27.498  1.00  0.00    -0.094 F 
ATOM     26  F   UNL A   1      33.918  30.717  27.315  1.00  0.00    -0.094 F 
ATOM     27  F   UNL A   1      34.745  29.241  25.893  1.00  0.00    -0.094 F 
ATOM     28  F   UNL A   1      32.874  28.048  26.047  1.00  0.00    -0.094 F 
ENDBRANCH  15  23
ENDBRANCH   6   8
ENDBRANCH   3   4
ENDBRANCH   2   3
ENDBRANCH   1   2
BRANCH   1  29
ATOM     29  C   UNL A   1      36.920  23.062  25.603  1.00  0.00     0.116 C 
BRANCH  29  30
ATOM     30  N   UNL A   1      37.970  22.078  25.905  1.00  0.00    -0.352 N 
ATOM     31  C   UNL A   1      39.206  22.504  26.577  1.00  0.00     0.251 C 
ATOM     32  H   UNL A   1      37.845  21.134  25.657  1.00  0.00     0.163 HD
ATOM     33  O   UNL A   1      40.113  21.653  26.838  1.00  0.00    -0.269 OA
BRANCH  31  34
ATOM     34  C   UNL A   1      39.399  23.963  26.959  1.00  0.00     0.039 A 
ATOM     35  C   UNL A   1      39.925  24.794  25.985  1.00  0.00     0.014 A 
ATOM     36  C   UNL A   1      39.179  24.400  28.194  1.00  0.00     0.014 A 
ATOM     37  C   UNL A   1      40.463  26.002  26.491  1.00  0.00     0.010 A 
ATOM     38  C   UNL A   1      39.613  25.646  28.581  1.00  0.00     0.010 A 
ATOM     39  C   UNL A   1      40.195  26.499  27.685  1.00  0.00    -0.014 A 
BRANCH  39  40
ATOM     40  C   UNL A   1      40.517  27.939  28.044  1.00  0.00     0.031 A 
ATOM     41  C   UNL A   1      39.524  28.844  28.423  1.00  0.00     0.074 A 
ATOM     42  C   UNL A   1      41.873  28.217  28.086  1.00  0.00     0.049 A 
ATOM     43  N   UNL A   1      39.687  30.077  28.906  1.00  0.00    -0.248 NA
ATOM     44  C   UNL A   1      38.082  28.564  28.347  1.00  0.00     0.031 C 
ATOM     45  C   UNL A   1      42.882  27.307  27.715  1.00  0.00     0.029 A 
ATOM     46  N   UNL A   1      42.485  29.385  28.482  1.00  0.00    -0.354 N 
ATOM     47  C   UNL A   1      38.501  30.629  29.171  1.00  0.00     0.074 A 
ATOM     48  C   UNL A   1      37.452  29.666  28.809  1.00  0.00     0.031 C 
ATOM     49  C   UNL A   1      44.083  27.921  27.872  1.00  0.00     0.029 A 
ATOM     50  C   UNL A   1      43.846  29.225  28.346  1.00  0.00     0.049 A 
ATOM     51  H   UNL A   1      42.028  30.195  28.805  1.00  0.00     0.167 HD
ATOM     52  C   UNL A   1      38.254  31.896  29.702  1.00  0.00     0.037 A 
ATOM     53  C   UNL A   1      44.841  30.154  28.613  1.00  0.00     0.037 A 
ATOM     54  C   UNL A   1      39.251  32.808  30.010  1.00  0.00     0.049 A 
ATOM     55  C   UNL A   1      44.590  31.442  29.089  1.00  0.00     0.074 A 
ATOM     56  C   UNL A   1      39.019  34.087  30.553  1.00  0.00     0.029 A 
ATOM     57  N   UNL A   1      40.611  32.657  29.851  1.00  0.00    -0.354 N 
ATOM     58  N   UNL A   1      43.407  31.979  29.390  1.00  0.00    -0.248 NA
ATOM     59  C   UNL A   1      45.634  32.445  29.344  1.00  0.00     0.031 C 
ATOM     60  C   UNL A   1      40.222  34.702  30.710  1.00  0.00     0.029 A 
ATOM     61  C   UNL A   1      41.224  33.817  30.267  1.00  0.00     0.049 A 
ATOM     62  H   UNL A   1      41.066  31.857  29.500  1.00  0.00     0.167 HD
ATOM     63  C   UNL A   1      43.569  33.227  29.835  1.00  0.00     0.074 A 
ATOM     64  C   UNL A   1      45.003  33.547  29.805  1.00  0.00     0.031 C 
ATOM     65  C   UNL A   1      42.579  34.110  30.268  1.00  0.00     0.037 A 
BRANCH  52  66
ATOM     66  C   UNL A   1      36.810  32.298  29.957  1.00  0.00     0.057 A 
ATOM     67  C   UNL A   1      36.071  32.958  28.989  1.00  0.00     0.134 A 
ATOM     68  C   UNL A   1      36.311  32.066  31.165  1.00  0.00     0.134 A 
ATOM     69  F   UNL A   1      36.422  32.991  27.706  1.00  0.00    -0.206 F 
ATOM     70  C   UNL A   1      34.911  33.594  29.488  1.00  0.00     0.040 A 
ATOM     71  C   UNL A   1      35.105  32.607  31.539  1.00  0.00     0.040 A 
ATOM     72  F   UNL A   1      36.983  31.301  32.021  1.00  0.00    -0.206 F 
ATOM     73  C   UNL A   1      34.348  33.321  30.651  1.00  0.00     0.006 A 
ENDBRANCH  52  66
BRANCH  53  74
ATOM     74  C   UNL A   1      46.285  29.745  28.373  1.00  0.00     0.057 A 
ATOM     75  C   UNL A   1      46.955  29.145  29.428  1.00  0.00     0.134 A 
ATOM     76  C   UNL A   1      46.864  29.898  27.188  1.00  0.00     0.134 A 
ATOM     77  F   UNL A   1      46.345  28.745  30.540  1.00  0.00    -0.206 F 
ATOM     78  C   UNL A   1      48.346  28.999  29.214  1.00  0.00     0.040 A 
ATOM     79  C   UNL A   1      48.196  29.606  27.017  1.00  0.00     0.040 A 
ATOM     80  F   UNL A   1      46.148  30.338  26.156  1.00  0.00    -0.206 F 
ATOM     81  C   UNL A   1      48.933  29.067  28.034  1.00  0.00     0.006 A 
ENDBRANCH  53  74
BRANCH  65  82
ATOM     82  C   UNL A   1      43.013  35.478  30.772  1.00  0.00     0.057 A 
ATOM     83  C   UNL A   1      43.218  36.469  29.827  1.00  0.00     0.134 A 
ATOM     84  C   UNL A   1      43.323  35.669  32.049  1.00  0.00     0.134 A 
ATOM     85  F   UNL A   1      42.697  36.424  28.604  1.00  0.00    -0.206 F 
ATOM     86  C   UNL A   1      44.029  37.537  30.282  1.00  0.00     0.040 A 
ATOM     87  C   UNL A   1      43.998  36.798  32.444  1.00  0.00     0.040 A 
ATOM     88  F   UNL A   1      42.977  34.758  32.954  1.00  0.00    -0.206 F 
ATOM     89  C   UNL A   1      44.286  37.794  31.551  1.00  0.00     0.006 A 
ENDBRANCH  65  82
ENDBRANCH  39  40
ENDBRANCH  31  34
ENDBRANCH  29  30
ENDBRANCH   1  29
TORSDOF 13
ENDMDL
