MODEL 1
REMARK VINA RESULT:     -11.8      0.000      0.000
REMARK SMILES CC1(C)CCSC[C@@]1(Nc1ccccc1Br)C(=O)NCCCCNC(=O)c1ccc(-c2c3nc(c(-c4c(F)cccc4F)c4ccc([nH]4)c(-c4c(F)cccc4F)c4nc(c(-c5c(F)cccc5F)c5ccc2[nH]5)C=C4)C=C3)cc1
REMARK SMILES IDX 21 1 20 2 19 3 17 4 18 5 8 7 1 8 2 9 3 10 4 11 5 12 7 13
REMARK SMILES IDX 6 14 9 15 10 17 11 18 15 19 12 20 14 21 16 22 13 23 22 24
REMARK SMILES IDX 23 25 24 26 25 27 26 29 27 30 28 31 80 32 29 33 79 34 30 35
REMARK SMILES IDX 31 36 32 37 73 38 33 39 78 40 72 41 74 42 34 43 77 44 71 45
REMARK SMILES IDX 70 46 35 48 61 49 44 50 60 51 45 52 48 53 59 54 75 55 46 56
REMARK SMILES IDX 47 57 58 59 76 60 49 61 36 62 37 63 42 64 38 65 39 66 41 67
REMARK SMILES IDX 43 68 40 69 62 70 63 71 68 72 64 73 65 74 67 75 69 76 66 77
REMARK SMILES IDX 50 78 51 79 56 80 52 81 53 82 55 83 57 84 54 85
REMARK H PARENT 19 6 9 16 24 28 74 47 48 58
REMARK Flexibility Score: inf
ROOT
ATOM      1  C   UNL A   1      31.143  30.870  25.563  1.00  0.00     0.023 C 
ENDROOT
BRANCH   1   2
ATOM      2  C   UNL A   1      32.416  30.057  25.739  1.00  0.00     0.116 C 
BRANCH   2   3
ATOM      3  N   UNL A   1      33.156  29.593  24.570  1.00  0.00    -0.354 N 
ATOM      4  C   UNL A   1      32.959  28.567  23.671  1.00  0.00     0.247 C 
ATOM      5  O   UNL A   1      33.508  28.697  22.569  1.00  0.00    -0.272 OA
ATOM      6  H   UNL A   1      33.965  30.122  24.386  1.00  0.00     0.163 HD
BRANCH   4   7
ATOM      7  C   UNL A   1      32.064  27.320  23.969  1.00  0.00     0.131 C 
ATOM      8  C   UNL A   1      34.012  26.019  25.187  1.00  0.00     0.014 C 
ATOM      9  C   UNL A   1      33.032  26.008  23.963  1.00  0.00    -0.002 C 
ATOM     10  C   UNL A   1      33.982  25.857  22.756  1.00  0.00     0.014 C 
ATOM     11  C   UNL A   1      32.209  24.697  24.020  1.00  0.00     0.020 C 
ATOM     12  C   UNL A   1      31.361  24.503  25.267  1.00  0.00     0.070 C 
ATOM     13  C   UNL A   1      31.403  27.345  25.388  1.00  0.00     0.108 C 
ATOM     14  S   UNL A   1      30.293  25.895  25.718  1.00  0.00    -0.159 SA
BRANCH   7  15
ATOM     15  N   UNL A   1      30.926  27.269  22.998  1.00  0.00    -0.369 N 
ATOM     16  H   UNL A   1      30.910  26.469  22.424  1.00  0.00     0.161 HD
BRANCH  15  17
ATOM     17  C   UNL A   1      29.870  28.178  22.770  1.00  0.00     0.049 A 
ATOM     18  C   UNL A   1      30.299  29.414  22.206  1.00  0.00     0.027 A 
ATOM     19  C   UNL A   1      28.500  28.144  23.138  1.00  0.00     0.041 A 
ATOM     20  C   UNL A   1      29.471  30.535  22.060  1.00  0.00     0.002 A 
ATOM     21  C   UNL A   1      27.672  29.284  22.989  1.00  0.00     0.018 A 
ATOM     22  Br  UNL A   1      27.495  26.704  23.874  1.00  0.00    -0.049 Br
ATOM     23  C   UNL A   1      28.154  30.475  22.469  1.00  0.00     0.001 A 
ENDBRANCH  15  17
ENDBRANCH   7  15
ENDBRANCH   4   7
ENDBRANCH   2   3
ENDBRANCH   1   2
BRANCH   1  24
ATOM     24  C   UNL A   1      31.029  32.107  26.434  1.00  0.00     0.023 C 
BRANCH  24  25
ATOM     25  C   UNL A   1      32.378  32.552  26.961  1.00  0.00     0.116 C 
BRANCH  25  26
ATOM     26  N   UNL A   1      32.332  33.913  27.489  1.00  0.00    -0.352 N 
ATOM     27  C   UNL A   1      33.071  34.505  28.477  1.00  0.00     0.251 C 
ATOM     28  H   UNL A   1      31.662  34.497  27.066  1.00  0.00     0.163 HD
ATOM     29  O   UNL A   1      32.743  35.607  28.906  1.00  0.00    -0.269 OA
BRANCH  27  30
ATOM     30  C   UNL A   1      34.252  33.815  29.036  1.00  0.00     0.039 A 
ATOM     31  C   UNL A   1      34.057  32.717  29.876  1.00  0.00     0.014 A 
ATOM     32  C   UNL A   1      35.545  34.259  28.754  1.00  0.00     0.014 A 
ATOM     33  C   UNL A   1      35.161  32.054  30.408  1.00  0.00     0.010 A 
ATOM     34  C   UNL A   1      36.640  33.521  29.172  1.00  0.00     0.010 A 
ATOM     35  C   UNL A   1      36.461  32.441  30.044  1.00  0.00    -0.014 A 
BRANCH  35  36
ATOM     36  C   UNL A   1      37.650  31.776  30.623  1.00  0.00     0.031 A 
ATOM     37  C   UNL A   1      38.094  32.129  32.019  1.00  0.00     0.074 A 
ATOM     38  C   UNL A   1      38.344  30.894  29.882  1.00  0.00     0.049 A 
ATOM     39  N   UNL A   1      39.119  31.682  32.698  1.00  0.00    -0.248 NA
ATOM     40  C   UNL A   1      37.312  33.156  32.730  1.00  0.00     0.031 C 
ATOM     41  C   UNL A   1      38.049  30.538  28.491  1.00  0.00     0.029 A 
ATOM     42  N   UNL A   1      39.435  30.130  30.197  1.00  0.00    -0.354 N 
ATOM     43  C   UNL A   1      39.115  32.392  33.893  1.00  0.00     0.074 A 
ATOM     44  C   UNL A   1      38.038  33.350  33.819  1.00  0.00     0.031 C 
ATOM     45  C   UNL A   1      38.907  29.585  28.091  1.00  0.00     0.029 A 
ATOM     46  C   UNL A   1      39.826  29.288  29.184  1.00  0.00     0.049 A 
ATOM     47  H   UNL A   1      39.897  30.180  31.065  1.00  0.00     0.167 HD
ATOM     48  C   UNL A   1      39.914  32.232  34.975  1.00  0.00     0.037 A 
ATOM     49  C   UNL A   1      40.805  28.367  29.156  1.00  0.00     0.037 A 
ATOM     50  C   UNL A   1      40.944  31.234  35.059  1.00  0.00     0.049 A 
ATOM     51  C   UNL A   1      41.633  28.158  30.393  1.00  0.00     0.074 A 
ATOM     52  C   UNL A   1      41.769  30.929  36.127  1.00  0.00     0.029 A 
ATOM     53  N   UNL A   1      41.280  30.365  34.030  1.00  0.00    -0.354 N 
ATOM     54  N   UNL A   1      41.575  28.785  31.543  1.00  0.00    -0.248 NA
ATOM     55  C   UNL A   1      42.652  27.101  30.333  1.00  0.00     0.031 C 
ATOM     56  C   UNL A   1      42.624  29.894  35.732  1.00  0.00     0.029 A 
ATOM     57  C   UNL A   1      42.305  29.528  34.433  1.00  0.00     0.049 A 
ATOM     58  H   UNL A   1      40.852  30.349  33.143  1.00  0.00     0.167 HD
ATOM     59  C   UNL A   1      42.532  28.189  32.351  1.00  0.00     0.074 A 
ATOM     60  C   UNL A   1      43.138  27.132  31.564  1.00  0.00     0.031 C 
ATOM     61  C   UNL A   1      42.886  28.487  33.626  1.00  0.00     0.037 A 
BRANCH  48  62
ATOM     62  C   UNL A   1      39.683  33.143  36.146  1.00  0.00     0.057 A 
ATOM     63  C   UNL A   1      38.767  32.829  37.161  1.00  0.00     0.134 A 
ATOM     64  C   UNL A   1      40.388  34.347  36.268  1.00  0.00     0.134 A 
ATOM     65  F   UNL A   1      38.045  31.700  37.098  1.00  0.00    -0.206 F 
ATOM     66  C   UNL A   1      38.535  33.694  38.231  1.00  0.00     0.040 A 
ATOM     67  C   UNL A   1      40.187  35.206  37.351  1.00  0.00     0.040 A 
ATOM     68  F   UNL A   1      41.282  34.711  35.336  1.00  0.00    -0.206 F 
ATOM     69  C   UNL A   1      39.251  34.885  38.331  1.00  0.00     0.006 A 
ENDBRANCH  48  62
BRANCH  49  70
ATOM     70  C   UNL A   1      41.008  27.535  27.944  1.00  0.00     0.057 A 
ATOM     71  C   UNL A   1      40.366  26.300  27.800  1.00  0.00     0.134 A 
ATOM     72  C   UNL A   1      41.834  27.958  26.895  1.00  0.00     0.134 A 
ATOM     73  F   UNL A   1      39.572  25.836  28.776  1.00  0.00    -0.206 F 
ATOM     74  C   UNL A   1      40.554  25.504  26.670  1.00  0.00     0.040 A 
ATOM     75  C   UNL A   1      42.011  27.183  25.747  1.00  0.00     0.040 A 
ATOM     76  F   UNL A   1      42.466  29.138  26.964  1.00  0.00    -0.206 F 
ATOM     77  C   UNL A   1      41.376  25.948  25.636  1.00  0.00     0.006 A 
ENDBRANCH  49  70
BRANCH  61  78
ATOM     78  C   UNL A   1      43.959  27.642  34.243  1.00  0.00     0.057 A 
ATOM     79  C   UNL A   1      43.664  26.433  34.887  1.00  0.00     0.134 A 
ATOM     80  C   UNL A   1      45.301  28.033  34.176  1.00  0.00     0.134 A 
ATOM     81  F   UNL A   1      42.395  26.011  34.993  1.00  0.00    -0.206 F 
ATOM     82  C   UNL A   1      44.666  25.659  35.472  1.00  0.00     0.040 A 
ATOM     83  C   UNL A   1      46.314  27.254  34.734  1.00  0.00     0.040 A 
ATOM     84  F   UNL A   1      45.650  29.174  33.564  1.00  0.00    -0.206 F 
ATOM     85  C   UNL A   1      45.996  26.067  35.393  1.00  0.00     0.006 A 
ENDBRANCH  61  78
ENDBRANCH  35  36
ENDBRANCH  27  30
ENDBRANCH  25  26
ENDBRANCH  24  25
ENDBRANCH   1  24
TORSDOF 13
ENDMDL
MODEL 2
REMARK VINA RESULT:     -11.7      5.011      8.784
REMARK SMILES CC1(C)CCSC[C@@]1(Nc1ccccc1Br)C(=O)NCCCCNC(=O)c1ccc(-c2c3nc(c(-c4c(F)cccc4F)c4ccc([nH]4)c(-c4c(F)cccc4F)c4nc(c(-c5c(F)cccc5F)c5ccc2[nH]5)C=C4)C=C3)cc1
REMARK SMILES IDX 21 1 20 2 19 3 17 4 18 5 8 7 1 8 2 9 3 10 4 11 5 12 7 13
REMARK SMILES IDX 6 14 9 15 10 17 11 18 15 19 12 20 14 21 16 22 13 23 22 24
REMARK SMILES IDX 23 25 24 26 25 27 26 29 27 30 28 31 80 32 29 33 79 34 30 35
REMARK SMILES IDX 31 36 32 37 73 38 33 39 78 40 72 41 74 42 34 43 77 44 71 45
REMARK SMILES IDX 70 46 35 48 61 49 44 50 60 51 45 52 48 53 59 54 75 55 46 56
REMARK SMILES IDX 47 57 58 59 76 60 49 61 36 62 37 63 42 64 38 65 39 66 41 67
REMARK SMILES IDX 43 68 40 69 62 70 63 71 68 72 64 73 65 74 67 75 69 76 66 77
REMARK SMILES IDX 50 78 51 79 56 80 52 81 53 82 55 83 57 84 54 85
REMARK H PARENT 19 6 9 16 24 28 74 47 48 58
REMARK Flexibility Score: inf
ROOT
ATOM      1  C   UNL A   1      32.422  28.398  27.318  1.00  0.00     0.023 C 
ENDROOT
BRANCH   1   2
ATOM      2  C   UNL A   1      31.369  27.656  26.510  1.00  0.00     0.116 C 
BRANCH   2   3
ATOM      3  N   UNL A   1      31.096  26.248  26.780  1.00  0.00    -0.354 N 
ATOM      4  C   UNL A   1      31.667  25.072  26.344  1.00  0.00     0.247 C 
ATOM      5  O   UNL A   1      31.499  24.083  27.069  1.00  0.00    -0.272 OA
ATOM      6  H   UNL A   1      30.347  26.109  27.404  1.00  0.00     0.163 HD
BRANCH   4   7
ATOM      7  C   UNL A   1      32.524  24.963  25.039  1.00  0.00     0.131 C 
ATOM      8  C   UNL A   1      30.505  24.046  23.605  1.00  0.00     0.014 C 
ATOM      9  C   UNL A   1      31.933  23.719  24.166  1.00  0.00    -0.002 C 
ATOM     10  C   UNL A   1      31.715  22.389  24.919  1.00  0.00     0.014 C 
ATOM     11  C   UNL A   1      32.854  23.381  22.967  1.00  0.00     0.020 C 
ATOM     12  C   UNL A   1      33.027  24.484  21.936  1.00  0.00     0.070 C 
ATOM     13  C   UNL A   1      32.414  26.216  24.109  1.00  0.00     0.108 C 
ATOM     14  S   UNL A   1      33.477  26.112  22.592  1.00  0.00    -0.159 SA
BRANCH   7  15
ATOM     15  N   UNL A   1      33.974  24.853  25.393  1.00  0.00    -0.369 N 
ATOM     16  H   UNL A   1      34.394  25.697  25.675  1.00  0.00     0.161 HD
BRANCH  15  17
ATOM     17  C   UNL A   1      34.840  23.737  25.390  1.00  0.00     0.049 A 
ATOM     18  C   UNL A   1      35.729  23.714  24.278  1.00  0.00     0.027 A 
ATOM     19  C   UNL A   1      34.878  22.571  26.199  1.00  0.00     0.041 A 
ATOM     20  C   UNL A   1      36.550  22.624  23.957  1.00  0.00     0.002 A 
ATOM     21  C   UNL A   1      35.710  21.474  25.863  1.00  0.00     0.018 A 
ATOM     22  Br  UNL A   1      33.912  22.189  27.794  1.00  0.00    -0.049 Br
ATOM     23  C   UNL A   1      36.529  21.492  24.744  1.00  0.00     0.001 A 
ENDBRANCH  15  17
ENDBRANCH   7  15
ENDBRANCH   4   7
ENDBRANCH   2   3
ENDBRANCH   1   2
BRANCH   1  24
ATOM     24  C   UNL A   1      33.574  28.976  26.520  1.00  0.00     0.023 C 
BRANCH  24  25
ATOM     25  C   UNL A   1      34.861  28.997  27.319  1.00  0.00     0.116 C 
BRANCH  25  26
ATOM     26  N   UNL A   1      34.843  30.032  28.349  1.00  0.00    -0.352 N 
ATOM     27  C   UNL A   1      35.828  30.452  29.201  1.00  0.00     0.251 C 
ATOM     28  H   UNL A   1      33.983  30.503  28.445  1.00  0.00     0.163 HD
ATOM     29  O   UNL A   1      35.552  31.206  30.129  1.00  0.00    -0.269 OA
BRANCH  27  30
ATOM     30  C   UNL A   1      37.219  29.988  29.014  1.00  0.00     0.039 A 
ATOM     31  C   UNL A   1      37.902  29.447  30.105  1.00  0.00     0.014 A 
ATOM     32  C   UNL A   1      37.856  30.106  27.777  1.00  0.00     0.014 A 
ATOM     33  C   UNL A   1      39.212  29.002  29.942  1.00  0.00     0.010 A 
ATOM     34  C   UNL A   1      39.106  29.542  27.584  1.00  0.00     0.010 A 
ATOM     35  C   UNL A   1      39.817  29.029  28.675  1.00  0.00    -0.014 A 
BRANCH  35  36
ATOM     36  C   UNL A   1      41.219  28.597  28.484  1.00  0.00     0.031 A 
ATOM     37  C   UNL A   1      41.515  27.168  28.112  1.00  0.00     0.074 A 
ATOM     38  C   UNL A   1      42.217  29.477  28.687  1.00  0.00     0.049 A 
ATOM     39  N   UNL A   1      42.671  26.585  27.923  1.00  0.00    -0.248 NA
ATOM     40  C   UNL A   1      40.362  26.260  27.979  1.00  0.00     0.031 C 
ATOM     41  C   UNL A   1      42.048  30.864  29.127  1.00  0.00     0.029 A 
ATOM     42  N   UNL A   1      43.571  29.337  28.539  1.00  0.00    -0.354 N 
ATOM     43  C   UNL A   1      42.381  25.247  27.681  1.00  0.00     0.074 A 
ATOM     44  C   UNL A   1      40.953  25.087  27.820  1.00  0.00     0.031 C 
ATOM     45  C   UNL A   1      43.250  31.462  29.164  1.00  0.00     0.029 A 
ATOM     46  C   UNL A   1      44.271  30.495  28.778  1.00  0.00     0.049 A 
ATOM     47  H   UNL A   1      44.002  28.488  28.288  1.00  0.00     0.167 HD
ATOM     48  C   UNL A   1      43.225  24.248  27.333  1.00  0.00     0.037 A 
ATOM     49  C   UNL A   1      45.589  30.745  28.677  1.00  0.00     0.037 A 
ATOM     50  C   UNL A   1      44.637  24.434  27.140  1.00  0.00     0.049 A 
ATOM     51  C   UNL A   1      46.498  29.638  28.220  1.00  0.00     0.074 A 
ATOM     52  C   UNL A   1      45.582  23.516  26.719  1.00  0.00     0.029 A 
ATOM     53  N   UNL A   1      45.305  25.634  27.345  1.00  0.00    -0.354 N 
ATOM     54  N   UNL A   1      46.203  28.395  27.923  1.00  0.00    -0.248 NA
ATOM     55  C   UNL A   1      47.920  29.975  28.068  1.00  0.00     0.031 C 
ATOM     56  C   UNL A   1      46.827  24.154  26.698  1.00  0.00     0.029 A 
ATOM     57  C   UNL A   1      46.651  25.479  27.066  1.00  0.00     0.049 A 
ATOM     58  H   UNL A   1      44.882  26.471  27.645  1.00  0.00     0.167 HD
ATOM     59  C   UNL A   1      47.396  27.805  27.530  1.00  0.00     0.074 A 
ATOM     60  C   UNL A   1      48.413  28.837  27.603  1.00  0.00     0.031 C 
ATOM     61  C   UNL A   1      47.636  26.526  27.149  1.00  0.00     0.037 A 
BRANCH  48  62
ATOM     62  C   UNL A   1      42.634  22.884  27.123  1.00  0.00     0.057 A 
ATOM     63  C   UNL A   1      42.269  22.061  28.199  1.00  0.00     0.134 A 
ATOM     64  C   UNL A   1      42.421  22.385  25.832  1.00  0.00     0.134 A 
ATOM     65  F   UNL A   1      42.462  22.468  29.462  1.00  0.00    -0.206 F 
ATOM     66  C   UNL A   1      41.748  20.781  27.998  1.00  0.00     0.040 A 
ATOM     67  C   UNL A   1      41.873  21.118  25.619  1.00  0.00     0.040 A 
ATOM     68  F   UNL A   1      42.745  23.118  24.756  1.00  0.00    -0.206 F 
ATOM     69  C   UNL A   1      41.543  20.309  26.704  1.00  0.00     0.006 A 
ENDBRANCH  48  62
BRANCH  49  70
ATOM     70  C   UNL A   1      46.110  32.107  28.948  1.00  0.00     0.057 A 
ATOM     71  C   UNL A   1      46.508  32.484  30.236  1.00  0.00     0.134 A 
ATOM     72  C   UNL A   1      46.236  33.060  27.930  1.00  0.00     0.134 A 
ATOM     73  F   UNL A   1      46.401  31.619  31.255  1.00  0.00    -0.206 F 
ATOM     74  C   UNL A   1      46.992  33.764  30.508  1.00  0.00     0.040 A 
ATOM     75  C   UNL A   1      46.742  34.336  28.183  1.00  0.00     0.040 A 
ATOM     76  F   UNL A   1      45.885  32.757  26.672  1.00  0.00    -0.206 F 
ATOM     77  C   UNL A   1      47.114  34.694  29.477  1.00  0.00     0.006 A 
ENDBRANCH  49  70
BRANCH  61  78
ATOM     78  C   UNL A   1      49.046  26.190  26.763  1.00  0.00     0.057 A 
ATOM     79  C   UNL A   1      49.936  25.599  27.669  1.00  0.00     0.134 A 
ATOM     80  C   UNL A   1      49.509  26.446  25.467  1.00  0.00     0.134 A 
ATOM     81  F   UNL A   1      49.552  25.340  28.928  1.00  0.00    -0.206 F 
ATOM     82  C   UNL A   1      51.250  25.303  27.307  1.00  0.00     0.040 A 
ATOM     83  C   UNL A   1      50.813  26.129  25.087  1.00  0.00     0.040 A 
ATOM     84  F   UNL A   1      48.703  27.001  24.551  1.00  0.00    -0.206 F 
ATOM     85  C   UNL A   1      51.691  25.565  26.011  1.00  0.00     0.006 A 
ENDBRANCH  61  78
ENDBRANCH  35  36
ENDBRANCH  27  30
ENDBRANCH  25  26
ENDBRANCH  24  25
ENDBRANCH   1  24
TORSDOF 13
ENDMDL
MODEL 3
REMARK VINA RESULT:     -11.7      2.981      4.756
REMARK SMILES CC1(C)CCSC[C@@]1(Nc1ccccc1Br)C(=O)NCCCCNC(=O)c1ccc(-c2c3nc(c(-c4c(F)cccc4F)c4ccc([nH]4)c(-c4c(F)cccc4F)c4nc(c(-c5c(F)cccc5F)c5ccc2[nH]5)C=C4)C=C3)cc1
REMARK SMILES IDX 21 1 20 2 19 3 17 4 18 5 8 7 1 8 2 9 3 10 4 11 5 12 7 13
REMARK SMILES IDX 6 14 9 15 10 17 11 18 15 19 12 20 14 21 16 22 13 23 22 24
REMARK SMILES IDX 23 25 24 26 25 27 26 29 27 30 28 31 80 32 29 33 79 34 30 35
REMARK SMILES IDX 31 36 32 37 73 38 33 39 78 40 72 41 74 42 34 43 77 44 71 45
REMARK SMILES IDX 70 46 35 48 61 49 44 50 60 51 45 52 48 53 59 54 75 55 46 56
REMARK SMILES IDX 47 57 58 59 76 60 49 61 36 62 37 63 42 64 38 65 39 66 41 67
REMARK SMILES IDX 43 68 40 69 62 70 63 71 68 72 64 73 65 74 67 75 69 76 66 77
REMARK SMILES IDX 50 78 51 79 56 80 52 81 53 82 55 83 57 84 54 85
REMARK H PARENT 19 6 9 16 24 28 74 47 48 58
REMARK Flexibility Score: inf
ROOT
ATOM      1  C   UNL A   1      32.051  28.201  27.254  1.00  0.00     0.023 C 
ENDROOT
BRANCH   1   2
ATOM      2  C   UNL A   1      31.105  27.338  26.433  1.00  0.00     0.116 C 
BRANCH   2   3
ATOM      3  N   UNL A   1      30.956  25.919  26.739  1.00  0.00    -0.354 N 
ATOM      4  C   UNL A   1      31.635  24.788  26.339  1.00  0.00     0.247 C 
ATOM      5  O   UNL A   1      31.548  23.807  27.089  1.00  0.00    -0.272 OA
ATOM      6  H   UNL A   1      30.217  25.730  27.360  1.00  0.00     0.163 HD
BRANCH   4   7
ATOM      7  C   UNL A   1      32.511  24.722  25.045  1.00  0.00     0.131 C 
ATOM      8  C   UNL A   1      30.530  23.797  23.564  1.00  0.00     0.014 C 
ATOM      9  C   UNL A   1      31.956  23.486  24.138  1.00  0.00    -0.002 C 
ATOM     10  C   UNL A   1      31.754  22.136  24.861  1.00  0.00     0.014 C 
ATOM     11  C   UNL A   1      32.900  23.190  22.946  1.00  0.00     0.020 C 
ATOM     12  C   UNL A   1      33.066  24.317  21.940  1.00  0.00     0.070 C 
ATOM     13  C   UNL A   1      32.390  25.992  24.138  1.00  0.00     0.108 C 
ATOM     14  S   UNL A   1      33.476  25.940  22.635  1.00  0.00    -0.159 SA
BRANCH   7  15
ATOM     15  N   UNL A   1      33.958  24.632  25.417  1.00  0.00    -0.369 N 
ATOM     16  H   UNL A   1      34.344  25.466  25.771  1.00  0.00     0.161 HD
BRANCH  15  17
ATOM     17  C   UNL A   1      34.861  23.549  25.344  1.00  0.00     0.049 A 
ATOM     18  C   UNL A   1      35.757  23.632  24.240  1.00  0.00     0.027 A 
ATOM     19  C   UNL A   1      34.935  22.333  26.072  1.00  0.00     0.041 A 
ATOM     20  C   UNL A   1      36.616  22.594  23.852  1.00  0.00     0.002 A 
ATOM     21  C   UNL A   1      35.806  21.290  25.669  1.00  0.00     0.018 A 
ATOM     22  Br  UNL A   1      33.973  21.810  27.630  1.00  0.00    -0.049 Br
ATOM     23  C   UNL A   1      36.629  21.411  24.560  1.00  0.00     0.001 A 
ENDBRANCH  15  17
ENDBRANCH   7  15
ENDBRANCH   4   7
ENDBRANCH   2   3
ENDBRANCH   1   2
BRANCH   1  24
ATOM     24  C   UNL A   1      33.526  28.029  26.948  1.00  0.00     0.023 C 
BRANCH  24  25
ATOM     25  C   UNL A   1      34.058  29.153  26.082  1.00  0.00     0.116 C 
BRANCH  25  26
ATOM     26  N   UNL A   1      33.833  30.461  26.693  1.00  0.00    -0.352 N 
ATOM     27  C   UNL A   1      34.497  31.089  27.712  1.00  0.00     0.251 C 
ATOM     28  H   UNL A   1      33.084  30.972  26.310  1.00  0.00     0.163 HD
ATOM     29  O   UNL A   1      34.028  32.107  28.209  1.00  0.00    -0.269 OA
BRANCH  27  30
ATOM     30  C   UNL A   1      35.769  30.535  28.222  1.00  0.00     0.039 A 
ATOM     31  C   UNL A   1      35.741  29.707  29.345  1.00  0.00     0.014 A 
ATOM     32  C   UNL A   1      36.985  30.847  27.611  1.00  0.00     0.014 A 
ATOM     33  C   UNL A   1      36.932  29.174  29.835  1.00  0.00     0.010 A 
ATOM     34  C   UNL A   1      38.148  30.212  28.016  1.00  0.00     0.010 A 
ATOM     35  C   UNL A   1      38.142  29.409  29.161  1.00  0.00    -0.014 A 
BRANCH  35  36
ATOM     36  C   UNL A   1      39.424  28.885  29.683  1.00  0.00     0.031 A 
ATOM     37  C   UNL A   1      40.010  29.468  30.942  1.00  0.00     0.074 A 
ATOM     38  C   UNL A   1      40.073  27.922  29.002  1.00  0.00     0.049 A 
ATOM     39  N   UNL A   1      41.130  29.168  31.549  1.00  0.00    -0.248 NA
ATOM     40  C   UNL A   1      39.263  30.565  31.581  1.00  0.00     0.031 C 
ATOM     41  C   UNL A   1      39.637  27.343  27.729  1.00  0.00     0.029 A 
ATOM     42  N   UNL A   1      41.234  27.255  29.291  1.00  0.00    -0.354 N 
ATOM     43  C   UNL A   1      41.229  30.055  32.614  1.00  0.00     0.074 A 
ATOM     44  C   UNL A   1      40.101  30.952  32.530  1.00  0.00     0.031 C 
ATOM     45  C   UNL A   1      40.492  26.370  27.374  1.00  0.00     0.029 A 
ATOM     46  C   UNL A   1      41.547  26.279  28.377  1.00  0.00     0.049 A 
ATOM     47  H   UNL A   1      41.790  27.457  30.078  1.00  0.00     0.167 HD
ATOM     48  C   UNL A   1      42.156  30.095  33.599  1.00  0.00     0.037 A 
ATOM     49  C   UNL A   1      42.564  25.400  28.366  1.00  0.00     0.037 A 
ATOM     50  C   UNL A   1      43.241  29.159  33.705  1.00  0.00     0.049 A 
ATOM     51  C   UNL A   1      43.542  25.416  29.508  1.00  0.00     0.074 A 
ATOM     52  C   UNL A   1      44.201  29.053  34.695  1.00  0.00     0.029 A 
ATOM     53  N   UNL A   1      43.500  28.152  32.785  1.00  0.00    -0.354 N 
ATOM     54  N   UNL A   1      43.585  26.214  30.548  1.00  0.00    -0.248 NA
ATOM     55  C   UNL A   1      44.601  24.400  29.482  1.00  0.00     0.031 C 
ATOM     56  C   UNL A   1      45.058  28.000  34.358  1.00  0.00     0.029 A 
ATOM     57  C   UNL A   1      44.609  27.424  33.180  1.00  0.00     0.049 A 
ATOM     58  H   UNL A   1      42.973  27.982  31.971  1.00  0.00     0.167 HD
ATOM     59  C   UNL A   1      44.661  25.784  31.312  1.00  0.00     0.074 A 
ATOM     60  C   UNL A   1      45.227  24.639  30.625  1.00  0.00     0.031 C 
ATOM     61  C   UNL A   1      45.146  26.291  32.473  1.00  0.00     0.037 A 
BRANCH  48  62
ATOM     62  C   UNL A   1      42.016  31.169  34.639  1.00  0.00     0.057 A 
ATOM     63  C   UNL A   1      42.682  32.399  34.529  1.00  0.00     0.134 A 
ATOM     64  C   UNL A   1      41.202  30.978  35.763  1.00  0.00     0.134 A 
ATOM     65  F   UNL A   1      43.492  32.642  33.487  1.00  0.00    -0.206 F 
ATOM     66  C   UNL A   1      42.572  33.382  35.514  1.00  0.00     0.040 A 
ATOM     67  C   UNL A   1      41.061  31.966  36.740  1.00  0.00     0.040 A 
ATOM     68  F   UNL A   1      40.534  29.828  35.932  1.00  0.00    -0.206 F 
ATOM     69  C   UNL A   1      41.754  33.169  36.621  1.00  0.00     0.006 A 
ENDBRANCH  48  62
BRANCH  49  70
ATOM     70  C   UNL A   1      42.668  24.397  27.278  1.00  0.00     0.057 A 
ATOM     71  C   UNL A   1      42.119  23.117  27.422  1.00  0.00     0.134 A 
ATOM     72  C   UNL A   1      43.302  24.693  26.066  1.00  0.00     0.134 A 
ATOM     73  F   UNL A   1      41.509  22.770  28.564  1.00  0.00    -0.206 F 
ATOM     74  C   UNL A   1      42.216  22.161  26.410  1.00  0.00     0.040 A 
ATOM     75  C   UNL A   1      43.384  23.754  25.035  1.00  0.00     0.040 A 
ATOM     76  F   UNL A   1      43.836  25.906  25.859  1.00  0.00    -0.206 F 
ATOM     77  C   UNL A   1      42.847  22.481  25.210  1.00  0.00     0.006 A 
ENDBRANCH  49  70
BRANCH  61  78
ATOM     78  C   UNL A   1      46.328  25.590  33.073  1.00  0.00     0.057 A 
ATOM     79  C   UNL A   1      47.641  25.972  32.769  1.00  0.00     0.134 A 
ATOM     80  C   UNL A   1      46.148  24.537  33.976  1.00  0.00     0.134 A 
ATOM     81  F   UNL A   1      47.877  26.967  31.901  1.00  0.00    -0.206 F 
ATOM     82  C   UNL A   1      48.736  25.306  33.319  1.00  0.00     0.040 A 
ATOM     83  C   UNL A   1      47.235  23.882  34.554  1.00  0.00     0.040 A 
ATOM     84  F   UNL A   1      44.916  24.132  34.316  1.00  0.00    -0.206 F 
ATOM     85  C   UNL A   1      48.534  24.259  34.218  1.00  0.00     0.006 A 
ENDBRANCH  61  78
ENDBRANCH  35  36
ENDBRANCH  27  30
ENDBRANCH  25  26
ENDBRANCH  24  25
ENDBRANCH   1  24
TORSDOF 13
ENDMDL
