MODEL 1
REMARK VINA RESULT:     -11.1      0.000      0.000
REMARK SMILES CC(=O)[C@H]1CC(C)=C(C)C[C@@H]1C(=O)NCCCCNC(=O)c1ccc(-c2c3nc(c(-c4c(F)cccc4F)c4ccc([nH]4)c(-c4c(F)cccc4F)c4nc(c(-c5c(F)cccc5F)c5ccc2[nH]5)C=C4)C=C3)cc1
REMARK SMILES IDX 17 1 16 2 15 3 14 4 12 5 13 6 11 8 4 9 5 10 6 11 10 12 7 13
REMARK SMILES IDX 8 14 9 15 2 16 1 17 3 18 18 19 19 20 20 21 21 23 22 24 23 25
REMARK SMILES IDX 75 26 24 27 74 28 25 29 26 30 27 31 68 32 28 33 73 34 67 35
REMARK SMILES IDX 69 36 29 37 72 38 66 39 65 40 30 42 56 43 39 44 55 45 40 46
REMARK SMILES IDX 43 47 54 48 70 49 41 50 42 51 53 53 71 54 44 55 31 56 32 57
REMARK SMILES IDX 37 58 33 59 34 60 36 61 38 62 35 63 57 64 58 65 63 66 59 67
REMARK SMILES IDX 60 68 62 69 64 70 61 71 45 72 46 73 51 74 47 75 48 76 50 77
REMARK SMILES IDX 52 78 49 79
REMARK H PARENT 14 7 19 22 69 41 43 52
REMARK Flexibility Score: inf
ROOT
ATOM      1  C   UNL A   1      37.669  20.068  24.955  1.00  0.00     0.023 C 
ENDROOT
BRANCH   1   2
ATOM      2  C   UNL A   1      36.576  21.128  24.849  1.00  0.00     0.023 C 
BRANCH   2   3
ATOM      3  C   UNL A   1      37.001  22.446  24.217  1.00  0.00     0.116 C 
BRANCH   3   4
ATOM      4  N   UNL A   1      35.990  23.054  23.381  1.00  0.00    -0.356 N 
ATOM      5  C   UNL A   1      34.907  23.803  23.727  1.00  0.00     0.224 C 
ATOM      6  O   UNL A   1      34.298  24.359  22.809  1.00  0.00    -0.275 OA
ATOM      7  H   UNL A   1      36.102  22.905  22.415  1.00  0.00     0.163 HD
BRANCH   5   8
ATOM      8  C   UNL A   1      34.413  23.942  25.171  1.00  0.00     0.093 C 
ATOM      9  C   UNL A   1      33.012  23.354  25.383  1.00  0.00     0.072 C 
ATOM     10  C   UNL A   1      31.941  24.280  25.983  1.00  0.00     0.043 C 
ATOM     11  C   UNL A   1      32.225  25.762  26.005  1.00  0.00    -0.074 C 
ATOM     12  C   UNL A   1      34.668  25.368  25.676  1.00  0.00     0.045 C 
ATOM     13  C   UNL A   1      30.996  26.617  26.194  1.00  0.00     0.039 C 
ATOM     14  C   UNL A   1      33.472  26.257  25.878  1.00  0.00    -0.074 C 
ATOM     15  C   UNL A   1      33.787  27.730  25.965  1.00  0.00     0.039 C 
BRANCH   9  16
ATOM     16  C   UNL A   1      33.117  22.102  26.248  1.00  0.00     0.134 C 
ATOM     17  C   UNL A   1      33.478  22.303  27.699  1.00  0.00     0.088 C 
ATOM     18  O   UNL A   1      32.880  20.979  25.803  1.00  0.00    -0.300 OA
ENDBRANCH   9  16
ENDBRANCH   5   8
ENDBRANCH   3   4
ENDBRANCH   2   3
ENDBRANCH   1   2
BRANCH   1  19
ATOM     19  C   UNL A   1      38.921  20.483  25.719  1.00  0.00     0.116 C 
BRANCH  19  20
ATOM     20  N   UNL A   1      39.952  19.454  25.749  1.00  0.00    -0.352 N 
ATOM     21  C   UNL A   1      41.274  19.548  26.116  1.00  0.00     0.251 C 
ATOM     22  H   UNL A   1      39.659  18.559  25.463  1.00  0.00     0.163 HD
ATOM     23  O   UNL A   1      42.021  18.583  25.982  1.00  0.00    -0.269 OA
BRANCH  21  24
ATOM     24  C   UNL A   1      41.805  20.827  26.630  1.00  0.00     0.039 A 
ATOM     25  C   UNL A   1      42.303  21.764  25.721  1.00  0.00     0.014 A 
ATOM     26  C   UNL A   1      41.774  21.119  27.996  1.00  0.00     0.014 A 
ATOM     27  C   UNL A   1      42.678  23.032  26.172  1.00  0.00     0.010 A 
ATOM     28  C   UNL A   1      42.071  22.406  28.432  1.00  0.00     0.010 A 
ATOM     29  C   UNL A   1      42.516  23.379  27.523  1.00  0.00    -0.014 A 
BRANCH  29  30
ATOM     30  C   UNL A   1      42.788  24.757  28.006  1.00  0.00     0.031 A 
ATOM     31  C   UNL A   1      44.180  25.154  28.411  1.00  0.00     0.074 A 
ATOM     32  C   UNL A   1      41.768  25.624  28.161  1.00  0.00     0.049 A 
ATOM     33  N   UNL A   1      44.598  26.274  28.945  1.00  0.00    -0.248 NA
ATOM     34  C   UNL A   1      45.237  24.149  28.219  1.00  0.00     0.031 C 
ATOM     35  C   UNL A   1      40.363  25.344  27.858  1.00  0.00     0.029 A 
ATOM     36  N   UNL A   1      41.755  26.916  28.626  1.00  0.00    -0.354 N 
ATOM     37  C   UNL A   1      45.956  26.098  29.173  1.00  0.00     0.074 A 
ATOM     38  C   UNL A   1      46.283  24.749  28.765  1.00  0.00     0.031 C 
ATOM     39  C   UNL A   1      39.630  26.438  28.123  1.00  0.00     0.029 A 
ATOM     40  C   UNL A   1      40.504  27.482  28.648  1.00  0.00     0.049 A 
ATOM     41  H   UNL A   1      42.567  27.392  28.915  1.00  0.00     0.167 HD
ATOM     42  C   UNL A   1      46.856  26.987  29.657  1.00  0.00     0.037 A 
ATOM     43  C   UNL A   1      40.105  28.703  29.052  1.00  0.00     0.037 A 
ATOM     44  C   UNL A   1      46.538  28.341  30.029  1.00  0.00     0.049 A 
ATOM     45  C   UNL A   1      41.125  29.677  29.571  1.00  0.00     0.074 A 
ATOM     46  C   UNL A   1      47.393  29.338  30.463  1.00  0.00     0.029 A 
ATOM     47  N   UNL A   1      45.264  28.886  30.006  1.00  0.00    -0.354 N 
ATOM     48  N   UNL A   1      42.418  29.519  29.718  1.00  0.00    -0.248 NA
ATOM     49  C   UNL A   1      40.630  31.001  29.976  1.00  0.00     0.031 C 
ATOM     50  C   UNL A   1      46.630  30.479  30.737  1.00  0.00     0.029 A 
ATOM     51  C   UNL A   1      45.307  30.203  30.434  1.00  0.00     0.049 A 
ATOM     52  H   UNL A   1      44.449  28.409  29.727  1.00  0.00     0.167 HD
ATOM     53  C   UNL A   1      42.895  30.728  30.206  1.00  0.00     0.074 A 
ATOM     54  C   UNL A   1      41.754  31.614  30.319  1.00  0.00     0.031 C 
ATOM     55  C   UNL A   1      44.164  31.074  30.531  1.00  0.00     0.037 A 
BRANCH  42  56
ATOM     56  C   UNL A   1      48.275  26.523  29.801  1.00  0.00     0.057 A 
ATOM     57  C   UNL A   1      48.716  25.843  30.944  1.00  0.00     0.134 A 
ATOM     58  C   UNL A   1      49.205  26.735  28.776  1.00  0.00     0.134 A 
ATOM     59  F   UNL A   1      47.878  25.620  31.968  1.00  0.00    -0.206 F 
ATOM     60  C   UNL A   1      50.037  25.412  31.073  1.00  0.00     0.040 A 
ATOM     61  C   UNL A   1      50.522  26.287  28.883  1.00  0.00     0.040 A 
ATOM     62  F   UNL A   1      48.848  27.375  27.653  1.00  0.00    -0.206 F 
ATOM     63  C   UNL A   1      50.943  25.629  30.037  1.00  0.00     0.006 A 
ENDBRANCH  42  56
BRANCH  43  64
ATOM     64  C   UNL A   1      38.674  29.086  28.957  1.00  0.00     0.057 A 
ATOM     65  C   UNL A   1      37.832  29.000  30.071  1.00  0.00     0.134 A 
ATOM     66  C   UNL A   1      38.113  29.536  27.757  1.00  0.00     0.134 A 
ATOM     67  F   UNL A   1      38.309  28.559  31.245  1.00  0.00    -0.206 F 
ATOM     68  C   UNL A   1      36.479  29.332  29.993  1.00  0.00     0.040 A 
ATOM     69  C   UNL A   1      36.766  29.891  27.669  1.00  0.00     0.040 A 
ATOM     70  F   UNL A   1      38.869  29.645  26.655  1.00  0.00    -0.206 F 
ATOM     71  C   UNL A   1      35.944  29.783  28.789  1.00  0.00     0.006 A 
ENDBRANCH  43  64
BRANCH  55  72
ATOM     72  C   UNL A   1      44.393  32.478  31.005  1.00  0.00     0.057 A 
ATOM     73  C   UNL A   1      44.362  32.812  32.364  1.00  0.00     0.134 A 
ATOM     74  C   UNL A   1      44.686  33.498  30.092  1.00  0.00     0.134 A 
ATOM     75  F   UNL A   1      44.072  31.882  33.287  1.00  0.00    -0.206 F 
ATOM     76  C   UNL A   1      44.596  34.118  32.798  1.00  0.00     0.040 A 
ATOM     77  C   UNL A   1      44.946  34.802  30.515  1.00  0.00     0.040 A 
ATOM     78  F   UNL A   1      44.738  33.242  28.776  1.00  0.00    -0.206 F 
ATOM     79  C   UNL A   1      44.896  35.116  31.872  1.00  0.00     0.006 A 
ENDBRANCH  55  72
ENDBRANCH  29  30
ENDBRANCH  21  24
ENDBRANCH  19  20
ENDBRANCH   1  19
TORSDOF 12
ENDMDL
MODEL 2
REMARK VINA RESULT:     -11.0      1.292      2.192
REMARK SMILES CC(=O)[C@H]1CC(C)=C(C)C[C@@H]1C(=O)NCCCCNC(=O)c1ccc(-c2c3nc(c(-c4c(F)cccc4F)c4ccc([nH]4)c(-c4c(F)cccc4F)c4nc(c(-c5c(F)cccc5F)c5ccc2[nH]5)C=C4)C=C3)cc1
REMARK SMILES IDX 17 1 16 2 15 3 14 4 12 5 13 6 11 8 4 9 5 10 6 11 10 12 7 13
REMARK SMILES IDX 8 14 9 15 2 16 1 17 3 18 18 19 19 20 20 21 21 23 22 24 23 25
REMARK SMILES IDX 75 26 24 27 74 28 25 29 26 30 27 31 68 32 28 33 73 34 67 35
REMARK SMILES IDX 69 36 29 37 72 38 66 39 65 40 30 42 56 43 39 44 55 45 40 46
REMARK SMILES IDX 43 47 54 48 70 49 41 50 42 51 53 53 71 54 44 55 31 56 32 57
REMARK SMILES IDX 37 58 33 59 34 60 36 61 38 62 35 63 57 64 58 65 63 66 59 67
REMARK SMILES IDX 60 68 62 69 64 70 61 71 45 72 46 73 51 74 47 75 48 76 50 77
REMARK SMILES IDX 52 78 49 79
REMARK H PARENT 14 7 19 22 69 41 43 52
REMARK Flexibility Score: inf
ROOT
ATOM      1  C   UNL A   1      37.768  19.809  24.957  1.00  0.00     0.023 C 
ENDROOT
BRANCH   1   2
ATOM      2  C   UNL A   1      36.673  20.870  24.887  1.00  0.00     0.023 C 
BRANCH   2   3
ATOM      3  C   UNL A   1      37.085  22.196  24.266  1.00  0.00     0.116 C 
BRANCH   3   4
ATOM      4  N   UNL A   1      36.083  22.782  23.404  1.00  0.00    -0.356 N 
ATOM      5  C   UNL A   1      35.005  23.552  23.718  1.00  0.00     0.224 C 
ATOM      6  O   UNL A   1      34.404  24.080  22.778  1.00  0.00    -0.275 OA
ATOM      7  H   UNL A   1      36.197  22.598  22.444  1.00  0.00     0.163 HD
BRANCH   5   8
ATOM      8  C   UNL A   1      34.506  23.747  25.153  1.00  0.00     0.093 C 
ATOM      9  C   UNL A   1      33.146  23.085  25.410  1.00  0.00     0.072 C 
ATOM     10  C   UNL A   1      32.019  23.976  25.959  1.00  0.00     0.043 C 
ATOM     11  C   UNL A   1      32.208  25.471  25.889  1.00  0.00    -0.074 C 
ATOM     12  C   UNL A   1      34.670  25.214  25.570  1.00  0.00     0.045 C 
ATOM     13  C   UNL A   1      30.927  26.256  26.034  1.00  0.00     0.039 C 
ATOM     14  C   UNL A   1      33.420  26.036  25.725  1.00  0.00    -0.074 C 
ATOM     15  C   UNL A   1      33.640  27.529  25.721  1.00  0.00     0.039 C 
BRANCH   9  16
ATOM     16  C   UNL A   1      33.333  21.896  26.348  1.00  0.00     0.134 C 
ATOM     17  C   UNL A   1      33.616  22.209  27.796  1.00  0.00     0.088 C 
ATOM     18  O   UNL A   1      33.218  20.734  25.960  1.00  0.00    -0.300 OA
ENDBRANCH   9  16
ENDBRANCH   5   8
ENDBRANCH   3   4
ENDBRANCH   2   3
ENDBRANCH   1   2
BRANCH   1  19
ATOM     19  C   UNL A   1      39.012  20.194  25.749  1.00  0.00     0.116 C 
BRANCH  19  20
ATOM     20  N   UNL A   1      40.001  19.128  25.836  1.00  0.00    -0.352 N 
ATOM     21  C   UNL A   1      41.348  19.200  26.102  1.00  0.00     0.251 C 
ATOM     22  H   UNL A   1      39.652  18.220  25.679  1.00  0.00     0.163 HD
ATOM     23  O   UNL A   1      42.044  18.191  26.038  1.00  0.00    -0.269 OA
BRANCH  21  24
ATOM     24  C   UNL A   1      41.964  20.502  26.424  1.00  0.00     0.039 A 
ATOM     25  C   UNL A   1      42.346  21.345  25.376  1.00  0.00     0.014 A 
ATOM     26  C   UNL A   1      42.127  20.911  27.750  1.00  0.00     0.014 A 
ATOM     27  C   UNL A   1      42.800  22.635  25.658  1.00  0.00     0.010 A 
ATOM     28  C   UNL A   1      42.500  22.223  28.025  1.00  0.00     0.010 A 
ATOM     29  C   UNL A   1      42.832  23.102  26.982  1.00  0.00    -0.014 A 
BRANCH  29  30
ATOM     30  C   UNL A   1      43.189  24.508  27.300  1.00  0.00     0.031 A 
ATOM     31  C   UNL A   1      44.625  24.947  27.267  1.00  0.00     0.074 A 
ATOM     32  C   UNL A   1      42.230  25.367  27.699  1.00  0.00     0.049 A 
ATOM     33  N   UNL A   1      45.146  26.100  27.604  1.00  0.00    -0.248 NA
ATOM     34  C   UNL A   1      45.613  23.949  26.828  1.00  0.00     0.031 C 
ATOM     35  C   UNL A   1      40.806  25.050  27.827  1.00  0.00     0.029 A 
ATOM     36  N   UNL A   1      42.313  26.681  28.085  1.00  0.00    -0.354 N 
ATOM     37  C   UNL A   1      46.517  25.958  27.440  1.00  0.00     0.074 A 
ATOM     38  C   UNL A   1      46.754  24.593  27.020  1.00  0.00     0.031 C 
ATOM     39  C   UNL A   1      40.147  26.145  28.239  1.00  0.00     0.029 A 
ATOM     40  C   UNL A   1      41.104  27.229  28.439  1.00  0.00     0.049 A 
ATOM     41  H   UNL A   1      43.158  27.185  28.105  1.00  0.00     0.167 HD
ATOM     42  C   UNL A   1      47.490  26.885  27.600  1.00  0.00     0.037 A 
ATOM     43  C   UNL A   1      40.800  28.465  28.882  1.00  0.00     0.037 A 
ATOM     44  C   UNL A   1      47.252  28.252  27.982  1.00  0.00     0.049 A 
ATOM     45  C   UNL A   1      41.897  29.480  29.037  1.00  0.00     0.074 A 
ATOM     46  C   UNL A   1      48.165  29.285  28.103  1.00  0.00     0.029 A 
ATOM     47  N   UNL A   1      46.009  28.777  28.300  1.00  0.00    -0.354 N 
ATOM     48  N   UNL A   1      43.182  29.351  28.814  1.00  0.00    -0.248 NA
ATOM     49  C   UNL A   1      41.499  30.817  29.503  1.00  0.00     0.031 C 
ATOM     50  C   UNL A   1      47.479  30.427  28.530  1.00  0.00     0.029 A 
ATOM     51  C   UNL A   1      46.133  30.115  28.634  1.00  0.00     0.049 A 
ATOM     52  H   UNL A   1      45.163  28.273  28.291  1.00  0.00     0.167 HD
ATOM     53  C   UNL A   1      43.742  30.592  29.085  1.00  0.00     0.074 A 
ATOM     54  C   UNL A   1      42.655  31.465  29.478  1.00  0.00     0.031 C 
ATOM     55  C   UNL A   1      45.040  30.973  29.014  1.00  0.00     0.037 A 
BRANCH  42  56
ATOM     56  C   UNL A   1      48.904  26.451  27.352  1.00  0.00     0.057 A 
ATOM     57  C   UNL A   1      49.478  26.503  26.075  1.00  0.00     0.134 A 
ATOM     58  C   UNL A   1      49.710  26.000  28.405  1.00  0.00     0.134 A 
ATOM     59  F   UNL A   1      48.755  26.912  25.021  1.00  0.00    -0.206 F 
ATOM     60  C   UNL A   1      50.795  26.098  25.849  1.00  0.00     0.040 A 
ATOM     61  C   UNL A   1      51.035  25.617  28.196  1.00  0.00     0.040 A 
ATOM     62  F   UNL A   1      49.224  25.930  29.653  1.00  0.00    -0.206 F 
ATOM     63  C   UNL A   1      51.579  25.659  26.913  1.00  0.00     0.006 A 
ENDBRANCH  42  56
BRANCH  43  64
ATOM     64  C   UNL A   1      39.391  28.820  29.184  1.00  0.00     0.057 A 
ATOM     65  C   UNL A   1      38.569  29.390  28.205  1.00  0.00     0.134 A 
ATOM     66  C   UNL A   1      38.837  28.610  30.451  1.00  0.00     0.134 A 
ATOM     67  F   UNL A   1      39.051  29.632  26.976  1.00  0.00    -0.206 F 
ATOM     68  C   UNL A   1      37.251  29.755  28.479  1.00  0.00     0.040 A 
ATOM     69  C   UNL A   1      37.513  28.950  30.734  1.00  0.00     0.040 A 
ATOM     70  F   UNL A   1      39.572  28.062  31.430  1.00  0.00    -0.206 F 
ATOM     71  C   UNL A   1      36.718  29.531  29.747  1.00  0.00     0.006 A 
ENDBRANCH  43  64
BRANCH  55  72
ATOM     72  C   UNL A   1      45.352  32.405  29.334  1.00  0.00     0.057 A 
ATOM     73  C   UNL A   1      45.236  33.417  28.375  1.00  0.00     0.134 A 
ATOM     74  C   UNL A   1      45.735  32.776  30.629  1.00  0.00     0.134 A 
ATOM     75  F   UNL A   1      44.887  33.123  27.113  1.00  0.00    -0.206 F 
ATOM     76  C   UNL A   1      45.509  34.751  28.688  1.00  0.00     0.040 A 
ATOM     77  C   UNL A   1      45.987  34.109  30.960  1.00  0.00     0.040 A 
ATOM     78  F   UNL A   1      45.858  31.855  31.595  1.00  0.00    -0.206 F 
ATOM     79  C   UNL A   1      45.879  35.100  29.986  1.00  0.00     0.006 A 
ENDBRANCH  55  72
ENDBRANCH  29  30
ENDBRANCH  21  24
ENDBRANCH  19  20
ENDBRANCH   1  19
TORSDOF 12
ENDMDL
MODEL 3
REMARK VINA RESULT:     -11.0      2.771      4.177
REMARK SMILES CC(=O)[C@H]1CC(C)=C(C)C[C@@H]1C(=O)NCCCCNC(=O)c1ccc(-c2c3nc(c(-c4c(F)cccc4F)c4ccc([nH]4)c(-c4c(F)cccc4F)c4nc(c(-c5c(F)cccc5F)c5ccc2[nH]5)C=C4)C=C3)cc1
REMARK SMILES IDX 17 1 16 2 15 3 14 4 12 5 13 6 11 8 4 9 5 10 6 11 10 12 7 13
REMARK SMILES IDX 8 14 9 15 2 16 1 17 3 18 18 19 19 20 20 21 21 23 22 24 23 25
REMARK SMILES IDX 75 26 24 27 74 28 25 29 26 30 27 31 68 32 28 33 73 34 67 35
REMARK SMILES IDX 69 36 29 37 72 38 66 39 65 40 30 42 56 43 39 44 55 45 40 46
REMARK SMILES IDX 43 47 54 48 70 49 41 50 42 51 53 53 71 54 44 55 31 56 32 57
REMARK SMILES IDX 37 58 33 59 34 60 36 61 38 62 35 63 57 64 58 65 63 66 59 67
REMARK SMILES IDX 60 68 62 69 64 70 61 71 45 72 46 73 51 74 47 75 48 76 50 77
REMARK SMILES IDX 52 78 49 79
REMARK H PARENT 14 7 19 22 69 41 43 52
REMARK Flexibility Score: inf
ROOT
ATOM      1  C   UNL A   1      36.072  22.819  24.863  1.00  0.00     0.023 C 
ENDROOT
BRANCH   1   2
ATOM      2  C   UNL A   1      35.638  23.035  23.416  1.00  0.00     0.023 C 
BRANCH   2   3
ATOM      3  C   UNL A   1      34.135  23.051  23.179  1.00  0.00     0.116 C 
BRANCH   3   4
ATOM      4  N   UNL A   1      33.612  24.339  22.777  1.00  0.00    -0.356 N 
ATOM      5  C   UNL A   1      33.262  25.412  23.537  1.00  0.00     0.224 C 
ATOM      6  O   UNL A   1      33.013  26.462  22.937  1.00  0.00    -0.275 OA
ATOM      7  H   UNL A   1      33.493  24.457  21.808  1.00  0.00     0.163 HD
BRANCH   5   8
ATOM      8  C   UNL A   1      33.134  25.352  25.062  1.00  0.00     0.093 C 
ATOM      9  C   UNL A   1      31.676  25.385  25.542  1.00  0.00     0.072 C 
ATOM     10  C   UNL A   1      31.290  26.478  26.552  1.00  0.00     0.043 C 
ATOM     11  C   UNL A   1      32.246  27.630  26.742  1.00  0.00    -0.074 C 
ATOM     12  C   UNL A   1      34.115  26.336  25.710  1.00  0.00     0.045 C 
ATOM     13  C   UNL A   1      31.623  28.840  27.393  1.00  0.00     0.039 C 
ATOM     14  C   UNL A   1      33.539  27.559  26.369  1.00  0.00    -0.074 C 
ATOM     15  C   UNL A   1      34.528  28.672  26.612  1.00  0.00     0.039 C 
BRANCH   9  16
ATOM     16  C   UNL A   1      31.308  24.024  26.127  1.00  0.00     0.134 C 
ATOM     17  C   UNL A   1      31.129  22.889  25.151  1.00  0.00     0.088 C 
ATOM     18  O   UNL A   1      31.203  23.842  27.340  1.00  0.00    -0.300 OA
ENDBRANCH   9  16
ENDBRANCH   5   8
ENDBRANCH   3   4
ENDBRANCH   2   3
ENDBRANCH   1   2
BRANCH   1  19
ATOM     19  C   UNL A   1      37.262  23.651  25.326  1.00  0.00     0.116 C 
BRANCH  19  20
ATOM     20  N   UNL A   1      38.461  22.863  25.580  1.00  0.00    -0.352 N 
ATOM     21  C   UNL A   1      39.601  23.197  26.272  1.00  0.00     0.251 C 
ATOM     22  H   UNL A   1      38.453  21.956  25.196  1.00  0.00     0.163 HD
ATOM     23  O   UNL A   1      40.555  22.426  26.298  1.00  0.00    -0.269 OA
BRANCH  21  24
ATOM     24  C   UNL A   1      39.692  24.506  26.950  1.00  0.00     0.039 A 
ATOM     25  C   UNL A   1      39.149  24.640  28.231  1.00  0.00     0.014 A 
ATOM     26  C   UNL A   1      40.345  25.583  26.346  1.00  0.00     0.014 A 
ATOM     27  C   UNL A   1      39.348  25.825  28.944  1.00  0.00     0.010 A 
ATOM     28  C   UNL A   1      40.613  26.729  27.087  1.00  0.00     0.010 A 
ATOM     29  C   UNL A   1      40.126  26.859  28.397  1.00  0.00    -0.014 A 
BRANCH  29  30
ATOM     30  C   UNL A   1      40.459  28.076  29.181  1.00  0.00     0.031 A 
ATOM     31  C   UNL A   1      41.776  28.174  29.898  1.00  0.00     0.074 A 
ATOM     32  C   UNL A   1      39.543  29.055  29.317  1.00  0.00     0.049 A 
ATOM     33  N   UNL A   1      42.209  29.108  30.707  1.00  0.00    -0.248 NA
ATOM     34  C   UNL A   1      42.719  27.061  29.706  1.00  0.00     0.031 C 
ATOM     35  C   UNL A   1      38.206  29.055  28.718  1.00  0.00     0.029 A 
ATOM     36  N   UNL A   1      39.593  30.235  30.015  1.00  0.00    -0.354 N 
ATOM     37  C   UNL A   1      43.460  28.685  31.136  1.00  0.00     0.074 A 
ATOM     38  C   UNL A   1      43.696  27.388  30.537  1.00  0.00     0.031 C 
ATOM     39  C   UNL A   1      37.573  30.190  29.056  1.00  0.00     0.029 A 
ATOM     40  C   UNL A   1      38.442  30.980  29.923  1.00  0.00     0.049 A 
ATOM     41  H   UNL A   1      40.379  30.521  30.532  1.00  0.00     0.167 HD
ATOM     42  C   UNL A   1      44.343  29.326  31.937  1.00  0.00     0.037 A 
ATOM     43  C   UNL A   1      38.120  32.163  30.480  1.00  0.00     0.037 A 
ATOM     44  C   UNL A   1      44.123  30.631  32.503  1.00  0.00     0.049 A 
ATOM     45  C   UNL A   1      39.124  32.862  31.353  1.00  0.00     0.074 A 
ATOM     46  C   UNL A   1      44.986  31.394  33.270  1.00  0.00     0.029 A 
ATOM     47  N   UNL A   1      42.957  31.366  32.360  1.00  0.00    -0.354 N 
ATOM     48  N   UNL A   1      40.330  32.480  31.696  1.00  0.00    -0.248 NA
ATOM     49  C   UNL A   1      38.722  34.161  31.914  1.00  0.00     0.031 C 
ATOM     50  C   UNL A   1      44.328  32.578  33.621  1.00  0.00     0.029 A 
ATOM     51  C   UNL A   1      43.072  32.569  33.037  1.00  0.00     0.049 A 
ATOM     52  H   UNL A   1      42.165  31.078  31.851  1.00  0.00     0.167 HD
ATOM     53  C   UNL A   1      40.841  33.500  32.489  1.00  0.00     0.074 A 
ATOM     54  C   UNL A   1      39.818  34.523  32.566  1.00  0.00     0.031 C 
ATOM     55  C   UNL A   1      42.049  33.581  33.097  1.00  0.00     0.037 A 
BRANCH  42  56
ATOM     56  C   UNL A   1      45.634  28.626  32.240  1.00  0.00     0.057 A 
ATOM     57  C   UNL A   1      46.764  28.778  31.425  1.00  0.00     0.134 A 
ATOM     58  C   UNL A   1      45.759  27.811  33.372  1.00  0.00     0.134 A 
ATOM     59  F   UNL A   1      46.706  29.534  30.318  1.00  0.00    -0.206 F 
ATOM     60  C   UNL A   1      47.964  28.125  31.711  1.00  0.00     0.040 A 
ATOM     61  C   UNL A   1      46.961  27.173  33.681  1.00  0.00     0.040 A 
ATOM     62  F   UNL A   1      44.717  27.625  34.196  1.00  0.00    -0.206 F 
ATOM     63  C   UNL A   1      48.066  27.325  32.846  1.00  0.00     0.006 A 
ENDBRANCH  42  56
BRANCH  43  64
ATOM     64  C   UNL A   1      36.797  32.778  30.206  1.00  0.00     0.057 A 
ATOM     65  C   UNL A   1      36.608  33.611  29.098  1.00  0.00     0.134 A 
ATOM     66  C   UNL A   1      35.699  32.557  31.044  1.00  0.00     0.134 A 
ATOM     67  F   UNL A   1      37.630  33.874  28.269  1.00  0.00    -0.206 F 
ATOM     68  C   UNL A   1      35.378  34.218  28.841  1.00  0.00     0.040 A 
ATOM     69  C   UNL A   1      34.457  33.141  30.787  1.00  0.00     0.040 A 
ATOM     70  F   UNL A   1      35.814  31.764  32.119  1.00  0.00    -0.206 F 
ATOM     71  C   UNL A   1      34.297  33.979  29.685  1.00  0.00     0.006 A 
ENDBRANCH  43  64
BRANCH  55  72
ATOM     72  C   UNL A   1      42.344  34.831  33.869  1.00  0.00     0.057 A 
ATOM     73  C   UNL A   1      42.107  34.922  35.246  1.00  0.00     0.134 A 
ATOM     74  C   UNL A   1      42.911  35.943  33.233  1.00  0.00     0.134 A 
ATOM     75  F   UNL A   1      41.552  33.896  35.909  1.00  0.00    -0.206 F 
ATOM     76  C   UNL A   1      42.405  36.084  35.961  1.00  0.00     0.040 A 
ATOM     77  C   UNL A   1      43.236  37.101  33.942  1.00  0.00     0.040 A 
ATOM     78  F   UNL A   1      43.170  35.918  31.917  1.00  0.00    -0.206 F 
ATOM     79  C   UNL A   1      42.978  37.175  35.309  1.00  0.00     0.006 A 
ENDBRANCH  55  72
ENDBRANCH  29  30
ENDBRANCH  21  24
ENDBRANCH  19  20
ENDBRANCH   1  19
TORSDOF 12
ENDMDL
