MODEL 1
REMARK VINA RESULT:     -13.4      0.000      0.000
REMARK SMILES Cc1nc(-c2ccc3c(c2)CCN3S(=O)(=O)c2ccc(F)c(C(=O)NCCCCNC(=O)c3ccc(-c4c5nc(c(-c6c(F)cccc6F)c6ccc([nH]6)c(-c6c(F)cccc6F)c6nc(c(-c7c(F)cccc7F)c7ccc4[nH]7)C=C6)C=C5)cc3)c2)cs1
REMARK SMILES IDX 27 1 26 2 25 3 23 4 24 5 22 7 17 8 18 9 87 10 19 11 20 12
REMARK SMILES IDX 21 13 14 14 15 15 16 16 13 17 5 18 6 19 10 20 7 21 9 22 8 23
REMARK SMILES IDX 11 24 12 25 4 26 1 27 2 28 3 29 89 30 88 31 28 32 29 33
REMARK SMILES IDX 30 34 31 35 32 37 33 38 34 39 86 40 35 41 85 42 36 43 37 44
REMARK SMILES IDX 38 45 79 46 39 47 84 48 78 49 80 50 40 51 83 52 77 53 76 54
REMARK SMILES IDX 41 56 67 57 50 58 66 59 51 60 54 61 65 62 81 63 52 64 53 65
REMARK SMILES IDX 64 67 82 68 55 69 42 70 43 71 48 72 44 73 45 74 47 75 49 76
REMARK SMILES IDX 46 77 68 78 69 79 74 80 70 81 71 82 73 83 75 84 72 85 56 86
REMARK SMILES IDX 57 87 62 88 58 89 59 90 61 91 63 92 60 93
REMARK H PARENT 25 6 30 36 80 55 54 66
REMARK Flexibility Score: inf
ROOT
ATOM      1  C   UNL A   1      31.942  30.214  27.022  1.00  0.00     0.023 C 
ENDROOT
BRANCH   1   2
ATOM      2  C   UNL A   1      33.281  29.617  26.619  1.00  0.00     0.116 C 
BRANCH   2   3
ATOM      3  N   UNL A   1      33.612  29.719  25.209  1.00  0.00    -0.352 N 
ATOM      4  C   UNL A   1      33.283  28.918  24.137  1.00  0.00     0.254 C 
ATOM      5  O   UNL A   1      33.647  29.287  23.019  1.00  0.00    -0.269 OA
ATOM      6  H   UNL A   1      34.168  30.498  24.978  1.00  0.00     0.163 HD
BRANCH   4   7
ATOM      7  C   UNL A   1      32.590  27.604  24.259  1.00  0.00     0.076 A 
ATOM      8  C   UNL A   1      32.670  25.195  23.994  1.00  0.00     0.089 A 
ATOM      9  C   UNL A   1      31.459  25.059  24.682  1.00  0.00     0.025 A 
ATOM     10  C   UNL A   1      33.290  26.445  23.867  1.00  0.00     0.039 A 
ATOM     11  C   UNL A   1      30.735  26.200  24.985  1.00  0.00     0.041 A 
ATOM     12  C   UNL A   1      31.264  27.450  24.670  1.00  0.00     0.136 A 
ATOM     13  F   UNL A   1      30.400  28.475  24.657  1.00  0.00    -0.206 F 
BRANCH   8  14
ATOM     14  S   UNL A   1      33.306  23.747  23.188  1.00  0.00     0.264 S 
ATOM     15  O   UNL A   1      34.404  24.198  22.359  1.00  0.00    -0.201 OA
ATOM     16  O   UNL A   1      32.188  23.048  22.584  1.00  0.00    -0.201 OA
BRANCH  14  17
ATOM     17  N   UNL A   1      33.939  22.724  24.416  1.00  0.00    -0.266 N 
ATOM     18  C   UNL A   1      37.911  22.034  25.706  1.00  0.00     0.001 A 
ATOM     19  C   UNL A   1      37.498  23.362  25.526  1.00  0.00     0.012 A 
ATOM     20  C   UNL A   1      36.995  21.000  25.469  1.00  0.00     0.016 A 
ATOM     21  C   UNL A   1      36.200  23.661  25.099  1.00  0.00     0.028 A 
ATOM     22  C   UNL A   1      35.713  21.326  25.015  1.00  0.00    -0.021 A 
ATOM     23  C   UNL A   1      35.335  22.642  24.752  1.00  0.00     0.055 A 
ATOM     24  C   UNL A   1      34.532  20.413  24.939  1.00  0.00     0.060 C 
ATOM     25  C   UNL A   1      33.481  21.292  24.243  1.00  0.00     0.140 C 
BRANCH  18  26
ATOM     26  C   UNL A   1      39.238  21.792  26.251  1.00  0.00     0.081 A 
ATOM     27  C   UNL A   1      42.022  23.153  28.184  1.00  0.00     0.079 C 
ATOM     28  C   UNL A   1      41.071  22.354  27.362  1.00  0.00     0.090 A 
ATOM     29  N   UNL A   1      39.893  22.783  26.967  1.00  0.00    -0.242 NA
ATOM     30  S   UNL A   1      41.481  20.762  26.858  1.00  0.00    -0.127 S 
ATOM     31  C   UNL A   1      39.957  20.627  26.079  1.00  0.00     0.095 A 
ENDBRANCH  18  26
ENDBRANCH  14  17
ENDBRANCH   8  14
ENDBRANCH   4   7
ENDBRANCH   2   3
ENDBRANCH   1   2
BRANCH   1  32
ATOM     32  C   UNL A   1      31.757  31.703  26.789  1.00  0.00     0.023 C 
BRANCH  32  33
ATOM     33  C   UNL A   1      32.871  32.601  27.313  1.00  0.00     0.116 C 
BRANCH  33  34
ATOM     34  N   UNL A   1      32.449  33.966  27.602  1.00  0.00    -0.352 N 
ATOM     35  C   UNL A   1      32.954  34.861  28.517  1.00  0.00     0.251 C 
ATOM     36  H   UNL A   1      31.693  34.294  27.066  1.00  0.00     0.163 HD
ATOM     37  O   UNL A   1      32.414  35.949  28.687  1.00  0.00    -0.269 OA
BRANCH  35  38
ATOM     38  C   UNL A   1      34.130  34.486  29.329  1.00  0.00     0.039 A 
ATOM     39  C   UNL A   1      33.932  33.931  30.596  1.00  0.00     0.014 A 
ATOM     40  C   UNL A   1      35.421  34.627  28.816  1.00  0.00     0.014 A 
ATOM     41  C   UNL A   1      35.023  33.428  31.305  1.00  0.00     0.010 A 
ATOM     42  C   UNL A   1      36.491  34.038  29.478  1.00  0.00     0.010 A 
ATOM     43  C   UNL A   1      36.306  33.430  30.728  1.00  0.00    -0.014 A 
BRANCH  43  44
ATOM     44  C   UNL A   1      37.464  32.797  31.410  1.00  0.00     0.031 A 
ATOM     45  C   UNL A   1      38.132  31.598  30.801  1.00  0.00     0.074 A 
ATOM     46  C   UNL A   1      37.874  33.262  32.607  1.00  0.00     0.049 A 
ATOM     47  N   UNL A   1      39.109  30.866  31.273  1.00  0.00    -0.248 NA
ATOM     48  C   UNL A   1      37.618  31.142  29.498  1.00  0.00     0.031 C 
ATOM     49  C   UNL A   1      37.281  34.394  33.324  1.00  0.00     0.029 A 
ATOM     50  N   UNL A   1      38.884  32.840  33.434  1.00  0.00    -0.354 N 
ATOM     51  C   UNL A   1      39.320  29.867  30.333  1.00  0.00     0.074 A 
ATOM     52  C   UNL A   1      38.326  30.041  29.298  1.00  0.00     0.031 C 
ATOM     53  C   UNL A   1      37.965  34.601  34.460  1.00  0.00     0.029 A 
ATOM     54  C   UNL A   1      39.011  33.590  34.578  1.00  0.00     0.049 A 
ATOM     55  H   UNL A   1      39.462  32.070  33.227  1.00  0.00     0.167 HD
ATOM     56  C   UNL A   1      40.279  28.912  30.315  1.00  0.00     0.037 A 
ATOM     57  C   UNL A   1      39.874  33.478  35.608  1.00  0.00     0.037 A 
ATOM     58  C   UNL A   1      41.278  28.753  31.339  1.00  0.00     0.049 A 
ATOM     59  C   UNL A   1      40.906  32.385  35.587  1.00  0.00     0.074 A 
ATOM     60  C   UNL A   1      42.315  27.839  31.392  1.00  0.00     0.029 A 
ATOM     61  N   UNL A   1      41.364  29.526  32.488  1.00  0.00    -0.354 N 
ATOM     62  N   UNL A   1      41.125  31.476  34.667  1.00  0.00    -0.248 NA
ATOM     63  C   UNL A   1      41.809  32.300  36.742  1.00  0.00     0.031 C 
ATOM     64  C   UNL A   1      42.995  28.024  32.598  1.00  0.00     0.029 A 
ATOM     65  C   UNL A   1      42.422  29.093  33.268  1.00  0.00     0.049 A 
ATOM     66  H   UNL A   1      40.761  30.271  32.715  1.00  0.00     0.167 HD
ATOM     67  C   UNL A   1      42.207  30.730  35.118  1.00  0.00     0.074 A 
ATOM     68  C   UNL A   1      42.605  31.299  36.389  1.00  0.00     0.031 C 
ATOM     69  C   UNL A   1      42.815  29.672  34.528  1.00  0.00     0.037 A 
BRANCH  56  70
ATOM     70  C   UNL A   1      40.305  27.974  29.143  1.00  0.00     0.057 A 
ATOM     71  C   UNL A   1      41.065  28.268  28.004  1.00  0.00     0.134 A 
ATOM     72  C   UNL A   1      39.535  26.804  29.121  1.00  0.00     0.134 A 
ATOM     73  F   UNL A   1      41.821  29.375  27.954  1.00  0.00    -0.206 F 
ATOM     74  C   UNL A   1      41.050  27.436  26.883  1.00  0.00     0.040 A 
ATOM     75  C   UNL A   1      39.536  25.949  28.018  1.00  0.00     0.040 A 
ATOM     76  F   UNL A   1      38.794  26.456  30.184  1.00  0.00    -0.206 F 
ATOM     77  C   UNL A   1      40.288  26.271  26.890  1.00  0.00     0.006 A 
ENDBRANCH  56  70
BRANCH  57  78
ATOM     78  C   UNL A   1      39.821  34.461  36.720  1.00  0.00     0.057 A 
ATOM     79  C   UNL A   1      40.522  35.672  36.669  1.00  0.00     0.134 A 
ATOM     80  C   UNL A   1      39.092  34.188  37.883  1.00  0.00     0.134 A 
ATOM     81  F   UNL A   1      41.246  35.989  35.586  1.00  0.00    -0.206 F 
ATOM     82  C   UNL A   1      40.519  36.565  37.742  1.00  0.00     0.040 A 
ATOM     83  C   UNL A   1      39.059  35.084  38.954  1.00  0.00     0.040 A 
ATOM     84  F   UNL A   1      38.384  33.054  37.987  1.00  0.00    -0.206 F 
ATOM     85  C   UNL A   1      39.783  36.273  38.888  1.00  0.00     0.006 A 
ENDBRANCH  57  78
BRANCH  69  86
ATOM     86  C   UNL A   1      43.997  29.065  35.227  1.00  0.00     0.057 A 
ATOM     87  C   UNL A   1      45.298  29.481  34.914  1.00  0.00     0.134 A 
ATOM     88  C   UNL A   1      43.857  28.006  36.132  1.00  0.00     0.134 A 
ATOM     89  F   UNL A   1      45.503  30.483  34.045  1.00  0.00    -0.206 F 
ATOM     90  C   UNL A   1      46.417  28.853  35.461  1.00  0.00     0.040 A 
ATOM     91  C   UNL A   1      44.968  27.389  36.708  1.00  0.00     0.040 A 
ATOM     92  F   UNL A   1      42.639  27.565  36.480  1.00  0.00    -0.206 F 
ATOM     93  C   UNL A   1      46.253  27.804  36.362  1.00  0.00     0.006 A 
ENDBRANCH  69  86
ENDBRANCH  43  44
ENDBRANCH  35  38
ENDBRANCH  33  34
ENDBRANCH  32  33
ENDBRANCH   1  32
TORSDOF 14
ENDMDL
MODEL 2
REMARK VINA RESULT:     -13.3      4.815     10.034
REMARK SMILES Cc1nc(-c2ccc3c(c2)CCN3S(=O)(=O)c2ccc(F)c(C(=O)NCCCCNC(=O)c3ccc(-c4c5nc(c(-c6c(F)cccc6F)c6ccc([nH]6)c(-c6c(F)cccc6F)c6nc(c(-c7c(F)cccc7F)c7ccc4[nH]7)C=C6)C=C5)cc3)c2)cs1
REMARK SMILES IDX 27 1 26 2 25 3 23 4 24 5 22 7 17 8 18 9 87 10 19 11 20 12
REMARK SMILES IDX 21 13 14 14 15 15 16 16 13 17 5 18 6 19 10 20 7 21 9 22 8 23
REMARK SMILES IDX 11 24 12 25 4 26 1 27 2 28 3 29 89 30 88 31 28 32 29 33
REMARK SMILES IDX 30 34 31 35 32 37 33 38 34 39 86 40 35 41 85 42 36 43 37 44
REMARK SMILES IDX 38 45 79 46 39 47 84 48 78 49 80 50 40 51 83 52 77 53 76 54
REMARK SMILES IDX 41 56 67 57 50 58 66 59 51 60 54 61 65 62 81 63 52 64 53 65
REMARK SMILES IDX 64 67 82 68 55 69 42 70 43 71 48 72 44 73 45 74 47 75 49 76
REMARK SMILES IDX 46 77 68 78 69 79 74 80 70 81 71 82 73 83 75 84 72 85 56 86
REMARK SMILES IDX 57 87 62 88 58 89 59 90 61 91 63 92 60 93
REMARK H PARENT 25 6 30 36 80 55 54 66
REMARK Flexibility Score: inf
ROOT
ATOM      1  C   UNL A   1      37.293  21.163  24.462  1.00  0.00     0.023 C 
ENDROOT
BRANCH   1   2
ATOM      2  C   UNL A   1      36.983  22.254  25.474  1.00  0.00     0.116 C 
BRANCH   2   3
ATOM      3  N   UNL A   1      36.065  21.879  26.535  1.00  0.00    -0.352 N 
ATOM      4  C   UNL A   1      34.691  21.951  26.618  1.00  0.00     0.254 C 
ATOM      5  O   UNL A   1      34.158  21.488  27.627  1.00  0.00    -0.269 OA
ATOM      6  H   UNL A   1      36.501  21.507  27.336  1.00  0.00     0.163 HD
BRANCH   4   7
ATOM      7  C   UNL A   1      33.829  22.622  25.604  1.00  0.00     0.076 A 
ATOM      8  C   UNL A   1      32.314  24.436  25.057  1.00  0.00     0.089 A 
ATOM      9  C   UNL A   1      32.369  24.099  23.699  1.00  0.00     0.025 A 
ATOM     10  C   UNL A   1      33.115  23.772  25.997  1.00  0.00     0.039 A 
ATOM     11  C   UNL A   1      32.999  22.920  23.332  1.00  0.00     0.041 A 
ATOM     12  C   UNL A   1      33.624  22.146  24.307  1.00  0.00     0.136 A 
ATOM     13  F   UNL A   1      33.901  20.878  23.971  1.00  0.00    -0.206 F 
BRANCH   8  14
ATOM     14  S   UNL A   1      31.102  25.639  25.540  1.00  0.00     0.264 S 
ATOM     15  O   UNL A   1      31.125  25.674  26.988  1.00  0.00    -0.201 OA
ATOM     16  O   UNL A   1      29.867  25.327  24.847  1.00  0.00    -0.201 OA
BRANCH  14  17
ATOM     17  N   UNL A   1      31.643  27.161  24.953  1.00  0.00    -0.266 N 
ATOM     18  C   UNL A   1      33.307  30.499  26.956  1.00  0.00     0.001 A 
ATOM     19  C   UNL A   1      33.815  29.227  27.260  1.00  0.00     0.012 A 
ATOM     20  C   UNL A   1      32.291  30.612  25.998  1.00  0.00     0.016 A 
ATOM     21  C   UNL A   1      33.309  28.082  26.637  1.00  0.00     0.028 A 
ATOM     22  C   UNL A   1      31.783  29.449  25.412  1.00  0.00    -0.021 A 
ATOM     23  C   UNL A   1      32.228  28.180  25.783  1.00  0.00     0.055 A 
ATOM     24  C   UNL A   1      30.889  29.365  24.217  1.00  0.00     0.060 C 
ATOM     25  C   UNL A   1      30.570  27.864  24.149  1.00  0.00     0.140 C 
BRANCH  18  26
ATOM     26  C   UNL A   1      33.946  31.658  27.560  1.00  0.00     0.081 A 
ATOM     27  C   UNL A   1      37.082  33.165  28.667  1.00  0.00     0.079 C 
ATOM     28  C   UNL A   1      35.677  32.807  28.330  1.00  0.00     0.090 A 
ATOM     29  N   UNL A   1      35.316  31.671  27.778  1.00  0.00    -0.242 NA
ATOM     30  S   UNL A   1      34.395  33.902  28.664  1.00  0.00    -0.127 S 
ATOM     31  C   UNL A   1      33.277  32.785  27.993  1.00  0.00     0.095 A 
ENDBRANCH  18  26
ENDBRANCH  14  17
ENDBRANCH   8  14
ENDBRANCH   4   7
ENDBRANCH   2   3
ENDBRANCH   1   2
BRANCH   1  32
ATOM     32  C   UNL A   1      38.011  19.930  24.982  1.00  0.00     0.023 C 
BRANCH  32  33
ATOM     33  C   UNL A   1      39.233  20.189  25.852  1.00  0.00     0.116 C 
BRANCH  33  34
ATOM     34  N   UNL A   1      40.208  19.105  25.849  1.00  0.00    -0.352 N 
ATOM     35  C   UNL A   1      41.565  19.149  26.077  1.00  0.00     0.251 C 
ATOM     36  H   UNL A   1      39.842  18.212  25.655  1.00  0.00     0.163 HD
ATOM     37  O   UNL A   1      42.250  18.140  25.947  1.00  0.00    -0.269 OA
BRANCH  35  38
ATOM     38  C   UNL A   1      42.201  20.432  26.437  1.00  0.00     0.039 A 
ATOM     39  C   UNL A   1      42.695  21.254  25.421  1.00  0.00     0.014 A 
ATOM     40  C   UNL A   1      42.255  20.848  27.769  1.00  0.00     0.014 A 
ATOM     41  C   UNL A   1      43.153  22.535  25.733  1.00  0.00     0.010 A 
ATOM     42  C   UNL A   1      42.618  22.157  28.065  1.00  0.00     0.010 A 
ATOM     43  C   UNL A   1      43.069  23.015  27.052  1.00  0.00    -0.014 A 
BRANCH  43  44
ATOM     44  C   UNL A   1      43.440  24.412  27.393  1.00  0.00     0.031 A 
ATOM     45  C   UNL A   1      44.874  24.853  27.307  1.00  0.00     0.074 A 
ATOM     46  C   UNL A   1      42.498  25.266  27.842  1.00  0.00     0.049 A 
ATOM     47  N   UNL A   1      45.405  26.006  27.625  1.00  0.00    -0.248 NA
ATOM     48  C   UNL A   1      45.845  23.859  26.821  1.00  0.00     0.031 C 
ATOM     49  C   UNL A   1      41.078  24.948  28.011  1.00  0.00     0.029 A 
ATOM     50  N   UNL A   1      42.592  26.577  28.240  1.00  0.00    -0.354 N 
ATOM     51  C   UNL A   1      46.766  25.873  27.385  1.00  0.00     0.074 A 
ATOM     52  C   UNL A   1      46.990  24.509  26.963  1.00  0.00     0.031 C 
ATOM     53  C   UNL A   1      40.430  26.043  28.436  1.00  0.00     0.029 A 
ATOM     54  C   UNL A   1      41.391  27.127  28.617  1.00  0.00     0.049 A 
ATOM     55  H   UNL A   1      43.441  27.075  28.254  1.00  0.00     0.167 HD
ATOM     56  C   UNL A   1      47.736  26.812  27.473  1.00  0.00     0.037 A 
ATOM     57  C   UNL A   1      41.095  28.365  29.059  1.00  0.00     0.037 A 
ATOM     58  C   UNL A   1      47.505  28.174  27.878  1.00  0.00     0.049 A 
ATOM     59  C   UNL A   1      42.196  29.382  29.188  1.00  0.00     0.074 A 
ATOM     60  C   UNL A   1      48.418  29.210  27.964  1.00  0.00     0.029 A 
ATOM     61  N   UNL A   1      46.276  28.687  28.265  1.00  0.00    -0.354 N 
ATOM     62  N   UNL A   1      43.471  29.256  28.911  1.00  0.00    -0.248 NA
ATOM     63  C   UNL A   1      41.818  30.710  29.690  1.00  0.00     0.031 C 
ATOM     64  C   UNL A   1      47.751  30.336  28.453  1.00  0.00     0.029 A 
ATOM     65  C   UNL A   1      46.412  30.020  28.613  1.00  0.00     0.049 A 
ATOM     66  H   UNL A   1      45.433  28.178  28.289  1.00  0.00     0.167 HD
ATOM     67  C   UNL A   1      44.043  30.494  29.177  1.00  0.00     0.074 A 
ATOM     68  C   UNL A   1      42.974  31.359  29.629  1.00  0.00     0.031 C 
ATOM     69  C   UNL A   1      45.338  30.875  29.054  1.00  0.00     0.037 A 
BRANCH  56  70
ATOM     70  C   UNL A   1      49.135  26.404  27.110  1.00  0.00     0.057 A 
ATOM     71  C   UNL A   1      50.021  25.929  28.085  1.00  0.00     0.134 A 
ATOM     72  C   UNL A   1      49.622  26.530  25.802  1.00  0.00     0.134 A 
ATOM     73  F   UNL A   1      49.624  25.789  29.359  1.00  0.00    -0.206 F 
ATOM     74  C   UNL A   1      51.343  25.605  27.773  1.00  0.00     0.040 A 
ATOM     75  C   UNL A   1      50.931  26.180  25.473  1.00  0.00     0.040 A 
ATOM     76  F   UNL A   1      48.821  26.967  24.818  1.00  0.00    -0.206 F 
ATOM     77  C   UNL A   1      51.799  25.726  26.463  1.00  0.00     0.006 A 
ENDBRANCH  56  70
BRANCH  57  78
ATOM     78  C   UNL A   1      39.686  28.718  29.366  1.00  0.00     0.057 A 
ATOM     79  C   UNL A   1      39.156  28.584  30.655  1.00  0.00     0.134 A 
ATOM     80  C   UNL A   1      38.823  29.165  28.359  1.00  0.00     0.134 A 
ATOM     81  F   UNL A   1      39.928  28.154  31.663  1.00  0.00    -0.206 F 
ATOM     82  C   UNL A   1      37.813  28.859  30.926  1.00  0.00     0.040 A 
ATOM     83  C   UNL A   1      37.486  29.467  28.621  1.00  0.00     0.040 A 
ATOM     84  F   UNL A   1      39.275  29.331  27.107  1.00  0.00    -0.206 F 
ATOM     85  C   UNL A   1      36.975  29.305  29.907  1.00  0.00     0.006 A 
ENDBRANCH  57  78
BRANCH  69  86
ATOM     86  C   UNL A   1      45.683  32.299  29.384  1.00  0.00     0.057 A 
ATOM     87  C   UNL A   1      46.000  32.667  30.698  1.00  0.00     0.134 A 
ATOM     88  C   UNL A   1      45.607  33.318  28.427  1.00  0.00     0.134 A 
ATOM     89  F   UNL A   1      46.077  31.741  31.666  1.00  0.00    -0.206 F 
ATOM     90  C   UNL A   1      46.209  34.000  31.053  1.00  0.00     0.040 A 
ATOM     91  C   UNL A   1      45.843  34.652  28.764  1.00  0.00     0.040 A 
ATOM     92  F   UNL A   1      45.317  33.032  27.149  1.00  0.00    -0.206 F 
ATOM     93  C   UNL A   1      46.132  34.997  30.083  1.00  0.00     0.006 A 
ENDBRANCH  69  86
ENDBRANCH  43  44
ENDBRANCH  35  38
ENDBRANCH  33  34
ENDBRANCH  32  33
ENDBRANCH   1  32
TORSDOF 14
ENDMDL
MODEL 3
REMARK VINA RESULT:     -13.3      4.979     10.764
REMARK SMILES Cc1nc(-c2ccc3c(c2)CCN3S(=O)(=O)c2ccc(F)c(C(=O)NCCCCNC(=O)c3ccc(-c4c5nc(c(-c6c(F)cccc6F)c6ccc([nH]6)c(-c6c(F)cccc6F)c6nc(c(-c7c(F)cccc7F)c7ccc4[nH]7)C=C6)C=C5)cc3)c2)cs1
REMARK SMILES IDX 27 1 26 2 25 3 23 4 24 5 22 7 17 8 18 9 87 10 19 11 20 12
REMARK SMILES IDX 21 13 14 14 15 15 16 16 13 17 5 18 6 19 10 20 7 21 9 22 8 23
REMARK SMILES IDX 11 24 12 25 4 26 1 27 2 28 3 29 89 30 88 31 28 32 29 33
REMARK SMILES IDX 30 34 31 35 32 37 33 38 34 39 86 40 35 41 85 42 36 43 37 44
REMARK SMILES IDX 38 45 79 46 39 47 84 48 78 49 80 50 40 51 83 52 77 53 76 54
REMARK SMILES IDX 41 56 67 57 50 58 66 59 51 60 54 61 65 62 81 63 52 64 53 65
REMARK SMILES IDX 64 67 82 68 55 69 42 70 43 71 48 72 44 73 45 74 47 75 49 76
REMARK SMILES IDX 46 77 68 78 69 79 74 80 70 81 71 82 73 83 75 84 72 85 56 86
REMARK SMILES IDX 57 87 62 88 58 89 59 90 61 91 63 92 60 93
REMARK H PARENT 25 6 30 36 80 55 54 66
REMARK Flexibility Score: inf
ROOT
ATOM      1  C   UNL A   1      37.271  21.402  24.463  1.00  0.00     0.023 C 
ENDROOT
BRANCH   1   2
ATOM      2  C   UNL A   1      36.894  22.470  25.477  1.00  0.00     0.116 C 
BRANCH   2   3
ATOM      3  N   UNL A   1      35.955  22.055  26.503  1.00  0.00    -0.352 N 
ATOM      4  C   UNL A   1      34.578  22.096  26.547  1.00  0.00     0.254 C 
ATOM      5  O   UNL A   1      34.026  21.602  27.531  1.00  0.00    -0.269 OA
ATOM      6  H   UNL A   1      36.375  21.676  27.309  1.00  0.00     0.163 HD
BRANCH   4   7
ATOM      7  C   UNL A   1      33.731  22.769  25.522  1.00  0.00     0.076 A 
ATOM      8  C   UNL A   1      32.210  24.573  24.960  1.00  0.00     0.089 A 
ATOM      9  C   UNL A   1      32.298  24.250  23.600  1.00  0.00     0.025 A 
ATOM     10  C   UNL A   1      32.996  23.907  25.910  1.00  0.00     0.039 A 
ATOM     11  C   UNL A   1      32.947  23.082  23.235  1.00  0.00     0.041 A 
ATOM     12  C   UNL A   1      33.559  22.304  24.216  1.00  0.00     0.136 A 
ATOM     13  F   UNL A   1      33.856  21.042  23.873  1.00  0.00    -0.206 F 
BRANCH   8  14
ATOM     14  S   UNL A   1      30.975  25.758  25.428  1.00  0.00     0.264 S 
ATOM     15  O   UNL A   1      30.955  25.767  26.877  1.00  0.00    -0.201 OA
ATOM     16  O   UNL A   1      29.763  25.451  24.693  1.00  0.00    -0.201 OA
BRANCH  14  17
ATOM     17  N   UNL A   1      31.521  27.295  24.885  1.00  0.00    -0.266 N 
ATOM     18  C   UNL A   1      33.268  30.538  26.971  1.00  0.00     0.001 A 
ATOM     19  C   UNL A   1      33.767  29.251  27.218  1.00  0.00     0.012 A 
ATOM     20  C   UNL A   1      32.233  30.698  26.040  1.00  0.00     0.016 A 
ATOM     21  C   UNL A   1      33.233  28.135  26.565  1.00  0.00     0.028 A 
ATOM     22  C   UNL A   1      31.698  29.563  25.424  1.00  0.00    -0.021 A 
ATOM     23  C   UNL A   1      32.136  28.276  25.738  1.00  0.00     0.055 A 
ATOM     24  C   UNL A   1      30.779  29.533  24.245  1.00  0.00     0.060 C 
ATOM     25  C   UNL A   1      30.440  28.038  24.130  1.00  0.00     0.140 C 
BRANCH  18  26
ATOM     26  C   UNL A   1      33.933  31.668  27.602  1.00  0.00     0.081 A 
ATOM     27  C   UNL A   1      37.081  33.021  28.863  1.00  0.00     0.079 C 
ATOM     28  C   UNL A   1      35.679  32.732  28.456  1.00  0.00     0.090 A 
ATOM     29  N   UNL A   1      35.289  31.612  27.890  1.00  0.00    -0.242 NA
ATOM     30  S   UNL A   1      34.439  33.893  28.719  1.00  0.00    -0.127 S 
ATOM     31  C   UNL A   1      33.302  32.830  27.996  1.00  0.00     0.095 A 
ENDBRANCH  18  26
ENDBRANCH  14  17
ENDBRANCH   8  14
ENDBRANCH   4   7
ENDBRANCH   2   3
ENDBRANCH   1   2
BRANCH   1  32
ATOM     32  C   UNL A   1      37.956  20.158  25.002  1.00  0.00     0.023 C 
BRANCH  32  33
ATOM     33  C   UNL A   1      39.220  20.394  25.817  1.00  0.00     0.116 C 
BRANCH  33  34
ATOM     34  N   UNL A   1      40.116  19.246  25.874  1.00  0.00    -0.352 N 
ATOM     35  C   UNL A   1      41.470  19.205  26.116  1.00  0.00     0.251 C 
ATOM     36  H   UNL A   1      39.690  18.373  25.717  1.00  0.00     0.163 HD
ATOM     37  O   UNL A   1      42.084  18.146  26.040  1.00  0.00    -0.269 OA
BRANCH  35  38
ATOM     38  C   UNL A   1      42.192  20.456  26.425  1.00  0.00     0.039 A 
ATOM     39  C   UNL A   1      42.735  21.203  25.377  1.00  0.00     0.014 A 
ATOM     40  C   UNL A   1      42.278  20.919  27.739  1.00  0.00     0.014 A 
ATOM     41  C   UNL A   1      43.279  22.462  25.639  1.00  0.00     0.010 A 
ATOM     42  C   UNL A   1      42.729  22.211  27.984  1.00  0.00     0.010 A 
ATOM     43  C   UNL A   1      43.233  22.997  26.938  1.00  0.00    -0.014 A 
BRANCH  43  44
ATOM     44  C   UNL A   1      43.697  24.379  27.224  1.00  0.00     0.031 A 
ATOM     45  C   UNL A   1      42.715  25.427  27.666  1.00  0.00     0.074 A 
ATOM     46  C   UNL A   1      44.990  24.707  27.026  1.00  0.00     0.049 A 
ATOM     47  N   UNL A   1      42.913  26.699  27.898  1.00  0.00    -0.248 NA
ATOM     48  C   UNL A   1      41.320  24.994  27.848  1.00  0.00     0.031 C 
ATOM     49  C   UNL A   1      46.033  23.791  26.558  1.00  0.00     0.029 A 
ATOM     50  N   UNL A   1      45.647  25.901  27.189  1.00  0.00    -0.354 N 
ATOM     51  C   UNL A   1      41.672  27.216  28.245  1.00  0.00     0.074 A 
ATOM     52  C   UNL A   1      40.715  26.139  28.125  1.00  0.00     0.031 C 
ATOM     53  C   UNL A   1      47.204  24.445  26.514  1.00  0.00     0.029 A 
ATOM     54  C   UNL A   1      46.989  25.836  26.902  1.00  0.00     0.049 A 
ATOM     55  H   UNL A   1      45.198  26.726  27.484  1.00  0.00     0.167 HD
ATOM     56  C   UNL A   1      41.363  28.466  28.661  1.00  0.00     0.037 A 
ATOM     57  C   UNL A   1      47.941  26.789  26.945  1.00  0.00     0.037 A 
ATOM     58  C   UNL A   1      42.321  29.531  28.795  1.00  0.00     0.049 A 
ATOM     59  C   UNL A   1      47.567  28.182  27.372  1.00  0.00     0.074 A 
ATOM     60  C   UNL A   1      42.112  30.823  29.244  1.00  0.00     0.029 A 
ATOM     61  N   UNL A   1      43.668  29.428  28.481  1.00  0.00    -0.354 N 
ATOM     62  N   UNL A   1      46.398  28.645  27.744  1.00  0.00    -0.248 NA
ATOM     63  C   UNL A   1      48.642  29.184  27.385  1.00  0.00     0.031 C 
ATOM     64  C   UNL A   1      43.321  31.516  29.152  1.00  0.00     0.029 A 
ATOM     65  C   UNL A   1      44.297  30.641  28.704  1.00  0.00     0.049 A 
ATOM     66  H   UNL A   1      44.111  28.613  28.148  1.00  0.00     0.167 HD
ATOM     67  C   UNL A   1      46.601  29.982  28.063  1.00  0.00     0.074 A 
ATOM     68  C   UNL A   1      48.007  30.253  27.849  1.00  0.00     0.031 C 
ATOM     69  C   UNL A   1      45.701  30.898  28.496  1.00  0.00     0.037 A 
BRANCH  56  70
ATOM     70  C   UNL A   1      39.931  28.747  29.017  1.00  0.00     0.057 A 
ATOM     71  C   UNL A   1      39.470  28.578  30.328  1.00  0.00     0.134 A 
ATOM     72  C   UNL A   1      38.995  29.135  28.049  1.00  0.00     0.134 A 
ATOM     73  F   UNL A   1      40.310  28.201  31.304  1.00  0.00    -0.206 F 
ATOM     74  C   UNL A   1      38.129  28.775  30.661  1.00  0.00     0.040 A 
ATOM     75  C   UNL A   1      37.658  29.366  28.376  1.00  0.00     0.040 A 
ATOM     76  F   UNL A   1      39.373  29.328  26.776  1.00  0.00    -0.206 F 
ATOM     77  C   UNL A   1      37.220  29.174  29.685  1.00  0.00     0.006 A 
ENDBRANCH  56  70
BRANCH  57  78
ATOM     78  C   UNL A   1      49.346  26.439  26.617  1.00  0.00     0.057 A 
ATOM     79  C   UNL A   1      49.850  26.550  25.315  1.00  0.00     0.134 A 
ATOM     80  C   UNL A   1      50.210  25.946  27.602  1.00  0.00     0.134 A 
ATOM     81  F   UNL A   1      49.070  27.008  24.325  1.00  0.00    -0.206 F 
ATOM     82  C   UNL A   1      51.153  26.162  24.999  1.00  0.00     0.040 A 
ATOM     83  C   UNL A   1      51.524  25.578  27.305  1.00  0.00     0.040 A 
ATOM     84  F   UNL A   1      49.793  25.834  28.871  1.00  0.00    -0.206 F 
ATOM     85  C   UNL A   1      51.995  25.677  25.997  1.00  0.00     0.006 A 
ENDBRANCH  57  78
BRANCH  69  86
ATOM     86  C   UNL A   1      46.200  32.281  28.799  1.00  0.00     0.057 A 
ATOM     87  C   UNL A   1      46.610  32.620  30.095  1.00  0.00     0.134 A 
ATOM     88  C   UNL A   1      46.183  33.300  27.840  1.00  0.00     0.134 A 
ATOM     89  F   UNL A   1      46.639  31.693  31.066  1.00  0.00    -0.206 F 
ATOM     90  C   UNL A   1      46.967  33.926  30.431  1.00  0.00     0.040 A 
ATOM     91  C   UNL A   1      46.565  34.605  28.156  1.00  0.00     0.040 A 
ATOM     92  F   UNL A   1      45.809  33.041  26.578  1.00  0.00    -0.206 F 
ATOM     93  C   UNL A   1      46.945  34.923  29.458  1.00  0.00     0.006 A 
ENDBRANCH  69  86
ENDBRANCH  43  44
ENDBRANCH  35  38
ENDBRANCH  33  34
ENDBRANCH  32  33
ENDBRANCH   1  32
TORSDOF 14
ENDMDL
