MODEL 1
REMARK VINA RESULT:     -13.3      0.000      0.000
REMARK SMILES Cc1cccc(CC(=O)N2CCC3(CCC(=O)N([C@H](C)C(=O)NCCCCNC(=O)c4ccc(-c5c6nc(c(-c7c(F)cccc7F)c7ccc([nH]7)c(-c7c(F)cccc7F)c7nc(c(-c8c(F)cccc8F)c8ccc5[nH]8)C=C7)C=C6)cc4)C3)CC2)c1
REMARK SMILES IDX 25 1 24 2 23 3 21 4 22 5 19 7 20 8 18 9 8 10 9 11 10 12
REMARK SMILES IDX 11 13 87 14 12 15 86 16 13 17 14 18 85 19 15 20 16 21 17 22
REMARK SMILES IDX 7 23 6 24 1 25 2 26 3 27 88 28 4 29 5 30 26 31 27 32 28 33
REMARK SMILES IDX 29 34 30 36 31 37 32 38 84 39 33 40 83 41 34 42 35 43 36 44
REMARK SMILES IDX 77 45 37 46 82 47 76 48 78 49 38 50 81 51 75 52 74 53 39 55
REMARK SMILES IDX 65 56 48 57 64 58 49 59 52 60 63 61 79 62 50 63 51 64 62 66
REMARK SMILES IDX 80 67 53 68 40 69 41 70 46 71 42 72 43 73 45 74 47 75 44 76
REMARK SMILES IDX 66 77 67 78 72 79 68 80 69 81 71 82 73 83 70 84 54 85 55 86
REMARK SMILES IDX 60 87 56 88 57 89 59 90 61 91 58 92
REMARK H PARENT 23 6 28 35 78 54 52 65
REMARK Flexibility Score: inf
ROOT
ATOM      1  C   UNL A   1      34.283  28.782  27.212  1.00  0.00     0.023 C 
ENDROOT
BRANCH   1   2
ATOM      2  C   UNL A   1      32.925  28.356  26.664  1.00  0.00     0.116 C 
BRANCH   2   3
ATOM      3  N   UNL A   1      32.114  29.459  26.175  1.00  0.00    -0.354 N 
ATOM      4  C   UNL A   1      31.578  29.663  24.931  1.00  0.00     0.242 C 
ATOM      5  O   UNL A   1      30.697  30.525  24.826  1.00  0.00    -0.273 OA
ATOM      6  H   UNL A   1      31.921  30.163  26.834  1.00  0.00     0.163 HD
BRANCH   4   7
ATOM      7  C   UNL A   1      32.069  28.886  23.684  1.00  0.00     0.171 C 
ATOM      8  C   UNL A   1      33.596  28.790  23.615  1.00  0.00     0.042 C 
BRANCH   7   9
ATOM      9  N   UNL A   1      31.418  27.608  23.338  1.00  0.00    -0.330 N 
ATOM     10  C   UNL A   1      32.671  22.315  27.018  1.00  0.00     0.226 C 
ATOM     11  O   UNL A   1      32.510  22.435  28.239  1.00  0.00    -0.275 OA
ATOM     12  N   UNL A   1      31.938  23.091  26.132  1.00  0.00    -0.342 N 
ATOM     13  C   UNL A   1      31.277  24.303  26.614  1.00  0.00     0.120 C 
ATOM     14  C   UNL A   1      31.650  22.784  24.740  1.00  0.00     0.120 C 
ATOM     15  C   UNL A   1      31.665  25.501  25.733  1.00  0.00     0.030 C 
ATOM     16  C   UNL A   1      32.165  23.901  23.849  1.00  0.00     0.030 C 
ATOM     17  C   UNL A   1      31.488  25.248  24.207  1.00  0.00    -0.008 C 
ATOM     18  C   UNL A   1      29.999  25.171  23.788  1.00  0.00     0.019 C 
ATOM     19  C   UNL A   1      32.182  26.370  23.401  1.00  0.00     0.127 C 
ATOM     20  C   UNL A   1      29.311  26.517  23.777  1.00  0.00     0.101 C 
ATOM     21  C   UNL A   1      30.085  27.532  22.980  1.00  0.00     0.223 C 
ATOM     22  O   UNL A   1      29.521  28.300  22.212  1.00  0.00    -0.275 OA
BRANCH  10  23
ATOM     23  C   UNL A   1      33.853  21.479  26.524  1.00  0.00     0.135 C 
BRANCH  23  24
ATOM     24  C   UNL A   1      35.110  22.180  26.082  1.00  0.00    -0.038 A 
ATOM     25  C   UNL A   1      38.769  21.274  25.480  1.00  0.00     0.044 C 
ATOM     26  C   UNL A   1      37.502  22.068  25.605  1.00  0.00    -0.051 A 
ATOM     27  C   UNL A   1      37.531  23.462  25.509  1.00  0.00     0.003 A 
ATOM     28  C   UNL A   1      36.282  21.432  25.864  1.00  0.00     0.007 A 
ATOM     29  C   UNL A   1      36.362  24.209  25.669  1.00  0.00     0.001 A 
ATOM     30  C   UNL A   1      35.154  23.573  25.953  1.00  0.00     0.004 A 
ENDBRANCH  23  24
ENDBRANCH  10  23
ENDBRANCH   7   9
ENDBRANCH   4   7
ENDBRANCH   2   3
ENDBRANCH   1   2
BRANCH   1  31
ATOM     31  C   UNL A   1      34.653  30.243  26.964  1.00  0.00     0.023 C 
BRANCH  31  32
ATOM     32  C   UNL A   1      34.527  31.156  28.178  1.00  0.00     0.116 C 
BRANCH  32  33
ATOM     33  N   UNL A   1      35.627  32.085  28.376  1.00  0.00    -0.352 N 
ATOM     34  C   UNL A   1      36.966  31.840  28.653  1.00  0.00     0.251 C 
ATOM     35  H   UNL A   1      35.385  33.037  28.304  1.00  0.00     0.163 HD
ATOM     36  O   UNL A   1      37.708  32.783  28.883  1.00  0.00    -0.269 OA
BRANCH  34  37
ATOM     37  C   UNL A   1      37.537  30.468  28.520  1.00  0.00     0.039 A 
ATOM     38  C   UNL A   1      37.549  29.654  29.662  1.00  0.00     0.014 A 
ATOM     39  C   UNL A   1      38.239  30.063  27.391  1.00  0.00     0.014 A 
ATOM     40  C   UNL A   1      38.478  28.620  29.765  1.00  0.00     0.010 A 
ATOM     41  C   UNL A   1      39.241  29.127  27.529  1.00  0.00     0.010 A 
ATOM     42  C   UNL A   1      39.407  28.461  28.745  1.00  0.00    -0.014 A 
BRANCH  42  43
ATOM     43  C   UNL A   1      40.656  27.728  28.889  1.00  0.00     0.031 A 
ATOM     44  C   UNL A   1      40.707  26.277  28.651  1.00  0.00     0.074 A 
ATOM     45  C   UNL A   1      41.799  28.426  29.069  1.00  0.00     0.049 A 
ATOM     46  N   UNL A   1      41.666  25.510  29.040  1.00  0.00    -0.248 NA
ATOM     47  C   UNL A   1      39.636  25.558  27.977  1.00  0.00     0.031 C 
ATOM     48  C   UNL A   1      43.172  27.955  28.904  1.00  0.00     0.029 A 
ATOM     49  N   UNL A   1      41.938  29.687  29.671  1.00  0.00    -0.354 N 
ATOM     50  C   UNL A   1      41.511  24.294  28.414  1.00  0.00     0.074 A 
ATOM     51  C   UNL A   1      40.187  24.349  27.840  1.00  0.00     0.031 C 
ATOM     52  C   UNL A   1      43.981  28.720  29.654  1.00  0.00     0.029 A 
ATOM     53  C   UNL A   1      43.122  29.592  30.436  1.00  0.00     0.049 A 
ATOM     54  H   UNL A   1      41.342  30.466  29.580  1.00  0.00     0.167 HD
ATOM     55  C   UNL A   1      42.585  23.454  28.342  1.00  0.00     0.037 A 
ATOM     56  C   UNL A   1      43.088  29.626  31.798  1.00  0.00     0.037 A 
ATOM     57  C   UNL A   1      43.714  23.978  29.121  1.00  0.00     0.049 A 
ATOM     58  C   UNL A   1      43.707  28.423  32.476  1.00  0.00     0.074 A 
ATOM     59  C   UNL A   1      44.900  24.613  28.783  1.00  0.00     0.029 A 
ATOM     60  N   UNL A   1      43.570  24.147  30.495  1.00  0.00    -0.354 N 
ATOM     61  N   UNL A   1      43.943  27.276  31.900  1.00  0.00    -0.248 NA
ATOM     62  C   UNL A   1      44.078  28.423  33.882  1.00  0.00     0.031 C 
ATOM     63  C   UNL A   1      45.474  25.149  29.967  1.00  0.00     0.029 A 
ATOM     64  C   UNL A   1      44.641  24.841  31.027  1.00  0.00     0.049 A 
ATOM     65  H   UNL A   1      42.806  23.815  31.019  1.00  0.00     0.167 HD
ATOM     66  C   UNL A   1      44.453  26.383  32.819  1.00  0.00     0.074 A 
ATOM     67  C   UNL A   1      44.544  27.172  34.034  1.00  0.00     0.031 C 
ATOM     68  C   UNL A   1      44.719  25.081  32.469  1.00  0.00     0.037 A 
BRANCH  55  69
ATOM     69  C   UNL A   1      42.714  22.308  27.350  1.00  0.00     0.057 A 
ATOM     70  C   UNL A   1      41.914  21.153  27.471  1.00  0.00     0.134 A 
ATOM     71  C   UNL A   1      43.640  22.241  26.295  1.00  0.00     0.134 A 
ATOM     72  F   UNL A   1      40.893  21.085  28.335  1.00  0.00    -0.206 F 
ATOM     73  C   UNL A   1      42.111  19.995  26.703  1.00  0.00     0.040 A 
ATOM     74  C   UNL A   1      43.885  21.075  25.552  1.00  0.00     0.040 A 
ATOM     75  F   UNL A   1      44.309  23.317  25.870  1.00  0.00    -0.206 F 
ATOM     76  C   UNL A   1      43.128  19.936  25.766  1.00  0.00     0.006 A 
ENDBRANCH  55  69
BRANCH  56  77
ATOM     77  C   UNL A   1      41.955  30.419  32.347  1.00  0.00     0.057 A 
ATOM     78  C   UNL A   1      42.050  31.824  32.362  1.00  0.00     0.134 A 
ATOM     79  C   UNL A   1      40.683  29.867  32.518  1.00  0.00     0.134 A 
ATOM     80  F   UNL A   1      43.244  32.422  32.211  1.00  0.00    -0.206 F 
ATOM     81  C   UNL A   1      40.918  32.640  32.422  1.00  0.00     0.040 A 
ATOM     82  C   UNL A   1      39.543  30.677  32.599  1.00  0.00     0.040 A 
ATOM     83  F   UNL A   1      40.507  28.539  32.500  1.00  0.00    -0.206 F 
ATOM     84  C   UNL A   1      39.655  32.064  32.509  1.00  0.00     0.006 A 
ENDBRANCH  56  77
BRANCH  68  85
ATOM     85  C   UNL A   1      45.096  23.890  33.361  1.00  0.00     0.057 A 
ATOM     86  C   UNL A   1      44.281  22.798  33.691  1.00  0.00     0.134 A 
ATOM     87  C   UNL A   1      46.412  23.784  33.892  1.00  0.00     0.134 A 
ATOM     88  F   UNL A   1      43.017  22.693  33.282  1.00  0.00    -0.206 F 
ATOM     89  C   UNL A   1      44.724  21.708  34.461  1.00  0.00     0.040 A 
ATOM     90  C   UNL A   1      46.876  22.686  34.630  1.00  0.00     0.040 A 
ATOM     91  F   UNL A   1      47.339  24.736  33.718  1.00  0.00    -0.206 F 
ATOM     92  C   UNL A   1      46.028  21.637  34.920  1.00  0.00     0.006 A 
ENDBRANCH  68  85
ENDBRANCH  42  43
ENDBRANCH  34  37
ENDBRANCH  32  33
ENDBRANCH  31  32
ENDBRANCH   1  31
TORSDOF 14
ENDMDL
MODEL 2
REMARK VINA RESULT:     -13.3      2.468      3.999
REMARK SMILES Cc1cccc(CC(=O)N2CCC3(CCC(=O)N([C@H](C)C(=O)NCCCCNC(=O)c4ccc(-c5c6nc(c(-c7c(F)cccc7F)c7ccc([nH]7)c(-c7c(F)cccc7F)c7nc(c(-c8c(F)cccc8F)c8ccc5[nH]8)C=C7)C=C6)cc4)C3)CC2)c1
REMARK SMILES IDX 25 1 24 2 23 3 21 4 22 5 19 7 20 8 18 9 8 10 9 11 10 12
REMARK SMILES IDX 11 13 87 14 12 15 86 16 13 17 14 18 85 19 15 20 16 21 17 22
REMARK SMILES IDX 7 23 6 24 1 25 2 26 3 27 88 28 4 29 5 30 26 31 27 32 28 33
REMARK SMILES IDX 29 34 30 36 31 37 32 38 84 39 33 40 83 41 34 42 35 43 36 44
REMARK SMILES IDX 77 45 37 46 82 47 76 48 78 49 38 50 81 51 75 52 74 53 39 55
REMARK SMILES IDX 65 56 48 57 64 58 49 59 52 60 63 61 79 62 50 63 51 64 62 66
REMARK SMILES IDX 80 67 53 68 40 69 41 70 46 71 42 72 43 73 45 74 47 75 44 76
REMARK SMILES IDX 66 77 67 78 72 79 68 80 69 81 71 82 73 83 70 84 54 85 55 86
REMARK SMILES IDX 60 87 56 88 57 89 59 90 61 91 58 92
REMARK H PARENT 23 6 28 35 78 54 52 65
REMARK Flexibility Score: inf
ROOT
ATOM      1  C   UNL A   1      35.396  29.352  27.315  1.00  0.00     0.023 C 
ENDROOT
BRANCH   1   2
ATOM      2  C   UNL A   1      34.384  28.484  26.574  1.00  0.00     0.116 C 
BRANCH   2   3
ATOM      3  N   UNL A   1      33.165  28.229  27.323  1.00  0.00    -0.354 N 
ATOM      4  C   UNL A   1      31.885  28.046  26.872  1.00  0.00     0.242 C 
ATOM      5  O   UNL A   1      31.065  27.569  27.664  1.00  0.00    -0.273 OA
ATOM      6  H   UNL A   1      33.275  28.179  28.299  1.00  0.00     0.163 HD
BRANCH   4   7
ATOM      7  C   UNL A   1      31.450  28.454  25.441  1.00  0.00     0.171 C 
ATOM      8  C   UNL A   1      32.164  29.715  24.946  1.00  0.00     0.042 C 
BRANCH   7   9
ATOM      9  N   UNL A   1      31.372  27.414  24.396  1.00  0.00    -0.330 N 
ATOM     10  C   UNL A   1      34.941  21.946  25.097  1.00  0.00     0.226 C 
ATOM     11  O   UNL A   1      34.818  21.335  26.166  1.00  0.00    -0.275 OA
ATOM     12  N   UNL A   1      33.898  22.718  24.605  1.00  0.00    -0.342 N 
ATOM     13  C   UNL A   1      32.822  23.131  25.504  1.00  0.00     0.120 C 
ATOM     14  C   UNL A   1      33.682  23.105  23.220  1.00  0.00     0.120 C 
ATOM     15  C   UNL A   1      32.621  24.653  25.421  1.00  0.00     0.030 C 
ATOM     16  C   UNL A   1      33.629  24.619  23.110  1.00  0.00     0.030 C 
ATOM     17  C   UNL A   1      32.474  25.194  23.969  1.00  0.00    -0.008 C 
ATOM     18  C   UNL A   1      31.131  24.782  23.317  1.00  0.00     0.019 C 
ATOM     19  C   UNL A   1      32.586  26.735  23.965  1.00  0.00     0.127 C 
ATOM     20  C   UNL A   1      29.944  25.545  23.860  1.00  0.00     0.101 C 
ATOM     21  C   UNL A   1      30.174  27.032  23.823  1.00  0.00     0.223 C 
ATOM     22  O   UNL A   1      29.295  27.801  23.457  1.00  0.00    -0.275 OA
BRANCH  10  23
ATOM     23  C   UNL A   1      36.332  22.025  24.466  1.00  0.00     0.135 C 
BRANCH  23  24
ATOM     24  C   UNL A   1      37.482  22.538  25.293  1.00  0.00    -0.038 A 
ATOM     25  C   UNL A   1      40.601  21.104  26.961  1.00  0.00     0.044 C 
ATOM     26  C   UNL A   1      39.538  22.067  26.521  1.00  0.00    -0.051 A 
ATOM     27  C   UNL A   1      39.509  23.367  27.036  1.00  0.00     0.003 A 
ATOM     28  C   UNL A   1      38.537  21.669  25.629  1.00  0.00     0.007 A 
ATOM     29  C   UNL A   1      38.495  24.254  26.664  1.00  0.00     0.001 A 
ATOM     30  C   UNL A   1      37.485  23.844  25.795  1.00  0.00     0.004 A 
ENDBRANCH  23  24
ENDBRANCH  10  23
ENDBRANCH   7   9
ENDBRANCH   4   7
ENDBRANCH   2   3
ENDBRANCH   1   2
BRANCH   1  31
ATOM     31  C   UNL A   1      34.793  30.448  28.191  1.00  0.00     0.023 C 
BRANCH  31  32
ATOM     32  C   UNL A   1      34.896  31.858  27.622  1.00  0.00     0.116 C 
BRANCH  32  33
ATOM     33  N   UNL A   1      34.084  32.860  28.292  1.00  0.00    -0.352 N 
ATOM     34  C   UNL A   1      34.306  33.545  29.480  1.00  0.00     0.251 C 
ATOM     35  H   UNL A   1      33.243  33.089  27.832  1.00  0.00     0.163 HD
ATOM     36  O   UNL A   1      33.434  34.281  29.914  1.00  0.00    -0.269 OA
BRANCH  34  37
ATOM     37  C   UNL A   1      35.643  33.515  30.142  1.00  0.00     0.039 A 
ATOM     38  C   UNL A   1      36.712  34.136  29.478  1.00  0.00     0.014 A 
ATOM     39  C   UNL A   1      35.902  32.727  31.256  1.00  0.00     0.014 A 
ATOM     40  C   UNL A   1      38.019  33.732  29.746  1.00  0.00     0.010 A 
ATOM     41  C   UNL A   1      37.175  32.232  31.441  1.00  0.00     0.010 A 
ATOM     42  C   UNL A   1      38.220  32.680  30.631  1.00  0.00    -0.014 A 
BRANCH  42  43
ATOM     43  C   UNL A   1      39.442  31.894  30.696  1.00  0.00     0.031 A 
ATOM     44  C   UNL A   1      39.569  30.641  29.933  1.00  0.00     0.074 A 
ATOM     45  C   UNL A   1      40.517  32.419  31.322  1.00  0.00     0.049 A 
ATOM     46  N   UNL A   1      40.465  29.743  30.157  1.00  0.00    -0.248 NA
ATOM     47  C   UNL A   1      38.651  30.281  28.863  1.00  0.00     0.031 C 
ATOM     48  C   UNL A   1      41.909  31.986  31.227  1.00  0.00     0.029 A 
ATOM     49  N   UNL A   1      40.517  33.349  32.374  1.00  0.00    -0.354 N 
ATOM     50  C   UNL A   1      40.452  28.865  29.098  1.00  0.00     0.074 A 
ATOM     51  C   UNL A   1      39.248  29.192  28.370  1.00  0.00     0.031 C 
ATOM     52  C   UNL A   1      42.556  32.372  32.339  1.00  0.00     0.029 A 
ATOM     53  C   UNL A   1      41.552  32.917  33.234  1.00  0.00     0.049 A 
ATOM     54  H   UNL A   1      39.927  34.129  32.487  1.00  0.00     0.167 HD
ATOM     55  C   UNL A   1      41.543  28.068  28.895  1.00  0.00     0.037 A 
ATOM     56  C   UNL A   1      41.279  32.432  34.479  1.00  0.00     0.037 A 
ATOM     57  C   UNL A   1      42.504  28.206  29.996  1.00  0.00     0.049 A 
ATOM     58  C   UNL A   1      41.800  31.035  34.740  1.00  0.00     0.074 A 
ATOM     59  C   UNL A   1      43.715  28.869  30.134  1.00  0.00     0.029 A 
ATOM     60  N   UNL A   1      42.119  27.846  31.283  1.00  0.00    -0.354 N 
ATOM     61  N   UNL A   1      42.162  30.185  33.819  1.00  0.00    -0.248 NA
ATOM     62  C   UNL A   1      41.919  30.484  36.081  1.00  0.00     0.031 C 
ATOM     63  C   UNL A   1      44.060  28.888  31.512  1.00  0.00     0.029 A 
ATOM     64  C   UNL A   1      43.062  28.237  32.215  1.00  0.00     0.049 A 
ATOM     65  H   UNL A   1      41.284  27.373  31.502  1.00  0.00     0.167 HD
ATOM     66  C   UNL A   1      42.525  28.988  34.399  1.00  0.00     0.074 A 
ATOM     67  C   UNL A   1      42.382  29.249  35.820  1.00  0.00     0.031 C 
ATOM     68  C   UNL A   1      42.881  27.906  33.630  1.00  0.00     0.037 A 
BRANCH  55  69
ATOM     69  C   UNL A   1      41.872  27.382  27.578  1.00  0.00     0.057 A 
ATOM     70  C   UNL A   1      42.061  25.986  27.516  1.00  0.00     0.134 A 
ATOM     71  C   UNL A   1      42.081  28.031  26.348  1.00  0.00     0.134 A 
ATOM     72  F   UNL A   1      41.783  25.188  28.555  1.00  0.00    -0.206 F 
ATOM     73  C   UNL A   1      42.541  25.323  26.377  1.00  0.00     0.040 A 
ATOM     74  C   UNL A   1      42.610  27.392  25.215  1.00  0.00     0.040 A 
ATOM     75  F   UNL A   1      41.718  29.301  26.147  1.00  0.00    -0.206 F 
ATOM     76  C   UNL A   1      42.859  26.030  25.232  1.00  0.00     0.006 A 
ENDBRANCH  55  69
BRANCH  56  77
ATOM     77  C   UNL A   1      40.048  33.005  35.087  1.00  0.00     0.057 A 
ATOM     78  C   UNL A   1      38.848  32.272  35.016  1.00  0.00     0.134 A 
ATOM     79  C   UNL A   1      40.100  34.049  36.014  1.00  0.00     0.134 A 
ATOM     80  F   UNL A   1      38.725  31.259  34.141  1.00  0.00    -0.206 F 
ATOM     81  C   UNL A   1      37.795  32.490  35.908  1.00  0.00     0.040 A 
ATOM     82  C   UNL A   1      39.042  34.290  36.899  1.00  0.00     0.040 A 
ATOM     83  F   UNL A   1      41.212  34.784  36.153  1.00  0.00    -0.206 F 
ATOM     84  C   UNL A   1      37.905  33.483  36.876  1.00  0.00     0.006 A 
ENDBRANCH  56  77
BRANCH  68  85
ATOM     85  C   UNL A   1      43.125  26.450  34.049  1.00  0.00     0.057 A 
ATOM     86  C   UNL A   1      44.282  25.693  33.816  1.00  0.00     0.134 A 
ATOM     87  C   UNL A   1      42.146  25.752  34.810  1.00  0.00     0.134 A 
ATOM     88  F   UNL A   1      45.326  26.165  33.136  1.00  0.00    -0.206 F 
ATOM     89  C   UNL A   1      44.458  24.382  34.294  1.00  0.00     0.040 A 
ATOM     90  C   UNL A   1      42.324  24.460  35.323  1.00  0.00     0.040 A 
ATOM     91  F   UNL A   1      40.957  26.286  35.117  1.00  0.00    -0.206 F 
ATOM     92  C   UNL A   1      43.487  23.764  35.064  1.00  0.00     0.006 A 
ENDBRANCH  68  85
ENDBRANCH  42  43
ENDBRANCH  34  37
ENDBRANCH  32  33
ENDBRANCH  31  32
ENDBRANCH   1  31
TORSDOF 14
ENDMDL
MODEL 3
REMARK VINA RESULT:     -13.1      1.072      1.653
REMARK SMILES Cc1cccc(CC(=O)N2CCC3(CCC(=O)N([C@H](C)C(=O)NCCCCNC(=O)c4ccc(-c5c6nc(c(-c7c(F)cccc7F)c7ccc([nH]7)c(-c7c(F)cccc7F)c7nc(c(-c8c(F)cccc8F)c8ccc5[nH]8)C=C7)C=C6)cc4)C3)CC2)c1
REMARK SMILES IDX 25 1 24 2 23 3 21 4 22 5 19 7 20 8 18 9 8 10 9 11 10 12
REMARK SMILES IDX 11 13 87 14 12 15 86 16 13 17 14 18 85 19 15 20 16 21 17 22
REMARK SMILES IDX 7 23 6 24 1 25 2 26 3 27 88 28 4 29 5 30 26 31 27 32 28 33
REMARK SMILES IDX 29 34 30 36 31 37 32 38 84 39 33 40 83 41 34 42 35 43 36 44
REMARK SMILES IDX 77 45 37 46 82 47 76 48 78 49 38 50 81 51 75 52 74 53 39 55
REMARK SMILES IDX 65 56 48 57 64 58 49 59 52 60 63 61 79 62 50 63 51 64 62 66
REMARK SMILES IDX 80 67 53 68 40 69 41 70 46 71 42 72 43 73 45 74 47 75 44 76
REMARK SMILES IDX 66 77 67 78 72 79 68 80 69 81 71 82 73 83 70 84 54 85 55 86
REMARK SMILES IDX 60 87 56 88 57 89 59 90 61 91 58 92
REMARK H PARENT 23 6 28 35 78 54 52 65
REMARK Flexibility Score: inf
ROOT
ATOM      1  C   UNL A   1      32.076  30.350  26.599  1.00  0.00     0.023 C 
ENDROOT
BRANCH   1   2
ATOM      2  C   UNL A   1      31.737  29.025  27.273  1.00  0.00     0.116 C 
BRANCH   2   3
ATOM      3  N   UNL A   1      32.707  27.971  27.027  1.00  0.00    -0.354 N 
ATOM      4  C   UNL A   1      33.234  27.528  25.843  1.00  0.00     0.242 C 
ATOM      5  O   UNL A   1      34.243  26.816  25.899  1.00  0.00    -0.273 OA
ATOM      6  H   UNL A   1      33.036  27.507  27.830  1.00  0.00     0.163 HD
BRANCH   4   7
ATOM      7  C   UNL A   1      32.581  27.859  24.476  1.00  0.00     0.171 C 
ATOM      8  C   UNL A   1      33.469  28.748  23.600  1.00  0.00     0.042 C 
BRANCH   7   9
ATOM      9  N   UNL A   1      31.953  26.770  23.703  1.00  0.00    -0.330 N 
ATOM     10  C   UNL A   1      33.212  20.551  25.397  1.00  0.00     0.226 C 
ATOM     11  O   UNL A   1      33.028  20.249  26.583  1.00  0.00    -0.275 OA
ATOM     12  N   UNL A   1      32.483  21.577  24.811  1.00  0.00    -0.342 N 
ATOM     13  C   UNL A   1      31.799  22.549  25.662  1.00  0.00     0.120 C 
ATOM     14  C   UNL A   1      32.224  21.758  23.392  1.00  0.00     0.120 C 
ATOM     15  C   UNL A   1      32.186  23.978  25.247  1.00  0.00     0.030 C 
ATOM     16  C   UNL A   1      32.740  23.115  22.943  1.00  0.00     0.030 C 
ATOM     17  C   UNL A   1      32.039  24.256  23.722  1.00  0.00    -0.008 C 
ATOM     18  C   UNL A   1      30.559  24.316  23.271  1.00  0.00     0.019 C 
ATOM     19  C   UNL A   1      32.732  25.589  23.359  1.00  0.00     0.127 C 
ATOM     20  C   UNL A   1      29.853  25.581  23.703  1.00  0.00     0.101 C 
ATOM     21  C   UNL A   1      30.628  26.812  23.313  1.00  0.00     0.223 C 
ATOM     22  O   UNL A   1      30.066  27.791  22.840  1.00  0.00    -0.275 OA
BRANCH  10  23
ATOM     23  C   UNL A   1      34.413  19.940  24.674  1.00  0.00     0.135 C 
BRANCH  23  24
ATOM     24  C   UNL A   1      35.794  20.451  24.989  1.00  0.00    -0.038 A 
ATOM     25  C   UNL A   1      37.452  23.818  25.682  1.00  0.00     0.044 C 
ATOM     26  C   UNL A   1      37.258  22.349  25.452  1.00  0.00    -0.051 A 
ATOM     27  C   UNL A   1      38.365  21.503  25.332  1.00  0.00     0.003 A 
ATOM     28  C   UNL A   1      35.975  21.810  25.306  1.00  0.00     0.007 A 
ATOM     29  C   UNL A   1      38.192  20.141  25.072  1.00  0.00     0.001 A 
ATOM     30  C   UNL A   1      36.912  19.614  24.902  1.00  0.00     0.004 A 
ENDBRANCH  23  24
ENDBRANCH  10  23
ENDBRANCH   7   9
ENDBRANCH   4   7
ENDBRANCH   2   3
ENDBRANCH   1   2
BRANCH   1  31
ATOM     31  C   UNL A   1      33.004  31.264  27.396  1.00  0.00     0.023 C 
BRANCH  31  32
ATOM     32  C   UNL A   1      34.436  30.763  27.541  1.00  0.00     0.116 C 
BRANCH  32  33
ATOM     33  N   UNL A   1      35.340  31.656  28.246  1.00  0.00    -0.352 N 
ATOM     34  C   UNL A   1      36.543  31.389  28.886  1.00  0.00     0.251 C 
ATOM     35  H   UNL A   1      35.054  32.598  28.277  1.00  0.00     0.163 HD
ATOM     36  O   UNL A   1      37.098  32.282  29.509  1.00  0.00    -0.269 OA
BRANCH  34  37
ATOM     37  C   UNL A   1      37.240  30.084  28.694  1.00  0.00     0.039 A 
ATOM     38  C   UNL A   1      37.287  29.203  29.786  1.00  0.00     0.014 A 
ATOM     39  C   UNL A   1      38.012  29.813  27.571  1.00  0.00     0.014 A 
ATOM     40  C   UNL A   1      38.301  28.251  29.862  1.00  0.00     0.010 A 
ATOM     41  C   UNL A   1      39.089  28.961  27.692  1.00  0.00     0.010 A 
ATOM     42  C   UNL A   1      39.275  28.238  28.871  1.00  0.00    -0.014 A 
BRANCH  42  43
ATOM     43  C   UNL A   1      40.579  27.610  29.020  1.00  0.00     0.031 A 
ATOM     44  C   UNL A   1      40.772  26.191  28.681  1.00  0.00     0.074 A 
ATOM     45  C   UNL A   1      41.645  28.391  29.302  1.00  0.00     0.049 A 
ATOM     46  N   UNL A   1      41.782  25.485  29.057  1.00  0.00    -0.248 NA
ATOM     47  C   UNL A   1      39.799  25.433  27.908  1.00  0.00     0.031 C 
ATOM     48  C   UNL A   1      43.061  28.057  29.167  1.00  0.00     0.029 A 
ATOM     49  N   UNL A   1      41.643  29.610  29.999  1.00  0.00    -0.354 N 
ATOM     50  C   UNL A   1      41.763  24.312  28.339  1.00  0.00     0.074 A 
ATOM     51  C   UNL A   1      40.464  24.292  27.709  1.00  0.00     0.031 C 
ATOM     52  C   UNL A   1      43.766  28.832  30.007  1.00  0.00     0.029 A 
ATOM     53  C   UNL A   1      42.801  29.562  30.808  1.00  0.00     0.049 A 
ATOM     54  H   UNL A   1      40.982  30.338  29.936  1.00  0.00     0.167 HD
ATOM     55  C   UNL A   1      42.912  23.578  28.256  1.00  0.00     0.037 A 
ATOM     56  C   UNL A   1      42.710  29.490  32.167  1.00  0.00     0.037 A 
ATOM     57  C   UNL A   1      43.956  24.139  29.122  1.00  0.00     0.049 A 
ATOM     58  C   UNL A   1      43.409  28.299  32.784  1.00  0.00     0.074 A 
ATOM     59  C   UNL A   1      45.092  24.900  28.885  1.00  0.00     0.029 A 
ATOM     60  N   UNL A   1      43.744  24.190  30.496  1.00  0.00    -0.354 N 
ATOM     61  N   UNL A   1      43.773  27.224  32.138  1.00  0.00    -0.248 NA
ATOM     62  C   UNL A   1      43.724  28.225  34.202  1.00  0.00     0.031 C 
ATOM     63  C   UNL A   1      45.567  25.394  30.130  1.00  0.00     0.029 A 
ATOM     64  C   UNL A   1      44.725  24.934  31.125  1.00  0.00     0.049 A 
ATOM     65  H   UNL A   1      42.994  23.753  30.960  1.00  0.00     0.167 HD
ATOM     66  C   UNL A   1      44.326  26.313  33.013  1.00  0.00     0.074 A 
ATOM     67  C   UNL A   1      44.296  27.012  34.285  1.00  0.00     0.031 C 
ATOM     68  C   UNL A   1      44.724  25.070  32.583  1.00  0.00     0.037 A 
BRANCH  55  69
ATOM     69  C   UNL A   1      43.184  22.527  27.191  1.00  0.00     0.057 A 
ATOM     70  C   UNL A   1      42.455  21.319  27.162  1.00  0.00     0.134 A 
ATOM     71  C   UNL A   1      44.185  22.601  26.206  1.00  0.00     0.134 A 
ATOM     72  F   UNL A   1      41.383  21.121  27.939  1.00  0.00    -0.206 F 
ATOM     73  C   UNL A   1      42.781  20.242  26.324  1.00  0.00     0.040 A 
ATOM     74  C   UNL A   1      44.557  21.516  25.396  1.00  0.00     0.040 A 
ATOM     75  F   UNL A   1      44.811  23.746  25.917  1.00  0.00    -0.206 F 
ATOM     76  C   UNL A   1      43.862  20.320  25.464  1.00  0.00     0.006 A 
ENDBRANCH  55  69
BRANCH  56  77
ATOM     77  C   UNL A   1      41.488  30.135  32.719  1.00  0.00     0.057 A 
ATOM     78  C   UNL A   1      41.439  31.540  32.806  1.00  0.00     0.134 A 
ATOM     79  C   UNL A   1      40.275  29.450  32.822  1.00  0.00     0.134 A 
ATOM     80  F   UNL A   1      42.569  32.262  32.723  1.00  0.00    -0.206 F 
ATOM     81  C   UNL A   1      40.229  32.234  32.871  1.00  0.00     0.040 A 
ATOM     82  C   UNL A   1      39.057  30.136  32.908  1.00  0.00     0.040 A 
ATOM     83  F   UNL A   1      40.235  28.114  32.733  1.00  0.00    -0.206 F 
ATOM     84  C   UNL A   1      39.029  31.530  32.890  1.00  0.00     0.006 A 
ENDBRANCH  56  77
BRANCH  68  85
ATOM     85  C   UNL A   1      45.173  23.853  33.404  1.00  0.00     0.057 A 
ATOM     86  C   UNL A   1      46.454  23.616  33.921  1.00  0.00     0.134 A 
ATOM     87  C   UNL A   1      44.231  22.850  33.770  1.00  0.00     0.134 A 
ATOM     88  F   UNL A   1      47.479  24.440  33.709  1.00  0.00    -0.206 F 
ATOM     89  C   UNL A   1      46.771  22.506  34.725  1.00  0.00     0.040 A 
ATOM     90  C   UNL A   1      44.525  21.760  34.600  1.00  0.00     0.040 A 
ATOM     91  F   UNL A   1      42.957  22.873  33.355  1.00  0.00    -0.206 F 
ATOM     92  C   UNL A   1      45.804  21.581  35.083  1.00  0.00     0.006 A 
ENDBRANCH  68  85
ENDBRANCH  42  43
ENDBRANCH  34  37
ENDBRANCH  32  33
ENDBRANCH  31  32
ENDBRANCH   1  31
TORSDOF 14
ENDMDL
