MODEL 1
REMARK VINA RESULT:     -11.3      0.000      0.000
REMARK SMILES C[C@@H]1C[N@H+](C[C@]2(C(=O)NCCCCNC(=O)c3ccc(-c4c5nc(c(-c6c(F)cccc6F)c6ccc([nH]6)c(-c6c(F)cccc6F)c6nc(c(-c7c(F)cccc7F)c7ccc4[nH]7)C=C6)C=C5)cc3)CCOC2)C[C@@H]1C
REMARK SMILES IDX 11 1 10 2 9 3 7 4 8 5 6 7 71 8 74 9 72 10 73 11 5 12 4 13
REMARK SMILES IDX 1 14 2 15 3 16 76 17 75 18 77 19 12 21 13 22 14 23 15 24
REMARK SMILES IDX 16 26 17 27 18 28 70 29 19 30 69 31 20 32 21 33 22 34 63 35
REMARK SMILES IDX 23 36 68 37 62 38 64 39 24 40 67 41 61 42 60 43 25 45 51 46
REMARK SMILES IDX 34 47 50 48 35 49 38 50 49 51 65 52 36 53 37 54 48 56 66 57
REMARK SMILES IDX 39 58 26 59 27 60 32 61 28 62 29 63 31 64 33 65 30 66 52 67
REMARK SMILES IDX 53 68 58 69 54 70 55 71 57 72 59 73 56 74 40 75 41 76 46 77
REMARK SMILES IDX 42 78 43 79 45 80 47 81 44 82
REMARK H PARENT 9 6 4 20 14 25 64 44 38 55
REMARK Flexibility Score: inf
ROOT
ATOM      1  C   UNL A   1      37.228  21.100  24.481  1.00  0.00     0.023 C 
ENDROOT
BRANCH   1   2
ATOM      2  C   UNL A   1      37.131  22.265  25.463  1.00  0.00     0.116 C 
BRANCH   2   3
ATOM      3  N   UNL A   1      36.139  22.017  26.489  1.00  0.00    -0.355 N 
ATOM      4  C   UNL A   1      34.807  21.787  26.508  1.00  0.00     0.234 C 
ATOM      5  O   UNL A   1      34.349  21.660  27.654  1.00  0.00    -0.274 OA
ATOM      6  H   UNL A   1      36.531  22.016  27.393  1.00  0.00     0.163 HD
BRANCH   4   7
ATOM      7  C   UNL A   1      33.861  21.717  25.292  1.00  0.00     0.123 C 
ATOM      8  C   UNL A   1      33.858  20.267  24.779  1.00  0.00     0.054 C 
ATOM      9  C   UNL A   1      32.429  21.827  25.837  1.00  0.00     0.183 C 
ATOM     10  C   UNL A   1      32.412  19.956  24.452  1.00  0.00     0.161 C 
ATOM     11  O   UNL A   1      31.587  20.909  25.122  1.00  0.00    -0.380 OA
BRANCH   7  12
ATOM     12  C   UNL A   1      34.122  22.714  24.135  1.00  0.00     0.281 C 
BRANCH  12  13
ATOM     13  N   UNL A   1      33.640  24.051  24.367  1.00  0.00    -0.333 N 
ATOM     14  C   UNL A   1      33.771  27.257  26.114  1.00  0.00     0.014 C 
ATOM     15  C   UNL A   1      33.303  25.959  25.489  1.00  0.00     0.049 C 
ATOM     16  C   UNL A   1      34.437  25.036  25.061  1.00  0.00     0.265 C 
ATOM     17  C   UNL A   1      32.418  26.039  24.225  1.00  0.00     0.049 C 
ATOM     18  C   UNL A   1      32.650  24.684  23.525  1.00  0.00     0.265 C 
ATOM     19  C   UNL A   1      32.746  27.204  23.296  1.00  0.00     0.014 C 
ATOM     20  H   UNL A   1      33.105  23.541  25.070  1.00  0.00     0.348 HD
ENDBRANCH  12  13
ENDBRANCH   7  12
ENDBRANCH   4   7
ENDBRANCH   2   3
ENDBRANCH   1   2
BRANCH   1  21
ATOM     21  C   UNL A   1      37.996  19.888  25.021  1.00  0.00     0.023 C 
BRANCH  21  22
ATOM     22  C   UNL A   1      39.270  20.216  25.798  1.00  0.00     0.116 C 
BRANCH  22  23
ATOM     23  N   UNL A   1      40.223  19.118  25.851  1.00  0.00    -0.352 N 
ATOM     24  C   UNL A   1      41.564  19.174  26.147  1.00  0.00     0.251 C 
ATOM     25  H   UNL A   1      39.862  18.224  25.652  1.00  0.00     0.163 HD
ATOM     26  O   UNL A   1      42.265  18.170  26.068  1.00  0.00    -0.269 OA
BRANCH  24  27
ATOM     27  C   UNL A   1      42.161  20.472  26.511  1.00  0.00     0.039 A 
ATOM     28  C   UNL A   1      42.621  21.309  25.492  1.00  0.00     0.014 A 
ATOM     29  C   UNL A   1      42.210  20.883  27.846  1.00  0.00     0.014 A 
ATOM     30  C   UNL A   1      43.061  22.594  25.807  1.00  0.00     0.010 A 
ATOM     31  C   UNL A   1      42.587  22.187  28.150  1.00  0.00     0.010 A 
ATOM     32  C   UNL A   1      43.007  23.057  27.133  1.00  0.00    -0.014 A 
BRANCH  32  33
ATOM     33  C   UNL A   1      43.363  24.457  27.466  1.00  0.00     0.031 A 
ATOM     34  C   UNL A   1      44.798  24.901  27.442  1.00  0.00     0.074 A 
ATOM     35  C   UNL A   1      42.395  25.310  27.853  1.00  0.00     0.049 A 
ATOM     36  N   UNL A   1      45.304  26.070  27.741  1.00  0.00    -0.248 NA
ATOM     37  C   UNL A   1      45.797  23.892  27.058  1.00  0.00     0.031 C 
ATOM     38  C   UNL A   1      40.973  24.979  27.975  1.00  0.00     0.029 A 
ATOM     39  N   UNL A   1      42.462  26.629  28.223  1.00  0.00    -0.354 N 
ATOM     40  C   UNL A   1      46.678  25.934  27.592  1.00  0.00     0.074 A 
ATOM     41  C   UNL A   1      46.931  24.556  27.229  1.00  0.00     0.031 C 
ATOM     42  C   UNL A   1      40.299  26.073  28.365  1.00  0.00     0.029 A 
ATOM     43  C   UNL A   1      41.242  27.171  28.551  1.00  0.00     0.049 A 
ATOM     44  H   UNL A   1      43.303  27.139  28.251  1.00  0.00     0.167 HD
ATOM     45  C   UNL A   1      47.640  26.879  27.723  1.00  0.00     0.037 A 
ATOM     46  C   UNL A   1      40.923  28.414  28.956  1.00  0.00     0.037 A 
ATOM     47  C   UNL A   1      47.383  28.254  28.061  1.00  0.00     0.049 A 
ATOM     48  C   UNL A   1      42.007  29.446  29.084  1.00  0.00     0.074 A 
ATOM     49  C   UNL A   1      48.282  29.302  28.151  1.00  0.00     0.029 A 
ATOM     50  N   UNL A   1      46.133  28.771  28.367  1.00  0.00    -0.354 N 
ATOM     51  N   UNL A   1      43.294  29.324  28.863  1.00  0.00    -0.248 NA
ATOM     52  C   UNL A   1      41.594  30.790  29.511  1.00  0.00     0.031 C 
ATOM     53  C   UNL A   1      47.581  30.445  28.551  1.00  0.00     0.029 A 
ATOM     54  C   UNL A   1      46.239  30.118  28.668  1.00  0.00     0.049 A 
ATOM     55  H   UNL A   1      45.294  28.255  28.370  1.00  0.00     0.167 HD
ATOM     56  C   UNL A   1      43.841  30.578  29.101  1.00  0.00     0.074 A 
ATOM     57  C   UNL A   1      42.743  31.450  29.466  1.00  0.00     0.031 C 
ATOM     58  C   UNL A   1      45.135  30.971  29.028  1.00  0.00     0.037 A 
BRANCH  45  59
ATOM     59  C   UNL A   1      49.059  26.454  27.487  1.00  0.00     0.057 A 
ATOM     60  C   UNL A   1      49.885  26.028  28.535  1.00  0.00     0.134 A 
ATOM     61  C   UNL A   1      49.599  26.444  26.195  1.00  0.00     0.134 A 
ATOM     62  F   UNL A   1      49.434  26.027  29.798  1.00  0.00    -0.206 F 
ATOM     63  C   UNL A   1      51.205  25.631  28.311  1.00  0.00     0.040 A 
ATOM     64  C   UNL A   1      50.909  26.025  25.954  1.00  0.00     0.040 A 
ATOM     65  F   UNL A   1      48.862  26.836  25.145  1.00  0.00    -0.206 F 
ATOM     66  C   UNL A   1      51.717  25.623  27.016  1.00  0.00     0.006 A 
ENDBRANCH  45  59
BRANCH  46  67
ATOM     67  C   UNL A   1      39.508  28.762  29.241  1.00  0.00     0.057 A 
ATOM     68  C   UNL A   1      38.971  28.597  30.524  1.00  0.00     0.134 A 
ATOM     69  C   UNL A   1      38.660  29.260  28.246  1.00  0.00     0.134 A 
ATOM     70  F   UNL A   1      39.730  28.106  31.514  1.00  0.00    -0.206 F 
ATOM     71  C   UNL A   1      37.637  28.896  30.802  1.00  0.00     0.040 A 
ATOM     72  C   UNL A   1      37.330  29.586  28.514  1.00  0.00     0.040 A 
ATOM     73  F   UNL A   1      39.118  29.449  26.999  1.00  0.00    -0.206 F 
ATOM     74  C   UNL A   1      36.812  29.396  29.795  1.00  0.00     0.006 A 
ENDBRANCH  46  67
BRANCH  58  75
ATOM     75  C   UNL A   1      45.427  32.412  29.323  1.00  0.00     0.057 A 
ATOM     76  C   UNL A   1      45.775  32.845  30.609  1.00  0.00     0.134 A 
ATOM     77  C   UNL A   1      45.389  33.372  28.304  1.00  0.00     0.134 A 
ATOM     78  F   UNL A   1      45.817  31.977  31.631  1.00  0.00    -0.206 F 
ATOM     79  C   UNL A   1      46.051  34.188  30.876  1.00  0.00     0.040 A 
ATOM     80  C   UNL A   1      45.687  34.712  28.553  1.00  0.00     0.040 A 
ATOM     81  F   UNL A   1      45.071  33.021  27.049  1.00  0.00    -0.206 F 
ATOM     82  C   UNL A   1      46.013  35.124  29.843  1.00  0.00     0.006 A 
ENDBRANCH  58  75
ENDBRANCH  32  33
ENDBRANCH  24  27
ENDBRANCH  22  23
ENDBRANCH  21  22
ENDBRANCH   1  21
TORSDOF 13
ENDMDL
MODEL 2
REMARK VINA RESULT:     -11.3      4.883      9.839
REMARK SMILES C[C@@H]1C[N@H+](C[C@]2(C(=O)NCCCCNC(=O)c3ccc(-c4c5nc(c(-c6c(F)cccc6F)c6ccc([nH]6)c(-c6c(F)cccc6F)c6nc(c(-c7c(F)cccc7F)c7ccc4[nH]7)C=C6)C=C5)cc3)CCOC2)C[C@@H]1C
REMARK SMILES IDX 11 1 10 2 9 3 7 4 8 5 6 7 71 8 74 9 72 10 73 11 5 12 4 13
REMARK SMILES IDX 1 14 2 15 3 16 76 17 75 18 77 19 12 21 13 22 14 23 15 24
REMARK SMILES IDX 16 26 17 27 18 28 70 29 19 30 69 31 20 32 21 33 22 34 63 35
REMARK SMILES IDX 23 36 68 37 62 38 64 39 24 40 67 41 61 42 60 43 25 45 51 46
REMARK SMILES IDX 34 47 50 48 35 49 38 50 49 51 65 52 36 53 37 54 48 56 66 57
REMARK SMILES IDX 39 58 26 59 27 60 32 61 28 62 29 63 31 64 33 65 30 66 52 67
REMARK SMILES IDX 53 68 58 69 54 70 55 71 57 72 59 73 56 74 40 75 41 76 46 77
REMARK SMILES IDX 42 78 43 79 45 80 47 81 44 82
REMARK H PARENT 9 6 4 20 14 25 64 44 38 55
REMARK Flexibility Score: inf
ROOT
ATOM      1  C   UNL A   1      31.841  30.183  26.637  1.00  0.00     0.023 C 
ENDROOT
BRANCH   1   2
ATOM      2  C   UNL A   1      32.661  29.656  25.463  1.00  0.00     0.116 C 
BRANCH   2   3
ATOM      3  N   UNL A   1      31.895  29.656  24.234  1.00  0.00    -0.355 N 
ATOM      4  C   UNL A   1      31.638  28.757  23.257  1.00  0.00     0.234 C 
ATOM      5  O   UNL A   1      30.936  29.216  22.344  1.00  0.00    -0.274 OA
ATOM      6  H   UNL A   1      31.453  30.522  24.070  1.00  0.00     0.163 HD
BRANCH   4   7
ATOM      7  C   UNL A   1      32.155  27.307  23.173  1.00  0.00     0.123 C 
ATOM      8  C   UNL A   1      31.501  26.643  21.949  1.00  0.00     0.054 C 
ATOM      9  C   UNL A   1      33.616  27.382  22.707  1.00  0.00     0.183 C 
ATOM     10  C   UNL A   1      32.602  25.842  21.287  1.00  0.00     0.161 C 
ATOM     11  O   UNL A   1      33.858  26.331  21.759  1.00  0.00    -0.380 OA
BRANCH   7  12
ATOM     12  C   UNL A   1      31.992  26.424  24.436  1.00  0.00     0.281 C 
BRANCH  12  13
ATOM     13  N   UNL A   1      32.943  25.350  24.551  1.00  0.00    -0.333 N 
ATOM     14  C   UNL A   1      36.188  24.028  25.586  1.00  0.00     0.014 C 
ATOM     15  C   UNL A   1      34.949  24.386  24.791  1.00  0.00     0.049 C 
ATOM     16  C   UNL A   1      34.057  25.417  25.469  1.00  0.00     0.265 C 
ATOM     17  C   UNL A   1      33.965  23.250  24.431  1.00  0.00     0.049 C 
ATOM     18  C   UNL A   1      32.620  23.978  24.228  1.00  0.00     0.265 C 
ATOM     19  C   UNL A   1      33.846  22.157  25.488  1.00  0.00     0.014 C 
ATOM     20  H   UNL A   1      33.246  25.767  23.671  1.00  0.00     0.348 HD
ENDBRANCH  12  13
ENDBRANCH   7  12
ENDBRANCH   4   7
ENDBRANCH   2   3
ENDBRANCH   1   2
BRANCH   1  21
ATOM     21  C   UNL A   1      31.665  31.706  26.646  1.00  0.00     0.023 C 
BRANCH  21  22
ATOM     22  C   UNL A   1      32.824  32.493  27.254  1.00  0.00     0.116 C 
BRANCH  22  23
ATOM     23  N   UNL A   1      32.469  33.849  27.647  1.00  0.00    -0.352 N 
ATOM     24  C   UNL A   1      33.118  34.670  28.537  1.00  0.00     0.251 C 
ATOM     25  H   UNL A   1      31.664  34.224  27.222  1.00  0.00     0.163 HD
ATOM     26  O   UNL A   1      32.650  35.764  28.836  1.00  0.00    -0.269 OA
BRANCH  24  27
ATOM     27  C   UNL A   1      34.363  34.195  29.170  1.00  0.00     0.039 A 
ATOM     28  C   UNL A   1      34.278  33.478  30.365  1.00  0.00     0.014 A 
ATOM     29  C   UNL A   1      35.599  34.405  28.553  1.00  0.00     0.014 A 
ATOM     30  C   UNL A   1      35.428  32.904  30.904  1.00  0.00     0.010 A 
ATOM     31  C   UNL A   1      36.733  33.777  29.056  1.00  0.00     0.010 A 
ATOM     32  C   UNL A   1      36.657  33.014  30.231  1.00  0.00    -0.014 A 
BRANCH  32  33
ATOM     33  C   UNL A   1      37.865  32.314  30.731  1.00  0.00     0.031 A 
ATOM     34  C   UNL A   1      38.630  32.863  31.901  1.00  0.00     0.074 A 
ATOM     35  C   UNL A   1      38.306  31.216  30.086  1.00  0.00     0.049 A 
ATOM     36  N   UNL A   1      39.728  32.413  32.451  1.00  0.00    -0.248 NA
ATOM     37  C   UNL A   1      38.108  34.093  32.514  1.00  0.00     0.031 C 
ATOM     38  C   UNL A   1      37.683  30.623  28.901  1.00  0.00     0.029 A 
ATOM     39  N   UNL A   1      39.387  30.409  30.333  1.00  0.00    -0.354 N 
ATOM     40  C   UNL A   1      40.034  33.310  33.467  1.00  0.00     0.074 A 
ATOM     41  C   UNL A   1      39.037  34.357  33.422  1.00  0.00     0.031 C 
ATOM     42  C   UNL A   1      38.377  29.531  28.539  1.00  0.00     0.029 A 
ATOM     43  C   UNL A   1      39.508  29.366  29.445  1.00  0.00     0.049 A 
ATOM     44  H   UNL A   1      40.016  30.562  31.074  1.00  0.00     0.167 HD
ATOM     45  C   UNL A   1      41.040  33.250  34.372  1.00  0.00     0.037 A 
ATOM     46  C   UNL A   1      40.430  28.388  29.374  1.00  0.00     0.037 A 
ATOM     47  C   UNL A   1      42.016  32.194  34.429  1.00  0.00     0.049 A 
ATOM     48  C   UNL A   1      41.532  28.341  30.394  1.00  0.00     0.074 A 
ATOM     49  C   UNL A   1      43.034  32.009  35.348  1.00  0.00     0.029 A 
ATOM     50  N   UNL A   1      42.096  31.144  33.526  1.00  0.00    -0.354 N 
ATOM     51  N   UNL A   1      41.763  29.151  31.398  1.00  0.00    -0.248 NA
ATOM     52  C   UNL A   1      42.496  27.238  30.276  1.00  0.00     0.031 C 
ATOM     53  C   UNL A   1      43.755  30.869  34.978  1.00  0.00     0.029 A 
ATOM     54  C   UNL A   1      43.159  30.319  33.854  1.00  0.00     0.049 A 
ATOM     55  H   UNL A   1      41.487  31.006  32.765  1.00  0.00     0.167 HD
ATOM     56  C   UNL A   1      42.883  28.646  32.044  1.00  0.00     0.074 A 
ATOM     57  C   UNL A   1      43.273  27.448  31.328  1.00  0.00     0.031 C 
ATOM     58  C   UNL A   1      43.532  29.131  33.130  1.00  0.00     0.037 A 
BRANCH  45  59
ATOM     59  C   UNL A   1      41.127  34.359  35.379  1.00  0.00     0.057 A 
ATOM     60  C   UNL A   1      41.894  35.508  35.148  1.00  0.00     0.134 A 
ATOM     61  C   UNL A   1      40.414  34.290  36.583  1.00  0.00     0.134 A 
ATOM     62  F   UNL A   1      42.612  35.630  34.021  1.00  0.00    -0.206 F 
ATOM     63  C   UNL A   1      41.969  36.538  36.087  1.00  0.00     0.040 A 
ATOM     64  C   UNL A   1      40.461  35.325  37.519  1.00  0.00     0.040 A 
ATOM     65  F   UNL A   1      39.656  33.220  36.866  1.00  0.00    -0.206 F 
ATOM     66  C   UNL A   1      41.245  36.450  37.274  1.00  0.00     0.006 A 
ENDBRANCH  45  59
BRANCH  46  67
ATOM     67  C   UNL A   1      40.334  27.354  28.313  1.00  0.00     0.057 A 
ATOM     68  C   UNL A   1      39.590  26.185  28.512  1.00  0.00     0.134 A 
ATOM     69  C   UNL A   1      40.983  27.504  27.082  1.00  0.00     0.134 A 
ATOM     70  F   UNL A   1      38.962  25.977  29.678  1.00  0.00    -0.206 F 
ATOM     71  C   UNL A   1      39.511  25.192  27.535  1.00  0.00     0.040 A 
ATOM     72  C   UNL A   1      40.894  26.531  26.086  1.00  0.00     0.040 A 
ATOM     73  F   UNL A   1      41.703  28.607  26.826  1.00  0.00    -0.206 F 
ATOM     74  C   UNL A   1      40.162  25.367  26.314  1.00  0.00     0.006 A 
ENDBRANCH  46  67
BRANCH  58  75
ATOM     75  C   UNL A   1      44.715  28.350  33.623  1.00  0.00     0.057 A 
ATOM     76  C   UNL A   1      44.575  27.300  34.539  1.00  0.00     0.134 A 
ATOM     77  C   UNL A   1      46.003  28.634  33.152  1.00  0.00     0.134 A 
ATOM     78  F   UNL A   1      43.369  26.988  35.037  1.00  0.00    -0.206 F 
ATOM     79  C   UNL A   1      45.679  26.574  34.989  1.00  0.00     0.040 A 
ATOM     80  C   UNL A   1      47.111  27.899  33.575  1.00  0.00     0.040 A 
ATOM     81  F   UNL A   1      46.204  29.621  32.268  1.00  0.00    -0.206 F 
ATOM     82  C   UNL A   1      46.952  26.870  34.501  1.00  0.00     0.006 A 
ENDBRANCH  58  75
ENDBRANCH  32  33
ENDBRANCH  24  27
ENDBRANCH  22  23
ENDBRANCH  21  22
ENDBRANCH   1  21
TORSDOF 13
ENDMDL
MODEL 3
REMARK VINA RESULT:     -11.3      1.587      2.287
REMARK SMILES C[C@@H]1C[N@H+](C[C@]2(C(=O)NCCCCNC(=O)c3ccc(-c4c5nc(c(-c6c(F)cccc6F)c6ccc([nH]6)c(-c6c(F)cccc6F)c6nc(c(-c7c(F)cccc7F)c7ccc4[nH]7)C=C6)C=C5)cc3)CCOC2)C[C@@H]1C
REMARK SMILES IDX 11 1 10 2 9 3 7 4 8 5 6 7 71 8 74 9 72 10 73 11 5 12 4 13
REMARK SMILES IDX 1 14 2 15 3 16 76 17 75 18 77 19 12 21 13 22 14 23 15 24
REMARK SMILES IDX 16 26 17 27 18 28 70 29 19 30 69 31 20 32 21 33 22 34 63 35
REMARK SMILES IDX 23 36 68 37 62 38 64 39 24 40 67 41 61 42 60 43 25 45 51 46
REMARK SMILES IDX 34 47 50 48 35 49 38 50 49 51 65 52 36 53 37 54 48 56 66 57
REMARK SMILES IDX 39 58 26 59 27 60 32 61 28 62 29 63 31 64 33 65 30 66 52 67
REMARK SMILES IDX 53 68 58 69 54 70 55 71 57 72 59 73 56 74 40 75 41 76 46 77
REMARK SMILES IDX 42 78 43 79 45 80 47 81 44 82
REMARK H PARENT 9 6 4 20 14 25 64 44 38 55
REMARK Flexibility Score: inf
ROOT
ATOM      1  C   UNL A   1      36.322  20.798  25.168  1.00  0.00     0.023 C 
ENDROOT
BRANCH   1   2
ATOM      2  C   UNL A   1      36.190  22.188  25.785  1.00  0.00     0.116 C 
BRANCH   2   3
ATOM      3  N   UNL A   1      35.230  22.201  26.870  1.00  0.00    -0.355 N 
ATOM      4  C   UNL A   1      33.990  22.705  27.054  1.00  0.00     0.234 C 
ATOM      5  O   UNL A   1      33.544  22.501  28.194  1.00  0.00    -0.274 OA
ATOM      6  H   UNL A   1      35.563  21.728  27.668  1.00  0.00     0.163 HD
BRANCH   4   7
ATOM      7  C   UNL A   1      33.153  23.503  26.035  1.00  0.00     0.123 C 
ATOM      8  C   UNL A   1      32.747  22.544  24.903  1.00  0.00     0.054 C 
ATOM      9  C   UNL A   1      31.787  23.763  26.688  1.00  0.00     0.183 C 
ATOM     10  C   UNL A   1      31.300  22.871  24.594  1.00  0.00     0.161 C 
ATOM     11  O   UNL A   1      30.758  23.590  25.702  1.00  0.00    -0.380 OA
BRANCH   7  12
ATOM     12  C   UNL A   1      33.781  24.800  25.465  1.00  0.00     0.281 C 
BRANCH  12  13
ATOM     13  N   UNL A   1      32.944  25.967  25.551  1.00  0.00    -0.333 N 
ATOM     14  C   UNL A   1      31.732  28.932  27.308  1.00  0.00     0.014 C 
ATOM     15  C   UNL A   1      31.816  27.632  26.536  1.00  0.00     0.049 C 
ATOM     16  C   UNL A   1      33.214  27.029  26.492  1.00  0.00     0.265 C 
ATOM     17  C   UNL A   1      31.391  27.643  25.050  1.00  0.00     0.049 C 
ATOM     18  C   UNL A   1      32.154  26.449  24.439  1.00  0.00     0.265 C 
ATOM     19  C   UNL A   1      31.709  28.938  24.310  1.00  0.00     0.014 C 
ATOM     20  H   UNL A   1      32.351  25.285  26.022  1.00  0.00     0.348 HD
ENDBRANCH  12  13
ENDBRANCH   7  12
ENDBRANCH   4   7
ENDBRANCH   2   3
ENDBRANCH   1   2
BRANCH   1  21
ATOM     21  C   UNL A   1      37.738  20.456  24.689  1.00  0.00     0.023 C 
BRANCH  21  22
ATOM     22  C   UNL A   1      38.835  20.605  25.742  1.00  0.00     0.116 C 
BRANCH  22  23
ATOM     23  N   UNL A   1      39.829  19.542  25.705  1.00  0.00    -0.352 N 
ATOM     24  C   UNL A   1      41.152  19.607  26.070  1.00  0.00     0.251 C 
ATOM     25  H   UNL A   1      39.514  18.669  25.379  1.00  0.00     0.163 HD
ATOM     26  O   UNL A   1      41.896  18.646  25.902  1.00  0.00    -0.269 OA
BRANCH  24  27
ATOM     27  C   UNL A   1      41.679  20.869  26.622  1.00  0.00     0.039 A 
ATOM     28  C   UNL A   1      42.178  21.830  25.740  1.00  0.00     0.014 A 
ATOM     29  C   UNL A   1      41.624  21.123  27.995  1.00  0.00     0.014 A 
ATOM     30  C   UNL A   1      42.551  23.081  26.230  1.00  0.00     0.010 A 
ATOM     31  C   UNL A   1      41.935  22.392  28.472  1.00  0.00     0.010 A 
ATOM     32  C   UNL A   1      42.393  23.385  27.593  1.00  0.00    -0.014 A 
BRANCH  32  33
ATOM     33  C   UNL A   1      42.678  24.746  28.108  1.00  0.00     0.031 A 
ATOM     34  C   UNL A   1      44.072  25.123  28.524  1.00  0.00     0.074 A 
ATOM     35  C   UNL A   1      41.665  25.620  28.260  1.00  0.00     0.049 A 
ATOM     36  N   UNL A   1      44.504  26.247  29.034  1.00  0.00    -0.248 NA
ATOM     37  C   UNL A   1      45.109  24.092  28.373  1.00  0.00     0.031 C 
ATOM     38  C   UNL A   1      40.259  25.350  27.949  1.00  0.00     0.029 A 
ATOM     39  N   UNL A   1      41.660  26.912  28.722  1.00  0.00    -0.354 N 
ATOM     40  C   UNL A   1      45.858  26.056  29.274  1.00  0.00     0.074 A 
ATOM     41  C   UNL A   1      46.165  24.691  28.905  1.00  0.00     0.031 C 
ATOM     42  C   UNL A   1      39.533  26.450  28.204  1.00  0.00     0.029 A 
ATOM     43  C   UNL A   1      40.414  27.490  28.725  1.00  0.00     0.049 A 
ATOM     44  H   UNL A   1      42.472  27.379  29.023  1.00  0.00     0.167 HD
ATOM     45  C   UNL A   1      46.768  26.946  29.737  1.00  0.00     0.037 A 
ATOM     46  C   UNL A   1      40.027  28.722  29.105  1.00  0.00     0.037 A 
ATOM     47  C   UNL A   1      46.465  28.310  30.080  1.00  0.00     0.049 A 
ATOM     48  C   UNL A   1      41.058  29.693  29.608  1.00  0.00     0.074 A 
ATOM     49  C   UNL A   1      47.329  29.308  30.494  1.00  0.00     0.029 A 
ATOM     50  N   UNL A   1      45.195  28.867  30.052  1.00  0.00    -0.354 N 
ATOM     51  N   UNL A   1      42.350  29.523  29.755  1.00  0.00    -0.248 NA
ATOM     52  C   UNL A   1      40.579  31.029  29.989  1.00  0.00     0.031 C 
ATOM     53  C   UNL A   1      46.576  30.458  30.755  1.00  0.00     0.029 A 
ATOM     54  C   UNL A   1      45.249  30.188  30.461  1.00  0.00     0.049 A 
ATOM     55  H   UNL A   1      44.376  28.392  29.781  1.00  0.00     0.167 HD
ATOM     56  C   UNL A   1      42.841  30.734  30.223  1.00  0.00     0.074 A 
ATOM     57  C   UNL A   1      41.710  31.635  30.318  1.00  0.00     0.031 C 
ATOM     58  C   UNL A   1      44.113  31.070  30.549  1.00  0.00     0.037 A 
BRANCH  45  59
ATOM     59  C   UNL A   1      48.183  26.469  29.887  1.00  0.00     0.057 A 
ATOM     60  C   UNL A   1      48.631  25.846  31.059  1.00  0.00     0.134 A 
ATOM     61  C   UNL A   1      49.101  26.608  28.839  1.00  0.00     0.134 A 
ATOM     62  F   UNL A   1      47.805  25.694  32.106  1.00  0.00    -0.206 F 
ATOM     63  C   UNL A   1      49.947  25.402  31.194  1.00  0.00     0.040 A 
ATOM     64  C   UNL A   1      50.414  26.145  28.952  1.00  0.00     0.040 A 
ATOM     65  F   UNL A   1      48.738  27.192  27.687  1.00  0.00    -0.206 F 
ATOM     66  C   UNL A   1      50.841  25.545  30.135  1.00  0.00     0.006 A 
ENDBRANCH  45  59
BRANCH  46  67
ATOM     67  C   UNL A   1      38.601  29.119  28.999  1.00  0.00     0.057 A 
ATOM     68  C   UNL A   1      38.074  29.595  27.792  1.00  0.00     0.134 A 
ATOM     69  C   UNL A   1      37.733  29.038  30.093  1.00  0.00     0.134 A 
ATOM     70  F   UNL A   1      38.862  29.711  26.712  1.00  0.00    -0.206 F 
ATOM     71  C   UNL A   1      36.742  29.995  27.682  1.00  0.00     0.040 A 
ATOM     72  C   UNL A   1      36.393  29.412  29.993  1.00  0.00     0.040 A 
ATOM     73  F   UNL A   1      38.175  28.581  31.275  1.00  0.00    -0.206 F 
ATOM     74  C   UNL A   1      35.895  29.901  28.786  1.00  0.00     0.006 A 
ENDBRANCH  46  67
BRANCH  58  75
ATOM     75  C   UNL A   1      44.349  32.477  31.012  1.00  0.00     0.057 A 
ATOM     76  C   UNL A   1      44.569  33.524  30.108  1.00  0.00     0.134 A 
ATOM     77  C   UNL A   1      44.327  32.792  32.377  1.00  0.00     0.134 A 
ATOM     78  F   UNL A   1      44.616  33.285  28.789  1.00  0.00    -0.206 F 
ATOM     79  C   UNL A   1      44.783  34.832  30.547  1.00  0.00     0.040 A 
ATOM     80  C   UNL A   1      44.514  34.100  32.826  1.00  0.00     0.040 A 
ATOM     81  F   UNL A   1      44.112  31.837  33.294  1.00  0.00    -0.206 F 
ATOM     82  C   UNL A   1      44.750  35.123  31.910  1.00  0.00     0.006 A 
ENDBRANCH  58  75
ENDBRANCH  32  33
ENDBRANCH  24  27
ENDBRANCH  22  23
ENDBRANCH  21  22
ENDBRANCH   1  21
TORSDOF 13
ENDMDL
