MODEL 1
REMARK VINA RESULT:     -13.7      0.000      0.000
REMARK SMILES O=C1C[C@H](c2cn[nH]c2C(=O)NCCCCNC(=O)c2ccc(-c3c4nc(c(-c5c(F)cccc5F)c5ccc([nH]5)c(-c5c(F)cccc5F)c5nc(c(-c6c(F)cccc6F)c6ccc3[nH]6)C=C5)C=C4)cc2)c2c(-c3cccs3)n[nH]c2N1
REMARK SMILES IDX 14 1 13 2 12 3 10 4 11 5 9 7 5 8 6 9 7 10 8 11 4 13 1 14
REMARK SMILES IDX 2 15 3 16 84 17 83 18 74 20 82 21 75 22 81 23 76 25 77 26
REMARK SMILES IDX 80 27 78 28 79 29 15 30 16 31 17 32 18 33 19 35 20 36 21 37
REMARK SMILES IDX 73 38 22 39 72 40 23 41 24 42 25 43 66 44 26 45 71 46 65 47
REMARK SMILES IDX 67 48 27 49 70 50 64 51 63 52 28 54 54 55 37 56 53 57 38 58
REMARK SMILES IDX 41 59 52 60 68 61 39 62 40 63 51 65 69 66 42 67 29 68 30 69
REMARK SMILES IDX 35 70 31 71 32 72 34 73 36 74 33 75 55 76 56 77 61 78 57 79
REMARK SMILES IDX 58 80 60 81 62 82 59 83 43 84 44 85 49 86 45 87 46 88 48 89
REMARK SMILES IDX 50 90 47 91
REMARK H PARENT 12 6 8 12 84 19 82 24 17 34 67 53 41 64
REMARK Flexibility Score: inf
ROOT
ATOM      1  C   UNL A   1      35.456  29.831  27.390  1.00  0.00     0.023 C 
ENDROOT
BRANCH   1   2
ATOM      2  C   UNL A   1      34.380  28.518  26.874  1.00  0.00     0.116 C 
BRANCH   2   3
ATOM      3  N   UNL A   1      33.351  28.321  24.962  1.00  0.00    -0.351 N 
ATOM      4  C   UNL A   1      32.940  27.701  23.759  1.00  0.00     0.269 C 
ATOM      5  O   UNL A   1      32.220  28.388  23.027  1.00  0.00    -0.268 OA
ATOM      6  H   UNL A   1      32.894  29.191  24.897  1.00  0.00     0.163 HD
BRANCH   4   7
ATOM      7  C   UNL A   1      33.248  26.336  23.399  1.00  0.00     0.126 A 
ATOM      8  C   UNL A   1      33.320  25.173  24.151  1.00  0.00     0.011 A 
ATOM      9  C   UNL A   1      33.555  24.150  23.215  1.00  0.00     0.140 A 
ATOM     10  N   UNL A   1      33.660  24.617  21.970  1.00  0.00    -0.183 NA
ATOM     11  N   UNL A   1      33.470  25.942  22.109  1.00  0.00    -0.273 N 
ATOM     12  H   UNL A   1      33.491  26.571  21.352  1.00  0.00     0.190 HD
BRANCH   8  13
ATOM     13  C   UNL A   1      33.139  25.102  25.624  1.00  0.00     0.069 C 
ATOM     14  O   UNL A   1      29.410  25.421  26.400  1.00  0.00    -0.275 OA
ATOM     15  C   UNL A   1      30.460  24.897  26.009  1.00  0.00     0.226 C 
ATOM     16  C   UNL A   1      31.788  25.705  26.082  1.00  0.00     0.114 C 
ATOM     17  N   UNL A   1      30.407  23.585  25.608  1.00  0.00    -0.311 N 
ATOM     18  C   UNL A   1      31.566  22.875  25.656  1.00  0.00     0.132 A 
ATOM     19  H   UNL A   1      29.565  23.175  25.300  1.00  0.00     0.171 HD
ATOM     20  C   UNL A   1      33.116  23.671  25.926  1.00  0.00     0.031 A 
ATOM     21  N   UNL A   1      31.859  21.043  25.643  1.00  0.00    -0.262 N 
ATOM     22  C   UNL A   1      34.480  22.285  26.075  1.00  0.00     0.108 A 
ATOM     23  N   UNL A   1      33.699  20.706  25.910  1.00  0.00    -0.173 NA
ATOM     24  H   UNL A   1      31.165  20.355  25.519  1.00  0.00     0.192 HD
BRANCH  22  25
ATOM     25  C   UNL A   1      35.922  22.598  25.854  1.00  0.00     0.055 A 
ATOM     26  C   UNL A   1      36.498  23.808  26.167  1.00  0.00     0.022 A 
ATOM     27  S   UNL A   1      37.065  21.433  25.374  1.00  0.00    -0.142 S 
ATOM     28  C   UNL A   1      37.923  23.753  26.063  1.00  0.00     0.012 A 
ATOM     29  C   UNL A   1      38.360  22.536  25.584  1.00  0.00     0.065 A 
ENDBRANCH  22  25
ENDBRANCH   8  13
ENDBRANCH   4   7
ENDBRANCH   2   3
ENDBRANCH   1   2
BRANCH   1  30
ATOM     30  C   UNL A   1      34.822  31.190  27.699  1.00  0.00     0.023 C 
BRANCH  30  31
ATOM     31  C   UNL A   1      35.806  32.255  28.111  1.00  0.00     0.116 C 
BRANCH  31  32
ATOM     32  N   UNL A   1      35.468  32.797  29.423  1.00  0.00    -0.352 N 
ATOM     33  C   UNL A   1      35.572  32.109  30.612  1.00  0.00     0.251 C 
ATOM     34  H   UNL A   1      35.141  33.724  29.461  1.00  0.00     0.163 HD
ATOM     35  O   UNL A   1      34.840  32.339  31.562  1.00  0.00    -0.269 OA
BRANCH  33  36
ATOM     36  C   UNL A   1      36.696  31.166  30.710  1.00  0.00     0.039 A 
ATOM     37  C   UNL A   1      36.543  29.781  30.717  1.00  0.00     0.014 A 
ATOM     38  C   UNL A   1      37.961  31.750  30.688  1.00  0.00     0.014 A 
ATOM     39  C   UNL A   1      37.699  28.996  30.795  1.00  0.00     0.010 A 
ATOM     40  C   UNL A   1      39.055  30.963  30.477  1.00  0.00     0.010 A 
ATOM     41  C   UNL A   1      38.971  29.610  30.732  1.00  0.00    -0.014 A 
BRANCH  41  42
ATOM     42  C   UNL A   1      40.227  28.880  30.532  1.00  0.00     0.031 A 
ATOM     43  C   UNL A   1      40.879  28.736  31.866  1.00  0.00     0.074 A 
ATOM     44  C   UNL A   1      40.619  28.309  29.353  1.00  0.00     0.049 A 
ATOM     45  N   UNL A   1      41.803  29.523  32.307  1.00  0.00    -0.248 NA
ATOM     46  C   UNL A   1      40.263  27.936  32.948  1.00  0.00     0.031 C 
ATOM     47  C   UNL A   1      39.935  28.290  28.049  1.00  0.00     0.029 A 
ATOM     48  N   UNL A   1      41.761  27.580  29.059  1.00  0.00    -0.354 N 
ATOM     49  C   UNL A   1      42.146  29.033  33.558  1.00  0.00     0.074 A 
ATOM     50  C   UNL A   1      41.007  28.289  34.006  1.00  0.00     0.031 C 
ATOM     51  C   UNL A   1      40.525  27.399  27.205  1.00  0.00     0.029 A 
ATOM     52  C   UNL A   1      41.719  26.861  27.829  1.00  0.00     0.049 A 
ATOM     53  H   UNL A   1      42.543  27.561  29.656  1.00  0.00     0.167 HD
ATOM     54  C   UNL A   1      43.467  28.973  33.888  1.00  0.00     0.037 A 
ATOM     55  C   UNL A   1      42.644  25.956  27.361  1.00  0.00     0.037 A 
ATOM     56  C   UNL A   1      44.223  29.765  32.940  1.00  0.00     0.049 A 
ATOM     57  C   UNL A   1      43.912  26.224  28.092  1.00  0.00     0.074 A 
ATOM     58  C   UNL A   1      44.207  31.090  32.550  1.00  0.00     0.029 A 
ATOM     59  N   UNL A   1      44.777  29.054  31.904  1.00  0.00    -0.354 N 
ATOM     60  N   UNL A   1      44.597  27.320  27.915  1.00  0.00    -0.248 NA
ATOM     61  C   UNL A   1      44.027  25.595  29.401  1.00  0.00     0.031 C 
ATOM     62  C   UNL A   1      44.361  31.062  31.134  1.00  0.00     0.029 A 
ATOM     63  C   UNL A   1      44.655  29.758  30.740  1.00  0.00     0.049 A 
ATOM     64  H   UNL A   1      45.199  28.168  31.988  1.00  0.00     0.167 HD
ATOM     65  C   UNL A   1      44.767  27.804  29.202  1.00  0.00     0.074 A 
ATOM     66  C   UNL A   1      44.407  26.682  30.083  1.00  0.00     0.031 C 
ATOM     67  C   UNL A   1      44.819  29.148  29.444  1.00  0.00     0.037 A 
BRANCH  54  68
ATOM     68  C   UNL A   1      44.127  27.848  34.656  1.00  0.00     0.057 A 
ATOM     69  C   UNL A   1      45.001  28.193  35.707  1.00  0.00     0.134 A 
ATOM     70  C   UNL A   1      44.205  26.507  34.237  1.00  0.00     0.134 A 
ATOM     71  F   UNL A   1      45.034  29.444  36.194  1.00  0.00    -0.206 F 
ATOM     72  C   UNL A   1      45.940  27.299  36.232  1.00  0.00     0.040 A 
ATOM     73  C   UNL A   1      45.109  25.593  34.787  1.00  0.00     0.040 A 
ATOM     74  F   UNL A   1      43.489  26.021  33.218  1.00  0.00    -0.206 F 
ATOM     75  C   UNL A   1      46.003  25.993  35.767  1.00  0.00     0.006 A 
ENDBRANCH  54  68
BRANCH  55  76
ATOM     76  C   UNL A   1      42.505  24.691  26.561  1.00  0.00     0.057 A 
ATOM     77  C   UNL A   1      43.269  24.409  25.402  1.00  0.00     0.134 A 
ATOM     78  C   UNL A   1      41.846  23.583  27.112  1.00  0.00     0.134 A 
ATOM     79  F   UNL A   1      43.988  25.371  24.801  1.00  0.00    -0.206 F 
ATOM     80  C   UNL A   1      43.385  23.112  24.857  1.00  0.00     0.040 A 
ATOM     81  C   UNL A   1      41.961  22.285  26.586  1.00  0.00     0.040 A 
ATOM     82  F   UNL A   1      41.141  23.706  28.243  1.00  0.00    -0.206 F 
ATOM     83  C   UNL A   1      42.742  22.040  25.463  1.00  0.00     0.006 A 
ENDBRANCH  55  76
BRANCH  67  84
ATOM     84  C   UNL A   1      44.942  30.087  28.275  1.00  0.00     0.057 A 
ATOM     85  C   UNL A   1      43.875  30.722  27.619  1.00  0.00     0.134 A 
ATOM     86  C   UNL A   1      46.231  30.490  27.912  1.00  0.00     0.134 A 
ATOM     87  F   UNL A   1      42.605  30.502  27.983  1.00  0.00    -0.206 F 
ATOM     88  C   UNL A   1      44.089  31.664  26.604  1.00  0.00     0.040 A 
ATOM     89  C   UNL A   1      46.458  31.454  26.930  1.00  0.00     0.040 A 
ATOM     90  F   UNL A   1      47.298  29.990  28.554  1.00  0.00    -0.206 F 
ATOM     91  C   UNL A   1      45.387  32.029  26.256  1.00  0.00     0.006 A 
ENDBRANCH  67  84
ENDBRANCH  41  42
ENDBRANCH  33  36
ENDBRANCH  31  32
ENDBRANCH  30  31
ENDBRANCH   1  30
TORSDOF 13
ENDMDL
MODEL 2
REMARK VINA RESULT:     -13.6      2.885      7.773
REMARK SMILES O=C1C[C@H](c2cn[nH]c2C(=O)NCCCCNC(=O)c2ccc(-c3c4nc(c(-c5c(F)cccc5F)c5ccc([nH]5)c(-c5c(F)cccc5F)c5nc(c(-c6c(F)cccc6F)c6ccc3[nH]6)C=C5)C=C4)cc2)c2c(-c3cccs3)n[nH]c2N1
REMARK SMILES IDX 14 1 13 2 12 3 10 4 11 5 9 7 5 8 6 9 7 10 8 11 4 13 1 14
REMARK SMILES IDX 2 15 3 16 84 17 83 18 74 20 82 21 75 22 81 23 76 25 77 26
REMARK SMILES IDX 80 27 78 28 79 29 15 30 16 31 17 32 18 33 19 35 20 36 21 37
REMARK SMILES IDX 73 38 22 39 72 40 23 41 24 42 25 43 66 44 26 45 71 46 65 47
REMARK SMILES IDX 67 48 27 49 70 50 64 51 63 52 28 54 54 55 37 56 53 57 38 58
REMARK SMILES IDX 41 59 52 60 68 61 39 62 40 63 51 65 69 66 42 67 29 68 30 69
REMARK SMILES IDX 35 70 31 71 32 72 34 73 36 74 33 75 55 76 56 77 61 78 57 79
REMARK SMILES IDX 58 80 60 81 62 82 59 83 43 84 44 85 49 86 45 87 46 88 48 89
REMARK SMILES IDX 50 90 47 91
REMARK H PARENT 12 6 8 12 84 19 82 24 17 34 67 53 41 64
REMARK Flexibility Score: inf
ROOT
ATOM      1  C   UNL A   1      38.443  24.036  26.572  1.00  0.00     0.023 C 
ENDROOT
BRANCH   1   2
ATOM      2  C   UNL A   1      36.841  24.110  25.813  1.00  0.00     0.116 C 
BRANCH   2   3
ATOM      3  N   UNL A   1      35.021  23.096  26.457  1.00  0.00    -0.351 N 
ATOM      4  C   UNL A   1      33.642  22.939  26.730  1.00  0.00     0.269 C 
ATOM      5  O   UNL A   1      33.316  21.843  27.199  1.00  0.00    -0.268 OA
ATOM      6  H   UNL A   1      35.371  22.211  26.710  1.00  0.00     0.163 HD
BRANCH   4   7
ATOM      7  C   UNL A   1      32.633  23.928  26.428  1.00  0.00     0.126 A 
ATOM      8  C   UNL A   1      32.589  24.951  25.493  1.00  0.00     0.011 A 
ATOM      9  C   UNL A   1      31.298  25.497  25.615  1.00  0.00     0.140 A 
ATOM     10  N   UNL A   1      30.584  24.901  26.572  1.00  0.00    -0.183 NA
ATOM     11  N   UNL A   1      31.415  23.956  27.048  1.00  0.00    -0.273 N 
ATOM     12  H   UNL A   1      31.169  23.341  27.777  1.00  0.00     0.190 HD
BRANCH   8  13
ATOM     13  C   UNL A   1      33.696  25.305  24.570  1.00  0.00     0.069 C 
ATOM     14  O   UNL A   1      33.424  23.107  21.455  1.00  0.00    -0.275 OA
ATOM     15  C   UNL A   1      33.140  24.011  22.250  1.00  0.00     0.226 C 
ATOM     16  C   UNL A   1      33.990  24.184  23.542  1.00  0.00     0.114 C 
ATOM     17  N   UNL A   1      32.131  24.874  21.899  1.00  0.00    -0.311 N 
ATOM     18  C   UNL A   1      32.139  26.105  22.479  1.00  0.00     0.132 A 
ATOM     19  H   UNL A   1      31.432  24.614  21.255  1.00  0.00     0.171 HD
ATOM     20  C   UNL A   1      33.207  26.471  23.834  1.00  0.00     0.031 A 
ATOM     21  N   UNL A   1      31.280  27.674  21.987  1.00  0.00    -0.262 N 
ATOM     22  C   UNL A   1      33.012  28.366  24.251  1.00  0.00     0.108 A 
ATOM     23  N   UNL A   1      31.851  29.075  23.120  1.00  0.00    -0.173 NA
ATOM     24  H   UNL A   1      30.632  27.763  21.252  1.00  0.00     0.192 HD
BRANCH  22  25
ATOM     25  C   UNL A   1      33.403  28.904  25.586  1.00  0.00     0.055 A 
ATOM     26  C   UNL A   1      34.545  28.527  26.258  1.00  0.00     0.022 A 
ATOM     27  S   UNL A   1      32.591  30.190  26.347  1.00  0.00    -0.142 S 
ATOM     28  C   UNL A   1      34.783  29.360  27.395  1.00  0.00     0.012 A 
ATOM     29  C   UNL A   1      33.764  30.268  27.594  1.00  0.00     0.065 A 
ENDBRANCH  22  25
ENDBRANCH   8  13
ENDBRANCH   4   7
ENDBRANCH   2   3
ENDBRANCH   1   2
BRANCH   1  30
ATOM     30  C   UNL A   1      39.227  22.726  26.455  1.00  0.00     0.023 C 
BRANCH  30  31
ATOM     31  C   UNL A   1      40.372  22.598  27.425  1.00  0.00     0.116 C 
BRANCH  31  32
ATOM     32  N   UNL A   1      41.633  22.393  26.719  1.00  0.00    -0.352 N 
ATOM     33  C   UNL A   1      42.273  23.343  25.955  1.00  0.00     0.251 C 
ATOM     34  H   UNL A   1      42.057  21.508  26.795  1.00  0.00     0.163 HD
ATOM     35  O   UNL A   1      42.974  23.045  25.000  1.00  0.00    -0.269 OA
BRANCH  33  36
ATOM     36  C   UNL A   1      42.160  24.730  26.431  1.00  0.00     0.039 A 
ATOM     37  C   UNL A   1      41.442  25.719  25.762  1.00  0.00     0.014 A 
ATOM     38  C   UNL A   1      42.739  24.978  27.673  1.00  0.00     0.014 A 
ATOM     39  C   UNL A   1      41.398  26.996  26.334  1.00  0.00     0.010 A 
ATOM     40  C   UNL A   1      42.439  26.135  28.330  1.00  0.00     0.010 A 
ATOM     41  C   UNL A   1      41.959  27.212  27.613  1.00  0.00    -0.014 A 
BRANCH  41  42
ATOM     42  C   UNL A   1      41.736  28.418  28.416  1.00  0.00     0.031 A 
ATOM     43  C   UNL A   1      42.856  29.361  28.131  1.00  0.00     0.074 A 
ATOM     44  C   UNL A   1      40.612  28.668  29.155  1.00  0.00     0.049 A 
ATOM     45  N   UNL A   1      43.909  29.477  28.869  1.00  0.00    -0.248 NA
ATOM     46  C   UNL A   1      43.049  29.953  26.787  1.00  0.00     0.031 C 
ATOM     47  C   UNL A   1      39.411  27.836  29.341  1.00  0.00     0.029 A 
ATOM     48  N   UNL A   1      40.285  29.775  29.922  1.00  0.00    -0.354 N 
ATOM     49  C   UNL A   1      44.679  30.463  28.271  1.00  0.00     0.074 A 
ATOM     50  C   UNL A   1      44.271  30.490  26.898  1.00  0.00     0.031 C 
ATOM     51  C   UNL A   1      38.415  28.551  29.934  1.00  0.00     0.029 A 
ATOM     52  C   UNL A   1      38.916  29.860  30.307  1.00  0.00     0.049 A 
ATOM     53  H   UNL A   1      40.951  30.452  30.182  1.00  0.00     0.167 HD
ATOM     54  C   UNL A   1      45.267  31.396  29.071  1.00  0.00     0.037 A 
ATOM     55  C   UNL A   1      38.293  30.910  30.943  1.00  0.00     0.037 A 
ATOM     56  C   UNL A   1      45.212  30.939  30.445  1.00  0.00     0.049 A 
ATOM     57  C   UNL A   1      39.363  31.708  31.600  1.00  0.00     0.074 A 
ATOM     58  C   UNL A   1      45.677  29.824  31.116  1.00  0.00     0.029 A 
ATOM     59  N   UNL A   1      44.163  31.434  31.178  1.00  0.00    -0.354 N 
ATOM     60  N   UNL A   1      40.054  31.246  32.606  1.00  0.00    -0.248 NA
ATOM     61  C   UNL A   1      40.033  32.681  30.749  1.00  0.00     0.031 C 
ATOM     62  C   UNL A   1      44.619  29.454  31.997  1.00  0.00     0.029 A 
ATOM     63  C   UNL A   1      43.645  30.450  31.972  1.00  0.00     0.049 A 
ATOM     64  H   UNL A   1      43.833  32.361  31.138  1.00  0.00     0.167 HD
ATOM     65  C   UNL A   1      41.368  31.428  32.203  1.00  0.00     0.074 A 
ATOM     66  C   UNL A   1      41.291  32.338  31.051  1.00  0.00     0.031 C 
ATOM     67  C   UNL A   1      42.345  30.555  32.588  1.00  0.00     0.037 A 
BRANCH  54  68
ATOM     68  C   UNL A   1      45.389  32.871  28.753  1.00  0.00     0.057 A 
ATOM     69  C   UNL A   1      46.648  33.480  28.928  1.00  0.00     0.134 A 
ATOM     70  C   UNL A   1      44.314  33.766  28.599  1.00  0.00     0.134 A 
ATOM     71  F   UNL A   1      47.754  32.740  29.096  1.00  0.00    -0.206 F 
ATOM     72  C   UNL A   1      46.808  34.866  29.035  1.00  0.00     0.040 A 
ATOM     73  C   UNL A   1      44.470  35.155  28.658  1.00  0.00     0.040 A 
ATOM     74  F   UNL A   1      43.045  33.364  28.476  1.00  0.00    -0.206 F 
ATOM     75  C   UNL A   1      45.714  35.711  28.907  1.00  0.00     0.006 A 
ENDBRANCH  54  68
BRANCH  55  76
ATOM     76  C   UNL A   1      36.908  31.484  30.825  1.00  0.00     0.057 A 
ATOM     77  C   UNL A   1      36.063  31.723  31.936  1.00  0.00     0.134 A 
ATOM     78  C   UNL A   1      36.513  32.120  29.640  1.00  0.00     0.134 A 
ATOM     79  F   UNL A   1      36.352  31.213  33.144  1.00  0.00    -0.206 F 
ATOM     80  C   UNL A   1      34.926  32.558  31.868  1.00  0.00     0.040 A 
ATOM     81  C   UNL A   1      35.390  32.961  29.561  1.00  0.00     0.040 A 
ATOM     82  F   UNL A   1      37.262  32.022  28.535  1.00  0.00    -0.206 F 
ATOM     83  C   UNL A   1      34.598  33.196  30.678  1.00  0.00     0.006 A 
ENDBRANCH  55  76
BRANCH  67  84
ATOM     84  C   UNL A   1      42.030  29.541  33.654  1.00  0.00     0.057 A 
ATOM     85  C   UNL A   1      41.603  28.222  33.428  1.00  0.00     0.134 A 
ATOM     86  C   UNL A   1      42.338  29.883  34.974  1.00  0.00     0.134 A 
ATOM     87  F   UNL A   1      41.406  27.756  32.188  1.00  0.00    -0.206 F 
ATOM     88  C   UNL A   1      41.431  27.313  34.480  1.00  0.00     0.040 A 
ATOM     89  C   UNL A   1      42.207  28.978  36.026  1.00  0.00     0.040 A 
ATOM     90  F   UNL A   1      42.832  31.100  35.255  1.00  0.00    -0.206 F 
ATOM     91  C   UNL A   1      41.732  27.694  35.785  1.00  0.00     0.006 A 
ENDBRANCH  67  84
ENDBRANCH  41  42
ENDBRANCH  33  36
ENDBRANCH  31  32
ENDBRANCH  30  31
ENDBRANCH   1  30
TORSDOF 13
ENDMDL
MODEL 3
REMARK VINA RESULT:     -13.5      3.411      8.155
REMARK SMILES O=C1C[C@H](c2cn[nH]c2C(=O)NCCCCNC(=O)c2ccc(-c3c4nc(c(-c5c(F)cccc5F)c5ccc([nH]5)c(-c5c(F)cccc5F)c5nc(c(-c6c(F)cccc6F)c6ccc3[nH]6)C=C5)C=C4)cc2)c2c(-c3cccs3)n[nH]c2N1
REMARK SMILES IDX 14 1 13 2 12 3 10 4 11 5 9 7 5 8 6 9 7 10 8 11 4 13 1 14
REMARK SMILES IDX 2 15 3 16 84 17 83 18 74 20 82 21 75 22 81 23 76 25 77 26
REMARK SMILES IDX 80 27 78 28 79 29 15 30 16 31 17 32 18 33 19 35 20 36 21 37
REMARK SMILES IDX 73 38 22 39 72 40 23 41 24 42 25 43 66 44 26 45 71 46 65 47
REMARK SMILES IDX 67 48 27 49 70 50 64 51 63 52 28 54 54 55 37 56 53 57 38 58
REMARK SMILES IDX 41 59 52 60 68 61 39 62 40 63 51 65 69 66 42 67 29 68 30 69
REMARK SMILES IDX 35 70 31 71 32 72 34 73 36 74 33 75 55 76 56 77 61 78 57 79
REMARK SMILES IDX 58 80 60 81 62 82 59 83 43 84 44 85 49 86 45 87 46 88 48 89
REMARK SMILES IDX 50 90 47 91
REMARK H PARENT 12 6 8 12 84 19 82 24 17 34 67 53 41 64
REMARK Flexibility Score: inf
ROOT
ATOM      1  C   UNL A   1      41.591  20.178  26.317  1.00  0.00     0.023 C 
ENDROOT
BRANCH   1   2
ATOM      2  C   UNL A   1      39.836  20.282  26.071  1.00  0.00     0.116 C 
BRANCH   2   3
ATOM      3  N   UNL A   1      38.572  22.047  26.272  1.00  0.00    -0.351 N 
ATOM      4  C   UNL A   1      37.614  23.016  25.893  1.00  0.00     0.269 C 
ATOM      5  O   UNL A   1      37.407  23.910  26.720  1.00  0.00    -0.268 OA
ATOM      6  H   UNL A   1      38.814  22.358  27.175  1.00  0.00     0.163 HD
BRANCH   4   7
ATOM      7  C   UNL A   1      36.846  22.968  24.670  1.00  0.00     0.126 A 
ATOM      8  C   UNL A   1      35.481  22.892  24.435  1.00  0.00     0.011 A 
ATOM      9  C   UNL A   1      35.348  22.989  23.038  1.00  0.00     0.140 A 
ATOM     10  N   UNL A   1      36.528  23.084  22.423  1.00  0.00    -0.183 NA
ATOM     11  N   UNL A   1      37.417  23.068  23.433  1.00  0.00    -0.273 N 
ATOM     12  H   UNL A   1      38.390  23.123  23.293  1.00  0.00     0.190 HD
BRANCH   8  13
ATOM     13  C   UNL A   1      34.443  22.774  25.491  1.00  0.00     0.069 C 
ATOM     14  O   UNL A   1      33.271  26.288  26.433  1.00  0.00    -0.275 OA
ATOM     15  C   UNL A   1      33.395  25.264  25.750  1.00  0.00     0.226 C 
ATOM     16  C   UNL A   1      34.260  24.089  26.289  1.00  0.00     0.114 C 
ATOM     17  N   UNL A   1      32.681  25.189  24.579  1.00  0.00    -0.311 N 
ATOM     18  C   UNL A   1      32.416  23.946  24.094  1.00  0.00     0.132 A 
ATOM     19  H   UNL A   1      32.375  26.000  24.111  1.00  0.00     0.171 HD
ATOM     20  C   UNL A   1      33.201  22.516  24.763  1.00  0.00     0.031 A 
ATOM     21  N   UNL A   1      31.160  23.380  22.851  1.00  0.00    -0.262 N 
ATOM     22  C   UNL A   1      32.427  20.950  23.894  1.00  0.00     0.108 A 
ATOM     23  N   UNL A   1      31.192  21.493  22.751  1.00  0.00    -0.173 NA
ATOM     24  H   UNL A   1      30.569  23.969  22.329  1.00  0.00     0.192 HD
BRANCH  22  25
ATOM     25  C   UNL A   1      33.149  19.644  23.880  1.00  0.00     0.055 A 
ATOM     26  C   UNL A   1      34.287  19.391  24.611  1.00  0.00     0.022 A 
ATOM     27  S   UNL A   1      32.540  18.253  23.113  1.00  0.00    -0.142 S 
ATOM     28  C   UNL A   1      34.630  18.003  24.584  1.00  0.00     0.012 A 
ATOM     29  C   UNL A   1      33.796  17.280  23.757  1.00  0.00     0.065 A 
ENDBRANCH  22  25
ENDBRANCH   8  13
ENDBRANCH   4   7
ENDBRANCH   2   3
ENDBRANCH   1   2
BRANCH   1  30
ATOM     30  C   UNL A   1      42.321  18.967  25.731  1.00  0.00     0.023 C 
BRANCH  30  31
ATOM     31  C   UNL A   1      43.725  18.779  26.245  1.00  0.00     0.116 C 
BRANCH  31  32
ATOM     32  N   UNL A   1      44.678  18.704  25.143  1.00  0.00    -0.352 N 
ATOM     33  C   UNL A   1      44.865  19.683  24.192  1.00  0.00     0.251 C 
ATOM     34  H   UNL A   1      45.228  17.891  25.073  1.00  0.00     0.163 HD
ATOM     35  O   UNL A   1      45.227  19.425  23.055  1.00  0.00    -0.269 OA
BRANCH  33  36
ATOM     36  C   UNL A   1      44.720  21.069  24.664  1.00  0.00     0.039 A 
ATOM     37  C   UNL A   1      43.837  21.987  24.100  1.00  0.00     0.014 A 
ATOM     38  C   UNL A   1      45.459  21.386  25.801  1.00  0.00     0.014 A 
ATOM     39  C   UNL A   1      43.783  23.270  24.658  1.00  0.00     0.010 A 
ATOM     40  C   UNL A   1      45.174  22.533  26.483  1.00  0.00     0.010 A 
ATOM     41  C   UNL A   1      44.512  23.555  25.834  1.00  0.00    -0.014 A 
BRANCH  41  42
ATOM     42  C   UNL A   1      44.321  24.760  26.648  1.00  0.00     0.031 A 
ATOM     43  C   UNL A   1      45.447  25.690  26.343  1.00  0.00     0.074 A 
ATOM     44  C   UNL A   1      43.217  25.020  27.412  1.00  0.00     0.049 A 
ATOM     45  N   UNL A   1      46.517  25.789  27.059  1.00  0.00    -0.248 NA
ATOM     46  C   UNL A   1      45.618  26.287  24.999  1.00  0.00     0.031 C 
ATOM     47  C   UNL A   1      42.010  24.202  27.621  1.00  0.00     0.029 A 
ATOM     48  N   UNL A   1      42.921  26.127  28.192  1.00  0.00    -0.354 N 
ATOM     49  C   UNL A   1      47.286  26.769  26.450  1.00  0.00     0.074 A 
ATOM     50  C   UNL A   1      46.850  26.809  25.086  1.00  0.00     0.031 C 
ATOM     51  C   UNL A   1      41.036  24.926  28.238  1.00  0.00     0.029 A 
ATOM     52  C   UNL A   1      41.561  26.227  28.607  1.00  0.00     0.049 A 
ATOM     53  H   UNL A   1      43.600  26.794  28.441  1.00  0.00     0.167 HD
ATOM     54  C   UNL A   1      47.903  27.690  27.242  1.00  0.00     0.037 A 
ATOM     55  C   UNL A   1      40.965  27.281  29.261  1.00  0.00     0.037 A 
ATOM     56  C   UNL A   1      47.872  27.226  28.614  1.00  0.00     0.049 A 
ATOM     57  C   UNL A   1      42.059  28.062  29.899  1.00  0.00     0.074 A 
ATOM     58  C   UNL A   1      48.337  26.102  29.269  1.00  0.00     0.029 A 
ATOM     59  N   UNL A   1      46.845  27.731  29.372  1.00  0.00    -0.354 N 
ATOM     60  N   UNL A   1      42.766  27.586  30.888  1.00  0.00    -0.248 NA
ATOM     61  C   UNL A   1      42.723  29.031  29.038  1.00  0.00     0.031 C 
ATOM     62  C   UNL A   1      47.294  25.741  30.171  1.00  0.00     0.029 A 
ATOM     63  C   UNL A   1      46.332  26.749  30.172  1.00  0.00     0.049 A 
ATOM     64  H   UNL A   1      46.526  28.662  29.344  1.00  0.00     0.167 HD
ATOM     65  C   UNL A   1      44.073  27.754  30.457  1.00  0.00     0.074 A 
ATOM     66  C   UNL A   1      43.983  28.672  29.311  1.00  0.00     0.031 C 
ATOM     67  C   UNL A   1      45.047  26.867  30.816  1.00  0.00     0.037 A 
BRANCH  54  68
ATOM     68  C   UNL A   1      48.037  29.165  26.929  1.00  0.00     0.057 A 
ATOM     69  C   UNL A   1      49.292  29.771  27.136  1.00  0.00     0.134 A 
ATOM     70  C   UNL A   1      46.968  30.063  26.748  1.00  0.00     0.134 A 
ATOM     71  F   UNL A   1      50.392  29.028  27.331  1.00  0.00    -0.206 F 
ATOM     72  C   UNL A   1      49.453  31.156  27.248  1.00  0.00     0.040 A 
ATOM     73  C   UNL A   1      47.126  31.452  26.813  1.00  0.00     0.040 A 
ATOM     74  F   UNL A   1      45.701  29.664  26.593  1.00  0.00    -0.206 F 
ATOM     75  C   UNL A   1      48.365  32.004  27.094  1.00  0.00     0.006 A 
ENDBRANCH  54  68
BRANCH  55  76
ATOM     76  C   UNL A   1      39.586  27.873  29.176  1.00  0.00     0.057 A 
ATOM     77  C   UNL A   1      38.719  28.002  30.289  1.00  0.00     0.134 A 
ATOM     78  C   UNL A   1      39.217  28.631  28.056  1.00  0.00     0.134 A 
ATOM     79  F   UNL A   1      38.981  27.367  31.443  1.00  0.00    -0.206 F 
ATOM     80  C   UNL A   1      37.587  28.846  30.286  1.00  0.00     0.040 A 
ATOM     81  C   UNL A   1      38.100  29.483  28.043  1.00  0.00     0.040 A 
ATOM     82  F   UNL A   1      39.988  28.643  26.962  1.00  0.00    -0.206 F 
ATOM     83  C   UNL A   1      37.286  29.605  29.162  1.00  0.00     0.006 A 
ENDBRANCH  55  76
BRANCH  67  84
ATOM     84  C   UNL A   1      44.742  25.851  31.884  1.00  0.00     0.057 A 
ATOM     85  C   UNL A   1      44.346  24.523  31.660  1.00  0.00     0.134 A 
ATOM     86  C   UNL A   1      45.029  26.206  33.205  1.00  0.00     0.134 A 
ATOM     87  F   UNL A   1      44.172  24.048  30.420  1.00  0.00    -0.206 F 
ATOM     88  C   UNL A   1      44.182  23.615  32.715  1.00  0.00     0.040 A 
ATOM     89  C   UNL A   1      44.906  25.303  34.260  1.00  0.00     0.040 A 
ATOM     90  F   UNL A   1      45.494  27.434  33.486  1.00  0.00    -0.206 F 
ATOM     91  C   UNL A   1      44.461  24.008  34.021  1.00  0.00     0.006 A 
ENDBRANCH  67  84
ENDBRANCH  41  42
ENDBRANCH  33  36
ENDBRANCH  31  32
ENDBRANCH  30  31
ENDBRANCH   1  30
TORSDOF 13
ENDMDL
