MODEL 1
REMARK VINA RESULT:     -10.7      0.000      0.000
REMARK SMILES O=C(CN(CC(F)(F)F)C(=O)CC[C@H]1CCC[NH2+]C1)NCCCCNC(=O)c1ccc(-c2c3nc(c(-c4c(F)cccc4F)c4ccc([nH]4)c(-c4c(F)cccc4F)c4nc(c(-c5c(F)cccc5F)c5ccc2[nH]5)C=C4)C=C3)cc1
REMARK SMILES IDX 21 1 20 2 1 3 2 4 3 6 4 7 5 8 6 9 7 10 8 11 9 12 10 13 11 14
REMARK SMILES IDX 12 15 13 16 14 17 15 18 19 19 16 20 18 21 17 22 22 25 23 26
REMARK SMILES IDX 24 27 25 28 26 29 27 31 28 32 29 33 81 34 30 35 80 36 31 37
REMARK SMILES IDX 32 38 33 39 74 40 34 41 79 42 73 43 75 44 35 45 78 46 72 47
REMARK SMILES IDX 71 48 36 50 62 51 45 52 61 53 46 54 49 55 60 56 76 57 47 58
REMARK SMILES IDX 48 59 59 61 77 62 50 63 37 64 38 65 43 66 39 67 40 68 42 69
REMARK SMILES IDX 44 70 41 71 63 72 64 73 69 74 65 75 66 76 68 77 70 78 67 79
REMARK SMILES IDX 51 80 52 81 57 82 53 83 54 84 56 85 58 86 55 87
REMARK H PARENT 20 5 18 23 18 24 25 30 75 49 49 60
REMARK Flexibility Score: inf
ROOT
ATOM      1  C   UNL A   1      32.831  30.202  26.059  1.00  0.00     0.116 C 
ENDROOT
BRANCH   1   2
ATOM      2  N   UNL A   1      33.068  29.264  24.974  1.00  0.00    -0.355 N 
ATOM      3  O   UNL A   1      33.847  27.565  26.292  1.00  0.00    -0.273 OA
ATOM      4  C   UNL A   1      33.379  27.940  25.217  1.00  0.00     0.239 C 
ATOM      5  H   UNL A   1      33.006  29.580  24.043  1.00  0.00     0.163 HD
BRANCH   4   6
ATOM      6  C   UNL A   1      33.317  26.981  24.003  1.00  0.00     0.219 C 
BRANCH   6   7
ATOM      7  N   UNL A   1      32.014  26.407  23.612  1.00  0.00    -0.324 N 
BRANCH   7   8
ATOM      8  C   UNL A   1      31.445  25.384  24.511  1.00  0.00     0.235 C 
BRANCH   8   9
ATOM      9  C   UNL A   1      30.325  25.748  25.500  1.00  0.00     0.406 C 
ATOM     10  F   UNL A   1      30.131  24.818  26.454  1.00  0.00    -0.169 F 
ATOM     11  F   UNL A   1      30.653  26.905  26.132  1.00  0.00    -0.169 F 
ATOM     12  F   UNL A   1      29.151  25.951  24.869  1.00  0.00    -0.169 F 
ENDBRANCH   8   9
ENDBRANCH   7   8
BRANCH   7  13
ATOM     13  C   UNL A   1      31.281  27.082  22.636  1.00  0.00     0.223 C 
ATOM     14  O   UNL A   1      31.201  26.637  21.489  1.00  0.00    -0.275 OA
BRANCH  13  15
ATOM     15  C   UNL A   1      30.534  28.372  22.972  1.00  0.00     0.101 C 
BRANCH  15  16
ATOM     16  C   UNL A   1      29.012  28.376  22.752  1.00  0.00     0.019 C 
BRANCH  16  17
ATOM     17  C   UNL A   1      28.299  29.713  22.409  1.00  0.00     0.045 C 
ATOM     18  C   UNL A   1      28.040  30.512  23.687  1.00  0.00     0.015 C 
ATOM     19  C   UNL A   1      28.940  30.506  21.247  1.00  0.00     0.264 C 
ATOM     20  C   UNL A   1      27.654  31.953  23.413  1.00  0.00     0.062 C 
ATOM     21  N   UNL A   1      28.778  31.957  21.249  1.00  0.00    -0.346 N 
ATOM     22  C   UNL A   1      28.710  32.610  22.546  1.00  0.00     0.260 C 
ATOM     23  H   UNL A   1      29.570  32.356  20.745  1.00  0.00     0.346 HD
ATOM     24  H   UNL A   1      27.868  32.124  20.820  1.00  0.00     0.346 HD
ENDBRANCH  16  17
ENDBRANCH  15  16
ENDBRANCH  13  15
ENDBRANCH   7  13
ENDBRANCH   6   7
ENDBRANCH   4   6
ENDBRANCH   1   2
BRANCH   1  25
ATOM     25  C   UNL A   1      31.413  30.767  26.097  1.00  0.00     0.023 C 
BRANCH  25  26
ATOM     26  C   UNL A   1      31.294  32.238  26.508  1.00  0.00     0.023 C 
BRANCH  26  27
ATOM     27  C   UNL A   1      32.532  32.862  27.151  1.00  0.00     0.116 C 
BRANCH  27  28
ATOM     28  N   UNL A   1      32.319  34.220  27.627  1.00  0.00    -0.352 N 
ATOM     29  C   UNL A   1      32.984  34.938  28.594  1.00  0.00     0.251 C 
ATOM     30  H   UNL A   1      31.581  34.701  27.187  1.00  0.00     0.163 HD
ATOM     31  O   UNL A   1      32.570  36.042  28.926  1.00  0.00    -0.269 OA
BRANCH  29  32
ATOM     32  C   UNL A   1      34.181  34.378  29.268  1.00  0.00     0.039 A 
ATOM     33  C   UNL A   1      34.007  33.672  30.463  1.00  0.00     0.014 A 
ATOM     34  C   UNL A   1      35.466  34.556  28.751  1.00  0.00     0.014 A 
ATOM     35  C   UNL A   1      35.107  33.082  31.094  1.00  0.00     0.010 A 
ATOM     36  C   UNL A   1      36.551  33.906  29.340  1.00  0.00     0.010 A 
ATOM     37  C   UNL A   1      36.384  33.155  30.515  1.00  0.00    -0.014 A 
BRANCH  37  38
ATOM     38  C   UNL A   1      37.544  32.439  31.111  1.00  0.00     0.031 A 
ATOM     39  C   UNL A   1      38.179  32.934  32.382  1.00  0.00     0.074 A 
ATOM     40  C   UNL A   1      38.068  31.372  30.474  1.00  0.00     0.049 A 
ATOM     41  N   UNL A   1      39.236  32.481  33.011  1.00  0.00    -0.248 NA
ATOM     42  C   UNL A   1      37.561  34.108  33.018  1.00  0.00     0.031 C 
ATOM     43  C   UNL A   1      37.573  30.811  29.216  1.00  0.00     0.029 A 
ATOM     44  N   UNL A   1      39.141  30.575  30.791  1.00  0.00    -0.354 N 
ATOM     45  C   UNL A   1      39.415  33.319  34.105  1.00  0.00     0.074 A 
ATOM     46  C   UNL A   1      38.390  34.337  34.027  1.00  0.00     0.031 C 
ATOM     47  C   UNL A   1      38.323  29.749  28.882  1.00  0.00     0.029 A 
ATOM     48  C   UNL A   1      39.380  29.580  29.874  1.00  0.00     0.049 A 
ATOM     49  H   UNL A   1      39.687  30.705  31.600  1.00  0.00     0.167 HD
ATOM     50  C   UNL A   1      40.337  33.235  35.095  1.00  0.00     0.037 A 
ATOM     51  C   UNL A   1      40.346  28.643  29.829  1.00  0.00     0.037 A 
ATOM     52  C   UNL A   1      41.345  32.211  35.182  1.00  0.00     0.049 A 
ATOM     53  C   UNL A   1      41.374  28.590  30.927  1.00  0.00     0.074 A 
ATOM     54  C   UNL A   1      42.285  32.010  36.180  1.00  0.00     0.029 A 
ATOM     55  N   UNL A   1      41.552  31.220  34.235  1.00  0.00    -0.354 N 
ATOM     56  N   UNL A   1      41.488  29.347  31.991  1.00  0.00    -0.248 NA
ATOM     57  C   UNL A   1      42.406  27.549  30.819  1.00  0.00     0.031 C 
ATOM     58  C   UNL A   1      43.096  30.934  35.807  1.00  0.00     0.029 A 
ATOM     59  C   UNL A   1      42.622  30.423  34.610  1.00  0.00     0.049 A 
ATOM     60  H   UNL A   1      41.017  31.099  33.417  1.00  0.00     0.167 HD
ATOM     61  C   UNL A   1      42.579  28.852  32.695  1.00  0.00     0.074 A 
ATOM     62  C   UNL A   1      43.084  27.722  31.944  1.00  0.00     0.031 C 
ATOM     63  C   UNL A   1      43.113  29.294  33.861  1.00  0.00     0.037 A 
BRANCH  50  64
ATOM     64  C   UNL A   1      40.302  34.286  36.169  1.00  0.00     0.057 A 
ATOM     65  C   UNL A   1      41.040  35.472  36.071  1.00  0.00     0.134 A 
ATOM     66  C   UNL A   1      39.480  34.130  37.294  1.00  0.00     0.134 A 
ATOM     67  F   UNL A   1      41.853  35.683  35.024  1.00  0.00    -0.206 F 
ATOM     68  C   UNL A   1      40.984  36.453  37.063  1.00  0.00     0.040 A 
ATOM     69  C   UNL A   1      39.392  35.117  38.278  1.00  0.00     0.040 A 
ATOM     70  F   UNL A   1      38.737  33.023  37.449  1.00  0.00    -0.206 F 
ATOM     71  C   UNL A   1      40.151  36.280  38.167  1.00  0.00     0.006 A 
ENDBRANCH  50  64
BRANCH  51  72
ATOM     72  C   UNL A   1      40.388  27.664  28.711  1.00  0.00     0.057 A 
ATOM     73  C   UNL A   1      41.152  27.909  27.564  1.00  0.00     0.134 A 
ATOM     74  C   UNL A   1      39.650  26.474  28.752  1.00  0.00     0.134 A 
ATOM     75  F   UNL A   1      41.865  29.039  27.457  1.00  0.00    -0.206 F 
ATOM     76  C   UNL A   1      41.160  27.021  26.487  1.00  0.00     0.040 A 
ATOM     77  C   UNL A   1      39.673  25.564  27.693  1.00  0.00     0.040 A 
ATOM     78  F   UNL A   1      38.903  26.176  29.824  1.00  0.00    -0.206 F 
ATOM     79  C   UNL A   1      40.421  25.842  26.552  1.00  0.00     0.006 A 
ENDBRANCH  51  72
BRANCH  63  80
ATOM     80  C   UNL A   1      44.278  28.529  34.421  1.00  0.00     0.057 A 
ATOM     81  C   UNL A   1      44.105  27.405  35.240  1.00  0.00     0.134 A 
ATOM     82  C   UNL A   1      45.591  28.901  34.104  1.00  0.00     0.134 A 
ATOM     83  F   UNL A   1      42.875  27.003  35.592  1.00  0.00    -0.206 F 
ATOM     84  C   UNL A   1      45.198  26.696  35.745  1.00  0.00     0.040 A 
ATOM     85  C   UNL A   1      46.689  28.182  34.577  1.00  0.00     0.040 A 
ATOM     86  F   UNL A   1      45.828  29.962  33.317  1.00  0.00    -0.206 F 
ATOM     87  C   UNL A   1      46.494  27.080  35.406  1.00  0.00     0.006 A 
ENDBRANCH  63  80
ENDBRANCH  37  38
ENDBRANCH  29  32
ENDBRANCH  27  28
ENDBRANCH  26  27
ENDBRANCH  25  26
ENDBRANCH   1  25
TORSDOF 18
ENDMDL
MODEL 2
REMARK VINA RESULT:     -10.7      4.412      6.598
REMARK SMILES O=C(CN(CC(F)(F)F)C(=O)CC[C@H]1CCC[NH2+]C1)NCCCCNC(=O)c1ccc(-c2c3nc(c(-c4c(F)cccc4F)c4ccc([nH]4)c(-c4c(F)cccc4F)c4nc(c(-c5c(F)cccc5F)c5ccc2[nH]5)C=C4)C=C3)cc1
REMARK SMILES IDX 21 1 20 2 1 3 2 4 3 6 4 7 5 8 6 9 7 10 8 11 9 12 10 13 11 14
REMARK SMILES IDX 12 15 13 16 14 17 15 18 19 19 16 20 18 21 17 22 22 25 23 26
REMARK SMILES IDX 24 27 25 28 26 29 27 31 28 32 29 33 81 34 30 35 80 36 31 37
REMARK SMILES IDX 32 38 33 39 74 40 34 41 79 42 73 43 75 44 35 45 78 46 72 47
REMARK SMILES IDX 71 48 36 50 62 51 45 52 61 53 46 54 49 55 60 56 76 57 47 58
REMARK SMILES IDX 48 59 59 61 77 62 50 63 37 64 38 65 43 66 39 67 40 68 42 69
REMARK SMILES IDX 44 70 41 71 63 72 64 73 69 74 65 75 66 76 68 77 70 78 67 79
REMARK SMILES IDX 51 80 52 81 57 82 53 83 54 84 56 85 58 86 55 87
REMARK H PARENT 20 5 18 23 18 24 25 30 75 49 49 60
REMARK Flexibility Score: inf
ROOT
ATOM      1  C   UNL A   1      32.440  26.374  26.020  1.00  0.00     0.116 C 
ENDROOT
BRANCH   1   2
ATOM      2  N   UNL A   1      32.975  25.026  26.116  1.00  0.00    -0.355 N 
ATOM      3  O   UNL A   1      31.183  24.136  27.224  1.00  0.00    -0.273 OA
ATOM      4  C   UNL A   1      32.198  23.969  26.548  1.00  0.00     0.239 C 
ATOM      5  H   UNL A   1      33.914  24.862  25.869  1.00  0.00     0.163 HD
BRANCH   4   6
ATOM      6  C   UNL A   1      32.778  22.550  26.330  1.00  0.00     0.219 C 
BRANCH   6   7
ATOM      7  N   UNL A   1      32.684  21.938  24.989  1.00  0.00    -0.324 N 
BRANCH   7   8
ATOM      8  C   UNL A   1      32.136  20.569  24.923  1.00  0.00     0.235 C 
BRANCH   8   9
ATOM      9  C   UNL A   1      33.076  19.356  24.829  1.00  0.00     0.406 C 
ATOM     10  F   UNL A   1      32.966  18.683  23.667  1.00  0.00    -0.169 F 
ATOM     11  F   UNL A   1      34.361  19.784  24.921  1.00  0.00    -0.169 F 
ATOM     12  F   UNL A   1      32.867  18.484  25.836  1.00  0.00    -0.169 F 
ENDBRANCH   8   9
ENDBRANCH   7   8
BRANCH   7  13
ATOM     13  C   UNL A   1      32.803  22.784  23.887  1.00  0.00     0.223 C 
ATOM     14  O   UNL A   1      31.860  23.496  23.534  1.00  0.00    -0.275 OA
BRANCH  13  15
ATOM     15  C   UNL A   1      34.115  22.872  23.107  1.00  0.00     0.101 C 
BRANCH  15  16
ATOM     16  C   UNL A   1      35.293  23.575  23.800  1.00  0.00     0.019 C 
BRANCH  16  17
ATOM     17  C   UNL A   1      36.061  22.833  24.928  1.00  0.00     0.045 C 
ATOM     18  C   UNL A   1      37.001  21.789  24.324  1.00  0.00     0.015 C 
ATOM     19  C   UNL A   1      36.692  23.757  25.994  1.00  0.00     0.264 C 
ATOM     20  C   UNL A   1      38.013  21.260  25.322  1.00  0.00     0.062 C 
ATOM     21  N   UNL A   1      37.884  23.275  26.688  1.00  0.00    -0.346 N 
ATOM     22  C   UNL A   1      38.781  22.415  25.935  1.00  0.00     0.260 C 
ATOM     23  H   UNL A   1      38.419  24.091  26.986  1.00  0.00     0.346 HD
ATOM     24  H   UNL A   1      37.532  22.691  27.447  1.00  0.00     0.346 HD
ENDBRANCH  16  17
ENDBRANCH  15  16
ENDBRANCH  13  15
ENDBRANCH   7  13
ENDBRANCH   6   7
ENDBRANCH   4   6
ENDBRANCH   1   2
BRANCH   1  25
ATOM     25  C   UNL A   1      33.221  27.289  25.079  1.00  0.00     0.023 C 
BRANCH  25  26
ATOM     26  C   UNL A   1      33.876  28.511  25.730  1.00  0.00     0.023 C 
BRANCH  26  27
ATOM     27  C   UNL A   1      33.765  28.606  27.252  1.00  0.00     0.116 C 
BRANCH  27  28
ATOM     28  N   UNL A   1      33.762  29.972  27.751  1.00  0.00    -0.352 N 
ATOM     29  C   UNL A   1      34.752  30.691  28.382  1.00  0.00     0.251 C 
ATOM     30  H   UNL A   1      32.917  30.459  27.618  1.00  0.00     0.163 HD
ATOM     31  O   UNL A   1      34.505  31.804  28.829  1.00  0.00    -0.269 OA
BRANCH  29  32
ATOM     32  C   UNL A   1      36.110  30.120  28.558  1.00  0.00     0.039 A 
ATOM     33  C   UNL A   1      37.011  30.192  27.490  1.00  0.00     0.014 A 
ATOM     34  C   UNL A   1      36.499  29.502  29.749  1.00  0.00     0.014 A 
ATOM     35  C   UNL A   1      38.316  29.716  27.642  1.00  0.00     0.010 A 
ATOM     36  C   UNL A   1      37.822  29.095  29.924  1.00  0.00     0.010 A 
ATOM     37  C   UNL A   1      38.748  29.203  28.875  1.00  0.00    -0.014 A 
BRANCH  37  38
ATOM     38  C   UNL A   1      40.164  28.797  29.089  1.00  0.00     0.031 A 
ATOM     39  C   UNL A   1      41.151  29.754  29.701  1.00  0.00     0.074 A 
ATOM     40  C   UNL A   1      40.580  27.583  28.673  1.00  0.00     0.049 A 
ATOM     41  N   UNL A   1      42.437  29.602  29.901  1.00  0.00    -0.248 NA
ATOM     42  C   UNL A   1      40.631  31.064  30.122  1.00  0.00     0.031 C 
ATOM     43  C   UNL A   1      39.736  26.575  28.031  1.00  0.00     0.029 A 
ATOM     44  N   UNL A   1      41.821  26.995  28.720  1.00  0.00    -0.354 N 
ATOM     45  C   UNL A   1      42.879  30.796  30.459  1.00  0.00     0.074 A 
ATOM     46  C   UNL A   1      41.735  31.681  30.517  1.00  0.00     0.031 C 
ATOM     47  C   UNL A   1      40.476  25.486  27.766  1.00  0.00     0.029 A 
ATOM     48  C   UNL A   1      41.855  25.734  28.176  1.00  0.00     0.049 A 
ATOM     49  H   UNL A   1      42.611  27.436  29.107  1.00  0.00     0.167 HD
ATOM     50  C   UNL A   1      44.119  31.118  30.898  1.00  0.00     0.037 A 
ATOM     51  C   UNL A   1      42.880  24.876  28.014  1.00  0.00     0.037 A 
ATOM     52  C   UNL A   1      45.253  30.230  30.857  1.00  0.00     0.049 A 
ATOM     53  C   UNL A   1      44.253  25.271  28.486  1.00  0.00     0.074 A 
ATOM     54  C   UNL A   1      46.535  30.448  31.333  1.00  0.00     0.029 A 
ATOM     55  N   UNL A   1      45.245  28.961  30.301  1.00  0.00    -0.354 N 
ATOM     56  N   UNL A   1      44.640  26.377  29.074  1.00  0.00    -0.248 NA
ATOM     57  C   UNL A   1      45.333  24.295  28.277  1.00  0.00     0.031 C 
ATOM     58  C   UNL A   1      47.316  29.334  31.014  1.00  0.00     0.029 A 
ATOM     59  C   UNL A   1      46.506  28.395  30.395  1.00  0.00     0.049 A 
ATOM     60  H   UNL A   1      44.459  28.525  29.897  1.00  0.00     0.167 HD
ATOM     61  C   UNL A   1      45.995  26.216  29.335  1.00  0.00     0.074 A 
ATOM     62  C   UNL A   1      46.360  24.899  28.855  1.00  0.00     0.031 C 
ATOM     63  C   UNL A   1      46.859  27.080  29.922  1.00  0.00     0.037 A 
BRANCH  50  64
ATOM     64  C   UNL A   1      44.320  32.496  31.464  1.00  0.00     0.057 A 
ATOM     65  C   UNL A   1      44.153  32.770  32.828  1.00  0.00     0.134 A 
ATOM     66  C   UNL A   1      44.734  33.553  30.642  1.00  0.00     0.134 A 
ATOM     67  F   UNL A   1      43.751  31.806  33.671  1.00  0.00    -0.206 F 
ATOM     68  C   UNL A   1      44.365  34.047  33.349  1.00  0.00     0.040 A 
ATOM     69  C   UNL A   1      44.978  34.828  31.156  1.00  0.00     0.040 A 
ATOM     70  F   UNL A   1      44.923  33.361  29.327  1.00  0.00    -0.206 F 
ATOM     71  C   UNL A   1      44.787  35.079  32.513  1.00  0.00     0.006 A 
ENDBRANCH  50  64
BRANCH  51  72
ATOM     72  C   UNL A   1      42.654  23.548  27.385  1.00  0.00     0.057 A 
ATOM     73  C   UNL A   1      42.801  23.368  26.005  1.00  0.00     0.134 A 
ATOM     74  C   UNL A   1      42.263  22.437  28.142  1.00  0.00     0.134 A 
ATOM     75  F   UNL A   1      43.154  24.399  25.224  1.00  0.00    -0.206 F 
ATOM     76  C   UNL A   1      42.543  22.139  25.396  1.00  0.00     0.040 A 
ATOM     77  C   UNL A   1      42.030  21.194  27.549  1.00  0.00     0.040 A 
ATOM     78  F   UNL A   1      42.110  22.540  29.470  1.00  0.00    -0.206 F 
ATOM     79  C   UNL A   1      42.160  21.045  26.171  1.00  0.00     0.006 A 
ENDBRANCH  51  72
BRANCH  63  80
ATOM     80  C   UNL A   1      48.273  26.616  30.120  1.00  0.00     0.057 A 
ATOM     81  C   UNL A   1      48.666  25.884  31.248  1.00  0.00     0.134 A 
ATOM     82  C   UNL A   1      49.248  26.873  29.147  1.00  0.00     0.134 A 
ATOM     83  F   UNL A   1      47.786  25.614  32.224  1.00  0.00    -0.206 F 
ATOM     84  C   UNL A   1      49.983  25.449  31.414  1.00  0.00     0.040 A 
ATOM     85  C   UNL A   1      50.559  26.417  29.286  1.00  0.00     0.040 A 
ATOM     86  F   UNL A   1      48.939  27.561  28.037  1.00  0.00    -0.206 F 
ATOM     87  C   UNL A   1      50.931  25.708  30.427  1.00  0.00     0.006 A 
ENDBRANCH  63  80
ENDBRANCH  37  38
ENDBRANCH  29  32
ENDBRANCH  27  28
ENDBRANCH  26  27
ENDBRANCH  25  26
ENDBRANCH   1  25
TORSDOF 18
ENDMDL
MODEL 3
REMARK VINA RESULT:     -10.6      4.513      9.268
REMARK SMILES O=C(CN(CC(F)(F)F)C(=O)CC[C@H]1CCC[NH2+]C1)NCCCCNC(=O)c1ccc(-c2c3nc(c(-c4c(F)cccc4F)c4ccc([nH]4)c(-c4c(F)cccc4F)c4nc(c(-c5c(F)cccc5F)c5ccc2[nH]5)C=C4)C=C3)cc1
REMARK SMILES IDX 21 1 20 2 1 3 2 4 3 6 4 7 5 8 6 9 7 10 8 11 9 12 10 13 11 14
REMARK SMILES IDX 12 15 13 16 14 17 15 18 19 19 16 20 18 21 17 22 22 25 23 26
REMARK SMILES IDX 24 27 25 28 26 29 27 31 28 32 29 33 81 34 30 35 80 36 31 37
REMARK SMILES IDX 32 38 33 39 74 40 34 41 79 42 73 43 75 44 35 45 78 46 72 47
REMARK SMILES IDX 71 48 36 50 62 51 45 52 61 53 46 54 49 55 60 56 76 57 47 58
REMARK SMILES IDX 48 59 59 61 77 62 50 63 37 64 38 65 43 66 39 67 40 68 42 69
REMARK SMILES IDX 44 70 41 71 63 72 64 73 69 74 65 75 66 76 68 77 70 78 67 79
REMARK SMILES IDX 51 80 52 81 57 82 53 83 54 84 56 85 58 86 55 87
REMARK H PARENT 20 5 18 23 18 24 25 30 75 49 49 60
REMARK Flexibility Score: inf
ROOT
ATOM      1  C   UNL A   1      35.200  20.220  25.004  1.00  0.00     0.116 C 
ENDROOT
BRANCH   1   2
ATOM      2  N   UNL A   1      34.151  21.187  25.278  1.00  0.00    -0.355 N 
ATOM      3  O   UNL A   1      32.633  20.319  23.803  1.00  0.00    -0.273 OA
ATOM      4  C   UNL A   1      32.871  21.027  24.781  1.00  0.00     0.239 C 
ATOM      5  H   UNL A   1      34.357  21.976  25.830  1.00  0.00     0.163 HD
BRANCH   4   6
ATOM      6  C   UNL A   1      31.779  21.950  25.375  1.00  0.00     0.219 C 
BRANCH   6   7
ATOM      7  N   UNL A   1      31.934  23.413  25.248  1.00  0.00    -0.324 N 
BRANCH   7   8
ATOM      8  C   UNL A   1      32.083  23.946  23.879  1.00  0.00     0.235 C 
BRANCH   8   9
ATOM      9  C   UNL A   1      33.478  24.250  23.308  1.00  0.00     0.406 C 
ATOM     10  F   UNL A   1      33.963  23.265  22.528  1.00  0.00    -0.169 F 
ATOM     11  F   UNL A   1      33.406  25.368  22.539  1.00  0.00    -0.169 F 
ATOM     12  F   UNL A   1      34.376  24.489  24.285  1.00  0.00    -0.169 F 
ENDBRANCH   8   9
ENDBRANCH   7   8
BRANCH   7  13
ATOM     13  C   UNL A   1      31.608  24.193  26.357  1.00  0.00     0.223 C 
ATOM     14  O   UNL A   1      30.919  23.733  27.271  1.00  0.00    -0.275 OA
BRANCH  13  15
ATOM     15  C   UNL A   1      32.122  25.628  26.482  1.00  0.00     0.101 C 
BRANCH  15  16
ATOM     16  C   UNL A   1      31.114  26.757  26.206  1.00  0.00     0.019 C 
BRANCH  16  17
ATOM     17  C   UNL A   1      31.207  27.546  24.872  1.00  0.00     0.045 C 
ATOM     18  C   UNL A   1      30.041  27.169  23.957  1.00  0.00     0.015 C 
ATOM     19  C   UNL A   1      31.459  29.062  25.035  1.00  0.00     0.264 C 
ATOM     20  C   UNL A   1      29.875  28.123  22.790  1.00  0.00     0.062 C 
ATOM     21  N   UNL A   1      30.963  29.948  23.985  1.00  0.00    -0.346 N 
ATOM     22  C   UNL A   1      29.745  29.543  23.303  1.00  0.00     0.260 C 
ATOM     23  H   UNL A   1      30.791  30.861  24.407  1.00  0.00     0.346 HD
ATOM     24  H   UNL A   1      31.686  29.936  23.265  1.00  0.00     0.346 HD
ENDBRANCH  16  17
ENDBRANCH  15  16
ENDBRANCH  13  15
ENDBRANCH   7  13
ENDBRANCH   6   7
ENDBRANCH   4   6
ENDBRANCH   1   2
BRANCH   1  25
ATOM     25  C   UNL A   1      36.570  20.842  24.741  1.00  0.00     0.023 C 
BRANCH  25  26
ATOM     26  C   UNL A   1      37.759  19.879  24.795  1.00  0.00     0.023 C 
BRANCH  26  27
ATOM     27  C   UNL A   1      38.846  20.202  25.820  1.00  0.00     0.116 C 
BRANCH  27  28
ATOM     28  N   UNL A   1      39.984  19.298  25.767  1.00  0.00    -0.352 N 
ATOM     29  C   UNL A   1      41.311  19.521  26.055  1.00  0.00     0.251 C 
ATOM     30  H   UNL A   1      39.770  18.381  25.479  1.00  0.00     0.163 HD
ATOM     31  O   UNL A   1      42.137  18.644  25.835  1.00  0.00    -0.269 OA
BRANCH  29  32
ATOM     32  C   UNL A   1      41.762  20.826  26.597  1.00  0.00     0.039 A 
ATOM     33  C   UNL A   1      42.242  21.792  25.706  1.00  0.00     0.014 A 
ATOM     34  C   UNL A   1      41.737  21.101  27.966  1.00  0.00     0.014 A 
ATOM     35  C   UNL A   1      42.621  23.053  26.177  1.00  0.00     0.010 A 
ATOM     36  C   UNL A   1      42.045  22.382  28.427  1.00  0.00     0.010 A 
ATOM     37  C   UNL A   1      42.484  23.375  27.537  1.00  0.00    -0.014 A 
BRANCH  37  38
ATOM     38  C   UNL A   1      42.775  24.746  28.038  1.00  0.00     0.031 A 
ATOM     39  C   UNL A   1      44.173  25.136  28.436  1.00  0.00     0.074 A 
ATOM     40  C   UNL A   1      41.766  25.627  28.194  1.00  0.00     0.049 A 
ATOM     41  N   UNL A   1      44.603  26.259  28.957  1.00  0.00    -0.248 NA
ATOM     42  C   UNL A   1      45.223  24.122  28.249  1.00  0.00     0.031 C 
ATOM     43  C   UNL A   1      40.360  25.366  27.882  1.00  0.00     0.029 A 
ATOM     44  N   UNL A   1      41.766  26.918  28.664  1.00  0.00    -0.354 N 
ATOM     45  C   UNL A   1      45.965  26.082  29.168  1.00  0.00     0.074 A 
ATOM     46  C   UNL A   1      46.280  24.728  28.769  1.00  0.00     0.031 C 
ATOM     47  C   UNL A   1      39.639  26.467  28.146  1.00  0.00     0.029 A 
ATOM     48  C   UNL A   1      40.520  27.497  28.688  1.00  0.00     0.049 A 
ATOM     49  H   UNL A   1      42.582  27.384  28.956  1.00  0.00     0.167 HD
ATOM     50  C   UNL A   1      46.873  26.974  29.634  1.00  0.00     0.037 A 
ATOM     51  C   UNL A   1      40.127  28.714  29.109  1.00  0.00     0.037 A 
ATOM     52  C   UNL A   1      46.562  28.327  30.014  1.00  0.00     0.049 A 
ATOM     53  C   UNL A   1      41.152  29.674  29.648  1.00  0.00     0.074 A 
ATOM     54  C   UNL A   1      47.426  29.322  30.442  1.00  0.00     0.029 A 
ATOM     55  N   UNL A   1      45.289  28.876  30.021  1.00  0.00    -0.354 N 
ATOM     56  N   UNL A   1      42.447  29.517  29.777  1.00  0.00    -0.248 NA
ATOM     57  C   UNL A   1      40.661  30.986  30.097  1.00  0.00     0.031 C 
ATOM     58  C   UNL A   1      46.668  30.453  30.763  1.00  0.00     0.029 A 
ATOM     59  C   UNL A   1      45.340  30.185  30.474  1.00  0.00     0.049 A 
ATOM     60  H   UNL A   1      44.469  28.405  29.746  1.00  0.00     0.167 HD
ATOM     61  C   UNL A   1      42.928  30.716  30.287  1.00  0.00     0.074 A 
ATOM     62  C   UNL A   1      41.788  31.597  30.430  1.00  0.00     0.031 C 
ATOM     63  C   UNL A   1      44.201  31.058  30.606  1.00  0.00     0.037 A 
BRANCH  50  64
ATOM     64  C   UNL A   1      48.297  26.513  29.763  1.00  0.00     0.057 A 
ATOM     65  C   UNL A   1      49.236  26.708  28.742  1.00  0.00     0.134 A 
ATOM     66  C   UNL A   1      48.749  25.908  30.945  1.00  0.00     0.134 A 
ATOM     67  F   UNL A   1      48.870  27.273  27.581  1.00  0.00    -0.206 F 
ATOM     68  C   UNL A   1      50.563  26.297  28.880  1.00  0.00     0.040 A 
ATOM     69  C   UNL A   1      50.080  25.521  31.106  1.00  0.00     0.040 A 
ATOM     70  F   UNL A   1      47.907  25.699  31.969  1.00  0.00    -0.206 F 
ATOM     71  C   UNL A   1      50.990  25.709  30.068  1.00  0.00     0.006 A 
ENDBRANCH  50  64
BRANCH  51  72
ATOM     72  C   UNL A   1      38.695  29.108  29.029  1.00  0.00     0.057 A 
ATOM     73  C   UNL A   1      38.143  29.584  27.835  1.00  0.00     0.134 A 
ATOM     74  C   UNL A   1      37.854  29.042  30.147  1.00  0.00     0.134 A 
ATOM     75  F   UNL A   1      38.903  29.689  26.735  1.00  0.00    -0.206 F 
ATOM     76  C   UNL A   1      36.814  30.004  27.759  1.00  0.00     0.040 A 
ATOM     77  C   UNL A   1      36.515  29.432  30.077  1.00  0.00     0.040 A 
ATOM     78  F   UNL A   1      38.319  28.589  31.320  1.00  0.00    -0.206 F 
ATOM     79  C   UNL A   1      35.995  29.925  28.884  1.00  0.00     0.006 A 
ENDBRANCH  51  72
BRANCH  63  80
ATOM     80  C   UNL A   1      44.438  32.456  31.099  1.00  0.00     0.057 A 
ATOM     81  C   UNL A   1      44.687  33.522  30.224  1.00  0.00     0.134 A 
ATOM     82  C   UNL A   1      44.378  32.746  32.468  1.00  0.00     0.134 A 
ATOM     83  F   UNL A   1      44.770  33.312  28.902  1.00  0.00    -0.206 F 
ATOM     84  C   UNL A   1      44.895  34.820  30.696  1.00  0.00     0.040 A 
ATOM     85  C   UNL A   1      44.553  34.044  32.949  1.00  0.00     0.040 A 
ATOM     86  F   UNL A   1      44.134  31.775  33.361  1.00  0.00    -0.206 F 
ATOM     87  C   UNL A   1      44.819  35.085  32.062  1.00  0.00     0.006 A 
ENDBRANCH  63  80
ENDBRANCH  37  38
ENDBRANCH  29  32
ENDBRANCH  27  28
ENDBRANCH  26  27
ENDBRANCH  25  26
ENDBRANCH   1  25
TORSDOF 18
ENDMDL
