MODEL 1
REMARK VINA RESULT:     -11.6      0.000      0.000
REMARK SMILES CCC1(C(=O)NCCc2ccc(C(=O)NCCCCNC(=O)c3ccc(-c4c5nc(c(-c6c(F)cccc6F)c6ccc([nH]6)c(-c6c(F)cccc6F)c6nc(c(-c7c(F)cccc7F)c7ccc4[nH]7)C=C6)C=C5)cc3)cc2)CCCC1
REMARK SMILES IDX 16 1 15 2 13 3 14 4 12 6 9 7 10 8 78 9 11 10 77 11 8 12 7 13
REMARK SMILES IDX 6 14 4 15 5 16 3 18 79 19 82 20 80 21 81 22 2 23 1 24 17 25
REMARK SMILES IDX 18 26 19 27 20 28 21 29 22 31 23 32 24 33 76 34 25 35 75 36
REMARK SMILES IDX 26 37 27 38 28 39 69 40 29 41 74 42 68 43 70 44 30 45 73 46
REMARK SMILES IDX 67 47 66 48 31 50 57 51 40 52 56 53 41 54 44 55 55 56 71 57
REMARK SMILES IDX 42 58 43 59 54 61 72 62 45 63 32 64 33 65 38 66 34 67 35 68
REMARK SMILES IDX 37 69 39 70 36 71 58 72 59 73 64 74 60 75 61 76 63 77 65 78
REMARK SMILES IDX 62 79 46 80 47 81 52 82 48 83 49 84 51 85 53 86 50 87
REMARK H PARENT 15 5 6 17 20 30 70 49 44 60
REMARK Flexibility Score: inf
ROOT
ATOM      1  C   UNL A   1      35.515  21.481  25.758  1.00  0.00     0.116 C 
ENDROOT
BRANCH   1   2
ATOM      2  N   UNL A   1      34.619  20.347  25.813  1.00  0.00    -0.352 N 
ATOM      3  C   UNL A   1      33.286  20.227  25.518  1.00  0.00     0.251 C 
ATOM      4  O   UNL A   1      32.761  19.132  25.720  1.00  0.00    -0.269 OA
ATOM      5  H   UNL A   1      35.042  19.512  26.117  1.00  0.00     0.163 HD
BRANCH   3   6
ATOM      6  C   UNL A   1      32.484  21.320  24.897  1.00  0.00     0.039 A 
ATOM      7  C   UNL A   1      31.268  23.490  23.548  1.00  0.00    -0.046 A 
ATOM      8  C   UNL A   1      31.971  22.509  22.843  1.00  0.00     0.004 A 
ATOM      9  C   UNL A   1      31.063  23.293  24.916  1.00  0.00     0.004 A 
ATOM     10  C   UNL A   1      32.593  21.453  23.512  1.00  0.00     0.014 A 
ATOM     11  C   UNL A   1      31.646  22.207  25.575  1.00  0.00     0.014 A 
BRANCH   7  12
ATOM     12  C   UNL A   1      30.699  24.728  22.891  1.00  0.00     0.056 C 
BRANCH  12  13
ATOM     13  C   UNL A   1      30.082  25.750  23.863  1.00  0.00     0.120 C 
BRANCH  13  14
ATOM     14  N   UNL A   1      30.433  27.112  23.512  1.00  0.00    -0.355 N 
ATOM     15  C   UNL A   1      30.950  28.102  24.281  1.00  0.00     0.226 C 
ATOM     16  O   UNL A   1      30.460  29.220  24.086  1.00  0.00    -0.274 OA
ATOM     17  H   UNL A   1      30.273  27.356  22.572  1.00  0.00     0.163 HD
BRANCH  15  18
ATOM     18  C   UNL A   1      32.076  27.877  25.317  1.00  0.00     0.049 C 
ATOM     19  C   UNL A   1      31.605  27.206  26.623  1.00  0.00     0.017 C 
ATOM     20  C   UNL A   1      32.746  29.195  25.753  1.00  0.00     0.017 C 
ATOM     21  C   UNL A   1      31.841  28.190  27.768  1.00  0.00     0.001 C 
ATOM     22  C   UNL A   1      32.253  29.514  27.154  1.00  0.00     0.001 C 
BRANCH  18  23
ATOM     23  C   UNL A   1      33.161  26.989  24.623  1.00  0.00     0.013 C 
ATOM     24  C   UNL A   1      33.732  25.862  25.485  1.00  0.00     0.005 C 
ENDBRANCH  18  23
ENDBRANCH  15  18
ENDBRANCH  13  14
ENDBRANCH  12  13
ENDBRANCH   7  12
ENDBRANCH   3   6
ENDBRANCH   1   2
BRANCH   1  25
ATOM     25  C   UNL A   1      36.578  21.257  24.680  1.00  0.00     0.023 C 
BRANCH  25  26
ATOM     26  C   UNL A   1      37.523  20.089  24.971  1.00  0.00     0.023 C 
BRANCH  26  27
ATOM     27  C   UNL A   1      38.793  20.478  25.712  1.00  0.00     0.116 C 
BRANCH  27  28
ATOM     28  N   UNL A   1      39.806  19.437  25.692  1.00  0.00    -0.352 N 
ATOM     29  C   UNL A   1      41.133  19.540  26.041  1.00  0.00     0.251 C 
ATOM     30  H   UNL A   1      39.508  18.548  25.390  1.00  0.00     0.163 HD
ATOM     31  O   UNL A   1      41.901  18.608  25.876  1.00  0.00    -0.269 OA
BRANCH  29  32
ATOM     32  C   UNL A   1      41.614  20.828  26.579  1.00  0.00     0.039 A 
ATOM     33  C   UNL A   1      42.066  21.799  25.683  1.00  0.00     0.014 A 
ATOM     34  C   UNL A   1      41.553  21.088  27.950  1.00  0.00     0.014 A 
ATOM     35  C   UNL A   1      42.405  23.063  26.162  1.00  0.00     0.010 A 
ATOM     36  C   UNL A   1      41.827  22.368  28.416  1.00  0.00     0.010 A 
ATOM     37  C   UNL A   1      42.254  23.365  27.525  1.00  0.00    -0.014 A 
BRANCH  37  38
ATOM     38  C   UNL A   1      42.547  24.722  28.044  1.00  0.00     0.031 A 
ATOM     39  C   UNL A   1      43.945  25.077  28.461  1.00  0.00     0.074 A 
ATOM     40  C   UNL A   1      41.544  25.606  28.197  1.00  0.00     0.049 A 
ATOM     41  N   UNL A   1      44.391  26.181  29.004  1.00  0.00    -0.248 NA
ATOM     42  C   UNL A   1      44.975  24.042  28.270  1.00  0.00     0.031 C 
ATOM     43  C   UNL A   1      40.137  25.359  27.875  1.00  0.00     0.029 A 
ATOM     44  N   UNL A   1      41.553  26.891  28.675  1.00  0.00    -0.354 N 
ATOM     45  C   UNL A   1      45.744  25.969  29.230  1.00  0.00     0.074 A 
ATOM     46  C   UNL A   1      46.038  24.614  28.815  1.00  0.00     0.031 C 
ATOM     47  C   UNL A   1      39.423  26.463  28.145  1.00  0.00     0.029 A 
ATOM     48  C   UNL A   1      40.313  27.483  28.689  1.00  0.00     0.049 A 
ATOM     49  H   UNL A   1      42.370  27.348  28.980  1.00  0.00     0.167 HD
ATOM     50  C   UNL A   1      46.664  26.834  29.716  1.00  0.00     0.037 A 
ATOM     51  C   UNL A   1      39.939  28.711  29.097  1.00  0.00     0.037 A 
ATOM     52  C   UNL A   1      46.372  28.190  30.099  1.00  0.00     0.049 A 
ATOM     53  C   UNL A   1      40.984  29.655  29.624  1.00  0.00     0.074 A 
ATOM     54  C   UNL A   1      47.244  29.165  30.552  1.00  0.00     0.029 A 
ATOM     55  N   UNL A   1      45.110  28.763  30.069  1.00  0.00    -0.354 N 
ATOM     56  N   UNL A   1      42.272  29.464  29.773  1.00  0.00    -0.248 NA
ATOM     57  C   UNL A   1      40.522  30.990  30.034  1.00  0.00     0.031 C 
ATOM     58  C   UNL A   1      46.504  30.319  30.826  1.00  0.00     0.029 A 
ATOM     59  C   UNL A   1      45.178  30.075  30.507  1.00  0.00     0.049 A 
ATOM     60  H   UNL A   1      44.288  28.305  29.780  1.00  0.00     0.167 HD
ATOM     61  C   UNL A   1      42.779  30.659  30.266  1.00  0.00     0.074 A 
ATOM     62  C   UNL A   1      41.661  31.573  30.379  1.00  0.00     0.031 C 
ATOM     63  C   UNL A   1      44.055  30.972  30.597  1.00  0.00     0.037 A 
BRANCH  50  64
ATOM     64  C   UNL A   1      48.074  26.342  29.847  1.00  0.00     0.057 A 
ATOM     65  C   UNL A   1      48.994  26.462  28.798  1.00  0.00     0.134 A 
ATOM     66  C   UNL A   1      48.527  25.775  31.044  1.00  0.00     0.134 A 
ATOM     67  F   UNL A   1      48.618  26.984  27.620  1.00  0.00    -0.206 F 
ATOM     68  C   UNL A   1      50.310  26.015  28.927  1.00  0.00     0.040 A 
ATOM     69  C   UNL A   1      49.847  25.347  31.193  1.00  0.00     0.040 A 
ATOM     70  F   UNL A   1      47.697  25.633  32.089  1.00  0.00    -0.206 F 
ATOM     71  C   UNL A   1      50.741  25.462  30.130  1.00  0.00     0.006 A 
ENDBRANCH  50  64
BRANCH  51  72
ATOM     72  C   UNL A   1      38.519  29.129  29.001  1.00  0.00     0.057 A 
ATOM     73  C   UNL A   1      37.993  29.619  27.800  1.00  0.00     0.134 A 
ATOM     74  C   UNL A   1      37.661  29.067  30.104  1.00  0.00     0.134 A 
ATOM     75  F   UNL A   1      38.773  29.719  26.713  1.00  0.00    -0.206 F 
ATOM     76  C   UNL A   1      36.671  30.055  27.704  1.00  0.00     0.040 A 
ATOM     77  C   UNL A   1      36.329  29.477  30.018  1.00  0.00     0.040 A 
ATOM     78  F   UNL A   1      38.103  28.599  31.281  1.00  0.00    -0.206 F 
ATOM     79  C   UNL A   1      35.834  29.981  28.817  1.00  0.00     0.006 A 
ENDBRANCH  51  72
BRANCH  63  80
ATOM     80  C   UNL A   1      44.315  32.368  31.075  1.00  0.00     0.057 A 
ATOM     81  C   UNL A   1      44.602  33.411  30.187  1.00  0.00     0.134 A 
ATOM     82  C   UNL A   1      44.235  32.680  32.439  1.00  0.00     0.134 A 
ATOM     83  F   UNL A   1      44.704  33.174  28.870  1.00  0.00    -0.206 F 
ATOM     84  C   UNL A   1      44.821  34.713  30.640  1.00  0.00     0.040 A 
ATOM     85  C   UNL A   1      44.429  33.981  32.900  1.00  0.00     0.040 A 
ATOM     86  F   UNL A   1      43.956  31.726  33.340  1.00  0.00    -0.206 F 
ATOM     87  C   UNL A   1      44.728  35.002  32.000  1.00  0.00     0.006 A 
ENDBRANCH  63  80
ENDBRANCH  37  38
ENDBRANCH  29  32
ENDBRANCH  27  28
ENDBRANCH  26  27
ENDBRANCH  25  26
ENDBRANCH   1  25
TORSDOF 16
ENDMDL
MODEL 2
REMARK VINA RESULT:     -11.5      1.142      6.359
REMARK SMILES CCC1(C(=O)NCCc2ccc(C(=O)NCCCCNC(=O)c3ccc(-c4c5nc(c(-c6c(F)cccc6F)c6ccc([nH]6)c(-c6c(F)cccc6F)c6nc(c(-c7c(F)cccc7F)c7ccc4[nH]7)C=C6)C=C5)cc3)cc2)CCCC1
REMARK SMILES IDX 16 1 15 2 13 3 14 4 12 6 9 7 10 8 78 9 11 10 77 11 8 12 7 13
REMARK SMILES IDX 6 14 4 15 5 16 3 18 79 19 82 20 80 21 81 22 2 23 1 24 17 25
REMARK SMILES IDX 18 26 19 27 20 28 21 29 22 31 23 32 24 33 76 34 25 35 75 36
REMARK SMILES IDX 26 37 27 38 28 39 69 40 29 41 74 42 68 43 70 44 30 45 73 46
REMARK SMILES IDX 67 47 66 48 31 50 57 51 40 52 56 53 41 54 44 55 55 56 71 57
REMARK SMILES IDX 42 58 43 59 54 61 72 62 45 63 32 64 33 65 38 66 34 67 35 68
REMARK SMILES IDX 37 69 39 70 36 71 58 72 59 73 64 74 60 75 61 76 63 77 65 78
REMARK SMILES IDX 62 79 46 80 47 81 52 82 48 83 49 84 51 85 53 86 50 87
REMARK H PARENT 15 5 6 17 20 30 70 49 44 60
REMARK Flexibility Score: inf
ROOT
ATOM      1  C   UNL A   1      35.854  21.408  25.771  1.00  0.00     0.116 C 
ENDROOT
BRANCH   1   2
ATOM      2  N   UNL A   1      35.001  20.281  25.463  1.00  0.00    -0.352 N 
ATOM      3  C   UNL A   1      33.717  20.215  24.989  1.00  0.00     0.251 C 
ATOM      4  O   UNL A   1      33.214  19.097  24.877  1.00  0.00    -0.269 OA
ATOM      5  H   UNL A   1      35.418  19.403  25.624  1.00  0.00     0.163 HD
BRANCH   3   6
ATOM      6  C   UNL A   1      32.952  21.410  24.531  1.00  0.00     0.039 A 
ATOM      7  C   UNL A   1      31.201  23.484  23.731  1.00  0.00    -0.046 A 
ATOM      8  C   UNL A   1      31.072  22.879  24.984  1.00  0.00     0.004 A 
ATOM      9  C   UNL A   1      32.304  23.136  22.946  1.00  0.00     0.004 A 
ATOM     10  C   UNL A   1      31.919  21.837  25.367  1.00  0.00     0.014 A 
ATOM     11  C   UNL A   1      33.180  22.127  23.355  1.00  0.00     0.014 A 
BRANCH   7  12
ATOM     12  C   UNL A   1      30.224  24.514  23.209  1.00  0.00     0.056 C 
BRANCH  12  13
ATOM     13  C   UNL A   1      30.304  25.889  23.896  1.00  0.00     0.120 C 
BRANCH  13  14
ATOM     14  N   UNL A   1      31.522  26.596  23.554  1.00  0.00    -0.355 N 
ATOM     15  C   UNL A   1      32.297  27.411  24.312  1.00  0.00     0.226 C 
ATOM     16  O   UNL A   1      32.713  28.420  23.731  1.00  0.00    -0.274 OA
ATOM     17  H   UNL A   1      31.836  26.464  22.631  1.00  0.00     0.163 HD
BRANCH  15  18
ATOM     18  C   UNL A   1      32.658  27.114  25.786  1.00  0.00     0.049 C 
ATOM     19  C   UNL A   1      31.524  27.419  26.786  1.00  0.00     0.017 C 
ATOM     20  C   UNL A   1      33.866  27.940  26.273  1.00  0.00     0.017 C 
ATOM     21  C   UNL A   1      32.010  28.523  27.724  1.00  0.00     0.001 C 
ATOM     22  C   UNL A   1      33.332  29.032  27.183  1.00  0.00     0.001 C 
BRANCH  18  23
ATOM     23  C   UNL A   1      33.044  25.600  25.863  1.00  0.00     0.013 C 
ATOM     24  C   UNL A   1      34.417  25.245  25.289  1.00  0.00     0.005 C 
ENDBRANCH  18  23
ENDBRANCH  15  18
ENDBRANCH  13  14
ENDBRANCH  12  13
ENDBRANCH   7  12
ENDBRANCH   3   6
ENDBRANCH   1   2
BRANCH   1  25
ATOM     25  C   UNL A   1      36.990  21.499  24.750  1.00  0.00     0.023 C 
BRANCH  25  26
ATOM     26  C   UNL A   1      37.973  20.328  24.806  1.00  0.00     0.023 C 
BRANCH  26  27
ATOM     27  C   UNL A   1      39.079  20.486  25.837  1.00  0.00     0.116 C 
BRANCH  27  28
ATOM     28  N   UNL A   1      40.000  19.362  25.862  1.00  0.00    -0.352 N 
ATOM     29  C   UNL A   1      41.342  19.373  26.167  1.00  0.00     0.251 C 
ATOM     30  H   UNL A   1      39.618  18.484  25.632  1.00  0.00     0.163 HD
ATOM     31  O   UNL A   1      42.022  18.370  26.046  1.00  0.00    -0.269 OA
BRANCH  29  32
ATOM     32  C   UNL A   1      41.947  20.648  26.599  1.00  0.00     0.039 A 
ATOM     33  C   UNL A   1      42.418  21.530  25.624  1.00  0.00     0.014 A 
ATOM     34  C   UNL A   1      41.985  20.989  27.953  1.00  0.00     0.014 A 
ATOM     35  C   UNL A   1      42.876  22.789  26.007  1.00  0.00     0.010 A 
ATOM     36  C   UNL A   1      42.380  22.269  28.326  1.00  0.00     0.010 A 
ATOM     37  C   UNL A   1      42.828  23.178  27.355  1.00  0.00    -0.014 A 
BRANCH  37  38
ATOM     38  C   UNL A   1      43.250  24.535  27.775  1.00  0.00     0.031 A 
ATOM     39  C   UNL A   1      42.215  25.577  28.086  1.00  0.00     0.074 A 
ATOM     40  C   UNL A   1      44.560  24.842  27.810  1.00  0.00     0.049 A 
ATOM     41  N   UNL A   1      42.378  26.836  28.399  1.00  0.00    -0.248 NA
ATOM     42  C   UNL A   1      40.807  25.153  28.008  1.00  0.00     0.031 C 
ATOM     43  C   UNL A   1      45.656  23.930  27.478  1.00  0.00     0.029 A 
ATOM     44  N   UNL A   1      45.192  26.016  28.131  1.00  0.00    -0.354 N 
ATOM     45  C   UNL A   1      41.099  27.357  28.542  1.00  0.00     0.074 A 
ATOM     46  C   UNL A   1      40.169  26.293  28.231  1.00  0.00     0.031 C 
ATOM     47  C   UNL A   1      46.825  24.571  27.633  1.00  0.00     0.029 A 
ATOM     48  C   UNL A   1      46.562  25.947  28.042  1.00  0.00     0.049 A 
ATOM     49  H   UNL A   1      44.711  26.832  28.400  1.00  0.00     0.167 HD
ATOM     50  C   UNL A   1      40.732  28.603  28.923  1.00  0.00     0.037 A 
ATOM     51  C   UNL A   1      47.497  26.890  28.264  1.00  0.00     0.037 A 
ATOM     52  C   UNL A   1      41.661  29.649  29.259  1.00  0.00     0.049 A 
ATOM     53  C   UNL A   1      47.062  28.263  28.695  1.00  0.00     0.074 A 
ATOM     54  C   UNL A   1      41.391  30.929  29.709  1.00  0.00     0.029 A 
ATOM     55  N   UNL A   1      43.041  29.531  29.187  1.00  0.00    -0.354 N 
ATOM     56  N   UNL A   1      45.850  28.725  28.888  1.00  0.00    -0.248 NA
ATOM     57  C   UNL A   1      48.127  29.246  28.946  1.00  0.00     0.031 C 
ATOM     58  C   UNL A   1      42.608  31.598  29.879  1.00  0.00     0.029 A 
ATOM     59  C   UNL A   1      43.636  30.720  29.573  1.00  0.00     0.049 A 
ATOM     60  H   UNL A   1      43.525  28.721  28.904  1.00  0.00     0.167 HD
ATOM     61  C   UNL A   1      46.006  30.039  29.308  1.00  0.00     0.074 A 
ATOM     62  C   UNL A   1      47.431  30.297  29.355  1.00  0.00     0.031 C 
ATOM     63  C   UNL A   1      45.056  30.951  29.626  1.00  0.00     0.037 A 
BRANCH  50  64
ATOM     64  C   UNL A   1      39.264  28.896  29.006  1.00  0.00     0.057 A 
ATOM     65  C   UNL A   1      38.550  28.731  30.199  1.00  0.00     0.134 A 
ATOM     66  C   UNL A   1      38.566  29.381  27.894  1.00  0.00     0.134 A 
ATOM     67  F   UNL A   1      39.158  28.255  31.296  1.00  0.00    -0.206 F 
ATOM     68  C   UNL A   1      37.186  29.017  30.279  1.00  0.00     0.040 A 
ATOM     69  C   UNL A   1      37.208  29.694  27.968  1.00  0.00     0.040 A 
ATOM     70  F   UNL A   1      39.192  29.565  26.722  1.00  0.00    -0.206 F 
ATOM     71  C   UNL A   1      36.513  29.507  29.161  1.00  0.00     0.006 A 
ENDBRANCH  50  64
BRANCH  51  72
ATOM     72  C   UNL A   1      48.936  26.564  28.110  1.00  0.00     0.057 A 
ATOM     73  C   UNL A   1      49.677  26.055  29.182  1.00  0.00     0.134 A 
ATOM     74  C   UNL A   1      49.608  26.771  26.901  1.00  0.00     0.134 A 
ATOM     75  F   UNL A   1      49.091  25.853  30.372  1.00  0.00    -0.206 F 
ATOM     76  C   UNL A   1      51.040  25.782  29.065  1.00  0.00     0.040 A 
ATOM     77  C   UNL A   1      50.967  26.480  26.761  1.00  0.00     0.040 A 
ATOM     78  F   UNL A   1      48.951  27.250  25.834  1.00  0.00    -0.206 F 
ATOM     79  C   UNL A   1      51.688  25.993  27.849  1.00  0.00     0.006 A 
ENDBRANCH  51  72
BRANCH  63  80
ATOM     80  C   UNL A   1      45.528  32.296  30.087  1.00  0.00     0.057 A 
ATOM     81  C   UNL A   1      45.808  32.559  31.433  1.00  0.00     0.134 A 
ATOM     82  C   UNL A   1      45.742  33.330  29.166  1.00  0.00     0.134 A 
ATOM     83  F   UNL A   1      45.611  31.614  32.366  1.00  0.00    -0.206 F 
ATOM     84  C   UNL A   1      46.268  33.809  31.850  1.00  0.00     0.040 A 
ATOM     85  C   UNL A   1      46.223  34.575  29.567  1.00  0.00     0.040 A 
ATOM     86  F   UNL A   1      45.499  33.139  27.859  1.00  0.00    -0.206 F 
ATOM     87  C   UNL A   1      46.482  34.820  30.914  1.00  0.00     0.006 A 
ENDBRANCH  63  80
ENDBRANCH  37  38
ENDBRANCH  29  32
ENDBRANCH  27  28
ENDBRANCH  26  27
ENDBRANCH  25  26
ENDBRANCH   1  25
TORSDOF 16
ENDMDL
MODEL 3
REMARK VINA RESULT:     -11.5      2.037      7.613
REMARK SMILES CCC1(C(=O)NCCc2ccc(C(=O)NCCCCNC(=O)c3ccc(-c4c5nc(c(-c6c(F)cccc6F)c6ccc([nH]6)c(-c6c(F)cccc6F)c6nc(c(-c7c(F)cccc7F)c7ccc4[nH]7)C=C6)C=C5)cc3)cc2)CCCC1
REMARK SMILES IDX 16 1 15 2 13 3 14 4 12 6 9 7 10 8 78 9 11 10 77 11 8 12 7 13
REMARK SMILES IDX 6 14 4 15 5 16 3 18 79 19 82 20 80 21 81 22 2 23 1 24 17 25
REMARK SMILES IDX 18 26 19 27 20 28 21 29 22 31 23 32 24 33 76 34 25 35 75 36
REMARK SMILES IDX 26 37 27 38 28 39 69 40 29 41 74 42 68 43 70 44 30 45 73 46
REMARK SMILES IDX 67 47 66 48 31 50 57 51 40 52 56 53 41 54 44 55 55 56 71 57
REMARK SMILES IDX 42 58 43 59 54 61 72 62 45 63 32 64 33 65 38 66 34 67 35 68
REMARK SMILES IDX 37 69 39 70 36 71 58 72 59 73 64 74 60 75 61 76 63 77 65 78
REMARK SMILES IDX 62 79 46 80 47 81 52 82 48 83 49 84 51 85 53 86 50 87
REMARK H PARENT 15 5 6 17 20 30 70 49 44 60
REMARK Flexibility Score: inf
ROOT
ATOM      1  C   UNL A   1      33.231  28.894  23.363  1.00  0.00     0.116 C 
ENDROOT
BRANCH   1   2
ATOM      2  N   UNL A   1      31.941  29.112  22.746  1.00  0.00    -0.352 N 
ATOM      3  C   UNL A   1      30.830  28.315  22.657  1.00  0.00     0.251 C 
ATOM      4  O   UNL A   1      29.878  28.746  22.007  1.00  0.00    -0.269 OA
ATOM      5  H   UNL A   1      31.845  29.990  22.312  1.00  0.00     0.163 HD
BRANCH   3   6
ATOM      6  C   UNL A   1      30.698  27.013  23.371  1.00  0.00     0.039 A 
ATOM      7  C   UNL A   1      30.694  24.670  24.959  1.00  0.00    -0.046 A 
ATOM      8  C   UNL A   1      30.472  25.926  25.531  1.00  0.00     0.004 A 
ATOM      9  C   UNL A   1      30.776  24.590  23.566  1.00  0.00     0.004 A 
ATOM     10  C   UNL A   1      30.501  27.084  24.751  1.00  0.00     0.014 A 
ATOM     11  C   UNL A   1      30.754  25.748  22.783  1.00  0.00     0.014 A 
BRANCH   7  12
ATOM     12  C   UNL A   1      30.817  23.403  25.776  1.00  0.00     0.056 C 
BRANCH  12  13
ATOM     13  C   UNL A   1      31.931  23.424  26.839  1.00  0.00     0.120 C 
BRANCH  13  14
ATOM     14  N   UNL A   1      32.838  22.303  26.695  1.00  0.00    -0.355 N 
ATOM     15  C   UNL A   1      33.830  22.097  25.794  1.00  0.00     0.226 C 
ATOM     16  O   UNL A   1      33.899  20.944  25.353  1.00  0.00    -0.274 OA
ATOM     17  H   UNL A   1      32.717  21.581  27.353  1.00  0.00     0.163 HD
BRANCH  15  18
ATOM     18  C   UNL A   1      34.819  23.199  25.348  1.00  0.00     0.049 C 
ATOM     19  C   UNL A   1      34.304  24.635  25.573  1.00  0.00     0.017 C 
ATOM     20  C   UNL A   1      35.155  23.115  23.846  1.00  0.00     0.017 C 
ATOM     21  C   UNL A   1      34.182  25.309  24.207  1.00  0.00     0.001 C 
ATOM     22  C   UNL A   1      34.415  24.245  23.151  1.00  0.00     0.001 C 
BRANCH  18  23
ATOM     23  C   UNL A   1      36.141  22.975  26.154  1.00  0.00     0.013 C 
ATOM     24  C   UNL A   1      37.358  23.748  25.641  1.00  0.00     0.005 C 
ENDBRANCH  18  23
ENDBRANCH  15  18
ENDBRANCH  13  14
ENDBRANCH  12  13
ENDBRANCH   7  12
ENDBRANCH   3   6
ENDBRANCH   1   2
BRANCH   1  25
ATOM     25  C   UNL A   1      33.182  29.302  24.837  1.00  0.00     0.023 C 
BRANCH  25  26
ATOM     26  C   UNL A   1      33.967  28.373  25.766  1.00  0.00     0.023 C 
BRANCH  26  27
ATOM     27  C   UNL A   1      33.657  28.553  27.244  1.00  0.00     0.116 C 
BRANCH  27  28
ATOM     28  N   UNL A   1      33.573  29.948  27.643  1.00  0.00    -0.352 N 
ATOM     29  C   UNL A   1      34.552  30.724  28.219  1.00  0.00     0.251 C 
ATOM     30  H   UNL A   1      32.709  30.393  27.483  1.00  0.00     0.163 HD
ATOM     31  O   UNL A   1      34.314  31.855  28.602  1.00  0.00    -0.269 OA
BRANCH  29  32
ATOM     32  C   UNL A   1      35.892  30.131  28.405  1.00  0.00     0.039 A 
ATOM     33  C   UNL A   1      36.793  30.170  27.340  1.00  0.00     0.014 A 
ATOM     34  C   UNL A   1      36.265  29.603  29.643  1.00  0.00     0.014 A 
ATOM     35  C   UNL A   1      38.101  29.729  27.536  1.00  0.00     0.010 A 
ATOM     36  C   UNL A   1      37.586  29.227  29.855  1.00  0.00     0.010 A 
ATOM     37  C   UNL A   1      38.514  29.287  28.804  1.00  0.00    -0.014 A 
BRANCH  37  38
ATOM     38  C   UNL A   1      39.916  28.876  29.050  1.00  0.00     0.031 A 
ATOM     39  C   UNL A   1      40.875  29.837  29.690  1.00  0.00     0.074 A 
ATOM     40  C   UNL A   1      40.335  27.664  28.640  1.00  0.00     0.049 A 
ATOM     41  N   UNL A   1      42.155  29.695  29.924  1.00  0.00    -0.248 NA
ATOM     42  C   UNL A   1      40.331  31.145  30.093  1.00  0.00     0.031 C 
ATOM     43  C   UNL A   1      39.507  26.665  27.961  1.00  0.00     0.029 A 
ATOM     44  N   UNL A   1      41.569  27.072  28.723  1.00  0.00    -0.354 N 
ATOM     45  C   UNL A   1      42.569  30.894  30.488  1.00  0.00     0.074 A 
ATOM     46  C   UNL A   1      41.419  31.772  30.514  1.00  0.00     0.031 C 
ATOM     47  C   UNL A   1      40.251  25.576  27.709  1.00  0.00     0.029 A 
ATOM     48  C   UNL A   1      41.613  25.812  28.178  1.00  0.00     0.049 A 
ATOM     49  H   UNL A   1      42.349  27.508  29.136  1.00  0.00     0.167 HD
ATOM     50  C   UNL A   1      43.792  31.224  30.965  1.00  0.00     0.037 A 
ATOM     51  C   UNL A   1      42.640  24.947  28.067  1.00  0.00     0.037 A 
ATOM     52  C   UNL A   1      44.925  30.337  30.964  1.00  0.00     0.049 A 
ATOM     53  C   UNL A   1      43.985  25.337  28.613  1.00  0.00     0.074 A 
ATOM     54  C   UNL A   1      46.192  30.557  31.473  1.00  0.00     0.029 A 
ATOM     55  N   UNL A   1      44.922  29.057  30.430  1.00  0.00    -0.354 N 
ATOM     56  N   UNL A   1      44.348  26.450  29.203  1.00  0.00    -0.248 NA
ATOM     57  C   UNL A   1      45.063  24.345  28.486  1.00  0.00     0.031 C 
ATOM     58  C   UNL A   1      46.967  29.421  31.219  1.00  0.00     0.029 A 
ATOM     59  C   UNL A   1      46.170  28.479  30.588  1.00  0.00     0.049 A 
ATOM     60  H   UNL A   1      44.147  28.624  30.003  1.00  0.00     0.167 HD
ATOM     61  C   UNL A   1      45.684  26.284  29.540  1.00  0.00     0.074 A 
ATOM     62  C   UNL A   1      46.065  24.956  29.101  1.00  0.00     0.031 C 
ATOM     63  C   UNL A   1      46.523  27.151  30.156  1.00  0.00     0.037 A 
BRANCH  50  64
ATOM     64  C   UNL A   1      43.961  32.599  31.538  1.00  0.00     0.057 A 
ATOM     65  C   UNL A   1      44.364  33.681  30.744  1.00  0.00     0.134 A 
ATOM     66  C   UNL A   1      43.687  32.853  32.887  1.00  0.00     0.134 A 
ATOM     67  F   UNL A   1      44.656  33.500  29.447  1.00  0.00    -0.206 F 
ATOM     68  C   UNL A   1      44.509  34.963  31.276  1.00  0.00     0.040 A 
ATOM     69  C   UNL A   1      43.805  34.135  33.425  1.00  0.00     0.040 A 
ATOM     70  F   UNL A   1      43.295  31.862  33.702  1.00  0.00    -0.206 F 
ATOM     71  C   UNL A   1      44.222  35.193  32.620  1.00  0.00     0.006 A 
ENDBRANCH  50  64
BRANCH  51  72
ATOM     72  C   UNL A   1      42.433  23.620  27.437  1.00  0.00     0.057 A 
ATOM     73  C   UNL A   1      42.573  23.450  26.055  1.00  0.00     0.134 A 
ATOM     74  C   UNL A   1      42.073  22.499  28.193  1.00  0.00     0.134 A 
ATOM     75  F   UNL A   1      42.899  24.493  25.276  1.00  0.00    -0.206 F 
ATOM     76  C   UNL A   1      42.342  22.217  25.443  1.00  0.00     0.040 A 
ATOM     77  C   UNL A   1      41.862  21.254  27.598  1.00  0.00     0.040 A 
ATOM     78  F   UNL A   1      41.931  22.596  29.523  1.00  0.00    -0.206 F 
ATOM     79  C   UNL A   1      41.988  21.114  26.217  1.00  0.00     0.006 A 
ENDBRANCH  51  72
BRANCH  63  80
ATOM     80  C   UNL A   1      47.919  26.678  30.426  1.00  0.00     0.057 A 
ATOM     81  C   UNL A   1      48.253  25.993  31.600  1.00  0.00     0.134 A 
ATOM     82  C   UNL A   1      48.932  26.876  29.479  1.00  0.00     0.134 A 
ATOM     83  F   UNL A   1      47.330  25.784  32.551  1.00  0.00    -0.206 F 
ATOM     84  C   UNL A   1      49.552  25.538  31.832  1.00  0.00     0.040 A 
ATOM     85  C   UNL A   1      50.227  26.405  29.689  1.00  0.00     0.040 A 
ATOM     86  F   UNL A   1      48.674  27.519  28.329  1.00  0.00    -0.206 F 
ATOM     87  C   UNL A   1      50.542  25.738  30.871  1.00  0.00     0.006 A 
ENDBRANCH  63  80
ENDBRANCH  37  38
ENDBRANCH  29  32
ENDBRANCH  27  28
ENDBRANCH  26  27
ENDBRANCH  25  26
ENDBRANCH   1  25
TORSDOF 16
ENDMDL
