MODEL 1
REMARK VINA RESULT:     -12.5      0.000      0.000
REMARK SMILES CCOc1ccc(-c2cc(Cl)cc3c2O[C@H](C(F)(F)F)C(C(=O)NCCCCNC(=O)c2ccc(-c4c5nc(c(-c6c(F)cccc6F)c6ccc([nH]6)c(-c6c(F)cccc6F)c6nc(c(-c7c(F)cccc7F)c7ccc4[nH]7)C=C6)C=C5)cc2)=C3)cc1
REMARK SMILES IDX 26 1 25 2 24 3 22 4 23 5 21 7 8 8 9 9 14 10 10 11 13 12
REMARK SMILES IDX 15 13 11 14 12 15 86 16 16 17 7 18 4 19 5 20 88 21 6 22
REMARK SMILES IDX 87 23 3 24 2 25 1 26 17 27 18 28 19 29 20 30 27 31 28 32
REMARK SMILES IDX 29 33 30 34 31 36 32 37 33 38 85 39 34 40 84 41 35 42 36 43
REMARK SMILES IDX 37 44 78 45 38 46 83 47 77 48 79 49 39 50 82 51 76 52 75 53
REMARK SMILES IDX 40 55 66 56 49 57 65 58 50 59 53 60 64 61 80 62 51 63 52 64
REMARK SMILES IDX 63 66 81 67 54 68 41 69 42 70 47 71 43 72 44 73 46 74 48 75
REMARK SMILES IDX 45 76 67 77 68 78 73 79 69 80 70 81 72 82 74 83 71 84 55 85
REMARK SMILES IDX 56 86 61 87 57 88 58 89 60 90 62 91 59 92
REMARK H PARENT 24 6 29 35 79 54 53 65
REMARK Flexibility Score: inf
ROOT
ATOM      1  C   UNL A   1      36.806  20.444  24.707  1.00  0.00     0.023 C 
ENDROOT
BRANCH   1   2
ATOM      2  C   UNL A   1      36.657  21.591  25.718  1.00  0.00     0.116 C 
BRANCH   2   3
ATOM      3  N   UNL A   1      36.420  22.831  25.011  1.00  0.00    -0.352 N 
ATOM      4  C   UNL A   1      35.385  23.197  24.224  1.00  0.00     0.251 C 
ATOM      5  O   UNL A   1      35.612  23.995  23.320  1.00  0.00    -0.270 OA
ATOM      6  H   UNL A   1      37.122  23.513  25.120  1.00  0.00     0.163 HD
BRANCH   4   7
ATOM      7  C   UNL A   1      34.009  22.724  24.568  1.00  0.00     0.067 C 
ATOM      8  C   UNL A   1      31.968  26.213  24.021  1.00  0.00     0.026 A 
ATOM      9  C   UNL A   1      32.770  27.226  24.608  1.00  0.00     0.033 A 
ATOM     10  C   UNL A   1      32.325  24.884  24.329  1.00  0.00     0.135 A 
ATOM     11  C   UNL A   1      33.710  26.957  25.599  1.00  0.00     0.042 A 
ATOM     12  C   UNL A   1      33.190  24.643  25.426  1.00  0.00     0.019 A 
ATOM     13  O   UNL A   1      31.931  23.786  23.574  1.00  0.00    -0.475 OA
ATOM     14  Cl  UNL A   1      34.656  28.236  26.248  1.00  0.00    -0.084 Cl
ATOM     15  C   UNL A   1      33.860  25.672  26.078  1.00  0.00     0.032 A 
ATOM     16  C   UNL A   1      33.551  23.239  25.726  1.00  0.00     0.025 C 
ATOM     17  C   UNL A   1      33.002  22.745  23.422  1.00  0.00     0.314 C 
BRANCH   8  18
ATOM     18  C   UNL A   1      30.712  26.710  23.389  1.00  0.00    -0.014 A 
ATOM     19  C   UNL A   1      28.373  28.301  23.062  1.00  0.00     0.119 A 
ATOM     20  C   UNL A   1      29.560  28.659  22.429  1.00  0.00     0.047 A 
ATOM     21  C   UNL A   1      28.316  27.100  23.760  1.00  0.00     0.047 A 
ATOM     22  C   UNL A   1      30.712  27.867  22.580  1.00  0.00     0.013 A 
ATOM     23  C   UNL A   1      29.471  26.310  23.918  1.00  0.00     0.013 A 
BRANCH  19  24
ATOM     24  O   UNL A   1      27.282  29.102  22.859  1.00  0.00    -0.494 OA
BRANCH  24  25
ATOM     25  C   UNL A   1      27.562  30.458  22.478  1.00  0.00     0.226 C 
ATOM     26  C   UNL A   1      27.491  31.406  23.664  1.00  0.00     0.049 C 
ENDBRANCH  24  25
ENDBRANCH  19  24
ENDBRANCH   8  18
BRANCH  17  27
ATOM     27  C   UNL A   1      32.410  21.323  23.282  1.00  0.00     0.429 C 
ATOM     28  F   UNL A   1      31.849  21.104  22.072  1.00  0.00    -0.167 F 
ATOM     29  F   UNL A   1      33.356  20.374  23.478  1.00  0.00    -0.167 F 
ATOM     30  F   UNL A   1      31.438  21.075  24.204  1.00  0.00    -0.167 F 
ENDBRANCH  17  27
ENDBRANCH   4   7
ENDBRANCH   2   3
ENDBRANCH   1   2
BRANCH   1  31
ATOM     31  C   UNL A   1      37.927  19.438  25.013  1.00  0.00     0.023 C 
BRANCH  31  32
ATOM     32  C   UNL A   1      39.128  20.019  25.751  1.00  0.00     0.116 C 
BRANCH  32  33
ATOM     33  N   UNL A   1      40.220  19.066  25.844  1.00  0.00    -0.352 N 
ATOM     34  C   UNL A   1      41.551  19.290  26.085  1.00  0.00     0.251 C 
ATOM     35  H   UNL A   1      39.968  18.123  25.716  1.00  0.00     0.163 HD
ATOM     36  O   UNL A   1      42.364  18.379  25.924  1.00  0.00    -0.269 OA
BRANCH  34  37
ATOM     37  C   UNL A   1      42.019  20.626  26.511  1.00  0.00     0.039 A 
ATOM     38  C   UNL A   1      42.468  21.525  25.541  1.00  0.00     0.014 A 
ATOM     39  C   UNL A   1      42.028  20.990  27.860  1.00  0.00     0.014 A 
ATOM     40  C   UNL A   1      42.867  22.809  25.918  1.00  0.00     0.010 A 
ATOM     41  C   UNL A   1      42.350  22.296  28.225  1.00  0.00     0.010 A 
ATOM     42  C   UNL A   1      42.775  23.220  27.259  1.00  0.00    -0.014 A 
BRANCH  42  43
ATOM     43  C   UNL A   1      43.121  24.610  27.658  1.00  0.00     0.031 A 
ATOM     44  C   UNL A   1      44.559  25.052  27.711  1.00  0.00     0.074 A 
ATOM     45  C   UNL A   1      42.141  25.467  28.005  1.00  0.00     0.049 A 
ATOM     46  N   UNL A   1      45.056  26.210  28.066  1.00  0.00    -0.248 NA
ATOM     47  C   UNL A   1      45.576  24.056  27.333  1.00  0.00     0.031 C 
ATOM     48  C   UNL A   1      40.711  25.153  28.035  1.00  0.00     0.029 A 
ATOM     49  N   UNL A   1      42.198  26.781  28.401  1.00  0.00    -0.354 N 
ATOM     50  C   UNL A   1      46.434  26.083  27.950  1.00  0.00     0.074 A 
ATOM     51  C   UNL A   1      46.701  24.716  27.559  1.00  0.00     0.031 C 
ATOM     52  C   UNL A   1      40.025  26.250  28.395  1.00  0.00     0.029 A 
ATOM     53  C   UNL A   1      40.966  27.332  28.663  1.00  0.00     0.049 A 
ATOM     54  H   UNL A   1      43.041  27.280  28.490  1.00  0.00     0.167 HD
ATOM     55  C   UNL A   1      47.391  27.028  28.118  1.00  0.00     0.037 A 
ATOM     56  C   UNL A   1      40.633  28.570  29.078  1.00  0.00     0.037 A 
ATOM     57  C   UNL A   1      47.128  28.390  28.500  1.00  0.00     0.049 A 
ATOM     58  C   UNL A   1      41.723  29.583  29.304  1.00  0.00     0.074 A 
ATOM     59  C   UNL A   1      48.028  29.426  28.680  1.00  0.00     0.029 A 
ATOM     60  N   UNL A   1      45.868  28.908  28.759  1.00  0.00    -0.354 N 
ATOM     61  N   UNL A   1      43.017  29.463  29.133  1.00  0.00    -0.248 NA
ATOM     62  C   UNL A   1      41.303  30.911  29.774  1.00  0.00     0.031 C 
ATOM     63  C   UNL A   1      47.318  30.559  29.088  1.00  0.00     0.029 A 
ATOM     64  C   UNL A   1      45.969  30.244  29.110  1.00  0.00     0.049 A 
ATOM     65  H   UNL A   1      45.025  28.401  28.702  1.00  0.00     0.167 HD
ATOM     66  C   UNL A   1      43.558  30.707  29.436  1.00  0.00     0.074 A 
ATOM     67  C   UNL A   1      42.450  31.572  29.781  1.00  0.00     0.031 C 
ATOM     68  C   UNL A   1      44.856  31.098  29.430  1.00  0.00     0.037 A 
BRANCH  55  69
ATOM     69  C   UNL A   1      48.816  26.624  27.867  1.00  0.00     0.057 A 
ATOM     70  C   UNL A   1      49.628  26.124  28.894  1.00  0.00     0.134 A 
ATOM     71  C   UNL A   1      49.367  26.683  26.581  1.00  0.00     0.134 A 
ATOM     72  F   UNL A   1      49.165  26.051  30.152  1.00  0.00    -0.206 F 
ATOM     73  C   UNL A   1      50.941  25.716  28.656  1.00  0.00     0.040 A 
ATOM     74  C   UNL A   1      50.671  26.251  26.325  1.00  0.00     0.040 A 
ATOM     75  F   UNL A   1      48.645  27.144  25.549  1.00  0.00    -0.206 F 
ATOM     76  C   UNL A   1      51.463  25.770  27.366  1.00  0.00     0.006 A 
ENDBRANCH  55  69
BRANCH  56  77
ATOM     77  C   UNL A   1      39.210  28.939  29.300  1.00  0.00     0.057 A 
ATOM     78  C   UNL A   1      38.600  28.749  30.547  1.00  0.00     0.134 A 
ATOM     79  C   UNL A   1      38.410  29.432  28.262  1.00  0.00     0.134 A 
ATOM     80  F   UNL A   1      39.308  28.262  31.578  1.00  0.00    -0.206 F 
ATOM     81  C   UNL A   1      37.241  28.997  30.743  1.00  0.00     0.040 A 
ATOM     82  C   UNL A   1      37.057  29.714  28.452  1.00  0.00     0.040 A 
ATOM     83  F   UNL A   1      38.933  29.644  27.046  1.00  0.00    -0.206 F 
ATOM     84  C   UNL A   1      36.465  29.482  29.692  1.00  0.00     0.006 A 
ENDBRANCH  56  77
BRANCH  68  85
ATOM     85  C   UNL A   1      45.140  32.537  29.753  1.00  0.00     0.057 A 
ATOM     86  C   UNL A   1      45.134  33.536  28.770  1.00  0.00     0.134 A 
ATOM     87  C   UNL A   1      45.401  32.931  31.073  1.00  0.00     0.134 A 
ATOM     88  F   UNL A   1      44.904  33.225  27.486  1.00  0.00    -0.206 F 
ATOM     89  C   UNL A   1      45.410  34.869  29.083  1.00  0.00     0.040 A 
ATOM     90  C   UNL A   1      45.646  34.265  31.402  1.00  0.00     0.040 A 
ATOM     91  F   UNL A   1      45.411  32.028  32.064  1.00  0.00    -0.206 F 
ATOM     92  C   UNL A   1      45.661  35.236  30.403  1.00  0.00     0.006 A 
ENDBRANCH  68  85
ENDBRANCH  42  43
ENDBRANCH  34  37
ENDBRANCH  32  33
ENDBRANCH  31  32
ENDBRANCH   1  31
TORSDOF 15
ENDMDL
MODEL 2
REMARK VINA RESULT:     -12.2      0.652      6.088
REMARK SMILES CCOc1ccc(-c2cc(Cl)cc3c2O[C@H](C(F)(F)F)C(C(=O)NCCCCNC(=O)c2ccc(-c4c5nc(c(-c6c(F)cccc6F)c6ccc([nH]6)c(-c6c(F)cccc6F)c6nc(c(-c7c(F)cccc7F)c7ccc4[nH]7)C=C6)C=C5)cc2)=C3)cc1
REMARK SMILES IDX 26 1 25 2 24 3 22 4 23 5 21 7 8 8 9 9 14 10 10 11 13 12
REMARK SMILES IDX 15 13 11 14 12 15 86 16 16 17 7 18 4 19 5 20 88 21 6 22
REMARK SMILES IDX 87 23 3 24 2 25 1 26 17 27 18 28 19 29 20 30 27 31 28 32
REMARK SMILES IDX 29 33 30 34 31 36 32 37 33 38 85 39 34 40 84 41 35 42 36 43
REMARK SMILES IDX 37 44 78 45 38 46 83 47 77 48 79 49 39 50 82 51 76 52 75 53
REMARK SMILES IDX 40 55 66 56 49 57 65 58 50 59 53 60 64 61 80 62 51 63 52 64
REMARK SMILES IDX 63 66 81 67 54 68 41 69 42 70 47 71 43 72 44 73 46 74 48 75
REMARK SMILES IDX 45 76 67 77 68 78 73 79 69 80 70 81 72 82 74 83 71 84 55 85
REMARK SMILES IDX 56 86 61 87 57 88 58 89 60 90 62 91 59 92
REMARK H PARENT 24 6 29 35 79 54 53 65
REMARK Flexibility Score: inf
ROOT
ATOM      1  C   UNL A   1      36.204  20.571  24.994  1.00  0.00     0.023 C 
ENDROOT
BRANCH   1   2
ATOM      2  C   UNL A   1      36.052  21.813  25.886  1.00  0.00     0.116 C 
BRANCH   2   3
ATOM      3  N   UNL A   1      35.987  22.998  25.059  1.00  0.00    -0.352 N 
ATOM      4  C   UNL A   1      35.116  23.325  24.079  1.00  0.00     0.251 C 
ATOM      5  O   UNL A   1      35.525  24.044  23.172  1.00  0.00    -0.270 OA
ATOM      6  H   UNL A   1      36.685  23.669  25.238  1.00  0.00     0.163 HD
BRANCH   4   7
ATOM      7  C   UNL A   1      33.685  22.915  24.213  1.00  0.00     0.067 C 
ATOM      8  C   UNL A   1      31.923  26.574  23.845  1.00  0.00     0.026 A 
ATOM      9  C   UNL A   1      32.705  27.461  24.629  1.00  0.00     0.033 A 
ATOM     10  C   UNL A   1      32.166  25.199  24.037  1.00  0.00     0.135 A 
ATOM     11  C   UNL A   1      33.506  27.023  25.681  1.00  0.00     0.042 A 
ATOM     12  C   UNL A   1      32.880  24.782  25.188  1.00  0.00     0.019 A 
ATOM     13  O   UNL A   1      31.802  24.217  23.122  1.00  0.00    -0.475 OA
ATOM     14  Cl  UNL A   1      34.440  28.157  26.572  1.00  0.00    -0.084 Cl
ATOM     15  C   UNL A   1      33.526  25.687  26.024  1.00  0.00     0.032 A 
ATOM     16  C   UNL A   1      33.123  23.333  25.364  1.00  0.00     0.025 C 
ATOM     17  C   UNL A   1      32.823  23.128  22.972  1.00  0.00     0.314 C 
BRANCH   8  18
ATOM     18  C   UNL A   1      30.780  27.222  23.139  1.00  0.00    -0.014 A 
ATOM     19  C   UNL A   1      28.689  29.098  22.668  1.00  0.00     0.119 A 
ATOM     20  C   UNL A   1      29.947  29.292  22.104  1.00  0.00     0.047 A 
ATOM     21  C   UNL A   1      28.437  27.922  23.367  1.00  0.00     0.047 A 
ATOM     22  C   UNL A   1      30.976  28.359  22.326  1.00  0.00     0.013 A 
ATOM     23  C   UNL A   1      29.469  26.992  23.596  1.00  0.00     0.013 A 
BRANCH  19  24
ATOM     24  O   UNL A   1      27.725  30.030  22.398  1.00  0.00    -0.494 OA
BRANCH  24  25
ATOM     25  C   UNL A   1      27.527  31.036  23.404  1.00  0.00     0.226 C 
ATOM     26  C   UNL A   1      28.252  32.328  23.064  1.00  0.00     0.049 C 
ENDBRANCH  24  25
ENDBRANCH  19  24
ENDBRANCH   8  18
BRANCH  17  27
ATOM     27  C   UNL A   1      32.173  21.773  22.605  1.00  0.00     0.429 C 
ATOM     28  F   UNL A   1      32.663  20.742  23.328  1.00  0.00    -0.167 F 
ATOM     29  F   UNL A   1      30.831  21.805  22.788  1.00  0.00    -0.167 F 
ATOM     30  F   UNL A   1      32.362  21.447  21.296  1.00  0.00    -0.167 F 
ENDBRANCH  17  27
ENDBRANCH   4   7
ENDBRANCH   2   3
ENDBRANCH   1   2
BRANCH   1  31
ATOM     31  C   UNL A   1      37.651  20.167  24.669  1.00  0.00     0.023 C 
BRANCH  31  32
ATOM     32  C   UNL A   1      38.662  20.459  25.772  1.00  0.00     0.116 C 
BRANCH  32  33
ATOM     33  N   UNL A   1      39.689  19.434  25.850  1.00  0.00    -0.352 N 
ATOM     34  C   UNL A   1      41.028  19.563  26.111  1.00  0.00     0.251 C 
ATOM     35  H   UNL A   1      39.377  18.513  25.694  1.00  0.00     0.163 HD
ATOM     36  O   UNL A   1      41.782  18.606  25.934  1.00  0.00    -0.269 OA
BRANCH  34  37
ATOM     37  C   UNL A   1      41.578  20.854  26.578  1.00  0.00     0.039 A 
ATOM     38  C   UNL A   1      42.010  21.785  25.631  1.00  0.00     0.014 A 
ATOM     39  C   UNL A   1      41.678  21.144  27.941  1.00  0.00     0.014 A 
ATOM     40  C   UNL A   1      42.485  23.030  26.050  1.00  0.00     0.010 A 
ATOM     41  C   UNL A   1      42.076  22.414  28.354  1.00  0.00     0.010 A 
ATOM     42  C   UNL A   1      42.486  23.371  27.414  1.00  0.00    -0.014 A 
BRANCH  42  43
ATOM     43  C   UNL A   1      42.915  24.722  27.863  1.00  0.00     0.031 A 
ATOM     44  C   UNL A   1      41.893  25.787  28.160  1.00  0.00     0.074 A 
ATOM     45  C   UNL A   1      44.230  25.001  27.975  1.00  0.00     0.049 A 
ATOM     46  N   UNL A   1      42.077  27.029  28.531  1.00  0.00    -0.248 NA
ATOM     47  C   UNL A   1      40.478  25.413  28.001  1.00  0.00     0.031 C 
ATOM     48  C   UNL A   1      45.321  24.071  27.680  1.00  0.00     0.029 A 
ATOM     49  N   UNL A   1      44.871  26.150  28.366  1.00  0.00    -0.354 N 
ATOM     50  C   UNL A   1      40.808  27.580  28.653  1.00  0.00     0.074 A 
ATOM     51  C   UNL A   1      39.864  26.560  28.250  1.00  0.00     0.031 C 
ATOM     52  C   UNL A   1      46.494  24.674  27.932  1.00  0.00     0.029 A 
ATOM     53  C   UNL A   1      46.242  26.044  28.365  1.00  0.00     0.049 A 
ATOM     54  H   UNL A   1      44.395  26.972  28.623  1.00  0.00     0.167 HD
ATOM     55  C   UNL A   1      40.455  28.812  29.094  1.00  0.00     0.037 A 
ATOM     56  C   UNL A   1      47.189  26.952  28.672  1.00  0.00     0.037 A 
ATOM     57  C   UNL A   1      41.392  29.825  29.502  1.00  0.00     0.049 A 
ATOM     58  C   UNL A   1      46.767  28.328  29.112  1.00  0.00     0.074 A 
ATOM     59  C   UNL A   1      41.133  31.099  29.979  1.00  0.00     0.029 A 
ATOM     60  N   UNL A   1      42.771  29.681  29.482  1.00  0.00    -0.354 N 
ATOM     61  N   UNL A   1      45.561  28.814  29.277  1.00  0.00    -0.248 NA
ATOM     62  C   UNL A   1      47.843  29.283  29.416  1.00  0.00     0.031 C 
ATOM     63  C   UNL A   1      42.355  31.739  30.209  1.00  0.00     0.029 A 
ATOM     64  C   UNL A   1      43.375  30.845  29.926  1.00  0.00     0.049 A 
ATOM     65  H   UNL A   1      43.251  28.870  29.195  1.00  0.00     0.167 HD
ATOM     66  C   UNL A   1      45.733  30.113  29.742  1.00  0.00     0.074 A 
ATOM     67  C   UNL A   1      47.160  30.331  29.850  1.00  0.00     0.031 C 
ATOM     68  C   UNL A   1      44.796  31.042  30.049  1.00  0.00     0.037 A 
BRANCH  55  69
ATOM     69  C   UNL A   1      38.989  29.124  29.181  1.00  0.00     0.057 A 
ATOM     70  C   UNL A   1      38.268  29.569  28.064  1.00  0.00     0.134 A 
ATOM     71  C   UNL A   1      38.278  28.928  30.371  1.00  0.00     0.134 A 
ATOM     72  F   UNL A   1      38.890  29.788  26.895  1.00  0.00    -0.206 F 
ATOM     73  C   UNL A   1      36.898  29.827  28.134  1.00  0.00     0.040 A 
ATOM     74  C   UNL A   1      36.902  29.157  30.445  1.00  0.00     0.040 A 
ATOM     75  F   UNL A   1      38.904  28.497  31.477  1.00  0.00    -0.206 F 
ATOM     76  C   UNL A   1      36.210  29.612  29.325  1.00  0.00     0.006 A 
ENDBRANCH  55  69
BRANCH  56  77
ATOM     77  C   UNL A   1      48.631  26.602  28.591  1.00  0.00     0.057 A 
ATOM     78  C   UNL A   1      49.356  26.792  27.407  1.00  0.00     0.134 A 
ATOM     79  C   UNL A   1      49.305  26.014  29.669  1.00  0.00     0.134 A 
ATOM     80  F   UNL A   1      48.763  27.333  26.332  1.00  0.00    -0.206 F 
ATOM     81  C   UNL A   1      50.683  26.376  27.285  1.00  0.00     0.040 A 
ATOM     82  C   UNL A   1      50.641  25.623  29.571  1.00  0.00     0.040 A 
ATOM     83  F   UNL A   1      48.672  25.811  30.833  1.00  0.00    -0.206 F 
ATOM     84  C   UNL A   1      51.329  25.789  28.371  1.00  0.00     0.006 A 
ENDBRANCH  56  77
BRANCH  68  85
ATOM     85  C   UNL A   1      45.283  32.357  30.585  1.00  0.00     0.057 A 
ATOM     86  C   UNL A   1      45.498  32.569  31.954  1.00  0.00     0.134 A 
ATOM     87  C   UNL A   1      45.563  33.419  29.715  1.00  0.00     0.134 A 
ATOM     88  F   UNL A   1      45.238  31.599  32.842  1.00  0.00    -0.206 F 
ATOM     89  C   UNL A   1      45.942  33.801  32.440  1.00  0.00     0.040 A 
ATOM     90  C   UNL A   1      46.037  34.644  30.186  1.00  0.00     0.040 A 
ATOM     91  F   UNL A   1      45.390  33.280  28.392  1.00  0.00    -0.206 F 
ATOM     92  C   UNL A   1      46.219  34.840  31.554  1.00  0.00     0.006 A 
ENDBRANCH  68  85
ENDBRANCH  42  43
ENDBRANCH  34  37
ENDBRANCH  32  33
ENDBRANCH  31  32
ENDBRANCH   1  31
TORSDOF 15
ENDMDL
MODEL 3
REMARK VINA RESULT:     -11.7      2.172      3.405
REMARK SMILES CCOc1ccc(-c2cc(Cl)cc3c2O[C@H](C(F)(F)F)C(C(=O)NCCCCNC(=O)c2ccc(-c4c5nc(c(-c6c(F)cccc6F)c6ccc([nH]6)c(-c6c(F)cccc6F)c6nc(c(-c7c(F)cccc7F)c7ccc4[nH]7)C=C6)C=C5)cc2)=C3)cc1
REMARK SMILES IDX 26 1 25 2 24 3 22 4 23 5 21 7 8 8 9 9 14 10 10 11 13 12
REMARK SMILES IDX 15 13 11 14 12 15 86 16 16 17 7 18 4 19 5 20 88 21 6 22
REMARK SMILES IDX 87 23 3 24 2 25 1 26 17 27 18 28 19 29 20 30 27 31 28 32
REMARK SMILES IDX 29 33 30 34 31 36 32 37 33 38 85 39 34 40 84 41 35 42 36 43
REMARK SMILES IDX 37 44 78 45 38 46 83 47 77 48 79 49 39 50 82 51 76 52 75 53
REMARK SMILES IDX 40 55 66 56 49 57 65 58 50 59 53 60 64 61 80 62 51 63 52 64
REMARK SMILES IDX 63 66 81 67 54 68 41 69 42 70 47 71 43 72 44 73 46 74 48 75
REMARK SMILES IDX 45 76 67 77 68 78 73 79 69 80 70 81 72 82 74 83 71 84 55 85
REMARK SMILES IDX 56 86 61 87 57 88 58 89 60 90 62 91 59 92
REMARK H PARENT 24 6 29 35 79 54 53 65
REMARK Flexibility Score: inf
ROOT
ATOM      1  C   UNL A   1      35.242  21.844  25.261  1.00  0.00     0.023 C 
ENDROOT
BRANCH   1   2
ATOM      2  C   UNL A   1      34.688  22.466  26.552  1.00  0.00     0.116 C 
BRANCH   2   3
ATOM      3  N   UNL A   1      34.628  23.905  26.408  1.00  0.00    -0.352 N 
ATOM      4  C   UNL A   1      33.855  24.665  25.602  1.00  0.00     0.251 C 
ATOM      5  O   UNL A   1      34.310  25.742  25.229  1.00  0.00    -0.270 OA
ATOM      6  H   UNL A   1      35.246  24.406  26.988  1.00  0.00     0.163 HD
BRANCH   4   7
ATOM      7  C   UNL A   1      32.455  24.229  25.318  1.00  0.00     0.067 C 
ATOM      8  C   UNL A   1      30.880  27.810  24.164  1.00  0.00     0.026 A 
ATOM      9  C   UNL A   1      31.379  28.767  25.085  1.00  0.00     0.033 A 
ATOM     10  C   UNL A   1      31.056  26.457  24.519  1.00  0.00     0.135 A 
ATOM     11  C   UNL A   1      31.817  28.421  26.361  1.00  0.00     0.042 A 
ATOM     12  C   UNL A   1      31.381  26.137  25.861  1.00  0.00     0.019 A 
ATOM     13  O   UNL A   1      30.996  25.407  23.610  1.00  0.00    -0.475 OA
ATOM     14  Cl  UNL A   1      32.425  29.635  27.414  1.00  0.00    -0.084 Cl
ATOM     15  C   UNL A   1      31.734  27.112  26.788  1.00  0.00     0.032 A 
ATOM     16  C   UNL A   1      31.563  24.709  26.207  1.00  0.00     0.025 C 
ATOM     17  C   UNL A   1      32.018  24.336  23.860  1.00  0.00     0.314 C 
BRANCH   8  18
ATOM     18  C   UNL A   1      30.010  28.379  23.095  1.00  0.00    -0.014 A 
ATOM     19  C   UNL A   1      28.341  30.278  21.783  1.00  0.00     0.119 A 
ATOM     20  C   UNL A   1      29.703  30.227  21.501  1.00  0.00     0.047 A 
ATOM     21  C   UNL A   1      27.790  29.319  22.625  1.00  0.00     0.047 A 
ATOM     22  C   UNL A   1      30.525  29.281  22.139  1.00  0.00     0.013 A 
ATOM     23  C   UNL A   1      28.613  28.377  23.270  1.00  0.00     0.013 A 
BRANCH  19  24
ATOM     24  O   UNL A   1      27.591  31.207  21.114  1.00  0.00    -0.494 OA
BRANCH  24  25
ATOM     25  C   UNL A   1      28.058  32.563  21.192  1.00  0.00     0.226 C 
ATOM     26  C   UNL A   1      28.428  32.954  22.614  1.00  0.00     0.049 C 
ENDBRANCH  24  25
ENDBRANCH  19  24
ENDBRANCH   8  18
BRANCH  17  27
ATOM     27  C   UNL A   1      31.516  22.944  23.409  1.00  0.00     0.429 C 
ATOM     28  F   UNL A   1      30.252  22.969  22.933  1.00  0.00    -0.167 F 
ATOM     29  F   UNL A   1      32.311  22.423  22.444  1.00  0.00    -0.167 F 
ATOM     30  F   UNL A   1      31.524  22.038  24.426  1.00  0.00    -0.167 F 
ENDBRANCH  17  27
ENDBRANCH   4   7
ENDBRANCH   2   3
ENDBRANCH   1   2
BRANCH   1  31
ATOM     31  C   UNL A   1      36.513  22.507  24.704  1.00  0.00     0.023 C 
BRANCH  31  32
ATOM     32  C   UNL A   1      37.500  22.990  25.759  1.00  0.00     0.116 C 
BRANCH  32  33
ATOM     33  N   UNL A   1      38.500  21.982  26.069  1.00  0.00    -0.352 N 
ATOM     34  C   UNL A   1      39.787  22.142  26.511  1.00  0.00     0.251 C 
ATOM     35  H   UNL A   1      38.210  21.049  25.943  1.00  0.00     0.163 HD
ATOM     36  O   UNL A   1      40.554  21.178  26.523  1.00  0.00    -0.269 OA
BRANCH  34  37
ATOM     37  C   UNL A   1      40.268  23.469  26.949  1.00  0.00     0.039 A 
ATOM     38  C   UNL A   1      40.055  24.572  26.118  1.00  0.00     0.014 A 
ATOM     39  C   UNL A   1      40.936  23.630  28.166  1.00  0.00     0.014 A 
ATOM     40  C   UNL A   1      40.457  25.842  26.536  1.00  0.00     0.010 A 
ATOM     41  C   UNL A   1      41.264  24.907  28.616  1.00  0.00     0.010 A 
ATOM     42  C   UNL A   1      41.030  26.028  27.806  1.00  0.00    -0.014 A 
BRANCH  42  43
ATOM     43  C   UNL A   1      41.388  27.387  28.292  1.00  0.00     0.031 A 
ATOM     44  C   UNL A   1      42.823  27.842  28.295  1.00  0.00     0.074 A 
ATOM     45  C   UNL A   1      40.422  28.202  28.762  1.00  0.00     0.049 A 
ATOM     46  N   UNL A   1      43.330  28.975  28.710  1.00  0.00    -0.248 NA
ATOM     47  C   UNL A   1      43.823  26.891  27.781  1.00  0.00     0.031 C 
ATOM     48  C   UNL A   1      39.000  27.867  28.850  1.00  0.00     0.029 A 
ATOM     49  N   UNL A   1      40.492  29.481  29.255  1.00  0.00    -0.354 N 
ATOM     50  C   UNL A   1      44.700  28.876  28.504  1.00  0.00     0.074 A 
ATOM     51  C   UNL A   1      44.955  27.547  27.993  1.00  0.00     0.031 C 
ATOM     52  C   UNL A   1      38.327  28.924  29.334  1.00  0.00     0.029 A 
ATOM     53  C   UNL A   1      39.273  29.995  29.631  1.00  0.00     0.049 A 
ATOM     54  H   UNL A   1      41.335  29.983  29.334  1.00  0.00     0.167 HD
ATOM     55  C   UNL A   1      45.658  29.816  28.690  1.00  0.00     0.037 A 
ATOM     56  C   UNL A   1      38.955  31.192  30.160  1.00  0.00     0.037 A 
ATOM     57  C   UNL A   1      45.406  31.141  29.192  1.00  0.00     0.049 A 
ATOM     58  C   UNL A   1      40.048  32.199  30.401  1.00  0.00     0.074 A 
ATOM     59  C   UNL A   1      46.307  32.171  29.400  1.00  0.00     0.029 A 
ATOM     60  N   UNL A   1      44.159  31.622  29.564  1.00  0.00    -0.354 N 
ATOM     61  N   UNL A   1      41.331  32.109  30.147  1.00  0.00    -0.248 NA
ATOM     62  C   UNL A   1      39.645  33.480  30.998  1.00  0.00     0.031 C 
ATOM     63  C   UNL A   1      45.612  33.261  29.937  1.00  0.00     0.029 A 
ATOM     64  C   UNL A   1      44.270  32.927  30.013  1.00  0.00     0.049 A 
ATOM     65  H   UNL A   1      43.319  31.110  29.517  1.00  0.00     0.167 HD
ATOM     66  C   UNL A   1      41.879  33.333  30.513  1.00  0.00     0.074 A 
ATOM     67  C   UNL A   1      40.786  34.154  30.990  1.00  0.00     0.031 C 
ATOM     68  C   UNL A   1      43.170  33.740  30.463  1.00  0.00     0.037 A 
BRANCH  55  69
ATOM     69  C   UNL A   1      47.068  29.452  28.326  1.00  0.00     0.057 A 
ATOM     70  C   UNL A   1      47.571  29.670  27.035  1.00  0.00     0.134 A 
ATOM     71  C   UNL A   1      47.949  28.931  29.281  1.00  0.00     0.134 A 
ATOM     72  F   UNL A   1      46.776  30.156  26.069  1.00  0.00    -0.206 F 
ATOM     73  C   UNL A   1      48.891  29.364  26.703  1.00  0.00     0.040 A 
ATOM     74  C   UNL A   1      49.281  28.647  28.967  1.00  0.00     0.040 A 
ATOM     75  F   UNL A   1      47.538  28.705  30.538  1.00  0.00    -0.206 F 
ATOM     76  C   UNL A   1      49.753  28.860  27.674  1.00  0.00     0.006 A 
ENDBRANCH  55  69
BRANCH  56  77
ATOM     77  C   UNL A   1      37.545  31.525  30.493  1.00  0.00     0.057 A 
ATOM     78  C   UNL A   1      36.693  32.097  29.538  1.00  0.00     0.134 A 
ATOM     79  C   UNL A   1      37.030  31.336  31.781  1.00  0.00     0.134 A 
ATOM     80  F   UNL A   1      37.132  32.322  28.291  1.00  0.00    -0.206 F 
ATOM     81  C   UNL A   1      35.399  32.507  29.863  1.00  0.00     0.040 A 
ATOM     82  C   UNL A   1      35.728  31.711  32.111  1.00  0.00     0.040 A 
ATOM     83  F   UNL A   1      37.790  30.785  32.740  1.00  0.00    -0.206 F 
ATOM     84  C   UNL A   1      34.913  32.313  31.155  1.00  0.00     0.006 A 
ENDBRANCH  56  77
BRANCH  68  85
ATOM     85  C   UNL A   1      43.461  35.153  30.881  1.00  0.00     0.057 A 
ATOM     86  C   UNL A   1      43.678  35.503  32.220  1.00  0.00     0.134 A 
ATOM     87  C   UNL A   1      43.548  36.173  29.924  1.00  0.00     0.134 A 
ATOM     88  F   UNL A   1      43.598  34.577  33.188  1.00  0.00    -0.206 F 
ATOM     89  C   UNL A   1      43.938  36.823  32.596  1.00  0.00     0.040 A 
ATOM     90  C   UNL A   1      43.838  37.490  30.284  1.00  0.00     0.040 A 
ATOM     91  F   UNL A   1      43.362  35.905  28.623  1.00  0.00    -0.206 F 
ATOM     92  C   UNL A   1      44.025  37.819  31.626  1.00  0.00     0.006 A 
ENDBRANCH  68  85
ENDBRANCH  42  43
ENDBRANCH  34  37
ENDBRANCH  32  33
ENDBRANCH  31  32
ENDBRANCH   1  31
TORSDOF 15
ENDMDL
