MODEL 1
REMARK VINA RESULT:     -12.2      0.000      0.000
REMARK SMILES C[C@H]1[C@@H](C(=O)NCCCCNC(=O)c2ccc(-c3c4nc(c(-c5c(F)cccc5F)c5ccc([nH]5)c(-c5c(F)cccc5F)c5nc(c(-c6c(F)cccc6F)c6ccc3[nH]6)C=C5)C=C4)cc2)CCN1C(=O)N1CCn2cnnc2C1
REMARK SMILES IDX 8 1 7 2 6 3 4 4 5 5 3 7 1 8 2 9 70 10 68 11 69 12 71 13
REMARK SMILES IDX 72 14 73 15 74 16 81 17 75 18 80 19 76 20 79 21 77 22 78 23
REMARK SMILES IDX 9 24 10 25 11 26 12 27 13 29 14 30 15 31 67 32 16 33 66 34
REMARK SMILES IDX 17 35 18 36 19 37 60 38 20 39 65 40 59 41 61 42 21 43 64 44
REMARK SMILES IDX 58 45 57 46 22 48 48 49 31 50 47 51 32 52 35 53 46 54 62 55
REMARK SMILES IDX 33 56 34 57 45 59 63 60 36 61 23 62 24 63 29 64 25 65 26 66
REMARK SMILES IDX 28 67 30 68 27 69 49 70 50 71 55 72 51 73 52 74 54 75 56 76
REMARK SMILES IDX 53 77 37 78 38 79 43 80 39 81 40 82 42 83 44 84 41 85
REMARK H PARENT 6 6 11 28 61 47 35 58
REMARK Flexibility Score: inf
ROOT
ATOM      1  C   UNL A   1      32.095  30.419  26.919  1.00  0.00     0.023 C 
ENDROOT
BRANCH   1   2
ATOM      2  C   UNL A   1      33.565  30.053  26.698  1.00  0.00     0.116 C 
BRANCH   2   3
ATOM      3  N   UNL A   1      33.718  29.551  25.359  1.00  0.00    -0.356 N 
ATOM      4  C   UNL A   1      33.751  28.282  24.886  1.00  0.00     0.225 C 
ATOM      5  O   UNL A   1      34.241  28.184  23.754  1.00  0.00    -0.275 OA
ATOM      6  H   UNL A   1      33.813  30.247  24.670  1.00  0.00     0.163 HD
BRANCH   4   7
ATOM      7  C   UNL A   1      33.075  27.080  25.585  1.00  0.00     0.102 C 
ATOM      8  C   UNL A   1      34.790  25.064  25.242  1.00  0.00     0.032 C 
ATOM      9  C   UNL A   1      33.371  25.587  25.271  1.00  0.00     0.096 C 
ATOM     10  N   UNL A   1      32.608  25.311  24.047  1.00  0.00    -0.321 N 
ATOM     11  C   UNL A   1      31.588  27.105  25.131  1.00  0.00     0.037 C 
ATOM     12  C   UNL A   1      31.655  26.372  23.791  1.00  0.00     0.122 C 
BRANCH  10  13
ATOM     13  C   UNL A   1      32.771  24.282  23.154  1.00  0.00     0.320 C 
ATOM     14  O   UNL A   1      33.464  24.393  22.144  1.00  0.00    -0.248 OA
BRANCH  13  15
ATOM     15  N   UNL A   1      32.100  23.105  23.449  1.00  0.00    -0.315 N 
ATOM     16  C   UNL A   1      31.099  23.119  24.526  1.00  0.00     0.144 C 
ATOM     17  C   UNL A   1      32.824  21.840  23.267  1.00  0.00     0.199 C 
ATOM     18  C   UNL A   1      31.505  22.319  25.777  1.00  0.00     0.146 C 
ATOM     19  C   UNL A   1      33.518  21.598  24.557  1.00  0.00     0.152 A 
ATOM     20  N   UNL A   1      32.883  21.900  25.729  1.00  0.00    -0.314 N 
ATOM     21  N   UNL A   1      34.763  21.272  24.816  1.00  0.00    -0.134 NA
ATOM     22  C   UNL A   1      33.817  21.835  26.702  1.00  0.00     0.226 A 
ATOM     23  N   UNL A   1      34.950  21.419  26.179  1.00  0.00    -0.139 NA
ENDBRANCH  13  15
ENDBRANCH  10  13
ENDBRANCH   4   7
ENDBRANCH   2   3
ENDBRANCH   1   2
BRANCH   1  24
ATOM     24  C   UNL A   1      31.782  31.901  26.792  1.00  0.00     0.023 C 
BRANCH  24  25
ATOM     25  C   UNL A   1      32.840  32.787  27.423  1.00  0.00     0.116 C 
BRANCH  25  26
ATOM     26  N   UNL A   1      32.386  34.150  27.689  1.00  0.00    -0.352 N 
ATOM     27  C   UNL A   1      32.925  35.064  28.565  1.00  0.00     0.251 C 
ATOM     28  H   UNL A   1      31.599  34.451  27.180  1.00  0.00     0.163 HD
ATOM     29  O   UNL A   1      32.405  36.161  28.741  1.00  0.00    -0.269 OA
BRANCH  27  30
ATOM     30  C   UNL A   1      34.115  34.659  29.333  1.00  0.00     0.039 A 
ATOM     31  C   UNL A   1      33.943  34.104  30.602  1.00  0.00     0.014 A 
ATOM     32  C   UNL A   1      35.367  34.674  28.717  1.00  0.00     0.014 A 
ATOM     33  C   UNL A   1      35.022  33.473  31.218  1.00  0.00     0.010 A 
ATOM     34  C   UNL A   1      36.404  33.947  29.280  1.00  0.00     0.010 A 
ATOM     35  C   UNL A   1      36.244  33.341  30.535  1.00  0.00    -0.014 A 
BRANCH  35  36
ATOM     36  C   UNL A   1      37.381  32.586  31.115  1.00  0.00     0.031 A 
ATOM     37  C   UNL A   1      37.954  33.014  32.437  1.00  0.00     0.074 A 
ATOM     38  C   UNL A   1      37.954  31.586  30.416  1.00  0.00     0.049 A 
ATOM     39  N   UNL A   1      39.014  32.573  33.061  1.00  0.00    -0.248 NA
ATOM     40  C   UNL A   1      37.270  34.123  33.125  1.00  0.00     0.031 C 
ATOM     41  C   UNL A   1      37.541  31.126  29.087  1.00  0.00     0.029 A 
ATOM     42  N   UNL A   1      39.020  30.780  30.727  1.00  0.00    -0.354 N 
ATOM     43  C   UNL A   1      39.142  33.373  34.189  1.00  0.00     0.074 A 
ATOM     44  C   UNL A   1      38.093  34.366  34.130  1.00  0.00     0.031 C 
ATOM     45  C   UNL A   1      38.321  30.096  28.716  1.00  0.00     0.029 A 
ATOM     46  C   UNL A   1      39.308  29.847  29.760  1.00  0.00     0.049 A 
ATOM     47  H   UNL A   1      39.531  30.863  31.564  1.00  0.00     0.167 HD
ATOM     48  C   UNL A   1      40.033  33.270  35.202  1.00  0.00     0.037 A 
ATOM     49  C   UNL A   1      40.259  28.894  29.727  1.00  0.00     0.037 A 
ATOM     50  C   UNL A   1      41.029  32.239  35.291  1.00  0.00     0.049 A 
ATOM     51  C   UNL A   1      41.199  28.760  30.893  1.00  0.00     0.074 A 
ATOM     52  C   UNL A   1      41.924  31.991  36.316  1.00  0.00     0.029 A 
ATOM     53  N   UNL A   1      41.251  31.276  34.319  1.00  0.00    -0.354 N 
ATOM     54  N   UNL A   1      41.266  29.480  31.987  1.00  0.00    -0.248 NA
ATOM     55  C   UNL A   1      42.190  27.677  30.824  1.00  0.00     0.031 C 
ATOM     56  C   UNL A   1      42.704  30.888  35.954  1.00  0.00     0.029 A 
ATOM     57  C   UNL A   1      42.273  30.433  34.717  1.00  0.00     0.049 A 
ATOM     58  H   UNL A   1      40.754  31.202  33.472  1.00  0.00     0.167 HD
ATOM     59  C   UNL A   1      42.286  28.924  32.746  1.00  0.00     0.074 A 
ATOM     60  C   UNL A   1      42.802  27.798  31.993  1.00  0.00     0.031 C 
ATOM     61  C   UNL A   1      42.758  29.310  33.956  1.00  0.00     0.037 A 
BRANCH  48  62
ATOM     62  C   UNL A   1      39.943  34.287  36.300  1.00  0.00     0.057 A 
ATOM     63  C   UNL A   1      39.190  34.055  37.460  1.00  0.00     0.134 A 
ATOM     64  C   UNL A   1      40.614  35.511  36.199  1.00  0.00     0.134 A 
ATOM     65  F   UNL A   1      38.507  32.910  37.609  1.00  0.00    -0.206 F 
ATOM     66  C   UNL A   1      39.083  35.017  38.466  1.00  0.00     0.040 A 
ATOM     67  C   UNL A   1      40.538  36.469  37.211  1.00  0.00     0.040 A 
ATOM     68  F   UNL A   1      41.352  35.796  35.117  1.00  0.00    -0.206 F 
ATOM     69  C   UNL A   1      39.763  36.227  38.344  1.00  0.00     0.006 A 
ENDBRANCH  48  62
BRANCH  49  70
ATOM     70  C   UNL A   1      40.343  27.964  28.575  1.00  0.00     0.057 A 
ATOM     71  C   UNL A   1      39.688  26.727  28.604  1.00  0.00     0.134 A 
ATOM     72  C   UNL A   1      41.080  28.277  27.427  1.00  0.00     0.134 A 
ATOM     73  F   UNL A   1      38.981  26.363  29.683  1.00  0.00    -0.206 F 
ATOM     74  C   UNL A   1      39.777  25.825  27.541  1.00  0.00     0.040 A 
ATOM     75  C   UNL A   1      41.161  27.395  26.349  1.00  0.00     0.040 A 
ATOM     76  F   UNL A   1      41.723  29.450  27.335  1.00  0.00    -0.206 F 
ATOM     77  C   UNL A   1      40.514  26.161  26.407  1.00  0.00     0.006 A 
ENDBRANCH  49  70
BRANCH  61  78
ATOM     78  C   UNL A   1      43.861  28.492  34.553  1.00  0.00     0.057 A 
ATOM     79  C   UNL A   1      45.208  28.833  34.376  1.00  0.00     0.134 A 
ATOM     80  C   UNL A   1      43.570  27.381  35.355  1.00  0.00     0.134 A 
ATOM     81  F   UNL A   1      45.549  29.879  33.610  1.00  0.00    -0.206 F 
ATOM     82  C   UNL A   1      46.228  28.085  34.963  1.00  0.00     0.040 A 
ATOM     83  C   UNL A   1      44.581  26.639  35.964  1.00  0.00     0.040 A 
ATOM     84  F   UNL A   1      42.299  27.010  35.568  1.00  0.00    -0.206 F 
ATOM     85  C   UNL A   1      45.915  26.989  35.766  1.00  0.00     0.006 A 
ENDBRANCH  61  78
ENDBRANCH  35  36
ENDBRANCH  27  30
ENDBRANCH  25  26
ENDBRANCH  24  25
ENDBRANCH   1  24
TORSDOF 13
ENDMDL
MODEL 2
REMARK VINA RESULT:     -12.1      1.852      2.924
REMARK SMILES C[C@H]1[C@@H](C(=O)NCCCCNC(=O)c2ccc(-c3c4nc(c(-c5c(F)cccc5F)c5ccc([nH]5)c(-c5c(F)cccc5F)c5nc(c(-c6c(F)cccc6F)c6ccc3[nH]6)C=C5)C=C4)cc2)CCN1C(=O)N1CCn2cnnc2C1
REMARK SMILES IDX 8 1 7 2 6 3 4 4 5 5 3 7 1 8 2 9 70 10 68 11 69 12 71 13
REMARK SMILES IDX 72 14 73 15 74 16 81 17 75 18 80 19 76 20 79 21 77 22 78 23
REMARK SMILES IDX 9 24 10 25 11 26 12 27 13 29 14 30 15 31 67 32 16 33 66 34
REMARK SMILES IDX 17 35 18 36 19 37 60 38 20 39 65 40 59 41 61 42 21 43 64 44
REMARK SMILES IDX 58 45 57 46 22 48 48 49 31 50 47 51 32 52 35 53 46 54 62 55
REMARK SMILES IDX 33 56 34 57 45 59 63 60 36 61 23 62 24 63 29 64 25 65 26 66
REMARK SMILES IDX 28 67 30 68 27 69 49 70 50 71 55 72 51 73 52 74 54 75 56 76
REMARK SMILES IDX 53 77 37 78 38 79 43 80 39 81 40 82 42 83 44 84 41 85
REMARK H PARENT 6 6 11 28 61 47 35 58
REMARK Flexibility Score: inf
ROOT
ATOM      1  C   UNL A   1      34.470  33.101  29.147  1.00  0.00     0.023 C 
ENDROOT
BRANCH   1   2
ATOM      2  C   UNL A   1      34.660  32.098  28.005  1.00  0.00     0.116 C 
BRANCH   2   3
ATOM      3  N   UNL A   1      33.365  31.707  27.516  1.00  0.00    -0.356 N 
ATOM      4  C   UNL A   1      33.002  30.739  26.641  1.00  0.00     0.225 C 
ATOM      5  O   UNL A   1      31.868  30.890  26.171  1.00  0.00    -0.275 OA
ATOM      6  H   UNL A   1      32.616  32.232  27.879  1.00  0.00     0.163 HD
BRANCH   4   7
ATOM      7  C   UNL A   1      33.824  29.454  26.383  1.00  0.00     0.102 C 
ATOM      8  C   UNL A   1      33.514  28.983  23.775  1.00  0.00     0.032 C 
ATOM      9  C   UNL A   1      33.596  28.476  25.197  1.00  0.00     0.096 C 
ATOM     10  N   UNL A   1      32.444  27.663  25.608  1.00  0.00    -0.321 N 
ATOM     11  C   UNL A   1      33.464  28.479  27.539  1.00  0.00     0.037 C 
ATOM     12  C   UNL A   1      32.176  27.838  27.021  1.00  0.00     0.122 C 
BRANCH  10  13
ATOM     13  C   UNL A   1      31.616  26.899  24.825  1.00  0.00     0.320 C 
ATOM     14  O   UNL A   1      30.469  27.247  24.550  1.00  0.00    -0.248 OA
BRANCH  13  15
ATOM     15  N   UNL A   1      32.143  25.703  24.365  1.00  0.00    -0.315 N 
ATOM     16  C   UNL A   1      31.368  24.923  23.388  1.00  0.00     0.144 C 
ATOM     17  C   UNL A   1      32.975  24.920  25.289  1.00  0.00     0.199 C 
ATOM     18  C   UNL A   1      30.809  23.598  23.938  1.00  0.00     0.146 C 
ATOM     19  C   UNL A   1      32.026  24.050  26.029  1.00  0.00     0.152 A 
ATOM     20  N   UNL A   1      30.970  23.492  25.366  1.00  0.00    -0.314 N 
ATOM     21  N   UNL A   1      31.899  23.814  27.314  1.00  0.00    -0.134 NA
ATOM     22  C   UNL A   1      30.146  22.986  26.308  1.00  0.00     0.226 A 
ATOM     23  N   UNL A   1      30.706  23.135  27.489  1.00  0.00    -0.139 NA
ENDBRANCH  13  15
ENDBRANCH  10  13
ENDBRANCH   4   7
ENDBRANCH   2   3
ENDBRANCH   1   2
BRANCH   1  24
ATOM     24  C   UNL A   1      33.440  34.186  28.875  1.00  0.00     0.023 C 
BRANCH  24  25
ATOM     25  C   UNL A   1      33.735  35.481  29.607  1.00  0.00     0.116 C 
BRANCH  25  26
ATOM     26  N   UNL A   1      32.665  35.911  30.503  1.00  0.00    -0.352 N 
ATOM     27  C   UNL A   1      32.591  35.752  31.868  1.00  0.00     0.251 C 
ATOM     28  H   UNL A   1      31.904  36.370  30.079  1.00  0.00     0.163 HD
ATOM     29  O   UNL A   1      31.600  36.106  32.497  1.00  0.00    -0.269 OA
BRANCH  27  30
ATOM     30  C   UNL A   1      33.718  35.087  32.543  1.00  0.00     0.039 A 
ATOM     31  C   UNL A   1      33.564  33.769  32.975  1.00  0.00     0.014 A 
ATOM     32  C   UNL A   1      34.963  35.717  32.584  1.00  0.00     0.014 A 
ATOM     33  C   UNL A   1      34.691  33.046  33.362  1.00  0.00     0.010 A 
ATOM     34  C   UNL A   1      36.092  34.962  32.857  1.00  0.00     0.010 A 
ATOM     35  C   UNL A   1      35.969  33.621  33.250  1.00  0.00    -0.014 A 
BRANCH  35  36
ATOM     36  C   UNL A   1      37.198  32.849  33.553  1.00  0.00     0.031 A 
ATOM     37  C   UNL A   1      37.953  33.130  34.822  1.00  0.00     0.074 A 
ATOM     38  C   UNL A   1      37.684  31.971  32.652  1.00  0.00     0.049 A 
ATOM     39  N   UNL A   1      39.105  32.660  35.221  1.00  0.00    -0.248 NA
ATOM     40  C   UNL A   1      37.354  34.112  35.742  1.00  0.00     0.031 C 
ATOM     41  C   UNL A   1      37.087  31.665  31.349  1.00  0.00     0.029 A 
ATOM     42  N   UNL A   1      38.803  31.180  32.695  1.00  0.00    -0.354 N 
ATOM     43  C   UNL A   1      39.383  33.316  36.413  1.00  0.00     0.074 A 
ATOM     44  C   UNL A   1      38.313  34.262  36.640  1.00  0.00     0.031 C 
ATOM     45  C   UNL A   1      37.826  30.726  30.736  1.00  0.00     0.029 A 
ATOM     46  C   UNL A   1      38.965  30.389  31.582  1.00  0.00     0.049 A 
ATOM     47  H   UNL A   1      39.432  31.178  33.452  1.00  0.00     0.167 HD
ATOM     48  C   UNL A   1      40.418  33.124  37.263  1.00  0.00     0.037 A 
ATOM     49  C   UNL A   1      39.923  29.491  31.286  1.00  0.00     0.037 A 
ATOM     50  C   UNL A   1      41.441  32.135  37.069  1.00  0.00     0.049 A 
ATOM     51  C   UNL A   1      41.030  29.251  32.273  1.00  0.00     0.074 A 
ATOM     52  C   UNL A   1      42.486  31.798  37.910  1.00  0.00     0.029 A 
ATOM     53  N   UNL A   1      41.537  31.313  35.956  1.00  0.00    -0.354 N 
ATOM     54  N   UNL A   1      41.244  29.829  33.432  1.00  0.00    -0.248 NA
ATOM     55  C   UNL A   1      42.025  28.230  31.918  1.00  0.00     0.031 C 
ATOM     56  C   UNL A   1      43.229  30.784  37.295  1.00  0.00     0.029 A 
ATOM     57  C   UNL A   1      42.627  30.471  36.086  1.00  0.00     0.049 A 
ATOM     58  H   UNL A   1      40.920  31.325  35.189  1.00  0.00     0.167 HD
ATOM     59  C   UNL A   1      42.380  29.226  33.952  1.00  0.00     0.074 A 
ATOM     60  C   UNL A   1      42.803  28.229  32.991  1.00  0.00     0.031 C 
ATOM     61  C   UNL A   1      43.019  29.476  35.121  1.00  0.00     0.037 A 
BRANCH  48  62
ATOM     62  C   UNL A   1      40.470  33.989  38.487  1.00  0.00     0.057 A 
ATOM     63  C   UNL A   1      41.204  35.182  38.516  1.00  0.00     0.134 A 
ATOM     64  C   UNL A   1      39.779  33.626  39.649  1.00  0.00     0.134 A 
ATOM     65  F   UNL A   1      41.904  35.575  37.440  1.00  0.00    -0.206 F 
ATOM     66  C   UNL A   1      41.276  35.968  39.666  1.00  0.00     0.040 A 
ATOM     67  C   UNL A   1      39.820  34.419  40.798  1.00  0.00     0.040 A 
ATOM     68  F   UNL A   1      39.056  32.498  39.689  1.00  0.00    -0.206 F 
ATOM     69  C   UNL A   1      40.577  35.589  40.811  1.00  0.00     0.006 A 
ENDBRANCH  48  62
BRANCH  49  70
ATOM     70  C   UNL A   1      39.854  28.718  30.021  1.00  0.00     0.057 A 
ATOM     71  C   UNL A   1      39.192  27.486  29.969  1.00  0.00     0.134 A 
ATOM     72  C   UNL A   1      40.452  29.181  28.842  1.00  0.00     0.134 A 
ATOM     73  F   UNL A   1      38.616  26.984  31.070  1.00  0.00    -0.206 F 
ATOM     74  C   UNL A   1      39.140  26.731  28.796  1.00  0.00     0.040 A 
ATOM     75  C   UNL A   1      40.389  28.447  27.657  1.00  0.00     0.040 A 
ATOM     76  F   UNL A   1      41.093  30.358  28.825  1.00  0.00    -0.206 F 
ATOM     77  C   UNL A   1      39.738  27.214  27.634  1.00  0.00     0.006 A 
ENDBRANCH  49  70
BRANCH  61  78
ATOM     78  C   UNL A   1      44.219  28.639  35.438  1.00  0.00     0.057 A 
ATOM     79  C   UNL A   1      44.110  27.432  36.141  1.00  0.00     0.134 A 
ATOM     80  C   UNL A   1      45.491  29.019  34.992  1.00  0.00     0.134 A 
ATOM     81  F   UNL A   1      42.920  27.021  36.604  1.00  0.00    -0.206 F 
ATOM     82  C   UNL A   1      45.228  26.641  36.403  1.00  0.00     0.040 A 
ATOM     83  C   UNL A   1      46.612  28.226  35.229  1.00  0.00     0.040 A 
ATOM     84  F   UNL A   1      45.658  30.160  34.307  1.00  0.00    -0.206 F 
ATOM     85  C   UNL A   1      46.483  27.034  35.940  1.00  0.00     0.006 A 
ENDBRANCH  61  78
ENDBRANCH  35  36
ENDBRANCH  27  30
ENDBRANCH  25  26
ENDBRANCH  24  25
ENDBRANCH   1  24
TORSDOF 13
ENDMDL
MODEL 3
REMARK VINA RESULT:     -12.1      4.087      9.051
REMARK SMILES C[C@H]1[C@@H](C(=O)NCCCCNC(=O)c2ccc(-c3c4nc(c(-c5c(F)cccc5F)c5ccc([nH]5)c(-c5c(F)cccc5F)c5nc(c(-c6c(F)cccc6F)c6ccc3[nH]6)C=C5)C=C4)cc2)CCN1C(=O)N1CCn2cnnc2C1
REMARK SMILES IDX 8 1 7 2 6 3 4 4 5 5 3 7 1 8 2 9 70 10 68 11 69 12 71 13
REMARK SMILES IDX 72 14 73 15 74 16 81 17 75 18 80 19 76 20 79 21 77 22 78 23
REMARK SMILES IDX 9 24 10 25 11 26 12 27 13 29 14 30 15 31 67 32 16 33 66 34
REMARK SMILES IDX 17 35 18 36 19 37 60 38 20 39 65 40 59 41 61 42 21 43 64 44
REMARK SMILES IDX 58 45 57 46 22 48 48 49 31 50 47 51 32 52 35 53 46 54 62 55
REMARK SMILES IDX 33 56 34 57 45 59 63 60 36 61 23 62 24 63 29 64 25 65 26 66
REMARK SMILES IDX 28 67 30 68 27 69 49 70 50 71 55 72 51 73 52 74 54 75 56 76
REMARK SMILES IDX 53 77 37 78 38 79 43 80 39 81 40 82 42 83 44 84 41 85
REMARK H PARENT 6 6 11 28 61 47 35 58
REMARK Flexibility Score: inf
ROOT
ATOM      1  C   UNL A   1      36.488  20.279  24.988  1.00  0.00     0.023 C 
ENDROOT
BRANCH   1   2
ATOM      2  C   UNL A   1      34.998  20.602  24.850  1.00  0.00     0.116 C 
BRANCH   2   3
ATOM      3  N   UNL A   1      34.863  21.918  24.285  1.00  0.00    -0.356 N 
ATOM      4  C   UNL A   1      33.765  22.677  24.056  1.00  0.00     0.225 C 
ATOM      5  O   UNL A   1      33.953  23.595  23.249  1.00  0.00    -0.275 OA
ATOM      6  H   UNL A   1      35.713  22.337  24.021  1.00  0.00     0.163 HD
BRANCH   4   7
ATOM      7  C   UNL A   1      32.447  22.554  24.856  1.00  0.00     0.102 C 
ATOM      8  C   UNL A   1      30.652  23.863  23.377  1.00  0.00     0.032 C 
ATOM      9  C   UNL A   1      31.237  23.521  24.729  1.00  0.00     0.096 C 
ATOM     10  N   UNL A   1      31.618  24.693  25.528  1.00  0.00    -0.321 N 
ATOM     11  C   UNL A   1      32.816  22.863  26.334  1.00  0.00     0.037 C 
ATOM     12  C   UNL A   1      32.766  24.391  26.359  1.00  0.00     0.122 C 
BRANCH  10  13
ATOM     13  C   UNL A   1      31.094  25.961  25.487  1.00  0.00     0.320 C 
ATOM     14  O   UNL A   1      29.914  26.192  25.746  1.00  0.00    -0.248 OA
BRANCH  13  15
ATOM     15  N   UNL A   1      31.971  26.973  25.127  1.00  0.00    -0.315 N 
ATOM     16  C   UNL A   1      31.945  28.229  25.891  1.00  0.00     0.144 C 
ATOM     17  C   UNL A   1      32.329  27.097  23.707  1.00  0.00     0.199 C 
ATOM     18  C   UNL A   1      31.411  29.438  25.101  1.00  0.00     0.146 C 
ATOM     19  C   UNL A   1      31.293  27.983  23.119  1.00  0.00     0.152 A 
ATOM     20  N   UNL A   1      30.834  29.049  23.840  1.00  0.00    -0.314 N 
ATOM     21  N   UNL A   1      30.567  27.854  22.033  1.00  0.00    -0.134 NA
ATOM     22  C   UNL A   1      29.740  29.509  23.195  1.00  0.00     0.226 A 
ATOM     23  N   UNL A   1      29.584  28.827  22.080  1.00  0.00    -0.139 NA
ENDBRANCH  13  15
ENDBRANCH  10  13
ENDBRANCH   4   7
ENDBRANCH   2   3
ENDBRANCH   1   2
BRANCH   1  24
ATOM     24  C   UNL A   1      37.415  21.472  24.828  1.00  0.00     0.023 C 
BRANCH  24  25
ATOM     25  C   UNL A   1      38.629  21.408  25.736  1.00  0.00     0.116 C 
BRANCH  25  26
ATOM     26  N   UNL A   1      39.390  20.167  25.617  1.00  0.00    -0.352 N 
ATOM     27  C   UNL A   1      40.699  19.940  25.976  1.00  0.00     0.251 C 
ATOM     28  H   UNL A   1      38.908  19.399  25.233  1.00  0.00     0.163 HD
ATOM     29  O   UNL A   1      41.240  18.861  25.763  1.00  0.00    -0.269 OA
BRANCH  27  30
ATOM     30  C   UNL A   1      41.450  21.058  26.571  1.00  0.00     0.039 A 
ATOM     31  C   UNL A   1      42.026  22.010  25.728  1.00  0.00     0.014 A 
ATOM     32  C   UNL A   1      41.426  21.242  27.955  1.00  0.00     0.014 A 
ATOM     33  C   UNL A   1      42.497  23.202  26.275  1.00  0.00     0.010 A 
ATOM     34  C   UNL A   1      41.788  22.473  28.478  1.00  0.00     0.010 A 
ATOM     35  C   UNL A   1      42.328  23.465  27.645  1.00  0.00    -0.014 A 
BRANCH  35  36
ATOM     36  C   UNL A   1      42.722  24.764  28.243  1.00  0.00     0.031 A 
ATOM     37  C   UNL A   1      41.675  25.818  28.471  1.00  0.00     0.074 A 
ATOM     38  C   UNL A   1      44.020  25.029  28.489  1.00  0.00     0.049 A 
ATOM     39  N   UNL A   1      41.819  27.055  28.866  1.00  0.00    -0.248 NA
ATOM     40  C   UNL A   1      40.283  25.444  28.163  1.00  0.00     0.031 C 
ATOM     41  C   UNL A   1      45.141  24.118  28.239  1.00  0.00     0.029 A 
ATOM     42  N   UNL A   1      44.617  26.153  28.999  1.00  0.00    -0.354 N 
ATOM     43  C   UNL A   1      40.548  27.613  28.818  1.00  0.00     0.074 A 
ATOM     44  C   UNL A   1      39.658  26.602  28.293  1.00  0.00     0.031 C 
ATOM     45  C   UNL A   1      46.283  24.707  28.631  1.00  0.00     0.029 A 
ATOM     46  C   UNL A   1      45.982  26.046  29.126  1.00  0.00     0.049 A 
ATOM     47  H   UNL A   1      44.116  26.962  29.251  1.00  0.00     0.167 HD
ATOM     48  C   UNL A   1      40.150  28.846  29.207  1.00  0.00     0.037 A 
ATOM     49  C   UNL A   1      46.884  26.928  29.595  1.00  0.00     0.037 A 
ATOM     50  C   UNL A   1      41.025  29.823  29.792  1.00  0.00     0.049 A 
ATOM     51  C   UNL A   1      46.409  28.270  30.078  1.00  0.00     0.074 A 
ATOM     52  C   UNL A   1      40.709  31.069  30.301  1.00  0.00     0.029 A 
ATOM     53  N   UNL A   1      42.391  29.654  29.958  1.00  0.00    -0.354 N 
ATOM     54  N   UNL A   1      45.192  28.761  30.092  1.00  0.00    -0.248 NA
ATOM     55  C   UNL A   1      47.430  29.178  30.620  1.00  0.00     0.031 C 
ATOM     56  C   UNL A   1      41.890  31.665  30.756  1.00  0.00     0.029 A 
ATOM     57  C   UNL A   1      42.935  30.776  30.557  1.00  0.00     0.049 A 
ATOM     58  H   UNL A   1      42.899  28.854  29.690  1.00  0.00     0.167 HD
ATOM     59  C   UNL A   1      45.298  30.021  30.663  1.00  0.00     0.074 A 
ATOM     60  C   UNL A   1      46.695  30.215  30.995  1.00  0.00     0.031 C 
ATOM     61  C   UNL A   1      44.326  30.938  30.891  1.00  0.00     0.037 A 
BRANCH  48  62
ATOM     62  C   UNL A   1      38.700  29.185  29.032  1.00  0.00     0.057 A 
ATOM     63  C   UNL A   1      38.182  29.593  27.795  1.00  0.00     0.134 A 
ATOM     64  C   UNL A   1      37.810  29.104  30.110  1.00  0.00     0.134 A 
ATOM     65  F   UNL A   1      38.987  29.710  26.727  1.00  0.00    -0.206 F 
ATOM     66  C   UNL A   1      36.839  29.939  27.643  1.00  0.00     0.040 A 
ATOM     67  C   UNL A   1      36.458  29.420  29.963  1.00  0.00     0.040 A 
ATOM     68  F   UNL A   1      38.239  28.720  31.320  1.00  0.00    -0.206 F 
ATOM     69  C   UNL A   1      35.972  29.847  28.730  1.00  0.00     0.006 A 
ENDBRANCH  48  62
BRANCH  49  70
ATOM     70  C   UNL A   1      48.318  26.558  29.674  1.00  0.00     0.057 A 
ATOM     71  C   UNL A   1      49.203  26.894  28.643  1.00  0.00     0.134 A 
ATOM     72  C   UNL A   1      48.838  25.856  30.768  1.00  0.00     0.134 A 
ATOM     73  F   UNL A   1      48.760  27.551  27.561  1.00  0.00    -0.206 F 
ATOM     74  C   UNL A   1      50.551  26.531  28.685  1.00  0.00     0.040 A 
ATOM     75  C   UNL A   1      50.187  25.505  30.834  1.00  0.00     0.040 A 
ATOM     76  F   UNL A   1      48.043  25.513  31.792  1.00  0.00    -0.206 F 
ATOM     77  C   UNL A   1      51.046  25.836  29.787  1.00  0.00     0.006 A 
ENDBRANCH  49  70
BRANCH  61  78
ATOM     78  C   UNL A   1      44.735  32.216  31.557  1.00  0.00     0.057 A 
ATOM     79  C   UNL A   1      45.118  33.341  30.817  1.00  0.00     0.134 A 
ATOM     80  C   UNL A   1      44.697  32.335  32.952  1.00  0.00     0.134 A 
ATOM     81  F   UNL A   1      45.185  33.284  29.479  1.00  0.00    -0.206 F 
ATOM     82  C   UNL A   1      45.465  34.538  31.444  1.00  0.00     0.040 A 
ATOM     83  C   UNL A   1      45.021  33.533  33.588  1.00  0.00     0.040 A 
ATOM     84  F   UNL A   1      44.331  31.295  33.714  1.00  0.00    -0.206 F 
ATOM     85  C   UNL A   1      45.410  34.638  32.834  1.00  0.00     0.006 A 
ENDBRANCH  61  78
ENDBRANCH  35  36
ENDBRANCH  27  30
ENDBRANCH  25  26
ENDBRANCH  24  25
ENDBRANCH   1  24
TORSDOF 13
ENDMDL
