MODEL 1
REMARK VINA RESULT:      -9.9      0.000      0.000
REMARK SMILES O=C(/C=C/c1ccc(O)c(O)c1)NCCCCNC(=O)c1ccc(-c2c3nc(c(-c4c(F)cccc4F)c4ccc([nH]4)c(-c4c(F)cccc4F)c4nc(c(-c5c(F)cccc5F)c5ccc2[nH]5)C=C4)C=C3)cc1
REMARK SMILES IDX 15 1 14 2 13 3 1 4 2 5 3 7 4 8 5 9 6 10 12 11 7 12 10 13
REMARK SMILES IDX 8 14 11 15 9 17 16 19 17 20 18 21 19 22 20 24 21 25 22 26
REMARK SMILES IDX 74 27 23 28 73 29 24 30 25 31 26 32 67 33 27 34 72 35 66 36
REMARK SMILES IDX 68 37 28 38 71 39 65 40 64 41 29 43 55 44 38 45 54 46 39 47
REMARK SMILES IDX 42 48 53 49 69 50 40 51 41 52 52 54 70 55 43 56 30 57 31 58
REMARK SMILES IDX 36 59 32 60 33 61 35 62 37 63 34 64 56 65 57 66 62 67 58 68
REMARK SMILES IDX 59 69 61 70 63 71 60 72 44 73 45 74 50 75 46 76 47 77 49 78
REMARK SMILES IDX 51 79 48 80
REMARK H PARENT 13 6 11 16 9 18 18 23 68 42 42 53
REMARK Flexibility Score: inf
ROOT
ATOM      1  C   UNL A   1      33.706  37.191  32.074  1.00  0.00     0.023 C 
ENDROOT
BRANCH   1   2
ATOM      2  C   UNL A   1      33.902  36.416  33.377  1.00  0.00     0.116 C 
BRANCH   2   3
ATOM      3  N   UNL A   1      34.840  35.319  33.231  1.00  0.00    -0.353 N 
ATOM      4  O   UNL A   1      33.258  33.658  33.236  1.00  0.00    -0.270 OA
ATOM      5  C   UNL A   1      34.431  34.012  33.191  1.00  0.00     0.243 C 
ATOM      6  H   UNL A   1      35.801  35.521  33.160  1.00  0.00     0.163 HD
BRANCH   5   7
ATOM      7  C   UNL A   1      35.491  32.978  33.055  1.00  0.00     0.072 C 
ATOM      8  C   UNL A   1      36.382  32.601  33.985  1.00  0.00     0.014 C 
BRANCH   8   9
ATOM      9  C   UNL A   1      37.346  31.510  33.769  1.00  0.00    -0.022 A 
ATOM     10  C   UNL A   1      38.574  31.447  34.450  1.00  0.00     0.012 A 
ATOM     11  C   UNL A   1      37.009  30.482  32.879  1.00  0.00     0.058 A 
ATOM     12  C   UNL A   1      39.468  30.394  34.224  1.00  0.00     0.051 A 
ATOM     13  C   UNL A   1      37.902  29.441  32.660  1.00  0.00     0.157 A 
ATOM     14  C   UNL A   1      39.125  29.396  33.322  1.00  0.00     0.157 A 
BRANCH  13  15
ATOM     15  O   UNL A   1      37.567  28.454  31.778  1.00  0.00    -0.504 OA
ATOM     16  H   UNL A   1      36.819  28.556  31.222  1.00  0.00     0.293 HD
ENDBRANCH  13  15
BRANCH  14  17
ATOM     17  O   UNL A   1      39.957  28.345  33.052  1.00  0.00    -0.504 OA
ATOM     18  H   UNL A   1      39.911  27.913  32.222  1.00  0.00     0.293 HD
ENDBRANCH  14  17
ENDBRANCH   8   9
ENDBRANCH   5   7
ENDBRANCH   2   3
ENDBRANCH   1   2
BRANCH   1  19
ATOM     19  C   UNL A   1      32.803  36.510  31.043  1.00  0.00     0.023 C 
BRANCH  19  20
ATOM     20  C   UNL A   1      33.360  36.439  29.624  1.00  0.00     0.116 C 
BRANCH  20  21
ATOM     21  N   UNL A   1      32.591  35.569  28.751  1.00  0.00    -0.352 N 
ATOM     22  C   UNL A   1      32.938  34.363  28.189  1.00  0.00     0.251 C 
ATOM     23  H   UNL A   1      31.687  35.891  28.528  1.00  0.00     0.163 HD
ATOM     24  O   UNL A   1      32.196  33.836  27.363  1.00  0.00    -0.269 OA
BRANCH  22  25
ATOM     25  C   UNL A   1      34.217  33.708  28.545  1.00  0.00     0.039 A 
ATOM     26  C   UNL A   1      35.387  34.125  27.904  1.00  0.00     0.014 A 
ATOM     27  C   UNL A   1      34.272  32.689  29.500  1.00  0.00     0.014 A 
ATOM     28  C   UNL A   1      36.617  33.573  28.272  1.00  0.00     0.010 A 
ATOM     29  C   UNL A   1      35.506  32.195  29.920  1.00  0.00     0.010 A 
ATOM     30  C   UNL A   1      36.693  32.634  29.314  1.00  0.00    -0.014 A 
BRANCH  30  31
ATOM     31  C   UNL A   1      38.003  32.113  29.790  1.00  0.00     0.031 A 
ATOM     32  C   UNL A   1      38.507  30.775  29.324  1.00  0.00     0.074 A 
ATOM     33  C   UNL A   1      38.711  32.818  30.694  1.00  0.00     0.049 A 
ATOM     34  N   UNL A   1      39.591  30.130  29.679  1.00  0.00    -0.248 NA
ATOM     35  C   UNL A   1      37.673  30.053  28.351  1.00  0.00     0.031 C 
ATOM     36  C   UNL A   1      38.315  34.109  31.259  1.00  0.00     0.029 A 
ATOM     37  N   UNL A   1      39.910  32.543  31.305  1.00  0.00    -0.354 N 
ATOM     38  C   UNL A   1      39.560  28.927  28.986  1.00  0.00     0.074 A 
ATOM     39  C   UNL A   1      38.326  28.908  28.231  1.00  0.00     0.031 C 
ATOM     40  C   UNL A   1      39.266  34.526  32.112  1.00  0.00     0.029 A 
ATOM     41  C   UNL A   1      40.314  33.514  32.190  1.00  0.00     0.049 A 
ATOM     42  H   UNL A   1      40.431  31.727  31.127  1.00  0.00     0.167 HD
ATOM     43  C   UNL A   1      40.484  27.936  28.963  1.00  0.00     0.037 A 
ATOM     44  C   UNL A   1      41.401  33.579  32.983  1.00  0.00     0.037 A 
ATOM     45  C   UNL A   1      41.722  27.964  29.700  1.00  0.00     0.049 A 
ATOM     46  C   UNL A   1      42.401  32.456  32.957  1.00  0.00     0.074 A 
ATOM     47  C   UNL A   1      42.750  27.038  29.692  1.00  0.00     0.029 A 
ATOM     48  N   UNL A   1      42.096  28.967  30.583  1.00  0.00    -0.354 N 
ATOM     49  N   UNL A   1      42.393  31.358  32.240  1.00  0.00    -0.248 NA
ATOM     50  C   UNL A   1      43.564  32.584  33.846  1.00  0.00     0.031 C 
ATOM     51  C   UNL A   1      43.719  27.451  30.611  1.00  0.00     0.029 A 
ATOM     52  C   UNL A   1      43.325  28.667  31.147  1.00  0.00     0.049 A 
ATOM     53  H   UNL A   1      41.565  29.773  30.778  1.00  0.00     0.167 HD
ATOM     54  C   UNL A   1      43.562  30.682  32.568  1.00  0.00     0.074 A 
ATOM     55  C   UNL A   1      44.261  31.501  33.537  1.00  0.00     0.031 C 
ATOM     56  C   UNL A   1      44.016  29.491  32.105  1.00  0.00     0.037 A 
BRANCH  43  57
ATOM     57  C   UNL A   1      40.190  26.730  28.116  1.00  0.00     0.057 A 
ATOM     58  C   UNL A   1      40.735  26.574  26.834  1.00  0.00     0.134 A 
ATOM     59  C   UNL A   1      39.384  25.693  28.605  1.00  0.00     0.134 A 
ATOM     60  F   UNL A   1      41.508  27.532  26.302  1.00  0.00    -0.206 F 
ATOM     61  C   UNL A   1      40.464  25.445  26.058  1.00  0.00     0.040 A 
ATOM     62  C   UNL A   1      39.131  24.546  27.850  1.00  0.00     0.040 A 
ATOM     63  F   UNL A   1      38.838  25.772  29.827  1.00  0.00    -0.206 F 
ATOM     64  C   UNL A   1      39.665  24.424  26.568  1.00  0.00     0.006 A 
ENDBRANCH  43  57
BRANCH  44  65
ATOM     65  C   UNL A   1      41.616  34.761  33.858  1.00  0.00     0.057 A 
ATOM     66  C   UNL A   1      42.441  35.817  33.453  1.00  0.00     0.134 A 
ATOM     67  C   UNL A   1      41.018  34.858  35.120  1.00  0.00     0.134 A 
ATOM     68  F   UNL A   1      43.059  35.773  32.264  1.00  0.00    -0.206 F 
ATOM     69  C   UNL A   1      42.682  36.916  34.280  1.00  0.00     0.040 A 
ATOM     70  C   UNL A   1      41.227  35.964  35.945  1.00  0.00     0.040 A 
ATOM     71  F   UNL A   1      40.211  33.882  35.564  1.00  0.00    -0.206 F 
ATOM     72  C   UNL A   1      42.069  36.993  35.529  1.00  0.00     0.006 A 
ENDBRANCH  44  65
BRANCH  56  73
ATOM     73  C   UNL A   1      45.351  29.018  32.608  1.00  0.00     0.057 A 
ATOM     74  C   UNL A   1      45.467  28.127  33.682  1.00  0.00     0.134 A 
ATOM     75  C   UNL A   1      46.533  29.433  31.982  1.00  0.00     0.134 A 
ATOM     76  F   UNL A   1      44.375  27.700  34.334  1.00  0.00    -0.206 F 
ATOM     77  C   UNL A   1      46.713  27.686  34.131  1.00  0.00     0.040 A 
ATOM     78  C   UNL A   1      47.782  28.976  32.403  1.00  0.00     0.040 A 
ATOM     79  F   UNL A   1      46.493  30.280  30.941  1.00  0.00    -0.206 F 
ATOM     80  C   UNL A   1      47.875  28.105  33.486  1.00  0.00     0.006 A 
ENDBRANCH  56  73
ENDBRANCH  30  31
ENDBRANCH  22  25
ENDBRANCH  20  21
ENDBRANCH  19  20
ENDBRANCH   1  19
TORSDOF 14
ENDMDL
MODEL 2
REMARK VINA RESULT:      -9.6      0.538      6.491
REMARK SMILES O=C(/C=C/c1ccc(O)c(O)c1)NCCCCNC(=O)c1ccc(-c2c3nc(c(-c4c(F)cccc4F)c4ccc([nH]4)c(-c4c(F)cccc4F)c4nc(c(-c5c(F)cccc5F)c5ccc2[nH]5)C=C4)C=C3)cc1
REMARK SMILES IDX 15 1 14 2 13 3 1 4 2 5 3 7 4 8 5 9 6 10 12 11 7 12 10 13
REMARK SMILES IDX 8 14 11 15 9 17 16 19 17 20 18 21 19 22 20 24 21 25 22 26
REMARK SMILES IDX 74 27 23 28 73 29 24 30 25 31 26 32 67 33 27 34 72 35 66 36
REMARK SMILES IDX 68 37 28 38 71 39 65 40 64 41 29 43 55 44 38 45 54 46 39 47
REMARK SMILES IDX 42 48 53 49 69 50 40 51 41 52 52 54 70 55 43 56 30 57 31 58
REMARK SMILES IDX 36 59 32 60 33 61 35 62 37 63 34 64 56 65 57 66 62 67 58 68
REMARK SMILES IDX 59 69 61 70 63 71 60 72 44 73 45 74 50 75 46 76 47 77 49 78
REMARK SMILES IDX 51 79 48 80
REMARK H PARENT 13 6 11 16 9 18 18 23 68 42 42 53
REMARK Flexibility Score: inf
ROOT
ATOM      1  C   UNL A   1      33.601  37.181  31.790  1.00  0.00     0.023 C 
ENDROOT
BRANCH   1   2
ATOM      2  C   UNL A   1      33.690  36.600  33.201  1.00  0.00     0.116 C 
BRANCH   2   3
ATOM      3  N   UNL A   1      34.831  35.718  33.362  1.00  0.00    -0.353 N 
ATOM      4  O   UNL A   1      33.642  33.764  33.178  1.00  0.00    -0.270 OA
ATOM      5  C   UNL A   1      34.702  34.353  33.354  1.00  0.00     0.243 C 
ATOM      6  H   UNL A   1      35.725  36.112  33.482  1.00  0.00     0.163 HD
BRANCH   5   7
ATOM      7  C   UNL A   1      35.944  33.558  33.547  1.00  0.00     0.072 C 
ATOM      8  C   UNL A   1      36.054  32.221  33.595  1.00  0.00     0.014 C 
BRANCH   8   9
ATOM      9  C   UNL A   1      37.349  31.532  33.718  1.00  0.00    -0.022 A 
ATOM     10  C   UNL A   1      38.370  31.996  34.565  1.00  0.00     0.012 A 
ATOM     11  C   UNL A   1      37.553  30.353  32.989  1.00  0.00     0.058 A 
ATOM     12  C   UNL A   1      39.589  31.315  34.661  1.00  0.00     0.051 A 
ATOM     13  C   UNL A   1      38.767  29.684  33.090  1.00  0.00     0.157 A 
ATOM     14  C   UNL A   1      39.781  30.161  33.915  1.00  0.00     0.157 A 
BRANCH  13  15
ATOM     15  O   UNL A   1      38.958  28.545  32.362  1.00  0.00    -0.504 OA
ATOM     16  H   UNL A   1      38.322  28.283  31.725  1.00  0.00     0.293 HD
ENDBRANCH  13  15
BRANCH  14  17
ATOM     17  O   UNL A   1      40.950  29.454  33.959  1.00  0.00    -0.504 OA
ATOM     18  H   UNL A   1      40.933  28.518  33.918  1.00  0.00     0.293 HD
ENDBRANCH  14  17
ENDBRANCH   8   9
ENDBRANCH   5   7
ENDBRANCH   2   3
ENDBRANCH   1   2
BRANCH   1  19
ATOM     19  C   UNL A   1      32.723  36.391  30.816  1.00  0.00     0.023 C 
BRANCH  19  20
ATOM     20  C   UNL A   1      33.145  36.451  29.351  1.00  0.00     0.116 C 
BRANCH  20  21
ATOM     21  N   UNL A   1      32.537  35.411  28.538  1.00  0.00    -0.352 N 
ATOM     22  C   UNL A   1      33.051  34.200  28.138  1.00  0.00     0.251 C 
ATOM     23  H   UNL A   1      31.623  35.602  28.228  1.00  0.00     0.163 HD
ATOM     24  O   UNL A   1      32.430  33.507  27.335  1.00  0.00    -0.269 OA
BRANCH  22  25
ATOM     25  C   UNL A   1      34.364  33.737  28.641  1.00  0.00     0.039 A 
ATOM     26  C   UNL A   1      34.400  32.934  29.785  1.00  0.00     0.014 A 
ATOM     27  C   UNL A   1      35.555  34.090  28.000  1.00  0.00     0.014 A 
ATOM     28  C   UNL A   1      35.619  32.425  30.240  1.00  0.00     0.010 A 
ATOM     29  C   UNL A   1      36.759  33.520  28.410  1.00  0.00     0.010 A 
ATOM     30  C   UNL A   1      36.805  32.679  29.532  1.00  0.00    -0.014 A 
BRANCH  30  31
ATOM     31  C   UNL A   1      38.096  32.061  29.941  1.00  0.00     0.031 A 
ATOM     32  C   UNL A   1      39.046  32.803  30.841  1.00  0.00     0.074 A 
ATOM     33  C   UNL A   1      38.443  30.856  29.449  1.00  0.00     0.049 A 
ATOM     34  N   UNL A   1      40.240  32.455  31.252  1.00  0.00    -0.248 NA
ATOM     35  C   UNL A   1      38.608  34.122  31.325  1.00  0.00     0.031 C 
ATOM     36  C   UNL A   1      37.633  30.049  28.534  1.00  0.00     0.029 A 
ATOM     37  N   UNL A   1      39.574  30.101  29.643  1.00  0.00    -0.354 N 
ATOM     38  C   UNL A   1      40.698  33.513  32.026  1.00  0.00     0.074 A 
ATOM     39  C   UNL A   1      39.677  34.537  31.986  1.00  0.00     0.031 C 
ATOM     40  C   UNL A   1      38.281  28.903  28.268  1.00  0.00     0.029 A 
ATOM     41  C   UNL A   1      39.568  28.912  28.954  1.00  0.00     0.049 A 
ATOM     42  H   UNL A   1      40.320  30.386  30.219  1.00  0.00     0.167 HD
ATOM     43  C   UNL A   1      41.855  33.614  32.724  1.00  0.00     0.037 A 
ATOM     44  C   UNL A   1      40.499  27.940  28.876  1.00  0.00     0.037 A 
ATOM     45  C   UNL A   1      42.862  32.586  32.779  1.00  0.00     0.049 A 
ATOM     46  C   UNL A   1      41.785  28.087  29.642  1.00  0.00     0.074 A 
ATOM     47  C   UNL A   1      44.039  32.570  33.510  1.00  0.00     0.029 A 
ATOM     48  N   UNL A   1      42.818  31.395  32.070  1.00  0.00    -0.354 N 
ATOM     49  N   UNL A   1      42.172  29.062  30.429  1.00  0.00    -0.248 NA
ATOM     50  C   UNL A   1      42.760  26.996  29.513  1.00  0.00     0.031 C 
ATOM     51  C   UNL A   1      44.731  31.396  33.200  1.00  0.00     0.029 A 
ATOM     52  C   UNL A   1      43.959  30.650  32.324  1.00  0.00     0.049 A 
ATOM     53  H   UNL A   1      42.083  31.119  31.476  1.00  0.00     0.167 HD
ATOM     54  C   UNL A   1      43.420  28.687  30.912  1.00  0.00     0.074 A 
ATOM     55  C   UNL A   1      43.716  27.390  30.341  1.00  0.00     0.031 C 
ATOM     56  C   UNL A   1      44.243  29.357  31.756  1.00  0.00     0.037 A 
BRANCH  43  57
ATOM     57  C   UNL A   1      42.099  34.888  33.484  1.00  0.00     0.057 A 
ATOM     58  C   UNL A   1      41.595  35.088  34.776  1.00  0.00     0.134 A 
ATOM     59  C   UNL A   1      42.882  35.910  32.932  1.00  0.00     0.134 A 
ATOM     60  F   UNL A   1      40.830  34.153  35.361  1.00  0.00    -0.206 F 
ATOM     61  C   UNL A   1      41.834  36.271  35.479  1.00  0.00     0.040 A 
ATOM     62  C   UNL A   1      43.153  37.085  33.636  1.00  0.00     0.040 A 
ATOM     63  F   UNL A   1      43.404  35.782  31.703  1.00  0.00    -0.206 F 
ATOM     64  C   UNL A   1      42.622  37.271  34.911  1.00  0.00     0.006 A 
ENDBRANCH  43  57
BRANCH  44  65
ATOM     65  C   UNL A   1      40.243  26.729  28.055  1.00  0.00     0.057 A 
ATOM     66  C   UNL A   1      40.799  26.593  26.777  1.00  0.00     0.134 A 
ATOM     67  C   UNL A   1      39.430  25.687  28.517  1.00  0.00     0.134 A 
ATOM     68  F   UNL A   1      41.571  27.565  26.270  1.00  0.00    -0.206 F 
ATOM     69  C   UNL A   1      40.538  25.477  25.980  1.00  0.00     0.040 A 
ATOM     70  C   UNL A   1      39.183  24.553  27.742  1.00  0.00     0.040 A 
ATOM     71  F   UNL A   1      38.871  25.753  29.735  1.00  0.00    -0.206 F 
ATOM     72  C   UNL A   1      39.731  24.450  26.465  1.00  0.00     0.006 A 
ENDBRANCH  44  65
BRANCH  56  73
ATOM     73  C   UNL A   1      45.527  28.682  32.148  1.00  0.00     0.057 A 
ATOM     74  C   UNL A   1      45.593  27.767  33.207  1.00  0.00     0.134 A 
ATOM     75  C   UNL A   1      46.705  28.924  31.430  1.00  0.00     0.134 A 
ATOM     76  F   UNL A   1      44.504  27.500  33.944  1.00  0.00    -0.206 F 
ATOM     77  C   UNL A   1      46.790  27.138  33.552  1.00  0.00     0.040 A 
ATOM     78  C   UNL A   1      47.900  28.277  31.746  1.00  0.00     0.040 A 
ATOM     79  F   UNL A   1      46.710  29.782  30.398  1.00  0.00    -0.206 F 
ATOM     80  C   UNL A   1      47.946  27.386  32.816  1.00  0.00     0.006 A 
ENDBRANCH  56  73
ENDBRANCH  30  31
ENDBRANCH  22  25
ENDBRANCH  20  21
ENDBRANCH  19  20
ENDBRANCH   1  19
TORSDOF 14
ENDMDL
MODEL 3
REMARK VINA RESULT:      -8.8      4.638      9.922
REMARK SMILES O=C(/C=C/c1ccc(O)c(O)c1)NCCCCNC(=O)c1ccc(-c2c3nc(c(-c4c(F)cccc4F)c4ccc([nH]4)c(-c4c(F)cccc4F)c4nc(c(-c5c(F)cccc5F)c5ccc2[nH]5)C=C4)C=C3)cc1
REMARK SMILES IDX 15 1 14 2 13 3 1 4 2 5 3 7 4 8 5 9 6 10 12 11 7 12 10 13
REMARK SMILES IDX 8 14 11 15 9 17 16 19 17 20 18 21 19 22 20 24 21 25 22 26
REMARK SMILES IDX 74 27 23 28 73 29 24 30 25 31 26 32 67 33 27 34 72 35 66 36
REMARK SMILES IDX 68 37 28 38 71 39 65 40 64 41 29 43 55 44 38 45 54 46 39 47
REMARK SMILES IDX 42 48 53 49 69 50 40 51 41 52 52 54 70 55 43 56 30 57 31 58
REMARK SMILES IDX 36 59 32 60 33 61 35 62 37 63 34 64 56 65 57 66 62 67 58 68
REMARK SMILES IDX 59 69 61 70 63 71 60 72 44 73 45 74 50 75 46 76 47 77 49 78
REMARK SMILES IDX 51 79 48 80
REMARK H PARENT 13 6 11 16 9 18 18 23 68 42 42 53
REMARK Flexibility Score: inf
ROOT
ATOM      1  C   UNL A   1      32.589  26.541  26.457  1.00  0.00     0.023 C 
ENDROOT
BRANCH   1   2
ATOM      2  C   UNL A   1      31.248  26.089  25.879  1.00  0.00     0.116 C 
BRANCH   2   3
ATOM      3  N   UNL A   1      30.597  27.134  25.112  1.00  0.00    -0.353 N 
ATOM      4  O   UNL A   1      30.465  25.942  23.157  1.00  0.00    -0.270 OA
ATOM      5  C   UNL A   1      30.273  26.973  23.791  1.00  0.00     0.243 C 
ATOM      6  H   UNL A   1      30.382  27.986  25.556  1.00  0.00     0.163 HD
BRANCH   5   7
ATOM      7  C   UNL A   1      29.623  28.126  23.111  1.00  0.00     0.072 C 
ATOM      8  C   UNL A   1      29.752  29.427  23.415  1.00  0.00     0.014 C 
BRANCH   8   9
ATOM      9  C   UNL A   1      29.117  30.495  22.627  1.00  0.00    -0.022 A 
ATOM     10  C   UNL A   1      28.554  30.262  21.360  1.00  0.00     0.012 A 
ATOM     11  C   UNL A   1      29.043  31.782  23.177  1.00  0.00     0.058 A 
ATOM     12  C   UNL A   1      27.954  31.300  20.637  1.00  0.00     0.051 A 
ATOM     13  C   UNL A   1      28.447  32.806  22.452  1.00  0.00     0.157 A 
ATOM     14  C   UNL A   1      27.910  32.572  21.190  1.00  0.00     0.157 A 
BRANCH  13  15
ATOM     15  O   UNL A   1      28.395  34.059  22.994  1.00  0.00    -0.504 OA
ATOM     16  H   UNL A   1      28.999  34.717  22.710  1.00  0.00     0.293 HD
ENDBRANCH  13  15
BRANCH  14  17
ATOM     17  O   UNL A   1      27.345  33.630  20.533  1.00  0.00    -0.504 OA
ATOM     18  H   UNL A   1      27.461  33.722  19.608  1.00  0.00     0.293 HD
ENDBRANCH  14  17
ENDBRANCH   8   9
ENDBRANCH   5   7
ENDBRANCH   2   3
ENDBRANCH   1   2
BRANCH   1  19
ATOM     19  C   UNL A   1      32.582  27.927  27.107  1.00  0.00     0.023 C 
BRANCH  19  20
ATOM     20  C   UNL A   1      33.865  28.736  26.948  1.00  0.00     0.116 C 
BRANCH  20  21
ATOM     21  N   UNL A   1      33.803  30.039  27.589  1.00  0.00    -0.352 N 
ATOM     22  C   UNL A   1      34.746  30.685  28.354  1.00  0.00     0.251 C 
ATOM     23  H   UNL A   1      32.961  30.531  27.457  1.00  0.00     0.163 HD
ATOM     24  O   UNL A   1      34.456  31.733  28.926  1.00  0.00    -0.269 OA
BRANCH  22  25
ATOM     25  C   UNL A   1      36.100  30.110  28.521  1.00  0.00     0.039 A 
ATOM     26  C   UNL A   1      37.006  30.206  27.461  1.00  0.00     0.014 A 
ATOM     27  C   UNL A   1      36.480  29.476  29.707  1.00  0.00     0.014 A 
ATOM     28  C   UNL A   1      38.313  29.735  27.618  1.00  0.00     0.010 A 
ATOM     29  C   UNL A   1      37.804  29.076  29.888  1.00  0.00     0.010 A 
ATOM     30  C   UNL A   1      38.736  29.205  28.847  1.00  0.00    -0.014 A 
BRANCH  30  31
ATOM     31  C   UNL A   1      40.149  28.795  29.066  1.00  0.00     0.031 A 
ATOM     32  C   UNL A   1      41.134  29.748  29.687  1.00  0.00     0.074 A 
ATOM     33  C   UNL A   1      40.564  27.583  28.645  1.00  0.00     0.049 A 
ATOM     34  N   UNL A   1      42.417  29.592  29.897  1.00  0.00    -0.248 NA
ATOM     35  C   UNL A   1      40.614  31.059  30.105  1.00  0.00     0.031 C 
ATOM     36  C   UNL A   1      39.723  26.581  27.990  1.00  0.00     0.029 A 
ATOM     37  N   UNL A   1      41.803  26.992  28.698  1.00  0.00    -0.354 N 
ATOM     38  C   UNL A   1      42.858  30.784  30.455  1.00  0.00     0.074 A 
ATOM     39  C   UNL A   1      41.717  31.673  30.504  1.00  0.00     0.031 C 
ATOM     40  C   UNL A   1      40.462  25.490  27.726  1.00  0.00     0.029 A 
ATOM     41  C   UNL A   1      41.836  25.732  28.150  1.00  0.00     0.049 A 
ATOM     42  H   UNL A   1      42.593  27.430  29.090  1.00  0.00     0.167 HD
ATOM     43  C   UNL A   1      44.095  31.104  30.907  1.00  0.00     0.037 A 
ATOM     44  C   UNL A   1      42.861  24.870  27.999  1.00  0.00     0.037 A 
ATOM     45  C   UNL A   1      45.225  30.212  30.877  1.00  0.00     0.049 A 
ATOM     46  C   UNL A   1      44.230  25.258  28.487  1.00  0.00     0.074 A 
ATOM     47  C   UNL A   1      46.502  30.422  31.368  1.00  0.00     0.029 A 
ATOM     48  N   UNL A   1      45.218  28.943  30.317  1.00  0.00    -0.354 N 
ATOM     49  N   UNL A   1      44.614  26.362  29.080  1.00  0.00    -0.248 NA
ATOM     50  C   UNL A   1      45.305  24.277  28.289  1.00  0.00     0.031 C 
ATOM     51  C   UNL A   1      47.281  29.304  31.056  1.00  0.00     0.029 A 
ATOM     52  C   UNL A   1      46.475  28.370  30.425  1.00  0.00     0.049 A 
ATOM     53  H   UNL A   1      44.434  28.512  29.905  1.00  0.00     0.167 HD
ATOM     54  C   UNL A   1      45.966  26.195  29.354  1.00  0.00     0.074 A 
ATOM     55  C   UNL A   1      46.330  24.878  28.876  1.00  0.00     0.031 C 
ATOM     56  C   UNL A   1      46.827  27.056  29.952  1.00  0.00     0.037 A 
BRANCH  43  57
ATOM     57  C   UNL A   1      44.294  32.483  31.469  1.00  0.00     0.057 A 
ATOM     58  C   UNL A   1      44.173  32.750  32.840  1.00  0.00     0.134 A 
ATOM     59  C   UNL A   1      44.652  33.551  30.635  1.00  0.00     0.134 A 
ATOM     60  F   UNL A   1      43.825  31.775  33.694  1.00  0.00    -0.206 F 
ATOM     61  C   UNL A   1      44.370  34.032  33.356  1.00  0.00     0.040 A 
ATOM     62  C   UNL A   1      44.881  34.831  31.143  1.00  0.00     0.040 A 
ATOM     63  F   UNL A   1      44.794  33.366  29.314  1.00  0.00    -0.206 F 
ATOM     64  C   UNL A   1      44.732  35.076  32.507  1.00  0.00     0.006 A 
ENDBRANCH  43  57
BRANCH  44  65
ATOM     65  C   UNL A   1      42.631  23.543  27.372  1.00  0.00     0.057 A 
ATOM     66  C   UNL A   1      42.805  23.355  25.995  1.00  0.00     0.134 A 
ATOM     67  C   UNL A   1      42.219  22.437  28.126  1.00  0.00     0.134 A 
ATOM     68  F   UNL A   1      43.180  24.380  25.217  1.00  0.00    -0.206 F 
ATOM     69  C   UNL A   1      42.557  22.123  25.387  1.00  0.00     0.040 A 
ATOM     70  C   UNL A   1      41.994  21.193  27.535  1.00  0.00     0.040 A 
ATOM     71  F   UNL A   1      42.038  22.549  29.450  1.00  0.00    -0.206 F 
ATOM     72  C   UNL A   1      42.155  21.035  26.160  1.00  0.00     0.006 A 
ENDBRANCH  44  65
BRANCH  56  73
ATOM     73  C   UNL A   1      48.239  26.586  30.161  1.00  0.00     0.057 A 
ATOM     74  C   UNL A   1      48.622  25.870  31.302  1.00  0.00     0.134 A 
ATOM     75  C   UNL A   1      49.217  26.822  29.187  1.00  0.00     0.134 A 
ATOM     76  F   UNL A   1      47.737  25.622  32.279  1.00  0.00    -0.206 F 
ATOM     77  C   UNL A   1      49.935  25.428  31.478  1.00  0.00     0.040 A 
ATOM     78  C   UNL A   1      50.525  26.358  29.337  1.00  0.00     0.040 A 
ATOM     79  F   UNL A   1      48.915  27.494  28.065  1.00  0.00    -0.206 F 
ATOM     80  C   UNL A   1      50.889  25.666  30.490  1.00  0.00     0.006 A 
ENDBRANCH  56  73
ENDBRANCH  30  31
ENDBRANCH  22  25
ENDBRANCH  20  21
ENDBRANCH  19  20
ENDBRANCH   1  19
TORSDOF 14
ENDMDL
