MODEL 1
REMARK VINA RESULT:     -10.3      0.000      0.000
REMARK SMILES CC[NH2+][C@]1(C(=O)NCCCCNC(=O)c2ccc(-c3c4nc(c(-c5c(F)cccc5F)c5ccc([nH]5)c(-c5c(F)cccc5F)c5nc(c(-c6c(F)cccc6F)c6ccc3[nH]6)C=C5)C=C4)cc2)CC[C@H](OCC)C1
REMARK SMILES IDX 9 1 8 2 7 3 5 4 6 5 4 7 69 8 75 9 70 10 71 11 3 12 2 15 1 16
REMARK SMILES IDX 72 17 73 18 74 19 10 20 11 21 12 22 13 23 14 25 15 26 16 27
REMARK SMILES IDX 68 28 17 29 67 30 18 31 19 32 20 33 61 34 21 35 66 36 60 37
REMARK SMILES IDX 62 38 22 39 65 40 59 41 58 42 23 44 49 45 32 46 48 47 33 48
REMARK SMILES IDX 36 49 47 50 63 51 34 52 35 53 46 55 64 56 37 57 24 58 25 59
REMARK SMILES IDX 30 60 26 61 27 62 29 63 31 64 28 65 50 66 51 67 56 68 52 69
REMARK SMILES IDX 53 70 55 71 57 72 54 73 38 74 39 75 44 76 40 77 41 78 43 79
REMARK SMILES IDX 45 80 42 81
REMARK H PARENT 7 6 3 13 3 14 12 24 62 43 36 54
REMARK Flexibility Score: inf
ROOT
ATOM      1  C   UNL A   1      31.771  30.430  26.677  1.00  0.00     0.023 C 
ENDROOT
BRANCH   1   2
ATOM      2  C   UNL A   1      32.960  29.995  25.833  1.00  0.00     0.116 C 
BRANCH   2   3
ATOM      3  N   UNL A   1      32.624  29.726  24.449  1.00  0.00    -0.351 N 
ATOM      4  C   UNL A   1      32.144  28.630  23.795  1.00  0.00     0.281 C 
ATOM      5  O   UNL A   1      31.706  28.866  22.658  1.00  0.00    -0.268 OA
ATOM      6  H   UNL A   1      32.772  30.498  23.857  1.00  0.00     0.163 HD
BRANCH   4   7
ATOM      7  C   UNL A   1      32.225  27.147  24.325  1.00  0.00     0.178 C 
ATOM      8  C   UNL A   1      33.516  26.766  25.056  1.00  0.00     0.082 C 
ATOM      9  C   UNL A   1      31.178  27.014  25.466  1.00  0.00     0.111 C 
ATOM     10  C   UNL A   1      33.159  25.690  26.055  1.00  0.00     0.039 C 
ATOM     11  C   UNL A   1      31.764  26.067  26.528  1.00  0.00     0.125 C 
BRANCH   7  12
ATOM     12  N   UNL A   1      31.931  26.294  23.145  1.00  0.00    -0.334 N 
ATOM     13  H   UNL A   1      31.395  25.494  23.479  1.00  0.00     0.347 HD
ATOM     14  H   UNL A   1      31.452  26.921  22.500  1.00  0.00     0.347 HD
BRANCH  12  15
ATOM     15  C   UNL A   1      33.044  25.768  22.366  1.00  0.00     0.257 C 
ATOM     16  C   UNL A   1      32.644  25.619  20.904  1.00  0.00     0.071 C 
ENDBRANCH  12  15
ENDBRANCH   7  12
BRANCH  11  17
ATOM     17  O   UNL A   1      31.022  24.864  26.681  1.00  0.00    -0.378 OA
BRANCH  17  18
ATOM     18  C   UNL A   1      31.774  23.672  26.492  1.00  0.00     0.157 C 
ATOM     19  C   UNL A   1      31.102  22.758  25.483  1.00  0.00     0.035 C 
ENDBRANCH  17  18
ENDBRANCH  11  17
ENDBRANCH   4   7
ENDBRANCH   2   3
ENDBRANCH   1   2
BRANCH   1  20
ATOM     20  C   UNL A   1      31.541  31.934  26.766  1.00  0.00     0.023 C 
BRANCH  20  21
ATOM     21  C   UNL A   1      32.733  32.767  27.226  1.00  0.00     0.116 C 
BRANCH  21  22
ATOM     22  N   UNL A   1      32.394  34.132  27.604  1.00  0.00    -0.352 N 
ATOM     23  C   UNL A   1      32.999  34.955  28.528  1.00  0.00     0.251 C 
ATOM     24  H   UNL A   1      31.623  34.523  27.131  1.00  0.00     0.163 HD
ATOM     25  O   UNL A   1      32.540  36.063  28.769  1.00  0.00    -0.269 OA
BRANCH  23  26
ATOM     26  C   UNL A   1      34.182  34.465  29.265  1.00  0.00     0.039 A 
ATOM     27  C   UNL A   1      33.990  33.784  30.470  1.00  0.00     0.014 A 
ATOM     28  C   UNL A   1      35.465  34.625  28.739  1.00  0.00     0.014 A 
ATOM     29  C   UNL A   1      35.080  33.183  31.102  1.00  0.00     0.010 A 
ATOM     30  C   UNL A   1      36.537  33.963  29.329  1.00  0.00     0.010 A 
ATOM     31  C   UNL A   1      36.353  33.228  30.511  1.00  0.00    -0.014 A 
BRANCH  31  32
ATOM     32  C   UNL A   1      37.504  32.498  31.100  1.00  0.00     0.031 A 
ATOM     33  C   UNL A   1      38.112  32.968  32.391  1.00  0.00     0.074 A 
ATOM     34  C   UNL A   1      38.053  31.465  30.429  1.00  0.00     0.049 A 
ATOM     35  N   UNL A   1      39.172  32.522  33.016  1.00  0.00    -0.248 NA
ATOM     36  C   UNL A   1      37.462  34.111  33.054  1.00  0.00     0.031 C 
ATOM     37  C   UNL A   1      37.592  30.947  29.139  1.00  0.00     0.029 A 
ATOM     38  N   UNL A   1      39.131  30.671  30.734  1.00  0.00    -0.354 N 
ATOM     39  C   UNL A   1      39.331  33.345  34.123  1.00  0.00     0.074 A 
ATOM     40  C   UNL A   1      38.285  34.340  34.068  1.00  0.00     0.031 C 
ATOM     41  C   UNL A   1      38.369  29.914  28.774  1.00  0.00     0.029 A 
ATOM     42  C   UNL A   1      39.404  29.718  29.783  1.00  0.00     0.049 A 
ATOM     43  H   UNL A   1      39.660  30.777  31.559  1.00  0.00     0.167 HD
ATOM     44  C   UNL A   1      40.255  33.263  35.109  1.00  0.00     0.037 A 
ATOM     45  C   UNL A   1      40.382  28.795  29.729  1.00  0.00     0.037 A 
ATOM     46  C   UNL A   1      41.263  32.241  35.191  1.00  0.00     0.049 A 
ATOM     47  C   UNL A   1      41.380  28.715  30.851  1.00  0.00     0.074 A 
ATOM     48  C   UNL A   1      42.183  32.019  36.202  1.00  0.00     0.029 A 
ATOM     49  N   UNL A   1      41.482  31.268  34.228  1.00  0.00    -0.354 N 
ATOM     50  N   UNL A   1      41.463  29.444  31.938  1.00  0.00    -0.248 NA
ATOM     51  C   UNL A   1      42.420  27.681  30.743  1.00  0.00     0.031 C 
ATOM     52  C   UNL A   1      42.985  30.935  35.832  1.00  0.00     0.029 A 
ATOM     53  C   UNL A   1      42.536  30.457  34.611  1.00  0.00     0.049 A 
ATOM     54  H   UNL A   1      40.965  31.170  33.397  1.00  0.00     0.167 HD
ATOM     55  C   UNL A   1      42.537  28.935  32.656  1.00  0.00     0.074 A 
ATOM     56  C   UNL A   1      43.069  27.829  31.889  1.00  0.00     0.031 C 
ATOM     57  C   UNL A   1      43.039  29.347  33.845  1.00  0.00     0.037 A 
BRANCH  44  58
ATOM     58  C   UNL A   1      40.217  34.301  36.191  1.00  0.00     0.057 A 
ATOM     59  C   UNL A   1      40.936  35.499  36.090  1.00  0.00     0.134 A 
ATOM     60  C   UNL A   1      39.402  34.128  37.316  1.00  0.00     0.134 A 
ATOM     61  F   UNL A   1      41.745  35.720  35.042  1.00  0.00    -0.206 F 
ATOM     62  C   UNL A   1      40.856  36.482  37.077  1.00  0.00     0.040 A 
ATOM     63  C   UNL A   1      39.294  35.115  38.298  1.00  0.00     0.040 A 
ATOM     64  F   UNL A   1      38.683  33.006  37.470  1.00  0.00    -0.206 F 
ATOM     65  C   UNL A   1      40.025  36.295  38.180  1.00  0.00     0.006 A 
ENDBRANCH  44  58
BRANCH  45  66
ATOM     66  C   UNL A   1      40.468  27.851  28.584  1.00  0.00     0.057 A 
ATOM     67  C   UNL A   1      41.188  28.185  27.431  1.00  0.00     0.134 A 
ATOM     68  C   UNL A   1      39.804  26.620  28.597  1.00  0.00     0.134 A 
ATOM     69  F   UNL A   1      41.829  29.360  27.351  1.00  0.00    -0.206 F 
ATOM     70  C   UNL A   1      41.217  27.343  26.317  1.00  0.00     0.040 A 
ATOM     71  C   UNL A   1      39.845  25.756  27.501  1.00  0.00     0.040 A 
ATOM     72  F   UNL A   1      39.103  26.239  29.675  1.00  0.00    -0.206 F 
ATOM     73  C   UNL A   1      40.545  26.123  26.352  1.00  0.00     0.006 A 
ENDBRANCH  45  66
BRANCH  57  74
ATOM     74  C   UNL A   1      44.191  28.572  34.410  1.00  0.00     0.057 A 
ATOM     75  C   UNL A   1      45.520  28.951  34.184  1.00  0.00     0.134 A 
ATOM     76  C   UNL A   1      43.963  27.454  35.225  1.00  0.00     0.134 A 
ATOM     77  F   UNL A   1      45.802  30.003  33.402  1.00  0.00    -0.206 F 
ATOM     78  C   UNL A   1      46.584  28.234  34.733  1.00  0.00     0.040 A 
ATOM     79  C   UNL A   1      45.018  26.746  35.800  1.00  0.00     0.040 A 
ATOM     80  F   UNL A   1      42.713  27.046  35.487  1.00  0.00    -0.206 F 
ATOM     81  C   UNL A   1      46.333  27.132  35.549  1.00  0.00     0.006 A 
ENDBRANCH  57  74
ENDBRANCH  31  32
ENDBRANCH  23  26
ENDBRANCH  21  22
ENDBRANCH  20  21
ENDBRANCH   1  20
TORSDOF 15
ENDMDL
MODEL 2
REMARK VINA RESULT:     -10.3      1.057      1.854
REMARK SMILES CC[NH2+][C@]1(C(=O)NCCCCNC(=O)c2ccc(-c3c4nc(c(-c5c(F)cccc5F)c5ccc([nH]5)c(-c5c(F)cccc5F)c5nc(c(-c6c(F)cccc6F)c6ccc3[nH]6)C=C5)C=C4)cc2)CC[C@H](OCC)C1
REMARK SMILES IDX 9 1 8 2 7 3 5 4 6 5 4 7 69 8 75 9 70 10 71 11 3 12 2 15 1 16
REMARK SMILES IDX 72 17 73 18 74 19 10 20 11 21 12 22 13 23 14 25 15 26 16 27
REMARK SMILES IDX 68 28 17 29 67 30 18 31 19 32 20 33 61 34 21 35 66 36 60 37
REMARK SMILES IDX 62 38 22 39 65 40 59 41 58 42 23 44 49 45 32 46 48 47 33 48
REMARK SMILES IDX 36 49 47 50 63 51 34 52 35 53 46 55 64 56 37 57 24 58 25 59
REMARK SMILES IDX 30 60 26 61 27 62 29 63 31 64 28 65 50 66 51 67 56 68 52 69
REMARK SMILES IDX 53 70 55 71 57 72 54 73 38 74 39 75 44 76 40 77 41 78 43 79
REMARK SMILES IDX 45 80 42 81
REMARK H PARENT 7 6 3 13 3 14 12 24 62 43 36 54
REMARK Flexibility Score: inf
ROOT
ATOM      1  C   UNL A   1      31.636  30.540  25.758  1.00  0.00     0.023 C 
ENDROOT
BRANCH   1   2
ATOM      2  C   UNL A   1      32.874  29.694  26.022  1.00  0.00     0.116 C 
BRANCH   2   3
ATOM      3  N   UNL A   1      33.670  29.443  24.838  1.00  0.00    -0.351 N 
ATOM      4  C   UNL A   1      33.700  28.432  23.923  1.00  0.00     0.281 C 
ATOM      5  O   UNL A   1      34.319  28.704  22.883  1.00  0.00    -0.268 OA
ATOM      6  H   UNL A   1      34.327  30.152  24.654  1.00  0.00     0.163 HD
BRANCH   4   7
ATOM      7  C   UNL A   1      33.131  26.980  24.154  1.00  0.00     0.178 C 
ATOM      8  C   UNL A   1      33.614  25.906  23.174  1.00  0.00     0.082 C 
ATOM      9  C   UNL A   1      33.730  26.465  25.493  1.00  0.00     0.111 C 
ATOM     10  C   UNL A   1      33.593  24.589  23.915  1.00  0.00     0.039 C 
ATOM     11  C   UNL A   1      33.982  24.954  25.339  1.00  0.00     0.125 C 
BRANCH   7  12
ATOM     12  N   UNL A   1      31.654  27.139  24.185  1.00  0.00    -0.334 N 
ATOM     13  H   UNL A   1      31.268  26.283  24.583  1.00  0.00     0.347 HD
ATOM     14  H   UNL A   1      31.509  27.993  24.724  1.00  0.00     0.347 HD
BRANCH  12  15
ATOM     15  C   UNL A   1      30.949  27.385  22.935  1.00  0.00     0.257 C 
ATOM     16  C   UNL A   1      29.778  28.332  23.164  1.00  0.00     0.071 C 
ENDBRANCH  12  15
ENDBRANCH   7  12
BRANCH  11  17
ATOM     17  O   UNL A   1      33.195  24.159  26.217  1.00  0.00    -0.378 OA
BRANCH  17  18
ATOM     18  C   UNL A   1      31.932  23.765  25.692  1.00  0.00     0.157 C 
ATOM     19  C   UNL A   1      30.999  23.313  26.801  1.00  0.00     0.035 C 
ENDBRANCH  17  18
ENDBRANCH  11  17
ENDBRANCH   4   7
ENDBRANCH   2   3
ENDBRANCH   1   2
BRANCH   1  20
ATOM     20  C   UNL A   1      31.409  31.695  26.726  1.00  0.00     0.023 C 
BRANCH  20  21
ATOM     21  C   UNL A   1      32.659  32.432  27.193  1.00  0.00     0.116 C 
BRANCH  21  22
ATOM     22  N   UNL A   1      32.432  33.829  27.537  1.00  0.00    -0.352 N 
ATOM     23  C   UNL A   1      33.111  34.626  28.432  1.00  0.00     0.251 C 
ATOM     24  H   UNL A   1      31.688  34.266  27.062  1.00  0.00     0.163 HD
ATOM     25  O   UNL A   1      32.743  35.773  28.647  1.00  0.00    -0.269 OA
BRANCH  23  26
ATOM     26  C   UNL A   1      34.263  34.065  29.168  1.00  0.00     0.039 A 
ATOM     27  C   UNL A   1      34.020  33.229  30.260  1.00  0.00     0.014 A 
ATOM     28  C   UNL A   1      35.570  34.317  28.745  1.00  0.00     0.014 A 
ATOM     29  C   UNL A   1      35.088  32.570  30.873  1.00  0.00     0.010 A 
ATOM     30  C   UNL A   1      36.622  33.603  29.307  1.00  0.00     0.010 A 
ATOM     31  C   UNL A   1      36.391  32.715  30.370  1.00  0.00    -0.014 A 
BRANCH  31  32
ATOM     32  C   UNL A   1      37.524  31.935  30.927  1.00  0.00     0.031 A 
ATOM     33  C   UNL A   1      38.041  32.237  32.306  1.00  0.00     0.074 A 
ATOM     34  C   UNL A   1      38.142  31.014  30.160  1.00  0.00     0.049 A 
ATOM     35  N   UNL A   1      39.074  31.732  32.931  1.00  0.00    -0.248 NA
ATOM     36  C   UNL A   1      37.320  33.266  33.073  1.00  0.00     0.031 C 
ATOM     37  C   UNL A   1      37.773  30.668  28.785  1.00  0.00     0.029 A 
ATOM     38  N   UNL A   1      39.222  30.208  30.423  1.00  0.00    -0.354 N 
ATOM     39  C   UNL A   1      39.143  32.400  34.146  1.00  0.00     0.074 A 
ATOM     40  C   UNL A   1      38.074  33.372  34.159  1.00  0.00     0.031 C 
ATOM     41  C   UNL A   1      38.600  29.709  28.334  1.00  0.00     0.029 A 
ATOM     42  C   UNL A   1      39.578  29.398  29.371  1.00  0.00     0.049 A 
ATOM     43  H   UNL A   1      39.697  30.212  31.286  1.00  0.00     0.167 HD
ATOM     44  C   UNL A   1      40.008  32.203  35.168  1.00  0.00     0.037 A 
ATOM     45  C   UNL A   1      40.583  28.511  29.256  1.00  0.00     0.037 A 
ATOM     46  C   UNL A   1      41.038  31.200  35.176  1.00  0.00     0.049 A 
ATOM     47  C   UNL A   1      41.515  28.300  30.418  1.00  0.00     0.074 A 
ATOM     48  C   UNL A   1      41.902  30.861  36.204  1.00  0.00     0.029 A 
ATOM     49  N   UNL A   1      41.341  30.372  34.107  1.00  0.00    -0.354 N 
ATOM     50  N   UNL A   1      41.511  28.876  31.595  1.00  0.00    -0.248 NA
ATOM     51  C   UNL A   1      42.588  27.312  30.237  1.00  0.00     0.031 C 
ATOM     52  C   UNL A   1      42.755  29.854  35.743  1.00  0.00     0.029 A 
ATOM     53  C   UNL A   1      42.394  29.538  34.443  1.00  0.00     0.049 A 
ATOM     54  H   UNL A   1      40.878  30.377  33.239  1.00  0.00     0.167 HD
ATOM     55  C   UNL A   1      42.554  28.296  32.305  1.00  0.00     0.074 A 
ATOM     56  C   UNL A   1      43.163  27.315  31.431  1.00  0.00     0.031 C 
ATOM     57  C   UNL A   1      42.973  28.552  33.568  1.00  0.00     0.037 A 
BRANCH  44  58
ATOM     58  C   UNL A   1      39.876  33.084  36.375  1.00  0.00     0.057 A 
ATOM     59  C   UNL A   1      40.594  34.280  36.499  1.00  0.00     0.134 A 
ATOM     60  C   UNL A   1      38.972  32.763  37.396  1.00  0.00     0.134 A 
ATOM     61  F   UNL A   1      41.485  34.638  35.561  1.00  0.00    -0.206 F 
ATOM     62  C   UNL A   1      40.428  35.119  37.601  1.00  0.00     0.040 A 
ATOM     63  C   UNL A   1      38.779  33.606  38.491  1.00  0.00     0.040 A 
ATOM     64  F   UNL A   1      38.249  31.634  37.336  1.00  0.00    -0.206 F 
ATOM     65  C   UNL A   1      39.511  34.787  38.596  1.00  0.00     0.006 A 
ENDBRANCH  44  58
BRANCH  45  66
ATOM     66  C   UNL A   1      40.765  27.734  28.002  1.00  0.00     0.057 A 
ATOM     67  C   UNL A   1      40.189  26.467  27.852  1.00  0.00     0.134 A 
ATOM     68  C   UNL A   1      41.546  28.216  26.947  1.00  0.00     0.134 A 
ATOM     69  F   UNL A   1      39.446  25.942  28.837  1.00  0.00    -0.206 F 
ATOM     70  C   UNL A   1      40.411  25.692  26.712  1.00  0.00     0.040 A 
ATOM     71  C   UNL A   1      41.756  27.464  25.790  1.00  0.00     0.040 A 
ATOM     72  F   UNL A   1      42.120  29.426  27.026  1.00  0.00    -0.206 F 
ATOM     73  C   UNL A   1      41.196  26.192  25.676  1.00  0.00     0.006 A 
ENDBRANCH  45  66
BRANCH  57  74
ATOM     74  C   UNL A   1      44.110  27.730  34.095  1.00  0.00     0.057 A 
ATOM     75  C   UNL A   1      43.905  26.482  34.695  1.00  0.00     0.134 A 
ATOM     76  C   UNL A   1      45.432  28.178  33.963  1.00  0.00     0.134 A 
ATOM     77  F   UNL A   1      42.662  26.006  34.862  1.00  0.00    -0.206 F 
ATOM     78  C   UNL A   1      44.973  25.716  35.163  1.00  0.00     0.040 A 
ATOM     79  C   UNL A   1      46.509  27.409  34.404  1.00  0.00     0.040 A 
ATOM     80  F   UNL A   1      45.696  29.362  33.390  1.00  0.00    -0.206 F 
ATOM     81  C   UNL A   1      46.280  26.177  35.012  1.00  0.00     0.006 A 
ENDBRANCH  57  74
ENDBRANCH  31  32
ENDBRANCH  23  26
ENDBRANCH  21  22
ENDBRANCH  20  21
ENDBRANCH   1  20
TORSDOF 15
ENDMDL
MODEL 3
REMARK VINA RESULT:     -10.2      3.647      5.302
REMARK SMILES CC[NH2+][C@]1(C(=O)NCCCCNC(=O)c2ccc(-c3c4nc(c(-c5c(F)cccc5F)c5ccc([nH]5)c(-c5c(F)cccc5F)c5nc(c(-c6c(F)cccc6F)c6ccc3[nH]6)C=C5)C=C4)cc2)CC[C@H](OCC)C1
REMARK SMILES IDX 9 1 8 2 7 3 5 4 6 5 4 7 69 8 75 9 70 10 71 11 3 12 2 15 1 16
REMARK SMILES IDX 72 17 73 18 74 19 10 20 11 21 12 22 13 23 14 25 15 26 16 27
REMARK SMILES IDX 68 28 17 29 67 30 18 31 19 32 20 33 61 34 21 35 66 36 60 37
REMARK SMILES IDX 62 38 22 39 65 40 59 41 58 42 23 44 49 45 32 46 48 47 33 48
REMARK SMILES IDX 36 49 47 50 63 51 34 52 35 53 46 55 64 56 37 57 24 58 25 59
REMARK SMILES IDX 30 60 26 61 27 62 29 63 31 64 28 65 50 66 51 67 56 68 52 69
REMARK SMILES IDX 53 70 55 71 57 72 54 73 38 74 39 75 44 76 40 77 41 78 43 79
REMARK SMILES IDX 45 80 42 81
REMARK H PARENT 7 6 3 13 3 14 12 24 62 43 36 54
REMARK Flexibility Score: inf
ROOT
ATOM      1  C   UNL A   1      33.032  29.021  24.795  1.00  0.00     0.023 C 
ENDROOT
BRANCH   1   2
ATOM      2  C   UNL A   1      32.246  27.930  24.081  1.00  0.00     0.116 C 
BRANCH   2   3
ATOM      3  N   UNL A   1      32.973  27.307  22.994  1.00  0.00    -0.351 N 
ATOM      4  C   UNL A   1      33.347  26.023  22.728  1.00  0.00     0.281 C 
ATOM      5  O   UNL A   1      33.708  25.828  21.557  1.00  0.00    -0.268 OA
ATOM      6  H   UNL A   1      33.256  27.945  22.300  1.00  0.00     0.163 HD
BRANCH   4   7
ATOM      7  C   UNL A   1      33.460  24.869  23.798  1.00  0.00     0.178 C 
ATOM      8  C   UNL A   1      34.477  25.093  24.921  1.00  0.00     0.082 C 
ATOM      9  C   UNL A   1      32.125  24.855  24.593  1.00  0.00     0.111 C 
ATOM     10  C   UNL A   1      33.967  24.351  26.135  1.00  0.00     0.039 C 
ATOM     11  C   UNL A   1      32.455  24.494  26.052  1.00  0.00     0.125 C 
BRANCH   7  12
ATOM     12  N   UNL A   1      33.698  23.631  23.013  1.00  0.00    -0.334 N 
ATOM     13  H   UNL A   1      33.809  23.910  22.038  1.00  0.00     0.347 HD
ATOM     14  H   UNL A   1      34.513  23.209  23.457  1.00  0.00     0.347 HD
BRANCH  12  15
ATOM     15  C   UNL A   1      32.693  22.578  23.044  1.00  0.00     0.257 C 
ATOM     16  C   UNL A   1      33.189  21.395  23.867  1.00  0.00     0.071 C 
ENDBRANCH  12  15
ENDBRANCH   7  12
BRANCH  11  17
ATOM     17  O   UNL A   1      31.884  23.260  26.470  1.00  0.00    -0.378 OA
BRANCH  17  18
ATOM     18  C   UNL A   1      30.555  23.035  26.015  1.00  0.00     0.157 C 
ATOM     19  C   UNL A   1      29.614  22.793  27.182  1.00  0.00     0.035 C 
ENDBRANCH  17  18
ENDBRANCH  11  17
ENDBRANCH   4   7
ENDBRANCH   2   3
ENDBRANCH   1   2
BRANCH   1  20
ATOM     20  C   UNL A   1      34.039  28.536  25.831  1.00  0.00     0.023 C 
BRANCH  20  21
ATOM     21  C   UNL A   1      33.637  28.716  27.291  1.00  0.00     0.116 C 
BRANCH  21  22
ATOM     22  N   UNL A   1      33.679  30.096  27.754  1.00  0.00    -0.352 N 
ATOM     23  C   UNL A   1      34.731  30.798  28.301  1.00  0.00     0.251 C 
ATOM     24  H   UNL A   1      32.838  30.600  27.661  1.00  0.00     0.163 HD
ATOM     25  O   UNL A   1      34.574  31.944  28.699  1.00  0.00    -0.269 OA
BRANCH  23  26
ATOM     26  C   UNL A   1      36.043  30.133  28.449  1.00  0.00     0.039 A 
ATOM     27  C   UNL A   1      36.953  30.200  27.392  1.00  0.00     0.014 A 
ATOM     28  C   UNL A   1      36.390  29.502  29.645  1.00  0.00     0.014 A 
ATOM     29  C   UNL A   1      38.249  29.712  27.568  1.00  0.00     0.010 A 
ATOM     30  C   UNL A   1      37.701  29.085  29.845  1.00  0.00     0.010 A 
ATOM     31  C   UNL A   1      38.646  29.194  28.812  1.00  0.00    -0.014 A 
BRANCH  31  32
ATOM     32  C   UNL A   1      40.049  28.779  29.062  1.00  0.00     0.031 A 
ATOM     33  C   UNL A   1      41.014  29.736  29.705  1.00  0.00     0.074 A 
ATOM     34  C   UNL A   1      40.476  27.573  28.634  1.00  0.00     0.049 A 
ATOM     35  N   UNL A   1      42.297  29.594  29.924  1.00  0.00    -0.248 NA
ATOM     36  C   UNL A   1      40.474  31.037  30.130  1.00  0.00     0.031 C 
ATOM     37  C   UNL A   1      39.653  26.576  27.946  1.00  0.00     0.029 A 
ATOM     38  N   UNL A   1      41.715  26.986  28.703  1.00  0.00    -0.354 N 
ATOM     39  C   UNL A   1      42.719  30.793  30.483  1.00  0.00     0.074 A 
ATOM     40  C   UNL A   1      41.568  31.666  30.536  1.00  0.00     0.031 C 
ATOM     41  C   UNL A   1      40.404  25.496  27.673  1.00  0.00     0.029 A 
ATOM     42  C   UNL A   1      41.767  25.736  28.134  1.00  0.00     0.049 A 
ATOM     43  H   UNL A   1      42.493  27.421  29.121  1.00  0.00     0.167 HD
ATOM     44  C   UNL A   1      43.951  31.127  30.931  1.00  0.00     0.037 A 
ATOM     45  C   UNL A   1      42.800  24.884  27.994  1.00  0.00     0.037 A 
ATOM     46  C   UNL A   1      45.083  30.240  30.926  1.00  0.00     0.049 A 
ATOM     47  C   UNL A   1      44.153  25.276  28.523  1.00  0.00     0.074 A 
ATOM     48  C   UNL A   1      46.348  30.455  31.446  1.00  0.00     0.029 A 
ATOM     49  N   UNL A   1      45.086  28.967  30.377  1.00  0.00    -0.354 N 
ATOM     50  N   UNL A   1      44.515  26.380  29.131  1.00  0.00    -0.248 NA
ATOM     51  C   UNL A   1      45.241  24.302  28.349  1.00  0.00     0.031 C 
ATOM     52  C   UNL A   1      47.128  29.327  31.177  1.00  0.00     0.029 A 
ATOM     53  C   UNL A   1      46.336  28.394  30.527  1.00  0.00     0.049 A 
ATOM     54  H   UNL A   1      44.314  28.536  29.945  1.00  0.00     0.167 HD
ATOM     55  C   UNL A   1      45.858  26.218  29.443  1.00  0.00     0.074 A 
ATOM     56  C   UNL A   1      46.245  24.906  28.968  1.00  0.00     0.031 C 
ATOM     57  C   UNL A   1      46.698  27.079  30.067  1.00  0.00     0.037 A 
BRANCH  44  58
ATOM     58  C   UNL A   1      44.146  32.510  31.478  1.00  0.00     0.057 A 
ATOM     59  C   UNL A   1      44.529  33.581  30.659  1.00  0.00     0.134 A 
ATOM     60  C   UNL A   1      43.884  32.787  32.825  1.00  0.00     0.134 A 
ATOM     61  F   UNL A   1      44.805  33.379  29.362  1.00  0.00    -0.206 F 
ATOM     62  C   UNL A   1      44.657  34.874  31.165  1.00  0.00     0.040 A 
ATOM     63  C   UNL A   1      43.986  34.081  33.337  1.00  0.00     0.040 A 
ATOM     64  F   UNL A   1      43.508  31.807  33.662  1.00  0.00    -0.206 F 
ATOM     65  C   UNL A   1      44.377  35.129  32.506  1.00  0.00     0.006 A 
ENDBRANCH  44  58
BRANCH  45  66
ATOM     66  C   UNL A   1      42.607  23.564  27.341  1.00  0.00     0.057 A 
ATOM     67  C   UNL A   1      42.243  22.438  28.089  1.00  0.00     0.134 A 
ATOM     68  C   UNL A   1      42.820  23.385  25.969  1.00  0.00     0.134 A 
ATOM     69  F   UNL A   1      42.045  22.541  29.411  1.00  0.00    -0.206 F 
ATOM     70  C   UNL A   1      42.131  21.175  27.504  1.00  0.00     0.040 A 
ATOM     71  C   UNL A   1      42.686  22.134  25.366  1.00  0.00     0.040 A 
ATOM     72  F   UNL A   1      43.164  24.426  25.196  1.00  0.00    -0.206 F 
ATOM     73  C   UNL A   1      42.352  21.022  26.137  1.00  0.00     0.006 A 
ENDBRANCH  45  66
BRANCH  57  74
ATOM     74  C   UNL A   1      48.101  26.612  30.314  1.00  0.00     0.057 A 
ATOM     75  C   UNL A   1      48.448  25.885  31.459  1.00  0.00     0.134 A 
ATOM     76  C   UNL A   1      49.109  26.860  29.371  1.00  0.00     0.134 A 
ATOM     77  F   UNL A   1      47.532  25.628  32.403  1.00  0.00    -0.206 F 
ATOM     78  C   UNL A   1      49.754  25.438  31.668  1.00  0.00     0.040 A 
ATOM     79  C   UNL A   1      50.410  26.396  29.558  1.00  0.00     0.040 A 
ATOM     80  F   UNL A   1      48.838  27.544  28.250  1.00  0.00    -0.206 F 
ATOM     81  C   UNL A   1      50.737  25.687  30.712  1.00  0.00     0.006 A 
ENDBRANCH  57  74
ENDBRANCH  31  32
ENDBRANCH  23  26
ENDBRANCH  21  22
ENDBRANCH  20  21
ENDBRANCH   1  20
TORSDOF 15
ENDMDL
