MODEL 1
REMARK VINA RESULT:     -11.7      0.000      0.000
REMARK SMILES O=C(NCCCCNC(=O)[C@H]1C=C[C@@H](NC(=O)c2ccc(Cl)cn2)C1)c1ccc(-c2c3nc(c(-c4c(F)cccc4F)c4ccc([nH]4)c(-c4c(F)cccc4F)c4nc(c(-c5c(F)cccc5F)c5ccc2[nH]5)C=C4)C=C3)cc1
REMARK SMILES IDX 5 1 4 2 3 3 1 4 2 5 26 7 27 8 79 9 28 10 78 11 29 12 30 13
REMARK SMILES IDX 31 14 72 15 32 16 77 17 71 18 73 19 33 20 76 21 70 22 69 23
REMARK SMILES IDX 34 25 60 26 43 27 59 28 44 29 47 30 58 31 74 32 45 33 46 34
REMARK SMILES IDX 57 36 75 37 48 38 35 39 36 40 41 41 37 42 38 43 40 44 42 45
REMARK SMILES IDX 39 46 61 47 62 48 67 49 63 50 64 51 66 52 68 53 65 54 49 55
REMARK SMILES IDX 50 56 55 57 51 58 52 59 54 60 56 61 53 62 6 63 7 64 8 65
REMARK SMILES IDX 9 66 10 68 11 69 12 70 25 71 13 72 14 73 15 74 16 75 17 77
REMARK SMILES IDX 18 78 19 79 24 80 20 81 23 82 21 83 22 84
REMARK H PARENT 3 6 73 24 47 35 8 67 15 76
REMARK Flexibility Score: inf
ROOT
ATOM      1  C   UNL A   1      37.536  19.819  24.980  1.00  0.00     0.023 C 
ENDROOT
BRANCH   1   2
ATOM      2  C   UNL A   1      38.807  20.367  25.618  1.00  0.00     0.116 C 
BRANCH   2   3
ATOM      3  N   UNL A   1      39.886  19.390  25.672  1.00  0.00    -0.352 N 
ATOM      4  O   UNL A   1      42.007  18.647  25.891  1.00  0.00    -0.269 OA
ATOM      5  C   UNL A   1      41.200  19.559  26.042  1.00  0.00     0.251 C 
ATOM      6  H   UNL A   1      39.639  18.475  25.404  1.00  0.00     0.163 HD
BRANCH   5   7
ATOM      7  C   UNL A   1      41.643  20.855  26.596  1.00  0.00     0.039 A 
ATOM      8  C   UNL A   1      41.610  21.084  27.972  1.00  0.00     0.014 A 
ATOM      9  C   UNL A   1      42.084  21.859  25.727  1.00  0.00     0.014 A 
ATOM     10  C   UNL A   1      41.846  22.361  28.463  1.00  0.00     0.010 A 
ATOM     11  C   UNL A   1      42.420  23.118  26.236  1.00  0.00     0.010 A 
ATOM     12  C   UNL A   1      42.270  23.389  27.604  1.00  0.00    -0.014 A 
BRANCH  12  13
ATOM     13  C   UNL A   1      42.612  24.711  28.186  1.00  0.00     0.031 A 
ATOM     14  C   UNL A   1      44.030  25.081  28.523  1.00  0.00     0.074 A 
ATOM     15  C   UNL A   1      41.620  25.605  28.361  1.00  0.00     0.049 A 
ATOM     16  N   UNL A   1      44.494  26.211  28.996  1.00  0.00    -0.248 NA
ATOM     17  C   UNL A   1      45.062  24.054  28.311  1.00  0.00     0.031 C 
ATOM     18  C   UNL A   1      40.202  25.353  28.083  1.00  0.00     0.029 A 
ATOM     19  N   UNL A   1      41.647  26.910  28.783  1.00  0.00    -0.354 N 
ATOM     20  C   UNL A   1      45.862  26.030  29.152  1.00  0.00     0.074 A 
ATOM     21  C   UNL A   1      46.154  24.671  28.746  1.00  0.00     0.031 C 
ATOM     22  C   UNL A   1      39.507  26.480  28.285  1.00  0.00     0.029 A 
ATOM     23  C   UNL A   1      40.414  27.514  28.768  1.00  0.00     0.049 A 
ATOM     24  H   UNL A   1      42.470  27.368  29.068  1.00  0.00     0.167 HD
ATOM     25  C   UNL A   1      46.787  26.918  29.588  1.00  0.00     0.037 A 
ATOM     26  C   UNL A   1      40.046  28.759  29.118  1.00  0.00     0.037 A 
ATOM     27  C   UNL A   1      46.493  28.275  29.975  1.00  0.00     0.049 A 
ATOM     28  C   UNL A   1      41.092  29.715  29.608  1.00  0.00     0.074 A 
ATOM     29  C   UNL A   1      47.369  29.259  30.403  1.00  0.00     0.029 A 
ATOM     30  N   UNL A   1      45.227  28.841  29.979  1.00  0.00    -0.354 N 
ATOM     31  N   UNL A   1      42.384  29.532  29.729  1.00  0.00    -0.248 NA
ATOM     32  C   UNL A   1      40.629  31.046  30.017  1.00  0.00     0.031 C 
ATOM     33  C   UNL A   1      46.627  30.407  30.703  1.00  0.00     0.029 A 
ATOM     34  C   UNL A   1      45.295  30.152  30.421  1.00  0.00     0.049 A 
ATOM     35  H   UNL A   1      44.401  28.378  29.708  1.00  0.00     0.167 HD
ATOM     36  C   UNL A   1      42.891  30.725  30.221  1.00  0.00     0.074 A 
ATOM     37  C   UNL A   1      41.769  31.635  30.349  1.00  0.00     0.031 C 
ATOM     38  C   UNL A   1      44.167  31.038  30.548  1.00  0.00     0.037 A 
BRANCH  25  39
ATOM     39  C   UNL A   1      48.212  26.456  29.682  1.00  0.00     0.057 A 
ATOM     40  C   UNL A   1      48.704  25.806  30.822  1.00  0.00     0.134 A 
ATOM     41  C   UNL A   1      49.083  26.599  28.594  1.00  0.00     0.134 A 
ATOM     42  F   UNL A   1      47.925  25.646  31.902  1.00  0.00    -0.206 F 
ATOM     43  C   UNL A   1      50.015  25.327  30.880  1.00  0.00     0.040 A 
ATOM     44  C   UNL A   1      50.389  26.106  28.633  1.00  0.00     0.040 A 
ATOM     45  F   UNL A   1      48.674  27.205  27.471  1.00  0.00    -0.206 F 
ATOM     46  C   UNL A   1      50.859  25.469  29.779  1.00  0.00     0.006 A 
ENDBRANCH  25  39
BRANCH  26  47
ATOM     47  C   UNL A   1      38.621  29.161  29.030  1.00  0.00     0.057 A 
ATOM     48  C   UNL A   1      38.072  29.627  27.831  1.00  0.00     0.134 A 
ATOM     49  C   UNL A   1      37.774  29.080  30.143  1.00  0.00     0.134 A 
ATOM     50  F   UNL A   1      38.838  29.742  26.737  1.00  0.00    -0.206 F 
ATOM     51  C   UNL A   1      36.733  30.012  27.744  1.00  0.00     0.040 A 
ATOM     52  C   UNL A   1      36.428  29.435  30.063  1.00  0.00     0.040 A 
ATOM     53  F   UNL A   1      38.240  28.632  31.318  1.00  0.00    -0.206 F 
ATOM     54  C   UNL A   1      35.906  29.910  28.862  1.00  0.00     0.006 A 
ENDBRANCH  26  47
BRANCH  38  55
ATOM     55  C   UNL A   1      44.410  32.426  31.062  1.00  0.00     0.057 A 
ATOM     56  C   UNL A   1      44.688  33.491  30.195  1.00  0.00     0.134 A 
ATOM     57  C   UNL A   1      44.359  32.701  32.434  1.00  0.00     0.134 A 
ATOM     58  F   UNL A   1      44.765  33.287  28.872  1.00  0.00    -0.206 F 
ATOM     59  C   UNL A   1      44.935  34.776  30.678  1.00  0.00     0.040 A 
ATOM     60  C   UNL A   1      44.582  33.986  32.926  1.00  0.00     0.040 A 
ATOM     61  F   UNL A   1      44.092  31.725  33.314  1.00  0.00    -0.206 F 
ATOM     62  C   UNL A   1      44.879  35.027  32.048  1.00  0.00     0.006 A 
ENDBRANCH  38  55
ENDBRANCH  12  13
ENDBRANCH   5   7
ENDBRANCH   2   3
ENDBRANCH   1   2
BRANCH   1  63
ATOM     63  C   UNL A   1      36.458  20.855  24.680  1.00  0.00     0.023 C 
BRANCH  63  64
ATOM     64  C   UNL A   1      35.504  21.152  25.830  1.00  0.00     0.116 C 
BRANCH  64  65
ATOM     65  N   UNL A   1      34.234  20.454  25.738  1.00  0.00    -0.356 N 
ATOM     66  C   UNL A   1      33.074  20.907  25.158  1.00  0.00     0.227 C 
ATOM     67  H   UNL A   1      34.200  19.554  26.135  1.00  0.00     0.163 HD
ATOM     68  O   UNL A   1      32.121  20.137  25.052  1.00  0.00    -0.274 OA
BRANCH  66  69
ATOM     69  C   UNL A   1      33.025  22.369  24.720  1.00  0.00     0.103 C 
ATOM     70  C   UNL A   1      32.869  22.521  23.231  1.00  0.00    -0.016 C 
ATOM     71  C   UNL A   1      31.805  23.158  25.219  1.00  0.00     0.047 C 
ATOM     72  C   UNL A   1      32.123  23.589  22.936  1.00  0.00    -0.006 C 
ATOM     73  C   UNL A   1      31.652  24.273  24.179  1.00  0.00     0.106 C 
BRANCH  73  74
ATOM     74  N   UNL A   1      30.304  24.714  23.949  1.00  0.00    -0.344 N 
ATOM     75  C   UNL A   1      29.761  25.954  24.220  1.00  0.00     0.270 C 
ATOM     76  H   UNL A   1      29.694  24.054  23.548  1.00  0.00     0.164 HD
ATOM     77  O   UNL A   1      28.618  26.214  23.856  1.00  0.00    -0.267 OA
BRANCH  75  78
ATOM     78  C   UNL A   1      30.563  26.971  24.968  1.00  0.00     0.128 A 
ATOM     79  C   UNL A   1      30.895  26.781  26.308  1.00  0.00     0.036 A 
ATOM     80  N   UNL A   1      30.913  28.076  24.263  1.00  0.00    -0.250 NA
ATOM     81  C   UNL A   1      31.583  27.796  26.973  1.00  0.00     0.024 A 
ATOM     82  C   UNL A   1      31.611  29.027  24.929  1.00  0.00     0.132 A 
ATOM     83  C   UNL A   1      31.949  28.940  26.271  1.00  0.00     0.059 A 
ATOM     84  Cl  UNL A   1      32.795  30.210  27.053  1.00  0.00    -0.083 Cl
ENDBRANCH  75  78
ENDBRANCH  73  74
ENDBRANCH  66  69
ENDBRANCH  64  65
ENDBRANCH  63  64
ENDBRANCH   1  63
TORSDOF 13
ENDMDL
MODEL 2
REMARK VINA RESULT:     -11.7      0.146      1.323
REMARK SMILES O=C(NCCCCNC(=O)[C@H]1C=C[C@@H](NC(=O)c2ccc(Cl)cn2)C1)c1ccc(-c2c3nc(c(-c4c(F)cccc4F)c4ccc([nH]4)c(-c4c(F)cccc4F)c4nc(c(-c5c(F)cccc5F)c5ccc2[nH]5)C=C4)C=C3)cc1
REMARK SMILES IDX 5 1 4 2 3 3 1 4 2 5 26 7 27 8 79 9 28 10 78 11 29 12 30 13
REMARK SMILES IDX 31 14 72 15 32 16 77 17 71 18 73 19 33 20 76 21 70 22 69 23
REMARK SMILES IDX 34 25 60 26 43 27 59 28 44 29 47 30 58 31 74 32 45 33 46 34
REMARK SMILES IDX 57 36 75 37 48 38 35 39 36 40 41 41 37 42 38 43 40 44 42 45
REMARK SMILES IDX 39 46 61 47 62 48 67 49 63 50 64 51 66 52 68 53 65 54 49 55
REMARK SMILES IDX 50 56 55 57 51 58 52 59 54 60 56 61 53 62 6 63 7 64 8 65
REMARK SMILES IDX 9 66 10 68 11 69 12 70 25 71 13 72 14 73 15 74 16 75 17 77
REMARK SMILES IDX 18 78 19 79 24 80 20 81 23 82 21 83 22 84
REMARK H PARENT 3 6 73 24 47 35 8 67 15 76
REMARK Flexibility Score: inf
ROOT
ATOM      1  C   UNL A   1      37.647  19.853  24.925  1.00  0.00     0.023 C 
ENDROOT
BRANCH   1   2
ATOM      2  C   UNL A   1      38.842  20.309  25.752  1.00  0.00     0.116 C 
BRANCH   2   3
ATOM      3  N   UNL A   1      39.938  19.350  25.748  1.00  0.00    -0.352 N 
ATOM      4  O   UNL A   1      42.080  18.641  25.863  1.00  0.00    -0.269 OA
ATOM      5  C   UNL A   1      41.265  19.538  26.060  1.00  0.00     0.251 C 
ATOM      6  H   UNL A   1      39.695  18.434  25.482  1.00  0.00     0.163 HD
BRANCH   5   7
ATOM      7  C   UNL A   1      41.712  20.837  26.605  1.00  0.00     0.039 A 
ATOM      8  C   UNL A   1      41.678  21.075  27.980  1.00  0.00     0.014 A 
ATOM      9  C   UNL A   1      42.157  21.833  25.731  1.00  0.00     0.014 A 
ATOM     10  C   UNL A   1      41.917  22.354  28.463  1.00  0.00     0.010 A 
ATOM     11  C   UNL A   1      42.497  23.094  26.231  1.00  0.00     0.010 A 
ATOM     12  C   UNL A   1      42.345  23.375  27.598  1.00  0.00    -0.014 A 
BRANCH  12  13
ATOM     13  C   UNL A   1      42.691  24.700  28.172  1.00  0.00     0.031 A 
ATOM     14  C   UNL A   1      44.113  25.075  28.489  1.00  0.00     0.074 A 
ATOM     15  C   UNL A   1      41.699  25.591  28.357  1.00  0.00     0.049 A 
ATOM     16  N   UNL A   1      44.579  26.208  28.952  1.00  0.00    -0.248 NA
ATOM     17  C   UNL A   1      45.145  24.051  28.265  1.00  0.00     0.031 C 
ATOM     18  C   UNL A   1      40.278  25.334  28.099  1.00  0.00     0.029 A 
ATOM     19  N   UNL A   1      41.727  26.896  28.776  1.00  0.00    -0.354 N 
ATOM     20  C   UNL A   1      45.950  26.031  29.090  1.00  0.00     0.074 A 
ATOM     21  C   UNL A   1      46.240  24.672  28.684  1.00  0.00     0.031 C 
ATOM     22  C   UNL A   1      39.582  26.459  28.308  1.00  0.00     0.029 A 
ATOM     23  C   UNL A   1      40.492  27.497  28.775  1.00  0.00     0.049 A 
ATOM     24  H   UNL A   1      42.552  27.358  29.048  1.00  0.00     0.167 HD
ATOM     25  C   UNL A   1      46.878  26.923  29.510  1.00  0.00     0.037 A 
ATOM     26  C   UNL A   1      40.125  28.741  29.128  1.00  0.00     0.037 A 
ATOM     27  C   UNL A   1      46.585  28.281  29.898  1.00  0.00     0.049 A 
ATOM     28  C   UNL A   1      41.175  29.702  29.601  1.00  0.00     0.074 A 
ATOM     29  C   UNL A   1      47.463  29.269  30.311  1.00  0.00     0.029 A 
ATOM     30  N   UNL A   1      45.317  28.842  29.918  1.00  0.00    -0.354 N 
ATOM     31  N   UNL A   1      42.469  29.523  29.704  1.00  0.00    -0.248 NA
ATOM     32  C   UNL A   1      40.713  31.033  30.013  1.00  0.00     0.031 C 
ATOM     33  C   UNL A   1      46.721  30.415  30.619  1.00  0.00     0.029 A 
ATOM     34  C   UNL A   1      45.387  30.155  30.355  1.00  0.00     0.049 A 
ATOM     35  H   UNL A   1      44.489  28.376  29.659  1.00  0.00     0.167 HD
ATOM     36  C   UNL A   1      42.978  30.720  30.187  1.00  0.00     0.074 A 
ATOM     37  C   UNL A   1      41.855  31.626  30.327  1.00  0.00     0.031 C 
ATOM     38  C   UNL A   1      44.257  31.038  30.496  1.00  0.00     0.037 A 
BRANCH  25  39
ATOM     39  C   UNL A   1      48.305  26.466  29.587  1.00  0.00     0.057 A 
ATOM     40  C   UNL A   1      49.207  26.677  28.535  1.00  0.00     0.134 A 
ATOM     41  C   UNL A   1      48.803  25.870  30.753  1.00  0.00     0.134 A 
ATOM     42  F   UNL A   1      48.792  27.233  27.387  1.00  0.00    -0.206 F 
ATOM     43  C   UNL A   1      50.548  26.300  28.637  1.00  0.00     0.040 A 
ATOM     44  C   UNL A   1      50.147  25.509  30.874  1.00  0.00     0.040 A 
ATOM     45  F   UNL A   1      47.996  25.646  31.800  1.00  0.00    -0.206 F 
ATOM     46  C   UNL A   1      51.023  25.723  29.813  1.00  0.00     0.006 A 
ENDBRANCH  25  39
BRANCH  26  47
ATOM     47  C   UNL A   1      38.698  29.139  29.058  1.00  0.00     0.057 A 
ATOM     48  C   UNL A   1      38.132  29.604  27.866  1.00  0.00     0.134 A 
ATOM     49  C   UNL A   1      37.865  29.054  30.181  1.00  0.00     0.134 A 
ATOM     50  F   UNL A   1      38.883  29.722  26.763  1.00  0.00    -0.206 F 
ATOM     51  C   UNL A   1      36.791  29.984  27.797  1.00  0.00     0.040 A 
ATOM     52  C   UNL A   1      36.517  29.404  30.118  1.00  0.00     0.040 A 
ATOM     53  F   UNL A   1      38.348  28.607  31.350  1.00  0.00    -0.206 F 
ATOM     54  C   UNL A   1      35.978  29.879  28.925  1.00  0.00     0.006 A 
ENDBRANCH  26  47
BRANCH  38  55
ATOM     55  C   UNL A   1      44.503  32.427  31.002  1.00  0.00     0.057 A 
ATOM     56  C   UNL A   1      44.488  32.723  32.371  1.00  0.00     0.134 A 
ATOM     57  C   UNL A   1      44.761  33.478  30.113  1.00  0.00     0.134 A 
ATOM     58  F   UNL A   1      44.230  31.762  33.271  1.00  0.00    -0.206 F 
ATOM     59  C   UNL A   1      44.694  34.022  32.837  1.00  0.00     0.040 A 
ATOM     60  C   UNL A   1      44.991  34.776  30.569  1.00  0.00     0.040 A 
ATOM     61  F   UNL A   1      44.793  33.259  28.790  1.00  0.00    -0.206 F 
ATOM     62  C   UNL A   1      44.950  35.052  31.934  1.00  0.00     0.006 A 
ENDBRANCH  38  55
ENDBRANCH  12  13
ENDBRANCH   5   7
ENDBRANCH   2   3
ENDBRANCH   1   2
BRANCH   1  63
ATOM     63  C   UNL A   1      36.605  20.930  24.637  1.00  0.00     0.023 C 
BRANCH  63  64
ATOM     64  C   UNL A   1      35.678  21.265  25.799  1.00  0.00     0.116 C 
BRANCH  64  65
ATOM     65  N   UNL A   1      34.418  20.544  25.774  1.00  0.00    -0.356 N 
ATOM     66  C   UNL A   1      33.240  20.944  25.190  1.00  0.00     0.227 C 
ATOM     67  H   UNL A   1      34.406  19.669  26.225  1.00  0.00     0.163 HD
ATOM     68  O   UNL A   1      32.298  20.154  25.151  1.00  0.00    -0.274 OA
BRANCH  66  69
ATOM     69  C   UNL A   1      33.158  22.375  24.667  1.00  0.00     0.103 C 
ATOM     70  C   UNL A   1      32.880  22.435  23.189  1.00  0.00    -0.016 C 
ATOM     71  C   UNL A   1      31.986  23.205  25.215  1.00  0.00     0.047 C 
ATOM     72  C   UNL A   1      32.116  23.489  22.890  1.00  0.00    -0.006 C 
ATOM     73  C   UNL A   1      31.751  24.254  24.122  1.00  0.00     0.106 C 
BRANCH  73  74
ATOM     74  N   UNL A   1      30.390  24.690  23.977  1.00  0.00    -0.344 N 
ATOM     75  C   UNL A   1      29.863  25.930  24.276  1.00  0.00     0.270 C 
ATOM     76  H   UNL A   1      29.757  24.026  23.620  1.00  0.00     0.164 HD
ATOM     77  O   UNL A   1      28.697  26.185  23.985  1.00  0.00    -0.267 OA
BRANCH  75  78
ATOM     78  C   UNL A   1      30.707  26.952  24.966  1.00  0.00     0.128 A 
ATOM     79  C   UNL A   1      30.935  26.890  26.339  1.00  0.00     0.036 A 
ATOM     80  N   UNL A   1      31.205  27.935  24.172  1.00  0.00    -0.250 NA
ATOM     81  C   UNL A   1      31.672  27.911  26.938  1.00  0.00     0.024 A 
ATOM     82  C   UNL A   1      31.945  28.892  24.780  1.00  0.00     0.132 A 
ATOM     83  C   UNL A   1      32.188  28.930  26.145  1.00  0.00     0.059 A 
ATOM     84  Cl  UNL A   1      33.099  30.204  26.844  1.00  0.00    -0.083 Cl
ENDBRANCH  75  78
ENDBRANCH  73  74
ENDBRANCH  66  69
ENDBRANCH  64  65
ENDBRANCH  63  64
ENDBRANCH   1  63
TORSDOF 13
ENDMDL
MODEL 3
REMARK VINA RESULT:     -11.6      4.271      9.414
REMARK SMILES O=C(NCCCCNC(=O)[C@H]1C=C[C@@H](NC(=O)c2ccc(Cl)cn2)C1)c1ccc(-c2c3nc(c(-c4c(F)cccc4F)c4ccc([nH]4)c(-c4c(F)cccc4F)c4nc(c(-c5c(F)cccc5F)c5ccc2[nH]5)C=C4)C=C3)cc1
REMARK SMILES IDX 5 1 4 2 3 3 1 4 2 5 26 7 27 8 79 9 28 10 78 11 29 12 30 13
REMARK SMILES IDX 31 14 72 15 32 16 77 17 71 18 73 19 33 20 76 21 70 22 69 23
REMARK SMILES IDX 34 25 60 26 43 27 59 28 44 29 47 30 58 31 74 32 45 33 46 34
REMARK SMILES IDX 57 36 75 37 48 38 35 39 36 40 41 41 37 42 38 43 40 44 42 45
REMARK SMILES IDX 39 46 61 47 62 48 67 49 63 50 64 51 66 52 68 53 65 54 49 55
REMARK SMILES IDX 50 56 55 57 51 58 52 59 54 60 56 61 53 62 6 63 7 64 8 65
REMARK SMILES IDX 9 66 10 68 11 69 12 70 25 71 13 72 14 73 15 74 16 75 17 77
REMARK SMILES IDX 18 78 19 79 24 80 20 81 23 82 21 83 22 84
REMARK H PARENT 3 6 73 24 47 35 8 67 15 76
REMARK Flexibility Score: inf
ROOT
ATOM      1  C   UNL A   1      31.390  31.771  26.501  1.00  0.00     0.023 C 
ENDROOT
BRANCH   1   2
ATOM      2  C   UNL A   1      32.673  32.464  26.944  1.00  0.00     0.116 C 
BRANCH   2   3
ATOM      3  N   UNL A   1      32.455  33.828  27.404  1.00  0.00    -0.352 N 
ATOM      4  O   UNL A   1      32.675  35.627  28.753  1.00  0.00    -0.269 OA
ATOM      5  C   UNL A   1      33.089  34.524  28.408  1.00  0.00     0.251 C 
ATOM      6  H   UNL A   1      31.751  34.326  26.928  1.00  0.00     0.163 HD
BRANCH   5   7
ATOM      7  C   UNL A   1      34.254  33.924  29.091  1.00  0.00     0.039 A 
ATOM      8  C   UNL A   1      35.550  34.306  28.745  1.00  0.00     0.014 A 
ATOM      9  C   UNL A   1      34.047  32.956  30.080  1.00  0.00     0.014 A 
ATOM     10  C   UNL A   1      36.634  33.604  29.254  1.00  0.00     0.010 A 
ATOM     11  C   UNL A   1      35.145  32.320  30.668  1.00  0.00     0.010 A 
ATOM     12  C   UNL A   1      36.446  32.614  30.234  1.00  0.00    -0.014 A 
BRANCH  12  13
ATOM     13  C   UNL A   1      37.640  31.961  30.827  1.00  0.00     0.031 A 
ATOM     14  C   UNL A   1      38.095  32.272  32.226  1.00  0.00     0.074 A 
ATOM     15  C   UNL A   1      38.287  31.033  30.096  1.00  0.00     0.049 A 
ATOM     16  N   UNL A   1      39.091  31.753  32.900  1.00  0.00    -0.248 NA
ATOM     17  C   UNL A   1      37.345  33.299  32.965  1.00  0.00     0.031 C 
ATOM     18  C   UNL A   1      37.945  30.658  28.720  1.00  0.00     0.029 A 
ATOM     19  N   UNL A   1      39.342  30.215  30.408  1.00  0.00    -0.354 N 
ATOM     20  C   UNL A   1      39.099  32.396  34.131  1.00  0.00     0.074 A 
ATOM     21  C   UNL A   1      38.021  33.364  34.105  1.00  0.00     0.031 C 
ATOM     22  C   UNL A   1      38.734  29.648  28.330  1.00  0.00     0.029 A 
ATOM     23  C   UNL A   1      39.678  29.347  29.399  1.00  0.00     0.049 A 
ATOM     24  H   UNL A   1      39.813  30.247  31.272  1.00  0.00     0.167 HD
ATOM     25  C   UNL A   1      39.924  32.193  35.186  1.00  0.00     0.037 A 
ATOM     26  C   UNL A   1      40.649  28.420  29.330  1.00  0.00     0.037 A 
ATOM     27  C   UNL A   1      40.985  31.217  35.212  1.00  0.00     0.049 A 
ATOM     28  C   UNL A   1      41.555  28.227  30.509  1.00  0.00     0.074 A 
ATOM     29  C   UNL A   1      41.857  30.918  36.246  1.00  0.00     0.029 A 
ATOM     30  N   UNL A   1      41.317  30.380  34.157  1.00  0.00    -0.354 N 
ATOM     31  N   UNL A   1      41.533  28.830  31.673  1.00  0.00    -0.248 NA
ATOM     32  C   UNL A   1      42.623  27.231  30.364  1.00  0.00     0.031 C 
ATOM     33  C   UNL A   1      42.741  29.928  35.802  1.00  0.00     0.029 A 
ATOM     34  C   UNL A   1      42.392  29.580  34.508  1.00  0.00     0.049 A 
ATOM     35  H   UNL A   1      40.856  30.358  33.287  1.00  0.00     0.167 HD
ATOM     36  C   UNL A   1      42.578  28.284  32.401  1.00  0.00     0.074 A 
ATOM     37  C   UNL A   1      43.196  27.279  31.558  1.00  0.00     0.031 C 
ATOM     38  C   UNL A   1      42.997  28.592  33.652  1.00  0.00     0.037 A 
BRANCH  25  39
ATOM     39  C   UNL A   1      39.728  33.047  36.404  1.00  0.00     0.057 A 
ATOM     40  C   UNL A   1      40.429  34.246  36.588  1.00  0.00     0.134 A 
ATOM     41  C   UNL A   1      38.775  32.702  37.372  1.00  0.00     0.134 A 
ATOM     42  F   UNL A   1      41.363  34.629  35.704  1.00  0.00    -0.206 F 
ATOM     43  C   UNL A   1      40.199  35.064  37.696  1.00  0.00     0.040 A 
ATOM     44  C   UNL A   1      38.521  33.523  38.474  1.00  0.00     0.040 A 
ATOM     45  F   UNL A   1      38.064  31.572  37.254  1.00  0.00    -0.206 F 
ATOM     46  C   UNL A   1      39.236  34.707  38.638  1.00  0.00     0.006 A 
ENDBRANCH  25  39
BRANCH  26  47
ATOM     47  C   UNL A   1      40.819  27.617  28.094  1.00  0.00     0.057 A 
ATOM     48  C   UNL A   1      41.610  28.074  27.035  1.00  0.00     0.134 A 
ATOM     49  C   UNL A   1      40.200  26.369  27.950  1.00  0.00     0.134 A 
ATOM     50  F   UNL A   1      42.214  29.268  27.110  1.00  0.00    -0.206 F 
ATOM     51  C   UNL A   1      41.769  27.325  25.868  1.00  0.00     0.040 A 
ATOM     52  C   UNL A   1      40.373  25.598  26.800  1.00  0.00     0.040 A 
ATOM     53  F   UNL A   1      39.437  25.873  28.934  1.00  0.00    -0.206 F 
ATOM     54  C   UNL A   1      41.153  26.080  25.752  1.00  0.00     0.006 A 
ENDBRANCH  26  47
BRANCH  38  55
ATOM     55  C   UNL A   1      44.170  27.821  34.178  1.00  0.00     0.057 A 
ATOM     56  C   UNL A   1      45.481  28.295  34.042  1.00  0.00     0.134 A 
ATOM     57  C   UNL A   1      43.986  26.596  34.832  1.00  0.00     0.134 A 
ATOM     58  F   UNL A   1      45.723  29.453  33.412  1.00  0.00    -0.206 F 
ATOM     59  C   UNL A   1      46.572  27.563  34.514  1.00  0.00     0.040 A 
ATOM     60  C   UNL A   1      45.067  25.867  35.328  1.00  0.00     0.040 A 
ATOM     61  F   UNL A   1      42.755  26.091  34.998  1.00  0.00    -0.206 F 
ATOM     62  C   UNL A   1      46.365  26.346  35.162  1.00  0.00     0.006 A 
ENDBRANCH  38  55
ENDBRANCH  12  13
ENDBRANCH   5   7
ENDBRANCH   2   3
ENDBRANCH   1   2
BRANCH   1  63
ATOM     63  C   UNL A   1      31.551  30.318  26.065  1.00  0.00     0.023 C 
BRANCH  63  64
ATOM     64  C   UNL A   1      32.980  29.886  25.761  1.00  0.00     0.116 C 
BRANCH  64  65
ATOM     65  N   UNL A   1      33.252  29.703  24.345  1.00  0.00    -0.356 N 
ATOM     66  C   UNL A   1      33.159  28.538  23.623  1.00  0.00     0.227 C 
ATOM     67  H   UNL A   1      33.534  30.504  23.848  1.00  0.00     0.163 HD
ATOM     68  O   UNL A   1      33.302  28.582  22.402  1.00  0.00    -0.274 OA
BRANCH  66  69
ATOM     69  C   UNL A   1      32.930  27.241  24.395  1.00  0.00     0.103 C 
ATOM     70  C   UNL A   1      31.469  26.932  24.585  1.00  0.00    -0.016 C 
ATOM     71  C   UNL A   1      33.404  25.965  23.682  1.00  0.00     0.047 C 
ATOM     72  C   UNL A   1      31.252  25.615  24.546  1.00  0.00    -0.006 C 
ATOM     73  C   UNL A   1      32.522  24.869  24.290  1.00  0.00     0.106 C 
BRANCH  73  74
ATOM     74  N   UNL A   1      32.215  23.774  23.412  1.00  0.00    -0.344 N 
ATOM     75  C   UNL A   1      32.953  22.626  23.201  1.00  0.00     0.270 C 
ATOM     76  H   UNL A   1      31.378  23.850  22.900  1.00  0.00     0.164 HD
ATOM     77  O   UNL A   1      32.496  21.726  22.501  1.00  0.00    -0.267 OA
BRANCH  75  78
ATOM     78  C   UNL A   1      34.310  22.490  23.812  1.00  0.00     0.128 A 
ATOM     79  C   UNL A   1      35.446  22.953  23.153  1.00  0.00     0.036 A 
ATOM     80  N   UNL A   1      34.350  21.874  25.021  1.00  0.00    -0.250 NA
ATOM     81  C   UNL A   1      36.692  22.734  23.740  1.00  0.00     0.024 A 
ATOM     82  C   UNL A   1      35.572  21.708  25.580  1.00  0.00     0.132 A 
ATOM     83  C   UNL A   1      36.757  22.101  24.977  1.00  0.00     0.059 A 
ATOM     84  Cl  UNL A   1      38.270  21.813  25.731  1.00  0.00    -0.083 Cl
ENDBRANCH  75  78
ENDBRANCH  73  74
ENDBRANCH  66  69
ENDBRANCH  64  65
ENDBRANCH  63  64
ENDBRANCH   1  63
TORSDOF 13
ENDMDL
