MODEL 1
REMARK VINA RESULT:     -12.0      0.000      0.000
REMARK SMILES Cc1onc2c(=O)n(C)nc(C(=O)NCCCCNC(=O)c3ccc(-c4c5nc(c(-c6c(F)cccc6F)c6ccc([nH]6)c(-c6c(F)cccc6F)c6nc(c(-c7c(F)cccc7F)c7ccc4[nH]7)C=C6)C=C5)cc3)c12
REMARK SMILES IDX 17 1 16 2 15 3 14 4 12 5 13 6 11 8 1 9 2 10 3 11 76 12 4 13
REMARK SMILES IDX 5 14 6 15 10 16 7 17 8 18 9 19 18 20 19 21 20 22 21 24 22 25
REMARK SMILES IDX 23 26 75 27 24 28 74 29 25 30 26 31 27 32 68 33 28 34 73 35
REMARK SMILES IDX 67 36 69 37 29 38 72 39 66 40 65 41 30 43 56 44 39 45 55 46
REMARK SMILES IDX 40 47 43 48 54 49 70 50 41 51 42 52 53 54 71 55 44 56 31 57
REMARK SMILES IDX 32 58 37 59 33 60 34 61 36 62 38 63 35 64 57 65 58 66 63 67
REMARK SMILES IDX 59 68 60 69 62 70 64 71 61 72 45 73 46 74 51 75 47 76 48 77
REMARK SMILES IDX 50 78 52 79 49 80
REMARK H PARENT 14 7 19 23 69 42 43 53
REMARK Flexibility Score: inf
ROOT
ATOM      1  C   UNL A   1      44.044  25.530  27.531  1.00  0.00     0.023 C 
ENDROOT
BRANCH   1   2
ATOM      2  C   UNL A   1      44.293  24.103  28.050  1.00  0.00     0.023 C 
BRANCH   2   3
ATOM      3  C   UNL A   1      45.484  23.381  27.424  1.00  0.00     0.116 C 
BRANCH   3   4
ATOM      4  N   UNL A   1      45.470  23.467  25.974  1.00  0.00    -0.351 N 
ATOM      5  C   UNL A   1      44.707  22.842  25.014  1.00  0.00     0.272 C 
ATOM      6  O   UNL A   1      44.859  23.193  23.848  1.00  0.00    -0.267 OA
ATOM      7  H   UNL A   1      46.137  24.092  25.606  1.00  0.00     0.163 HD
BRANCH   5   8
ATOM      8  C   UNL A   1      43.674  21.751  25.340  1.00  0.00     0.161 A 
ATOM      9  C   UNL A   1      46.525  19.816  24.843  1.00  0.00     0.091 C 
ATOM     10  C   UNL A   1      45.090  19.572  25.089  1.00  0.00     0.144 A 
ATOM     11  O   UNL A   1      44.738  18.252  25.141  1.00  0.00    -0.360 OA
ATOM     12  C   UNL A   1      43.965  20.336  25.298  1.00  0.00     0.083 A 
ATOM     13  N   UNL A   1      43.388  18.135  25.418  1.00  0.00    -0.074 NA
ATOM     14  C   UNL A   1      42.944  19.391  25.521  1.00  0.00     0.183 A 
ATOM     15  C   UNL A   1      41.594  19.789  25.850  1.00  0.00     0.296 A 
ATOM     16  N   UNL A   1      42.454  22.112  25.640  1.00  0.00    -0.164 NA
ATOM     17  O   UNL A   1      40.671  18.998  26.064  1.00  0.00    -0.265 OA
ATOM     18  N   UNL A   1      41.451  21.185  25.925  1.00  0.00    -0.230 N 
ATOM     19  C   UNL A   1      40.166  21.730  26.316  1.00  0.00     0.178 C 
ENDBRANCH   5   8
ENDBRANCH   3   4
ENDBRANCH   2   3
ENDBRANCH   1   2
BRANCH   1  20
ATOM     20  C   UNL A   1      42.742  25.731  26.744  1.00  0.00     0.116 C 
BRANCH  20  21
ATOM     21  N   UNL A   1      42.901  26.776  25.752  1.00  0.00    -0.352 N 
ATOM     22  C   UNL A   1      42.263  27.972  25.603  1.00  0.00     0.251 C 
ATOM     23  H   UNL A   1      43.585  26.591  25.069  1.00  0.00     0.163 HD
ATOM     24  O   UNL A   1      42.292  28.514  24.499  1.00  0.00    -0.269 OA
BRANCH  22  25
ATOM     25  C   UNL A   1      41.581  28.655  26.721  1.00  0.00     0.039 A 
ATOM     26  C   UNL A   1      42.349  28.922  27.859  1.00  0.00     0.014 A 
ATOM     27  C   UNL A   1      40.195  28.850  26.747  1.00  0.00     0.014 A 
ATOM     28  C   UNL A   1      41.737  29.367  29.023  1.00  0.00     0.010 A 
ATOM     29  C   UNL A   1      39.580  29.308  27.916  1.00  0.00     0.010 A 
ATOM     30  C   UNL A   1      40.351  29.557  29.058  1.00  0.00    -0.014 A 
BRANCH  30  31
ATOM     31  C   UNL A   1      39.803  30.072  30.323  1.00  0.00     0.031 A 
ATOM     32  C   UNL A   1      40.174  29.276  31.542  1.00  0.00     0.074 A 
ATOM     33  C   UNL A   1      39.656  31.404  30.472  1.00  0.00     0.049 A 
ATOM     34  N   UNL A   1      41.291  29.376  32.199  1.00  0.00    -0.248 NA
ATOM     35  C   UNL A   1      39.358  28.129  31.948  1.00  0.00     0.031 C 
ATOM     36  C   UNL A   1      40.646  32.428  30.138  1.00  0.00     0.029 A 
ATOM     37  N   UNL A   1      38.630  32.098  31.067  1.00  0.00    -0.354 N 
ATOM     38  C   UNL A   1      41.336  28.323  33.103  1.00  0.00     0.074 A 
ATOM     39  C   UNL A   1      40.124  27.564  32.894  1.00  0.00     0.031 C 
ATOM     40  C   UNL A   1      40.263  33.593  30.699  1.00  0.00     0.029 A 
ATOM     41  C   UNL A   1      38.967  33.419  31.353  1.00  0.00     0.049 A 
ATOM     42  H   UNL A   1      37.750  31.705  31.270  1.00  0.00     0.167 HD
ATOM     43  C   UNL A   1      42.347  28.152  33.996  1.00  0.00     0.037 A 
ATOM     44  C   UNL A   1      38.547  34.059  32.483  1.00  0.00     0.037 A 
ATOM     45  C   UNL A   1      43.339  29.184  33.990  1.00  0.00     0.049 A 
ATOM     46  C   UNL A   1      39.572  33.547  33.476  1.00  0.00     0.074 A 
ATOM     47  C   UNL A   1      44.581  29.408  33.444  1.00  0.00     0.029 A 
ATOM     48  N   UNL A   1      43.039  30.338  34.673  1.00  0.00    -0.354 N 
ATOM     49  N   UNL A   1      40.819  33.936  33.566  1.00  0.00    -0.248 NA
ATOM     50  C   UNL A   1      39.296  32.258  34.117  1.00  0.00     0.031 C 
ATOM     51  C   UNL A   1      44.733  30.830  33.434  1.00  0.00     0.029 A 
ATOM     52  C   UNL A   1      43.556  31.376  33.946  1.00  0.00     0.049 A 
ATOM     53  H   UNL A   1      42.547  30.406  35.523  1.00  0.00     0.167 HD
ATOM     54  C   UNL A   1      41.530  32.808  33.991  1.00  0.00     0.074 A 
ATOM     55  C   UNL A   1      40.528  31.827  34.354  1.00  0.00     0.031 C 
ATOM     56  C   UNL A   1      42.877  32.647  33.827  1.00  0.00     0.037 A 
BRANCH  43  57
ATOM     57  C   UNL A   1      42.390  27.154  35.088  1.00  0.00     0.057 A 
ATOM     58  C   UNL A   1      42.908  25.883  34.796  1.00  0.00     0.134 A 
ATOM     59  C   UNL A   1      41.697  27.312  36.289  1.00  0.00     0.134 A 
ATOM     60  F   UNL A   1      43.583  25.676  33.654  1.00  0.00    -0.206 F 
ATOM     61  C   UNL A   1      42.684  24.789  35.628  1.00  0.00     0.040 A 
ATOM     62  C   UNL A   1      41.482  26.224  37.143  1.00  0.00     0.040 A 
ATOM     63  F   UNL A   1      41.168  28.498  36.621  1.00  0.00    -0.206 F 
ATOM     64  C   UNL A   1      41.953  24.955  36.801  1.00  0.00     0.006 A 
ENDBRANCH  43  57
BRANCH  44  65
ATOM     65  C   UNL A   1      37.062  34.028  32.683  1.00  0.00     0.057 A 
ATOM     66  C   UNL A   1      36.247  34.022  31.530  1.00  0.00     0.134 A 
ATOM     67  C   UNL A   1      36.383  33.925  33.901  1.00  0.00     0.134 A 
ATOM     68  F   UNL A   1      36.783  34.248  30.321  1.00  0.00    -0.206 F 
ATOM     69  C   UNL A   1      34.880  33.743  31.576  1.00  0.00     0.040 A 
ATOM     70  C   UNL A   1      35.014  33.626  33.962  1.00  0.00     0.040 A 
ATOM     71  F   UNL A   1      37.015  34.085  35.071  1.00  0.00    -0.206 F 
ATOM     72  C   UNL A   1      34.266  33.498  32.796  1.00  0.00     0.006 A 
ENDBRANCH  44  65
BRANCH  56  73
ATOM     73  C   UNL A   1      43.619  33.810  33.268  1.00  0.00     0.057 A 
ATOM     74  C   UNL A   1      43.891  33.892  31.900  1.00  0.00     0.134 A 
ATOM     75  C   UNL A   1      44.002  34.894  34.072  1.00  0.00     0.134 A 
ATOM     76  F   UNL A   1      43.540  32.894  31.074  1.00  0.00    -0.206 F 
ATOM     77  C   UNL A   1      44.493  35.023  31.347  1.00  0.00     0.040 A 
ATOM     78  C   UNL A   1      44.575  36.042  33.526  1.00  0.00     0.040 A 
ATOM     79  F   UNL A   1      43.795  34.878  35.399  1.00  0.00    -0.206 F 
ATOM     80  C   UNL A   1      44.819  36.109  32.158  1.00  0.00     0.006 A 
ENDBRANCH  56  73
ENDBRANCH  30  31
ENDBRANCH  22  25
ENDBRANCH  20  21
ENDBRANCH   1  20
TORSDOF 11
ENDMDL
MODEL 2
REMARK VINA RESULT:     -11.9      8.311     13.777
REMARK SMILES Cc1onc2c(=O)n(C)nc(C(=O)NCCCCNC(=O)c3ccc(-c4c5nc(c(-c6c(F)cccc6F)c6ccc([nH]6)c(-c6c(F)cccc6F)c6nc(c(-c7c(F)cccc7F)c7ccc4[nH]7)C=C6)C=C5)cc3)c12
REMARK SMILES IDX 17 1 16 2 15 3 14 4 12 5 13 6 11 8 1 9 2 10 3 11 76 12 4 13
REMARK SMILES IDX 5 14 6 15 10 16 7 17 8 18 9 19 18 20 19 21 20 22 21 24 22 25
REMARK SMILES IDX 23 26 75 27 24 28 74 29 25 30 26 31 27 32 68 33 28 34 73 35
REMARK SMILES IDX 67 36 69 37 29 38 72 39 66 40 65 41 30 43 56 44 39 45 55 46
REMARK SMILES IDX 40 47 43 48 54 49 70 50 41 51 42 52 53 54 71 55 44 56 31 57
REMARK SMILES IDX 32 58 37 59 33 60 34 61 36 62 38 63 35 64 57 65 58 66 63 67
REMARK SMILES IDX 59 68 60 69 62 70 64 71 61 72 45 73 46 74 51 75 47 76 48 77
REMARK SMILES IDX 50 78 52 79 49 80
REMARK H PARENT 14 7 19 23 69 42 43 53
REMARK Flexibility Score: inf
ROOT
ATOM      1  C   UNL A   1      39.908  34.593  29.648  1.00  0.00     0.023 C 
ENDROOT
BRANCH   1   2
ATOM      2  C   UNL A   1      38.426  34.557  30.061  1.00  0.00     0.023 C 
BRANCH   2   3
ATOM      3  C   UNL A   1      37.589  33.473  29.387  1.00  0.00     0.116 C 
BRANCH   3   4
ATOM      4  N   UNL A   1      36.986  32.572  30.354  1.00  0.00    -0.351 N 
ATOM      5  C   UNL A   1      35.818  32.636  31.079  1.00  0.00     0.272 C 
ATOM      6  O   UNL A   1      35.516  31.661  31.760  1.00  0.00    -0.267 OA
ATOM      7  H   UNL A   1      37.516  31.760  30.525  1.00  0.00     0.163 HD
BRANCH   5   8
ATOM      8  C   UNL A   1      34.879  33.853  31.056  1.00  0.00     0.161 A 
ATOM      9  C   UNL A   1      34.053  32.341  28.030  1.00  0.00     0.091 C 
ATOM     10  C   UNL A   1      33.707  33.590  28.737  1.00  0.00     0.144 A 
ATOM     11  O   UNL A   1      32.837  34.402  28.065  1.00  0.00    -0.360 OA
ATOM     12  C   UNL A   1      34.023  34.182  29.938  1.00  0.00     0.083 A 
ATOM     13  N   UNL A   1      32.547  35.518  28.830  1.00  0.00    -0.074 NA
ATOM     14  C   UNL A   1      33.254  35.363  29.953  1.00  0.00     0.183 A 
ATOM     15  C   UNL A   1      33.247  36.255  31.090  1.00  0.00     0.296 A 
ATOM     16  N   UNL A   1      34.871  34.657  32.086  1.00  0.00    -0.164 NA
ATOM     17  O   UNL A   1      32.583  37.294  31.151  1.00  0.00    -0.265 OA
ATOM     18  N   UNL A   1      34.065  35.795  32.136  1.00  0.00    -0.230 N 
ATOM     19  C   UNL A   1      34.102  36.554  33.371  1.00  0.00     0.178 C 
ENDBRANCH   5   8
ENDBRANCH   3   4
ENDBRANCH   2   3
ENDBRANCH   1   2
BRANCH   1  20
ATOM     20  C   UNL A   1      40.914  34.274  30.763  1.00  0.00     0.116 C 
BRANCH  20  21
ATOM     21  N   UNL A   1      41.980  33.430  30.262  1.00  0.00    -0.352 N 
ATOM     22  C   UNL A   1      42.831  33.595  29.210  1.00  0.00     0.251 C 
ATOM     23  H   UNL A   1      42.112  32.595  30.767  1.00  0.00     0.163 HD
ATOM     24  O   UNL A   1      43.390  32.599  28.751  1.00  0.00    -0.269 OA
BRANCH  22  25
ATOM     25  C   UNL A   1      43.137  34.919  28.633  1.00  0.00     0.039 A 
ATOM     26  C   UNL A   1      43.741  35.852  29.482  1.00  0.00     0.014 A 
ATOM     27  C   UNL A   1      42.674  35.314  27.372  1.00  0.00     0.014 A 
ATOM     28  C   UNL A   1      43.868  37.176  29.084  1.00  0.00     0.010 A 
ATOM     29  C   UNL A   1      42.810  36.645  26.968  1.00  0.00     0.010 A 
ATOM     30  C   UNL A   1      43.400  37.579  27.828  1.00  0.00    -0.014 A 
BRANCH  30  31
ATOM     31  C   UNL A   1      43.619  38.992  27.481  1.00  0.00     0.031 A 
ATOM     32  C   UNL A   1      43.235  39.972  28.553  1.00  0.00     0.074 A 
ATOM     33  C   UNL A   1      44.665  39.311  26.693  1.00  0.00     0.049 A 
ATOM     34  N   UNL A   1      43.969  40.300  29.574  1.00  0.00    -0.248 NA
ATOM     35  C   UNL A   1      41.860  40.469  28.638  1.00  0.00     0.031 C 
ATOM     36  C   UNL A   1      46.037  38.822  26.833  1.00  0.00     0.029 A 
ATOM     37  N   UNL A   1      44.731  40.235  25.677  1.00  0.00    -0.354 N 
ATOM     38  C   UNL A   1      43.172  41.044  30.435  1.00  0.00     0.074 A 
ATOM     39  C   UNL A   1      41.866  41.103  29.820  1.00  0.00     0.031 C 
ATOM     40  C   UNL A   1      46.844  39.584  26.065  1.00  0.00     0.029 A 
ATOM     41  C   UNL A   1      46.039  40.550  25.319  1.00  0.00     0.049 A 
ATOM     42  H   UNL A   1      43.938  40.632  25.249  1.00  0.00     0.167 HD
ATOM     43  C   UNL A   1      43.637  41.600  31.586  1.00  0.00     0.037 A 
ATOM     44  C   UNL A   1      46.424  41.811  24.967  1.00  0.00     0.037 A 
ATOM     45  C   UNL A   1      45.038  41.425  31.818  1.00  0.00     0.049 A 
ATOM     46  C   UNL A   1      46.618  42.424  26.340  1.00  0.00     0.074 A 
ATOM     47  C   UNL A   1      45.863  40.582  32.526  1.00  0.00     0.029 A 
ATOM     48  N   UNL A   1      45.889  42.278  31.157  1.00  0.00    -0.354 N 
ATOM     49  N   UNL A   1      47.625  42.204  27.147  1.00  0.00    -0.248 NA
ATOM     50  C   UNL A   1      45.432  42.981  26.997  1.00  0.00     0.031 C 
ATOM     51  C   UNL A   1      47.136  40.676  31.881  1.00  0.00     0.029 A 
ATOM     52  C   UNL A   1      46.989  41.547  30.801  1.00  0.00     0.049 A 
ATOM     53  H   UNL A   1      45.737  43.234  30.975  1.00  0.00     0.167 HD
ATOM     54  C   UNL A   1      47.094  42.297  28.439  1.00  0.00     0.074 A 
ATOM     55  C   UNL A   1      45.754  42.822  28.274  1.00  0.00     0.031 C 
ATOM     56  C   UNL A   1      47.678  41.751  29.546  1.00  0.00     0.037 A 
BRANCH  43  57
ATOM     57  C   UNL A   1      42.898  42.529  32.470  1.00  0.00     0.057 A 
ATOM     58  C   UNL A   1      42.850  43.883  32.107  1.00  0.00     0.134 A 
ATOM     59  C   UNL A   1      42.499  42.189  33.763  1.00  0.00     0.134 A 
ATOM     60  F   UNL A   1      43.223  44.264  30.874  1.00  0.00    -0.206 F 
ATOM     61  C   UNL A   1      42.491  44.876  33.015  1.00  0.00     0.040 A 
ATOM     62  C   UNL A   1      42.117  43.176  34.680  1.00  0.00     0.040 A 
ATOM     63  F   UNL A   1      42.533  40.914  34.176  1.00  0.00    -0.206 F 
ATOM     64  C   UNL A   1      42.138  44.524  34.314  1.00  0.00     0.006 A 
ENDBRANCH  43  57
BRANCH  44  65
ATOM     65  C   UNL A   1      45.607  42.410  23.863  1.00  0.00     0.057 A 
ATOM     66  C   UNL A   1      46.223  42.566  22.603  1.00  0.00     0.134 A 
ATOM     67  C   UNL A   1      44.256  42.769  23.921  1.00  0.00     0.134 A 
ATOM     68  F   UNL A   1      47.545  42.378  22.469  1.00  0.00    -0.206 F 
ATOM     69  C   UNL A   1      45.505  42.872  21.445  1.00  0.00     0.040 A 
ATOM     70  C   UNL A   1      43.518  43.059  22.765  1.00  0.00     0.040 A 
ATOM     71  F   UNL A   1      43.596  42.829  25.085  1.00  0.00    -0.206 F 
ATOM     72  C   UNL A   1      44.134  43.076  21.518  1.00  0.00     0.006 A 
ENDBRANCH  44  65
BRANCH  56  73
ATOM     73  C   UNL A   1      49.018  41.130  29.351  1.00  0.00     0.057 A 
ATOM     74  C   UNL A   1      49.139  39.760  29.107  1.00  0.00     0.134 A 
ATOM     75  C   UNL A   1      50.189  41.901  29.326  1.00  0.00     0.134 A 
ATOM     76  F   UNL A   1      48.055  38.968  29.105  1.00  0.00    -0.206 F 
ATOM     77  C   UNL A   1      50.376  39.182  28.819  1.00  0.00     0.040 A 
ATOM     78  C   UNL A   1      51.425  41.341  29.008  1.00  0.00     0.040 A 
ATOM     79  F   UNL A   1      50.154  43.221  29.574  1.00  0.00    -0.206 F 
ATOM     80  C   UNL A   1      51.521  39.976  28.750  1.00  0.00     0.006 A 
ENDBRANCH  56  73
ENDBRANCH  30  31
ENDBRANCH  22  25
ENDBRANCH  20  21
ENDBRANCH   1  20
TORSDOF 11
ENDMDL
MODEL 3
REMARK VINA RESULT:     -11.8      8.214     13.892
REMARK SMILES Cc1onc2c(=O)n(C)nc(C(=O)NCCCCNC(=O)c3ccc(-c4c5nc(c(-c6c(F)cccc6F)c6ccc([nH]6)c(-c6c(F)cccc6F)c6nc(c(-c7c(F)cccc7F)c7ccc4[nH]7)C=C6)C=C5)cc3)c12
REMARK SMILES IDX 17 1 16 2 15 3 14 4 12 5 13 6 11 8 1 9 2 10 3 11 76 12 4 13
REMARK SMILES IDX 5 14 6 15 10 16 7 17 8 18 9 19 18 20 19 21 20 22 21 24 22 25
REMARK SMILES IDX 23 26 75 27 24 28 74 29 25 30 26 31 27 32 68 33 28 34 73 35
REMARK SMILES IDX 67 36 69 37 29 38 72 39 66 40 65 41 30 43 56 44 39 45 55 46
REMARK SMILES IDX 40 47 43 48 54 49 70 50 41 51 42 52 53 54 71 55 44 56 31 57
REMARK SMILES IDX 32 58 37 59 33 60 34 61 36 62 38 63 35 64 57 65 58 66 63 67
REMARK SMILES IDX 59 68 60 69 62 70 64 71 61 72 45 73 46 74 51 75 47 76 48 77
REMARK SMILES IDX 50 78 52 79 49 80
REMARK H PARENT 14 7 19 23 69 42 43 53
REMARK Flexibility Score: inf
ROOT
ATOM      1  C   UNL A   1      39.254  33.408  30.194  1.00  0.00     0.023 C 
ENDROOT
BRANCH   1   2
ATOM      2  C   UNL A   1      38.439  33.109  31.464  1.00  0.00     0.023 C 
BRANCH   2   3
ATOM      3  C   UNL A   1      37.811  34.327  32.137  1.00  0.00     0.116 C 
BRANCH   3   4
ATOM      4  N   UNL A   1      36.737  33.955  33.041  1.00  0.00    -0.351 N 
ATOM      5  C   UNL A   1      35.390  33.749  32.847  1.00  0.00     0.272 C 
ATOM      6  O   UNL A   1      34.733  33.339  33.799  1.00  0.00    -0.267 OA
ATOM      7  H   UNL A   1      37.029  33.826  33.973  1.00  0.00     0.163 HD
BRANCH   5   8
ATOM      8  C   UNL A   1      34.688  33.990  31.501  1.00  0.00     0.161 A 
ATOM      9  C   UNL A   1      33.954  36.964  33.156  1.00  0.00     0.091 C 
ATOM     10  C   UNL A   1      33.588  36.329  31.875  1.00  0.00     0.144 A 
ATOM     11  O   UNL A   1      32.735  37.063  31.099  1.00  0.00    -0.360 OA
ATOM     12  C   UNL A   1      33.887  35.159  31.215  1.00  0.00     0.083 A 
ATOM     13  N   UNL A   1      32.492  36.400  29.909  1.00  0.00    -0.074 NA
ATOM     14  C   UNL A   1      33.200  35.270  29.990  1.00  0.00     0.183 A 
ATOM     15  C   UNL A   1      33.306  34.260  28.960  1.00  0.00     0.296 A 
ATOM     16  N   UNL A   1      34.787  33.078  30.570  1.00  0.00    -0.164 NA
ATOM     17  O   UNL A   1      32.731  34.320  27.870  1.00  0.00    -0.265 OA
ATOM     18  N   UNL A   1      34.161  33.208  29.330  1.00  0.00    -0.230 N 
ATOM     19  C   UNL A   1      34.420  32.155  28.367  1.00  0.00     0.178 C 
ENDBRANCH   5   8
ENDBRANCH   3   4
ENDBRANCH   2   3
ENDBRANCH   1   2
BRANCH   1  20
ATOM     20  C   UNL A   1      40.527  34.240  30.405  1.00  0.00     0.116 C 
BRANCH  20  21
ATOM     21  N   UNL A   1      41.706  33.460  30.087  1.00  0.00    -0.352 N 
ATOM     22  C   UNL A   1      42.689  33.661  29.163  1.00  0.00     0.251 C 
ATOM     23  H   UNL A   1      41.816  32.646  30.629  1.00  0.00     0.163 HD
ATOM     24  O   UNL A   1      43.371  32.697  28.819  1.00  0.00    -0.269 OA
BRANCH  22  25
ATOM     25  C   UNL A   1      42.991  34.992  28.599  1.00  0.00     0.039 A 
ATOM     26  C   UNL A   1      43.540  35.937  29.471  1.00  0.00     0.014 A 
ATOM     27  C   UNL A   1      42.570  35.378  27.320  1.00  0.00     0.014 A 
ATOM     28  C   UNL A   1      43.656  37.263  29.077  1.00  0.00     0.010 A 
ATOM     29  C   UNL A   1      42.696  36.711  26.921  1.00  0.00     0.010 A 
ATOM     30  C   UNL A   1      43.231  37.657  27.804  1.00  0.00    -0.014 A 
BRANCH  30  31
ATOM     31  C   UNL A   1      43.435  39.074  27.465  1.00  0.00     0.031 A 
ATOM     32  C   UNL A   1      43.080  40.042  28.558  1.00  0.00     0.074 A 
ATOM     33  C   UNL A   1      44.457  39.405  26.650  1.00  0.00     0.049 A 
ATOM     34  N   UNL A   1      43.842  40.362  29.561  1.00  0.00    -0.248 NA
ATOM     35  C   UNL A   1      41.706  40.533  28.688  1.00  0.00     0.031 C 
ATOM     36  C   UNL A   1      45.834  38.920  26.745  1.00  0.00     0.029 A 
ATOM     37  N   UNL A   1      44.490  40.340  25.643  1.00  0.00    -0.354 N 
ATOM     38  C   UNL A   1      43.069  41.094  30.452  1.00  0.00     0.074 A 
ATOM     39  C   UNL A   1      41.744  41.154  29.877  1.00  0.00     0.031 C 
ATOM     40  C   UNL A   1      46.615  39.693  25.962  1.00  0.00     0.029 A 
ATOM     41  C   UNL A   1      45.785  40.663  25.249  1.00  0.00     0.049 A 
ATOM     42  H   UNL A   1      43.683  40.738  25.242  1.00  0.00     0.167 HD
ATOM     43  C   UNL A   1      43.565  41.640  31.594  1.00  0.00     0.037 A 
ATOM     44  C   UNL A   1      46.156  41.929  24.899  1.00  0.00     0.037 A 
ATOM     45  C   UNL A   1      44.973  41.467  31.783  1.00  0.00     0.049 A 
ATOM     46  C   UNL A   1      46.388  42.529  26.272  1.00  0.00     0.074 A 
ATOM     47  C   UNL A   1      45.821  40.620  32.458  1.00  0.00     0.029 A 
ATOM     48  N   UNL A   1      45.802  42.331  31.107  1.00  0.00    -0.354 N 
ATOM     49  N   UNL A   1      47.419  42.304  27.047  1.00  0.00    -0.248 NA
ATOM     50  C   UNL A   1      45.219  43.075  26.970  1.00  0.00     0.031 C 
ATOM     51  C   UNL A   1      47.074  40.726  31.777  1.00  0.00     0.029 A 
ATOM     52  C   UNL A   1      46.893  41.607  30.711  1.00  0.00     0.049 A 
ATOM     53  H   UNL A   1      45.640  43.287  30.939  1.00  0.00     0.167 HD
ATOM     54  C   UNL A   1      46.926  42.382  28.355  1.00  0.00     0.074 A 
ATOM     55  C   UNL A   1      45.580  42.903  28.235  1.00  0.00     0.031 C 
ATOM     56  C   UNL A   1      47.544  41.826  29.439  1.00  0.00     0.037 A 
BRANCH  43  57
ATOM     57  C   UNL A   1      42.849  42.557  32.509  1.00  0.00     0.057 A 
ATOM     58  C   UNL A   1      42.767  43.911  32.151  1.00  0.00     0.134 A 
ATOM     59  C   UNL A   1      42.509  42.210  33.817  1.00  0.00     0.134 A 
ATOM     60  F   UNL A   1      43.084  44.299  30.905  1.00  0.00    -0.206 F 
ATOM     61  C   UNL A   1      42.431  44.897  33.075  1.00  0.00     0.040 A 
ATOM     62  C   UNL A   1      42.150  43.190  34.751  1.00  0.00     0.040 A 
ATOM     63  F   UNL A   1      42.578  40.935  34.227  1.00  0.00    -0.206 F 
ATOM     64  C   UNL A   1      42.136  44.538  34.387  1.00  0.00     0.006 A 
ENDBRANCH  43  57
BRANCH  44  65
ATOM     65  C   UNL A   1      45.304  42.537  23.826  1.00  0.00     0.057 A 
ATOM     66  C   UNL A   1      45.909  42.792  22.577  1.00  0.00     0.134 A 
ATOM     67  C   UNL A   1      43.935  42.815  23.900  1.00  0.00     0.134 A 
ATOM     68  F   UNL A   1      47.239  42.686  22.435  1.00  0.00    -0.206 F 
ATOM     69  C   UNL A   1      45.173  43.115  21.435  1.00  0.00     0.040 A 
ATOM     70  C   UNL A   1      43.180  43.122  22.759  1.00  0.00     0.040 A 
ATOM     71  F   UNL A   1      43.275  42.778  25.065  1.00  0.00    -0.206 F 
ATOM     72  C   UNL A   1      43.793  43.237  21.516  1.00  0.00     0.006 A 
ENDBRANCH  44  65
BRANCH  56  73
ATOM     73  C   UNL A   1      48.879  41.213  29.197  1.00  0.00     0.057 A 
ATOM     74  C   UNL A   1      50.039  41.989  29.244  1.00  0.00     0.134 A 
ATOM     75  C   UNL A   1      49.028  39.833  28.994  1.00  0.00     0.134 A 
ATOM     76  F   UNL A   1      49.966  43.314  29.447  1.00  0.00    -0.206 F 
ATOM     77  C   UNL A   1      51.303  41.411  29.123  1.00  0.00     0.040 A 
ATOM     78  C   UNL A   1      50.287  39.240  28.904  1.00  0.00     0.040 A 
ATOM     79  F   UNL A   1      47.958  39.025  28.914  1.00  0.00    -0.206 F 
ATOM     80  C   UNL A   1      51.431  40.031  28.971  1.00  0.00     0.006 A 
ENDBRANCH  56  73
ENDBRANCH  30  31
ENDBRANCH  22  25
ENDBRANCH  20  21
ENDBRANCH   1  20
TORSDOF 11
ENDMDL
