MODEL 1
REMARK VINA RESULT:     -11.6      0.000      0.000
REMARK SMILES N#Cc1ccccc1S(=O)(=O)N1CCC(C(=O)NCCCCNC(=O)c2ccc(-c3c4nc(c(-c5c(F)cccc5F)c5ccc([nH]5)c(-c5c(F)cccc5F)c5nc(c(-c6c(F)cccc6F)c6ccc3[nH]6)C=C5)C=C4)cc2)CC1
REMARK SMILES IDX 20 1 19 2 18 3 16 4 17 5 15 7 12 8 13 9 81 10 14 11 80 12
REMARK SMILES IDX 9 13 10 14 11 15 8 16 3 17 4 18 5 19 7 20 6 21 2 22 1 23
REMARK SMILES IDX 21 24 22 25 23 26 24 27 25 29 26 30 27 31 79 32 28 33 78 34
REMARK SMILES IDX 29 35 30 36 31 37 72 38 32 39 77 40 71 41 73 42 33 43 76 44
REMARK SMILES IDX 70 45 69 46 34 48 60 49 43 50 59 51 44 52 47 53 58 54 74 55
REMARK SMILES IDX 45 56 46 57 57 59 75 60 48 61 35 62 36 63 41 64 37 65 38 66
REMARK SMILES IDX 40 67 42 68 39 69 61 70 62 71 67 72 63 73 64 74 66 75 68 76
REMARK SMILES IDX 65 77 49 78 50 79 55 80 51 81 52 82 54 83 56 84 53 85
REMARK H PARENT 18 6 23 28 73 47 47 58
REMARK Flexibility Score: inf
ROOT
ATOM      1  C   UNL A   1      36.696  21.106  24.874  1.00  0.00     0.023 C 
ENDROOT
BRANCH   1   2
ATOM      2  C   UNL A   1      35.278  20.562  25.016  1.00  0.00     0.116 C 
BRANCH   2   3
ATOM      3  N   UNL A   1      34.727  20.834  26.332  1.00  0.00    -0.356 N 
ATOM      4  C   UNL A   1      33.823  21.769  26.735  1.00  0.00     0.223 C 
ATOM      5  O   UNL A   1      33.546  21.827  27.934  1.00  0.00    -0.275 OA
ATOM      6  H   UNL A   1      35.061  20.248  27.049  1.00  0.00     0.163 HD
BRANCH   4   7
ATOM      7  C   UNL A   1      33.158  22.697  25.729  1.00  0.00     0.081 C 
ATOM      8  N   UNL A   1      31.864  25.241  25.122  1.00  0.00    -0.198 NA
ATOM      9  C   UNL A   1      30.997  24.109  25.489  1.00  0.00     0.103 C 
ATOM     10  C   UNL A   1      33.291  25.074  24.807  1.00  0.00     0.103 C 
ATOM     11  C   UNL A   1      31.684  22.889  26.060  1.00  0.00     0.030 C 
ATOM     12  C   UNL A   1      33.977  23.971  25.576  1.00  0.00     0.030 C 
BRANCH   8  13
ATOM     13  S   UNL A   1      31.082  26.572  24.422  1.00  0.00     0.244 S 
ATOM     14  O   UNL A   1      29.661  26.376  24.624  1.00  0.00    -0.207 OA
ATOM     15  O   UNL A   1      31.624  26.743  23.090  1.00  0.00    -0.207 OA
BRANCH  13  16
ATOM     16  C   UNL A   1      31.477  28.081  25.291  1.00  0.00     0.100 A 
ATOM     17  C   UNL A   1      31.136  29.393  24.954  1.00  0.00     0.072 A 
ATOM     18  C   UNL A   1      31.592  30.453  25.765  1.00  0.00     0.021 A 
ATOM     19  C   UNL A   1      32.355  30.220  26.904  1.00  0.00     0.001 A 
ATOM     20  C   UNL A   1      32.246  27.859  26.455  1.00  0.00     0.023 A 
ATOM     21  C   UNL A   1      32.676  28.918  27.256  1.00  0.00     0.001 A 
BRANCH  17  22
ATOM     22  C   UNL A   1      30.328  29.819  23.857  1.00  0.00     0.101 C 
ATOM     23  N   UNL A   1      29.595  30.114  23.012  1.00  0.00    -0.192 NA
ENDBRANCH  17  22
ENDBRANCH  13  16
ENDBRANCH   8  13
ENDBRANCH   4   7
ENDBRANCH   2   3
ENDBRANCH   1   2
BRANCH   1  24
ATOM     24  C   UNL A   1      37.779  20.036  24.941  1.00  0.00     0.023 C 
BRANCH  24  25
ATOM     25  C   UNL A   1      39.017  20.449  25.723  1.00  0.00     0.116 C 
BRANCH  25  26
ATOM     26  N   UNL A   1      40.030  19.403  25.762  1.00  0.00    -0.352 N 
ATOM     27  C   UNL A   1      41.358  19.512  26.092  1.00  0.00     0.251 C 
ATOM     28  H   UNL A   1      39.722  18.499  25.521  1.00  0.00     0.163 HD
ATOM     29  O   UNL A   1      42.127  18.572  25.928  1.00  0.00    -0.269 OA
BRANCH  27  30
ATOM     30  C   UNL A   1      41.851  20.801  26.614  1.00  0.00     0.039 A 
ATOM     31  C   UNL A   1      42.324  21.756  25.715  1.00  0.00     0.014 A 
ATOM     32  C   UNL A   1      41.775  21.079  27.981  1.00  0.00     0.014 A 
ATOM     33  C   UNL A   1      42.660  23.026  26.185  1.00  0.00     0.010 A 
ATOM     34  C   UNL A   1      42.020  22.370  28.430  1.00  0.00     0.010 A 
ATOM     35  C   UNL A   1      42.471  23.354  27.538  1.00  0.00    -0.014 A 
BRANCH  35  36
ATOM     36  C   UNL A   1      42.745  24.722  28.042  1.00  0.00     0.031 A 
ATOM     37  C   UNL A   1      44.141  25.106  28.447  1.00  0.00     0.074 A 
ATOM     38  C   UNL A   1      41.730  25.595  28.189  1.00  0.00     0.049 A 
ATOM     39  N   UNL A   1      44.572  26.228  28.965  1.00  0.00    -0.248 NA
ATOM     40  C   UNL A   1      45.187  24.085  28.273  1.00  0.00     0.031 C 
ATOM     41  C   UNL A   1      40.324  25.323  27.879  1.00  0.00     0.029 A 
ATOM     42  N   UNL A   1      41.723  26.889  28.644  1.00  0.00    -0.354 N 
ATOM     43  C   UNL A   1      45.930  26.043  29.184  1.00  0.00     0.074 A 
ATOM     44  C   UNL A   1      46.241  24.683  28.807  1.00  0.00     0.031 C 
ATOM     45  C   UNL A   1      39.598  26.423  28.129  1.00  0.00     0.029 A 
ATOM     46  C   UNL A   1      40.474  27.464  28.657  1.00  0.00     0.049 A 
ATOM     47  H   UNL A   1      42.535  27.362  28.936  1.00  0.00     0.167 HD
ATOM     48  C   UNL A   1      46.843  26.937  29.632  1.00  0.00     0.037 A 
ATOM     49  C   UNL A   1      40.081  28.687  29.058  1.00  0.00     0.037 A 
ATOM     50  C   UNL A   1      46.532  28.295  29.992  1.00  0.00     0.049 A 
ATOM     51  C   UNL A   1      41.112  29.654  29.572  1.00  0.00     0.074 A 
ATOM     52  C   UNL A   1      47.392  29.294  30.410  1.00  0.00     0.029 A 
ATOM     53  N   UNL A   1      45.258  28.843  29.979  1.00  0.00    -0.354 N 
ATOM     54  N   UNL A   1      42.406  29.490  29.708  1.00  0.00    -0.248 NA
ATOM     55  C   UNL A   1      40.630  30.980  29.983  1.00  0.00     0.031 C 
ATOM     56  C   UNL A   1      46.632  30.430  30.702  1.00  0.00     0.029 A 
ATOM     57  C   UNL A   1      45.306  30.160  30.405  1.00  0.00     0.049 A 
ATOM     58  H   UNL A   1      44.440  28.368  29.706  1.00  0.00     0.167 HD
ATOM     59  C   UNL A   1      42.895  30.698  30.189  1.00  0.00     0.074 A 
ATOM     60  C   UNL A   1      41.761  31.590  30.304  1.00  0.00     0.031 C 
ATOM     61  C   UNL A   1      44.169  31.038  30.506  1.00  0.00     0.037 A 
BRANCH  48  62
ATOM     62  C   UNL A   1      48.266  26.474  29.751  1.00  0.00     0.057 A 
ATOM     63  C   UNL A   1      49.198  26.674  28.723  1.00  0.00     0.134 A 
ATOM     64  C   UNL A   1      48.722  25.852  30.921  1.00  0.00     0.134 A 
ATOM     65  F   UNL A   1      48.825  27.250  27.571  1.00  0.00    -0.206 F 
ATOM     66  C   UNL A   1      50.522  26.249  28.844  1.00  0.00     0.040 A 
ATOM     67  C   UNL A   1      50.051  25.451  31.065  1.00  0.00     0.040 A 
ATOM     68  F   UNL A   1      47.885  25.632  31.946  1.00  0.00    -0.206 F 
ATOM     69  C   UNL A   1      50.953  25.643  30.021  1.00  0.00     0.006 A 
ENDBRANCH  48  62
BRANCH  49  70
ATOM     70  C   UNL A   1      38.648  29.075  28.981  1.00  0.00     0.057 A 
ATOM     71  C   UNL A   1      38.095  29.572  27.794  1.00  0.00     0.134 A 
ATOM     72  C   UNL A   1      37.804  28.979  30.093  1.00  0.00     0.134 A 
ATOM     73  F   UNL A   1      38.856  29.705  26.699  1.00  0.00    -0.206 F 
ATOM     74  C   UNL A   1      36.763  29.985  27.726  1.00  0.00     0.040 A 
ATOM     75  C   UNL A   1      36.463  29.360  30.030  1.00  0.00     0.040 A 
ATOM     76  F   UNL A   1      38.269  28.501  31.257  1.00  0.00    -0.206 F 
ATOM     77  C   UNL A   1      35.942  29.876  28.846  1.00  0.00     0.006 A 
ENDBRANCH  49  70
BRANCH  61  78
ATOM     78  C   UNL A   1      44.411  32.447  30.967  1.00  0.00     0.057 A 
ATOM     79  C   UNL A   1      44.405  32.796  32.323  1.00  0.00     0.134 A 
ATOM     80  C   UNL A   1      44.694  33.459  30.041  1.00  0.00     0.134 A 
ATOM     81  F   UNL A   1      44.128  31.879  33.262  1.00  0.00    -0.206 F 
ATOM     82  C   UNL A   1      44.645  34.107  32.739  1.00  0.00     0.040 A 
ATOM     83  C   UNL A   1      44.968  34.765  30.446  1.00  0.00     0.040 A 
ATOM     84  F   UNL A   1      44.727  33.190  28.726  1.00  0.00    -0.206 F 
ATOM     85  C   UNL A   1      44.937  35.094  31.799  1.00  0.00     0.006 A 
ENDBRANCH  61  78
ENDBRANCH  35  36
ENDBRANCH  27  30
ENDBRANCH  25  26
ENDBRANCH  24  25
ENDBRANCH   1  24
TORSDOF 14
ENDMDL
MODEL 2
REMARK VINA RESULT:     -11.6      1.296      1.985
REMARK SMILES N#Cc1ccccc1S(=O)(=O)N1CCC(C(=O)NCCCCNC(=O)c2ccc(-c3c4nc(c(-c5c(F)cccc5F)c5ccc([nH]5)c(-c5c(F)cccc5F)c5nc(c(-c6c(F)cccc6F)c6ccc3[nH]6)C=C5)C=C4)cc2)CC1
REMARK SMILES IDX 20 1 19 2 18 3 16 4 17 5 15 7 12 8 13 9 81 10 14 11 80 12
REMARK SMILES IDX 9 13 10 14 11 15 8 16 3 17 4 18 5 19 7 20 6 21 2 22 1 23
REMARK SMILES IDX 21 24 22 25 23 26 24 27 25 29 26 30 27 31 79 32 28 33 78 34
REMARK SMILES IDX 29 35 30 36 31 37 72 38 32 39 77 40 71 41 73 42 33 43 76 44
REMARK SMILES IDX 70 45 69 46 34 48 60 49 43 50 59 51 44 52 47 53 58 54 74 55
REMARK SMILES IDX 45 56 46 57 57 59 75 60 48 61 35 62 36 63 41 64 37 65 38 66
REMARK SMILES IDX 40 67 42 68 39 69 61 70 62 71 67 72 63 73 64 74 66 75 68 76
REMARK SMILES IDX 65 77 49 78 50 79 55 80 51 81 52 82 54 83 56 84 53 85
REMARK H PARENT 18 6 23 28 73 47 47 58
REMARK Flexibility Score: inf
ROOT
ATOM      1  C   UNL A   1      36.981  21.275  24.575  1.00  0.00     0.023 C 
ENDROOT
BRANCH   1   2
ATOM      2  C   UNL A   1      35.577  21.190  25.166  1.00  0.00     0.116 C 
BRANCH   2   3
ATOM      3  N   UNL A   1      34.947  19.914  24.872  1.00  0.00    -0.356 N 
ATOM      4  C   UNL A   1      33.631  19.589  24.736  1.00  0.00     0.223 C 
ATOM      5  O   UNL A   1      33.346  18.410  24.526  1.00  0.00    -0.275 OA
ATOM      6  H   UNL A   1      35.572  19.163  24.752  1.00  0.00     0.163 HD
BRANCH   4   7
ATOM      7  C   UNL A   1      32.551  20.657  24.817  1.00  0.00     0.081 C 
ATOM      8  N   UNL A   1      31.800  23.473  24.963  1.00  0.00    -0.198 NA
ATOM      9  C   UNL A   1      31.957  22.746  26.233  1.00  0.00     0.103 C 
ATOM     10  C   UNL A   1      31.754  22.789  23.662  1.00  0.00     0.103 C 
ATOM     11  C   UNL A   1      32.605  21.381  26.156  1.00  0.00     0.030 C 
ATOM     12  C   UNL A   1      32.600  21.542  23.580  1.00  0.00     0.030 C 
BRANCH   8  13
ATOM     13  S   UNL A   1      31.011  24.970  25.063  1.00  0.00     0.244 S 
ATOM     14  O   UNL A   1      30.263  24.967  26.304  1.00  0.00    -0.207 OA
ATOM     15  O   UNL A   1      30.345  25.195  23.797  1.00  0.00    -0.207 OA
BRANCH  13  16
ATOM     16  C   UNL A   1      32.185  26.306  25.225  1.00  0.00     0.100 A 
ATOM     17  C   UNL A   1      33.181  26.702  24.329  1.00  0.00     0.072 A 
ATOM     18  C   UNL A   1      34.036  27.767  24.677  1.00  0.00     0.021 A 
ATOM     19  C   UNL A   1      33.897  28.447  25.883  1.00  0.00     0.001 A 
ATOM     20  C   UNL A   1      32.051  27.010  26.442  1.00  0.00     0.023 A 
ATOM     21  C   UNL A   1      32.895  28.073  26.765  1.00  0.00     0.001 A 
BRANCH  17  22
ATOM     22  C   UNL A   1      33.443  26.157  23.036  1.00  0.00     0.101 C 
ATOM     23  N   UNL A   1      33.652  25.813  21.952  1.00  0.00    -0.192 NA
ENDBRANCH  17  22
ENDBRANCH  13  16
ENDBRANCH   8  13
ENDBRANCH   4   7
ENDBRANCH   2   3
ENDBRANCH   1   2
BRANCH   1  24
ATOM     24  C   UNL A   1      37.872  20.089  24.924  1.00  0.00     0.023 C 
BRANCH  24  25
ATOM     25  C   UNL A   1      39.050  20.434  25.821  1.00  0.00     0.116 C 
BRANCH  25  26
ATOM     26  N   UNL A   1      40.087  19.412  25.803  1.00  0.00    -0.352 N 
ATOM     27  C   UNL A   1      41.424  19.547  26.084  1.00  0.00     0.251 C 
ATOM     28  H   UNL A   1      39.791  18.505  25.558  1.00  0.00     0.163 HD
ATOM     29  O   UNL A   1      42.208  18.628  25.875  1.00  0.00    -0.269 OA
BRANCH  27  30
ATOM     30  C   UNL A   1      41.908  20.838  26.610  1.00  0.00     0.039 A 
ATOM     31  C   UNL A   1      42.355  21.807  25.713  1.00  0.00     0.014 A 
ATOM     32  C   UNL A   1      41.848  21.104  27.980  1.00  0.00     0.014 A 
ATOM     33  C   UNL A   1      42.680  23.077  26.188  1.00  0.00     0.010 A 
ATOM     34  C   UNL A   1      42.082  22.394  28.437  1.00  0.00     0.010 A 
ATOM     35  C   UNL A   1      42.506  23.391  27.547  1.00  0.00    -0.014 A 
BRANCH  35  36
ATOM     36  C   UNL A   1      42.770  24.758  28.058  1.00  0.00     0.031 A 
ATOM     37  C   UNL A   1      44.160  25.148  28.477  1.00  0.00     0.074 A 
ATOM     38  C   UNL A   1      41.749  25.626  28.198  1.00  0.00     0.049 A 
ATOM     39  N   UNL A   1      44.580  26.270  29.003  1.00  0.00    -0.248 NA
ATOM     40  C   UNL A   1      45.212  24.132  28.311  1.00  0.00     0.031 C 
ATOM     41  C   UNL A   1      40.348  25.349  27.874  1.00  0.00     0.029 A 
ATOM     42  N   UNL A   1      41.732  26.919  28.658  1.00  0.00    -0.354 N 
ATOM     43  C   UNL A   1      45.937  26.090  29.236  1.00  0.00     0.074 A 
ATOM     44  C   UNL A   1      46.258  24.733  28.857  1.00  0.00     0.031 C 
ATOM     45  C   UNL A   1      39.613  26.445  28.120  1.00  0.00     0.029 A 
ATOM     46  C   UNL A   1      40.480  27.488  28.660  1.00  0.00     0.049 A 
ATOM     47  H   UNL A   1      42.539  27.395  28.959  1.00  0.00     0.167 HD
ATOM     48  C   UNL A   1      46.842  26.987  29.695  1.00  0.00     0.037 A 
ATOM     49  C   UNL A   1      40.077  28.708  29.062  1.00  0.00     0.037 A 
ATOM     50  C   UNL A   1      46.521  28.342  30.056  1.00  0.00     0.049 A 
ATOM     51  C   UNL A   1      41.099  29.678  29.590  1.00  0.00     0.074 A 
ATOM     52  C   UNL A   1      47.372  29.343  30.486  1.00  0.00     0.029 A 
ATOM     53  N   UNL A   1      45.244  28.885  30.033  1.00  0.00    -0.354 N 
ATOM     54  N   UNL A   1      42.392  29.519  29.738  1.00  0.00    -0.248 NA
ATOM     55  C   UNL A   1      40.607  31.000  30.000  1.00  0.00     0.031 C 
ATOM     56  C   UNL A   1      46.604  30.475  30.776  1.00  0.00     0.029 A 
ATOM     57  C   UNL A   1      45.282  30.200  30.465  1.00  0.00     0.049 A 
ATOM     58  H   UNL A   1      44.431  28.406  29.751  1.00  0.00     0.167 HD
ATOM     59  C   UNL A   1      42.871  30.728  30.227  1.00  0.00     0.074 A 
ATOM     60  C   UNL A   1      41.732  31.615  30.334  1.00  0.00     0.031 C 
ATOM     61  C   UNL A   1      44.140  31.073  30.558  1.00  0.00     0.037 A 
BRANCH  48  62
ATOM     62  C   UNL A   1      48.265  26.530  29.826  1.00  0.00     0.057 A 
ATOM     63  C   UNL A   1      48.731  25.880  30.978  1.00  0.00     0.134 A 
ATOM     64  C   UNL A   1      49.175  26.707  28.776  1.00  0.00     0.134 A 
ATOM     65  F   UNL A   1      47.917  25.691  32.027  1.00  0.00    -0.206 F 
ATOM     66  C   UNL A   1      50.054  25.449  31.090  1.00  0.00     0.040 A 
ATOM     67  C   UNL A   1      50.491  26.252  28.864  1.00  0.00     0.040 A 
ATOM     68  F   UNL A   1      48.796  27.317  27.642  1.00  0.00    -0.206 F 
ATOM     69  C   UNL A   1      50.936  25.628  30.027  1.00  0.00     0.006 A 
ENDBRANCH  48  62
BRANCH  49  70
ATOM     70  C   UNL A   1      38.644  29.090  28.972  1.00  0.00     0.057 A 
ATOM     71  C   UNL A   1      38.093  29.563  27.775  1.00  0.00     0.134 A 
ATOM     72  C   UNL A   1      37.796  29.011  30.083  1.00  0.00     0.134 A 
ATOM     73  F   UNL A   1      38.858  29.678  26.680  1.00  0.00    -0.206 F 
ATOM     74  C   UNL A   1      36.760  29.970  27.694  1.00  0.00     0.040 A 
ATOM     75  C   UNL A   1      36.453  29.387  30.009  1.00  0.00     0.040 A 
ATOM     76  F   UNL A   1      38.258  28.557  31.258  1.00  0.00    -0.206 F 
ATOM     77  C   UNL A   1      35.935  29.879  28.813  1.00  0.00     0.006 A 
ENDBRANCH  49  70
BRANCH  61  78
ATOM     78  C   UNL A   1      44.371  32.481  31.026  1.00  0.00     0.057 A 
ATOM     79  C   UNL A   1      44.636  33.527  30.133  1.00  0.00     0.134 A 
ATOM     80  C   UNL A   1      44.287  32.800  32.387  1.00  0.00     0.134 A 
ATOM     81  F   UNL A   1      44.743  33.288  28.817  1.00  0.00    -0.206 F 
ATOM     82  C   UNL A   1      44.837  34.834  30.580  1.00  0.00     0.040 A 
ATOM     83  C   UNL A   1      44.453  34.107  32.843  1.00  0.00     0.040 A 
ATOM     84  F   UNL A   1      44.025  31.847  33.295  1.00  0.00    -0.206 F 
ATOM     85  C   UNL A   1      44.736  35.128  31.939  1.00  0.00     0.006 A 
ENDBRANCH  61  78
ENDBRANCH  35  36
ENDBRANCH  27  30
ENDBRANCH  25  26
ENDBRANCH  24  25
ENDBRANCH   1  24
TORSDOF 14
ENDMDL
MODEL 3
REMARK VINA RESULT:     -11.6      1.991      2.695
REMARK SMILES N#Cc1ccccc1S(=O)(=O)N1CCC(C(=O)NCCCCNC(=O)c2ccc(-c3c4nc(c(-c5c(F)cccc5F)c5ccc([nH]5)c(-c5c(F)cccc5F)c5nc(c(-c6c(F)cccc6F)c6ccc3[nH]6)C=C5)C=C4)cc2)CC1
REMARK SMILES IDX 20 1 19 2 18 3 16 4 17 5 15 7 12 8 13 9 81 10 14 11 80 12
REMARK SMILES IDX 9 13 10 14 11 15 8 16 3 17 4 18 5 19 7 20 6 21 2 22 1 23
REMARK SMILES IDX 21 24 22 25 23 26 24 27 25 29 26 30 27 31 79 32 28 33 78 34
REMARK SMILES IDX 29 35 30 36 31 37 72 38 32 39 77 40 71 41 73 42 33 43 76 44
REMARK SMILES IDX 70 45 69 46 34 48 60 49 43 50 59 51 44 52 47 53 58 54 74 55
REMARK SMILES IDX 45 56 46 57 57 59 75 60 48 61 35 62 36 63 41 64 37 65 38 66
REMARK SMILES IDX 40 67 42 68 39 69 61 70 62 71 67 72 63 73 64 74 66 75 68 76
REMARK SMILES IDX 65 77 49 78 50 79 55 80 51 81 52 82 54 83 56 84 53 85
REMARK H PARENT 18 6 23 28 73 47 47 58
REMARK Flexibility Score: inf
ROOT
ATOM      1  C   UNL A   1      37.256  21.068  24.663  1.00  0.00     0.023 C 
ENDROOT
BRANCH   1   2
ATOM      2  C   UNL A   1      37.251  22.138  25.750  1.00  0.00     0.116 C 
BRANCH   2   3
ATOM      3  N   UNL A   1      35.991  22.163  26.473  1.00  0.00    -0.356 N 
ATOM      4  C   UNL A   1      34.951  23.040  26.406  1.00  0.00     0.223 C 
ATOM      5  O   UNL A   1      33.998  22.866  27.166  1.00  0.00    -0.275 OA
ATOM      6  H   UNL A   1      35.868  21.426  27.114  1.00  0.00     0.163 HD
BRANCH   4   7
ATOM      7  C   UNL A   1      34.960  24.187  25.406  1.00  0.00     0.081 C 
ATOM      8  N   UNL A   1      33.538  25.871  23.494  1.00  0.00    -0.198 NA
ATOM      9  C   UNL A   1      34.216  24.673  22.971  1.00  0.00     0.103 C 
ATOM     10  C   UNL A   1      33.763  26.373  24.858  1.00  0.00     0.103 C 
ATOM     11  C   UNL A   1      34.710  23.675  23.994  1.00  0.00     0.030 C 
ATOM     12  C   UNL A   1      34.039  25.300  25.883  1.00  0.00     0.030 C 
BRANCH   8  13
ATOM     13  S   UNL A   1      33.053  27.008  22.336  1.00  0.00     0.244 S 
ATOM     14  O   UNL A   1      32.954  26.304  21.073  1.00  0.00    -0.207 OA
ATOM     15  O   UNL A   1      33.914  28.164  22.474  1.00  0.00    -0.207 OA
BRANCH  13  16
ATOM     16  C   UNL A   1      31.402  27.604  22.671  1.00  0.00     0.100 A 
ATOM     17  C   UNL A   1      30.305  26.894  23.164  1.00  0.00     0.072 A 
ATOM     18  C   UNL A   1      29.069  27.555  23.314  1.00  0.00     0.021 A 
ATOM     19  C   UNL A   1      28.923  28.903  23.004  1.00  0.00     0.001 A 
ATOM     20  C   UNL A   1      31.242  28.975  22.368  1.00  0.00     0.023 A 
ATOM     21  C   UNL A   1      30.016  29.618  22.538  1.00  0.00     0.001 A 
BRANCH  17  22
ATOM     22  C   UNL A   1      30.277  25.528  23.575  1.00  0.00     0.101 C 
ATOM     23  N   UNL A   1      30.306  24.450  23.994  1.00  0.00    -0.192 NA
ENDBRANCH  17  22
ENDBRANCH  13  16
ENDBRANCH   8  13
ENDBRANCH   4   7
ENDBRANCH   2   3
ENDBRANCH   1   2
BRANCH   1  24
ATOM     24  C   UNL A   1      38.109  19.850  24.995  1.00  0.00     0.023 C 
BRANCH  24  25
ATOM     25  C   UNL A   1      39.272  20.139  25.932  1.00  0.00     0.116 C 
BRANCH  25  26
ATOM     26  N   UNL A   1      40.263  19.072  25.941  1.00  0.00    -0.352 N 
ATOM     27  C   UNL A   1      41.624  19.171  26.088  1.00  0.00     0.251 C 
ATOM     28  H   UNL A   1      39.911  18.159  25.826  1.00  0.00     0.163 HD
ATOM     29  O   UNL A   1      42.349  18.198  25.918  1.00  0.00    -0.269 OA
BRANCH  27  30
ATOM     30  C   UNL A   1      42.203  20.487  26.420  1.00  0.00     0.039 A 
ATOM     31  C   UNL A   1      42.601  21.330  25.383  1.00  0.00     0.014 A 
ATOM     32  C   UNL A   1      42.282  20.903  27.752  1.00  0.00     0.014 A 
ATOM     33  C   UNL A   1      43.017  22.627  25.682  1.00  0.00     0.010 A 
ATOM     34  C   UNL A   1      42.606  22.222  28.037  1.00  0.00     0.010 A 
ATOM     35  C   UNL A   1      42.983  23.095  27.006  1.00  0.00    -0.014 A 
BRANCH  35  36
ATOM     36  C   UNL A   1      43.345  24.496  27.335  1.00  0.00     0.031 A 
ATOM     37  C   UNL A   1      44.783  24.931  27.284  1.00  0.00     0.074 A 
ATOM     38  C   UNL A   1      42.387  25.356  27.733  1.00  0.00     0.049 A 
ATOM     39  N   UNL A   1      45.306  26.090  27.592  1.00  0.00    -0.248 NA
ATOM     40  C   UNL A   1      45.766  23.922  26.859  1.00  0.00     0.031 C 
ATOM     41  C   UNL A   1      40.964  25.038  27.872  1.00  0.00     0.029 A 
ATOM     42  N   UNL A   1      42.469  26.675  28.104  1.00  0.00    -0.354 N 
ATOM     43  C   UNL A   1      46.675  25.945  27.405  1.00  0.00     0.074 A 
ATOM     44  C   UNL A   1      46.909  24.571  27.023  1.00  0.00     0.031 C 
ATOM     45  C   UNL A   1      40.305  26.137  28.271  1.00  0.00     0.029 A 
ATOM     46  C   UNL A   1      41.260  27.224  28.459  1.00  0.00     0.049 A 
ATOM     47  H   UNL A   1      43.313  27.180  28.115  1.00  0.00     0.167 HD
ATOM     48  C   UNL A   1      47.646  26.882  27.513  1.00  0.00     0.037 A 
ATOM     49  C   UNL A   1      40.960  28.461  28.896  1.00  0.00     0.037 A 
ATOM     50  C   UNL A   1      47.406  28.252  27.880  1.00  0.00     0.049 A 
ATOM     51  C   UNL A   1      42.061  29.477  29.029  1.00  0.00     0.074 A 
ATOM     52  C   UNL A   1      48.315  29.291  27.970  1.00  0.00     0.029 A 
ATOM     53  N   UNL A   1      46.167  28.774  28.220  1.00  0.00    -0.354 N 
ATOM     54  N   UNL A   1      43.342  29.347  28.781  1.00  0.00    -0.248 NA
ATOM     55  C   UNL A   1      41.675  30.815  29.497  1.00  0.00     0.031 C 
ATOM     56  C   UNL A   1      47.635  30.428  28.419  1.00  0.00     0.029 A 
ATOM     57  C   UNL A   1      46.291  30.114  28.545  1.00  0.00     0.049 A 
ATOM     58  H   UNL A   1      45.323  28.267  28.229  1.00  0.00     0.167 HD
ATOM     59  C   UNL A   1      43.907  30.591  29.032  1.00  0.00     0.074 A 
ATOM     60  C   UNL A   1      42.827  31.466  29.434  1.00  0.00     0.031 C 
ATOM     61  C   UNL A   1      45.204  30.975  28.936  1.00  0.00     0.037 A 
BRANCH  48  62
ATOM     62  C   UNL A   1      49.056  26.455  27.226  1.00  0.00     0.057 A 
ATOM     63  C   UNL A   1      49.582  26.467  25.927  1.00  0.00     0.134 A 
ATOM     64  C   UNL A   1      49.911  26.060  28.263  1.00  0.00     0.134 A 
ATOM     65  F   UNL A   1      48.814  26.819  24.885  1.00  0.00    -0.206 F 
ATOM     66  C   UNL A   1      50.897  26.077  25.667  1.00  0.00     0.040 A 
ATOM     67  C   UNL A   1      51.237  25.699  28.019  1.00  0.00     0.040 A 
ATOM     68  F   UNL A   1      49.475  26.029  29.532  1.00  0.00    -0.206 F 
ATOM     69  C   UNL A   1      51.731  25.699  26.717  1.00  0.00     0.006 A 
ENDBRANCH  48  62
BRANCH  49  70
ATOM     70  C   UNL A   1      39.555  28.816  29.231  1.00  0.00     0.057 A 
ATOM     71  C   UNL A   1      39.059  28.665  30.531  1.00  0.00     0.134 A 
ATOM     72  C   UNL A   1      38.671  29.295  28.256  1.00  0.00     0.134 A 
ATOM     73  F   UNL A   1      39.851  28.194  31.505  1.00  0.00    -0.206 F 
ATOM     74  C   UNL A   1      37.728  28.949  30.844  1.00  0.00     0.040 A 
ATOM     75  C   UNL A   1      37.346  29.612  28.562  1.00  0.00     0.040 A 
ATOM     76  F   UNL A   1      39.086  29.473  26.993  1.00  0.00    -0.206 F 
ATOM     77  C   UNL A   1      36.869  29.428  29.858  1.00  0.00     0.006 A 
ENDBRANCH  49  70
BRANCH  61  78
ATOM     78  C   UNL A   1      45.521  32.413  29.231  1.00  0.00     0.057 A 
ATOM     79  C   UNL A   1      45.455  33.406  28.245  1.00  0.00     0.134 A 
ATOM     80  C   UNL A   1      45.857  32.814  30.530  1.00  0.00     0.134 A 
ATOM     81  F   UNL A   1      45.151  33.088  26.978  1.00  0.00    -0.206 F 
ATOM     82  C   UNL A   1      45.739  34.741  28.536  1.00  0.00     0.040 A 
ATOM     83  C   UNL A   1      46.111  34.150  30.840  1.00  0.00     0.040 A 
ATOM     84  F   UNL A   1      45.928  31.915  31.525  1.00  0.00    -0.206 F 
ATOM     85  C   UNL A   1      46.060  35.117  29.839  1.00  0.00     0.006 A 
ENDBRANCH  61  78
ENDBRANCH  35  36
ENDBRANCH  27  30
ENDBRANCH  25  26
ENDBRANCH  24  25
ENDBRANCH   1  24
TORSDOF 14
ENDMDL
