MODEL 1
REMARK VINA RESULT:     -10.5      0.000      0.000
REMARK SMILES COCCCC(=O)N[C@H]1CC[C@@H](C(=O)NCCCCNC(=O)c2ccc(-c3c4nc(c(-c5c(F)cccc5F)c5ccc([nH]5)c(-c5c(F)cccc5F)c5nc(c(-c6c(F)cccc6F)c6ccc3[nH]6)C=C5)C=C4)cc2)CC1
REMARK SMILES IDX 16 1 15 2 13 3 14 4 12 6 9 7 10 8 78 9 11 10 77 11 8 12 6 13
REMARK SMILES IDX 7 14 5 16 4 17 3 18 2 19 1 20 17 21 18 22 19 23 20 24 21 25
REMARK SMILES IDX 22 27 23 28 24 29 76 30 25 31 75 32 26 33 27 34 28 35 69 36
REMARK SMILES IDX 29 37 74 38 68 39 70 40 30 41 73 42 67 43 66 44 31 46 57 47
REMARK SMILES IDX 40 48 56 49 41 50 44 51 55 52 71 53 42 54 43 55 54 57 72 58
REMARK SMILES IDX 45 59 32 60 33 61 38 62 34 63 35 64 37 65 39 66 36 67 58 68
REMARK SMILES IDX 59 69 64 70 60 71 61 72 63 73 65 74 62 75 46 76 47 77 52 78
REMARK SMILES IDX 48 79 49 80 51 81 53 82 50 83
REMARK H PARENT 15 5 8 15 20 26 70 45 44 56
REMARK Flexibility Score: inf
ROOT
ATOM      1  C   UNL A   1      40.277  22.305  26.315  1.00  0.00     0.116 C 
ENDROOT
BRANCH   1   2
ATOM      2  N   UNL A   1      39.014  22.960  26.573  1.00  0.00    -0.356 N 
ATOM      3  C   UNL A   1      37.778  22.872  26.029  1.00  0.00     0.223 C 
ATOM      4  O   UNL A   1      36.874  23.411  26.681  1.00  0.00    -0.275 OA
ATOM      5  H   UNL A   1      39.064  23.614  27.307  1.00  0.00     0.163 HD
BRANCH   3   6
ATOM      6  C   UNL A   1      37.426  22.205  24.692  1.00  0.00     0.078 C 
ATOM      7  C   UNL A   1      35.217  20.198  24.410  1.00  0.00     0.082 C 
ATOM      8  C   UNL A   1      34.922  21.701  24.288  1.00  0.00     0.026 C 
ATOM      9  C   UNL A   1      36.569  19.809  25.004  1.00  0.00     0.026 C 
ATOM     10  C   UNL A   1      36.113  22.605  24.029  1.00  0.00     0.015 C 
ATOM     11  C   UNL A   1      37.722  20.713  24.606  1.00  0.00     0.015 C 
BRANCH   7  12
ATOM     12  N   UNL A   1      34.112  19.599  25.156  1.00  0.00    -0.353 N 
ATOM     13  C   UNL A   1      33.102  18.773  24.783  1.00  0.00     0.220 C 
ATOM     14  O   UNL A   1      32.163  18.639  25.567  1.00  0.00    -0.275 OA
ATOM     15  H   UNL A   1      34.097  19.842  26.109  1.00  0.00     0.163 HD
BRANCH  13  16
ATOM     16  C   UNL A   1      33.158  17.996  23.492  1.00  0.00     0.102 C 
BRANCH  16  17
ATOM     17  C   UNL A   1      33.977  16.704  23.529  1.00  0.00     0.038 C 
BRANCH  17  18
ATOM     18  C   UNL A   1      34.524  16.230  24.877  1.00  0.00     0.160 C 
BRANCH  18  19
ATOM     19  O   UNL A   1      34.046  14.985  25.380  1.00  0.00    -0.385 OA
ATOM     20  C   UNL A   1      32.649  14.782  25.449  1.00  0.00     0.194 C 
ENDBRANCH  18  19
ENDBRANCH  17  18
ENDBRANCH  16  17
ENDBRANCH  13  16
ENDBRANCH   7  12
ENDBRANCH   3   6
ENDBRANCH   1   2
BRANCH   1  21
ATOM     21  C   UNL A   1      40.404  20.927  26.974  1.00  0.00     0.023 C 
BRANCH  21  22
ATOM     22  C   UNL A   1      41.110  19.879  26.125  1.00  0.00     0.023 C 
BRANCH  22  23
ATOM     23  C   UNL A   1      42.628  19.997  26.099  1.00  0.00     0.116 C 
BRANCH  23  24
ATOM     24  N   UNL A   1      43.302  19.199  25.083  1.00  0.00    -0.352 N 
ATOM     25  C   UNL A   1      44.413  19.560  24.341  1.00  0.00     0.251 C 
ATOM     26  H   UNL A   1      42.926  18.307  24.903  1.00  0.00     0.163 HD
ATOM     27  O   UNL A   1      44.870  18.834  23.472  1.00  0.00    -0.269 OA
BRANCH  25  28
ATOM     28  C   UNL A   1      44.988  20.903  24.566  1.00  0.00     0.039 A 
ATOM     29  C   UNL A   1      44.638  21.928  23.686  1.00  0.00     0.014 A 
ATOM     30  C   UNL A   1      45.705  21.175  25.734  1.00  0.00     0.014 A 
ATOM     31  C   UNL A   1      44.896  23.252  24.044  1.00  0.00     0.010 A 
ATOM     32  C   UNL A   1      45.872  22.496  26.131  1.00  0.00     0.010 A 
ATOM     33  C   UNL A   1      45.449  23.547  25.301  1.00  0.00    -0.014 A 
BRANCH  33  34
ATOM     34  C   UNL A   1      45.562  24.948  25.780  1.00  0.00     0.031 A 
ATOM     35  C   UNL A   1      46.889  25.650  25.735  1.00  0.00     0.074 A 
ATOM     36  C   UNL A   1      44.494  25.556  26.333  1.00  0.00     0.049 A 
ATOM     37  N   UNL A   1      47.211  26.836  26.186  1.00  0.00    -0.248 NA
ATOM     38  C   UNL A   1      48.010  24.906  25.142  1.00  0.00     0.031 C 
ATOM     39  C   UNL A   1      43.168  24.957  26.507  1.00  0.00     0.029 A 
ATOM     40  N   UNL A   1      44.356  26.816  26.861  1.00  0.00    -0.354 N 
ATOM     41  C   UNL A   1      48.574  26.966  25.954  1.00  0.00     0.074 A 
ATOM     42  C   UNL A   1      49.028  25.720  25.377  1.00  0.00     0.031 C 
ATOM     43  C   UNL A   1      42.346  25.859  27.069  1.00  0.00     0.029 A 
ATOM     44  C   UNL A   1      43.091  27.087  27.323  1.00  0.00     0.049 A 
ATOM     45  H   UNL A   1      45.096  27.465  26.905  1.00  0.00     0.167 HD
ATOM     46  C   UNL A   1      49.371  28.038  26.173  1.00  0.00     0.037 A 
ATOM     47  C   UNL A   1      42.589  28.203  27.885  1.00  0.00     0.037 A 
ATOM     48  C   UNL A   1      48.910  29.293  26.700  1.00  0.00     0.049 A 
ATOM     49  C   UNL A   1      43.480  29.399  28.068  1.00  0.00     0.074 A 
ATOM     50  C   UNL A   1      49.626  30.461  26.897  1.00  0.00     0.029 A 
ATOM     51  N   UNL A   1      47.608  29.546  27.104  1.00  0.00    -0.354 N 
ATOM     52  N   UNL A   1      44.753  29.529  27.786  1.00  0.00    -0.248 NA
ATOM     53  C   UNL A   1      42.865  30.604  28.643  1.00  0.00     0.031 C 
ATOM     54  C   UNL A   1      48.760  31.416  27.439  1.00  0.00     0.029 A 
ATOM     55  C   UNL A   1      47.499  30.852  27.553  1.00  0.00     0.049 A 
ATOM     56  H   UNL A   1      46.871  28.895  27.075  1.00  0.00     0.167 HD
ATOM     57  C   UNL A   1      45.086  30.833  28.125  1.00  0.00     0.074 A 
ATOM     58  C   UNL A   1      43.878  31.458  28.623  1.00  0.00     0.031 C 
ATOM     59  C   UNL A   1      46.285  31.457  28.034  1.00  0.00     0.037 A 
BRANCH  46  60
ATOM     60  C   UNL A   1      50.821  27.892  25.822  1.00  0.00     0.057 A 
ATOM     61  C   UNL A   1      51.283  28.094  24.514  1.00  0.00     0.134 A 
ATOM     62  C   UNL A   1      51.764  27.547  26.796  1.00  0.00     0.134 A 
ATOM     63  F   UNL A   1      50.425  28.409  23.531  1.00  0.00    -0.206 F 
ATOM     64  C   UNL A   1      52.628  27.928  24.183  1.00  0.00     0.040 A 
ATOM     65  C   UNL A   1      53.116  27.403  26.482  1.00  0.00     0.040 A 
ATOM     66  F   UNL A   1      51.387  27.340  28.067  1.00  0.00    -0.206 F 
ATOM     67  C   UNL A   1      53.549  27.586  25.169  1.00  0.00     0.006 A 
ENDBRANCH  46  60
BRANCH  47  68
ATOM     68  C   UNL A   1      41.158  28.260  28.277  1.00  0.00     0.057 A 
ATOM     69  C   UNL A   1      40.749  27.865  29.557  1.00  0.00     0.134 A 
ATOM     70  C   UNL A   1      40.170  28.701  27.390  1.00  0.00     0.134 A 
ATOM     71  F   UNL A   1      41.648  27.416  30.444  1.00  0.00    -0.206 F 
ATOM     72  C   UNL A   1      39.405  27.889  29.934  1.00  0.00     0.040 A 
ATOM     73  C   UNL A   1      38.826  28.749  27.761  1.00  0.00     0.040 A 
ATOM     74  F   UNL A   1      40.501  29.100  26.153  1.00  0.00    -0.206 F 
ATOM     75  C   UNL A   1      38.439  28.336  29.036  1.00  0.00     0.006 A 
ENDBRANCH  47  68
BRANCH  59  76
ATOM     76  C   UNL A   1      46.343  32.893  28.455  1.00  0.00     0.057 A 
ATOM     77  C   UNL A   1      46.661  33.262  29.768  1.00  0.00     0.134 A 
ATOM     78  C   UNL A   1      46.123  33.918  27.527  1.00  0.00     0.134 A 
ATOM     79  F   UNL A   1      46.869  32.325  30.705  1.00  0.00    -0.206 F 
ATOM     80  C   UNL A   1      46.744  34.602  30.147  1.00  0.00     0.040 A 
ATOM     81  C   UNL A   1      46.223  35.261  27.888  1.00  0.00     0.040 A 
ATOM     82  F   UNL A   1      45.821  33.628  26.252  1.00  0.00    -0.206 F 
ATOM     83  C   UNL A   1      46.531  35.605  29.203  1.00  0.00     0.006 A 
ENDBRANCH  59  76
ENDBRANCH  33  34
ENDBRANCH  25  28
ENDBRANCH  23  24
ENDBRANCH  22  23
ENDBRANCH  21  22
ENDBRANCH   1  21
TORSDOF 16
ENDMDL
MODEL 2
REMARK VINA RESULT:     -10.3      3.580      5.316
REMARK SMILES COCCCC(=O)N[C@H]1CC[C@@H](C(=O)NCCCCNC(=O)c2ccc(-c3c4nc(c(-c5c(F)cccc5F)c5ccc([nH]5)c(-c5c(F)cccc5F)c5nc(c(-c6c(F)cccc6F)c6ccc3[nH]6)C=C5)C=C4)cc2)CC1
REMARK SMILES IDX 16 1 15 2 13 3 14 4 12 6 9 7 10 8 78 9 11 10 77 11 8 12 6 13
REMARK SMILES IDX 7 14 5 16 4 17 3 18 2 19 1 20 17 21 18 22 19 23 20 24 21 25
REMARK SMILES IDX 22 27 23 28 24 29 76 30 25 31 75 32 26 33 27 34 28 35 69 36
REMARK SMILES IDX 29 37 74 38 68 39 70 40 30 41 73 42 67 43 66 44 31 46 57 47
REMARK SMILES IDX 40 48 56 49 41 50 44 51 55 52 71 53 42 54 43 55 54 57 72 58
REMARK SMILES IDX 45 59 32 60 33 61 38 62 34 63 35 64 37 65 39 66 36 67 58 68
REMARK SMILES IDX 59 69 64 70 60 71 61 72 63 73 65 74 62 75 46 76 47 77 52 78
REMARK SMILES IDX 48 79 49 80 51 81 53 82 50 83
REMARK H PARENT 15 5 8 15 20 26 70 45 44 56
REMARK Flexibility Score: inf
ROOT
ATOM      1  C   UNL A   1      35.538  20.269  24.999  1.00  0.00     0.116 C 
ENDROOT
BRANCH   1   2
ATOM      2  N   UNL A   1      35.134  21.078  26.127  1.00  0.00    -0.356 N 
ATOM      3  C   UNL A   1      34.441  22.233  26.258  1.00  0.00     0.223 C 
ATOM      4  O   UNL A   1      34.070  22.498  27.410  1.00  0.00    -0.275 OA
ATOM      5  H   UNL A   1      35.428  20.707  26.990  1.00  0.00     0.163 HD
BRANCH   3   6
ATOM      6  C   UNL A   1      34.117  23.225  25.132  1.00  0.00     0.078 C 
ATOM      7  C   UNL A   1      32.361  25.622  25.534  1.00  0.00     0.082 C 
ATOM      8  C   UNL A   1      33.867  25.704  25.826  1.00  0.00     0.026 C 
ATOM      9  C   UNL A   1      31.768  24.224  25.371  1.00  0.00     0.026 C 
ATOM     10  C   UNL A   1      34.734  24.616  25.219  1.00  0.00     0.015 C 
ATOM     11  C   UNL A   1      32.668  23.230  24.661  1.00  0.00     0.015 C 
BRANCH   7  12
ATOM     12  N   UNL A   1      31.675  26.377  26.582  1.00  0.00    -0.353 N 
ATOM     13  C   UNL A   1      31.779  27.665  26.993  1.00  0.00     0.220 C 
ATOM     14  O   UNL A   1      31.265  27.956  28.073  1.00  0.00    -0.275 OA
ATOM     15  H   UNL A   1      31.015  25.849  27.085  1.00  0.00     0.163 HD
BRANCH  13  16
ATOM     16  C   UNL A   1      32.435  28.715  26.131  1.00  0.00     0.102 C 
BRANCH  16  17
ATOM     17  C   UNL A   1      31.487  29.719  25.471  1.00  0.00     0.038 C 
BRANCH  17  18
ATOM     18  C   UNL A   1      30.840  29.338  24.138  1.00  0.00     0.160 C 
BRANCH  18  19
ATOM     19  O   UNL A   1      31.440  28.282  23.393  1.00  0.00    -0.385 OA
ATOM     20  C   UNL A   1      30.596  27.407  22.672  1.00  0.00     0.194 C 
ENDBRANCH  18  19
ENDBRANCH  17  18
ENDBRANCH  16  17
ENDBRANCH  13  16
ENDBRANCH   7  12
ENDBRANCH   3   6
ENDBRANCH   1   2
BRANCH   1  21
ATOM     21  C   UNL A   1      37.056  20.094  24.877  1.00  0.00     0.023 C 
BRANCH  21  22
ATOM     22  C   UNL A   1      37.861  21.368  25.091  1.00  0.00     0.023 C 
BRANCH  22  23
ATOM     23  C   UNL A   1      39.074  21.212  25.999  1.00  0.00     0.116 C 
BRANCH  23  24
ATOM     24  N   UNL A   1      39.889  20.028  25.759  1.00  0.00    -0.352 N 
ATOM     25  C   UNL A   1      41.241  19.882  26.015  1.00  0.00     0.251 C 
ATOM     26  H   UNL A   1      39.429  19.247  25.373  1.00  0.00     0.163 HD
ATOM     27  O   UNL A   1      41.844  18.859  25.726  1.00  0.00    -0.269 OA
BRANCH  25  28
ATOM     28  C   UNL A   1      41.969  21.042  26.571  1.00  0.00     0.039 A 
ATOM     29  C   UNL A   1      42.442  22.012  25.685  1.00  0.00     0.014 A 
ATOM     30  C   UNL A   1      42.011  21.251  27.952  1.00  0.00     0.014 A 
ATOM     31  C   UNL A   1      42.840  23.253  26.184  1.00  0.00     0.010 A 
ATOM     32  C   UNL A   1      42.315  22.517  28.434  1.00  0.00     0.010 A 
ATOM     33  C   UNL A   1      42.710  23.537  27.553  1.00  0.00    -0.014 A 
BRANCH  33  34
ATOM     34  C   UNL A   1      42.952  24.905  28.079  1.00  0.00     0.031 A 
ATOM     35  C   UNL A   1      44.336  25.317  28.489  1.00  0.00     0.074 A 
ATOM     36  C   UNL A   1      41.913  25.743  28.269  1.00  0.00     0.049 A 
ATOM     37  N   UNL A   1      44.734  26.430  29.051  1.00  0.00    -0.248 NA
ATOM     38  C   UNL A   1      45.408  24.333  28.275  1.00  0.00     0.031 C 
ATOM     39  C   UNL A   1      40.509  25.438  27.984  1.00  0.00     0.029 A 
ATOM     40  N   UNL A   1      41.878  27.026  28.755  1.00  0.00    -0.354 N 
ATOM     41  C   UNL A   1      46.094  26.266  29.280  1.00  0.00     0.074 A 
ATOM     42  C   UNL A   1      46.441  24.930  28.851  1.00  0.00     0.031 C 
ATOM     43  C   UNL A   1      39.756  26.513  28.269  1.00  0.00     0.029 A 
ATOM     44  C   UNL A   1      40.616  27.572  28.785  1.00  0.00     0.049 A 
ATOM     45  H   UNL A   1      42.681  27.511  29.055  1.00  0.00     0.167 HD
ATOM     46  C   UNL A   1      46.982  27.160  29.777  1.00  0.00     0.037 A 
ATOM     47  C   UNL A   1      40.204  28.791  29.181  1.00  0.00     0.037 A 
ATOM     48  C   UNL A   1      46.648  28.506  30.157  1.00  0.00     0.049 A 
ATOM     49  C   UNL A   1      41.216  29.785  29.677  1.00  0.00     0.074 A 
ATOM     50  C   UNL A   1      47.487  29.508  30.607  1.00  0.00     0.029 A 
ATOM     51  N   UNL A   1      45.368  29.038  30.119  1.00  0.00    -0.354 N 
ATOM     52  N   UNL A   1      42.509  29.638  29.829  1.00  0.00    -0.248 NA
ATOM     53  C   UNL A   1      40.712  31.115  30.051  1.00  0.00     0.031 C 
ATOM     54  C   UNL A   1      46.711  30.645  30.861  1.00  0.00     0.029 A 
ATOM     55  C   UNL A   1      45.394  30.356  30.542  1.00  0.00     0.049 A 
ATOM     56  H   UNL A   1      44.561  28.552  29.834  1.00  0.00     0.167 HD
ATOM     57  C   UNL A   1      42.978  30.860  30.293  1.00  0.00     0.074 A 
ATOM     58  C   UNL A   1      41.832  31.740  30.385  1.00  0.00     0.031 C 
ATOM     59  C   UNL A   1      44.243  31.219  30.615  1.00  0.00     0.037 A 
BRANCH  46  60
ATOM     60  C   UNL A   1      48.403  26.704  29.915  1.00  0.00     0.057 A 
ATOM     61  C   UNL A   1      49.330  26.866  28.876  1.00  0.00     0.134 A 
ATOM     62  C   UNL A   1      48.850  26.098  31.094  1.00  0.00     0.134 A 
ATOM     63  F   UNL A   1      48.957  27.423  27.713  1.00  0.00    -0.206 F 
ATOM     64  C   UNL A   1      50.644  26.413  28.995  1.00  0.00     0.040 A 
ATOM     65  C   UNL A   1      50.170  25.664  31.234  1.00  0.00     0.040 A 
ATOM     66  F   UNL A   1      48.014  25.914  32.126  1.00  0.00    -0.206 F 
ATOM     67  C   UNL A   1      51.068  25.815  30.179  1.00  0.00     0.006 A 
ENDBRANCH  46  60
BRANCH  47  68
ATOM     68  C   UNL A   1      38.768  29.157  29.086  1.00  0.00     0.057 A 
ATOM     69  C   UNL A   1      37.928  29.065  30.202  1.00  0.00     0.134 A 
ATOM     70  C   UNL A   1      38.202  29.600  27.885  1.00  0.00     0.134 A 
ATOM     71  F   UNL A   1      38.411  28.630  31.375  1.00  0.00    -0.206 F 
ATOM     72  C   UNL A   1      36.571  29.383  30.124  1.00  0.00     0.040 A 
ATOM     73  C   UNL A   1      36.851  29.940  27.798  1.00  0.00     0.040 A 
ATOM     74  F   UNL A   1      38.957  29.717  26.783  1.00  0.00    -0.206 F 
ATOM     75  C   UNL A   1      36.030  29.826  28.919  1.00  0.00     0.006 A 
ENDBRANCH  47  68
BRANCH  59  76
ATOM     76  C   UNL A   1      44.460  32.630  31.070  1.00  0.00     0.057 A 
ATOM     77  C   UNL A   1      44.713  33.664  30.160  1.00  0.00     0.134 A 
ATOM     78  C   UNL A   1      44.371  32.963  32.426  1.00  0.00     0.134 A 
ATOM     79  F   UNL A   1      44.822  33.404  28.849  1.00  0.00    -0.206 F 
ATOM     80  C   UNL A   1      44.883  34.981  30.587  1.00  0.00     0.040 A 
ATOM     81  C   UNL A   1      44.519  34.280  32.864  1.00  0.00     0.040 A 
ATOM     82  F   UNL A   1      44.124  32.017  33.345  1.00  0.00    -0.206 F 
ATOM     83  C   UNL A   1      44.779  35.292  31.942  1.00  0.00     0.006 A 
ENDBRANCH  59  76
ENDBRANCH  33  34
ENDBRANCH  25  28
ENDBRANCH  23  24
ENDBRANCH  22  23
ENDBRANCH  21  22
ENDBRANCH   1  21
TORSDOF 16
ENDMDL
MODEL 3
REMARK VINA RESULT:     -10.2      4.194      8.701
REMARK SMILES COCCCC(=O)N[C@H]1CC[C@@H](C(=O)NCCCCNC(=O)c2ccc(-c3c4nc(c(-c5c(F)cccc5F)c5ccc([nH]5)c(-c5c(F)cccc5F)c5nc(c(-c6c(F)cccc6F)c6ccc3[nH]6)C=C5)C=C4)cc2)CC1
REMARK SMILES IDX 16 1 15 2 13 3 14 4 12 6 9 7 10 8 78 9 11 10 77 11 8 12 6 13
REMARK SMILES IDX 7 14 5 16 4 17 3 18 2 19 1 20 17 21 18 22 19 23 20 24 21 25
REMARK SMILES IDX 22 27 23 28 24 29 76 30 25 31 75 32 26 33 27 34 28 35 69 36
REMARK SMILES IDX 29 37 74 38 68 39 70 40 30 41 73 42 67 43 66 44 31 46 57 47
REMARK SMILES IDX 40 48 56 49 41 50 44 51 55 52 71 53 42 54 43 55 54 57 72 58
REMARK SMILES IDX 45 59 32 60 33 61 38 62 34 63 35 64 37 65 39 66 36 67 58 68
REMARK SMILES IDX 59 69 64 70 60 71 61 72 63 73 65 74 62 75 46 76 47 77 52 78
REMARK SMILES IDX 48 79 49 80 51 81 53 82 50 83
REMARK H PARENT 15 5 8 15 20 26 70 45 44 56
REMARK Flexibility Score: inf
ROOT
ATOM      1  C   UNL A   1      32.386  28.875  24.539  1.00  0.00     0.116 C 
ENDROOT
BRANCH   1   2
ATOM      2  N   UNL A   1      31.705  29.334  23.349  1.00  0.00    -0.356 N 
ATOM      3  C   UNL A   1      30.827  28.767  22.489  1.00  0.00     0.223 C 
ATOM      4  O   UNL A   1      30.261  29.554  21.718  1.00  0.00    -0.275 OA
ATOM      5  H   UNL A   1      31.930  30.261  23.111  1.00  0.00     0.163 HD
BRANCH   3   6
ATOM      6  C   UNL A   1      30.512  27.269  22.376  1.00  0.00     0.078 C 
ATOM      7  C   UNL A   1      31.962  25.180  23.964  1.00  0.00     0.082 C 
ATOM      8  C   UNL A   1      30.730  25.886  24.550  1.00  0.00     0.026 C 
ATOM      9  C   UNL A   1      32.594  25.815  22.727  1.00  0.00     0.026 C 
ATOM     10  C   UNL A   1      29.827  26.602  23.562  1.00  0.00     0.015 C 
ATOM     11  C   UNL A   1      31.606  26.416  21.744  1.00  0.00     0.015 C 
BRANCH   7  12
ATOM     12  N   UNL A   1      32.933  25.034  25.047  1.00  0.00    -0.353 N 
ATOM     13  C   UNL A   1      33.772  24.024  25.388  1.00  0.00     0.220 C 
ATOM     14  O   UNL A   1      34.288  24.071  26.505  1.00  0.00    -0.275 OA
ATOM     15  H   UNL A   1      32.987  25.815  25.642  1.00  0.00     0.163 HD
BRANCH  13  16
ATOM     16  C   UNL A   1      34.114  22.923  24.415  1.00  0.00     0.102 C 
BRANCH  16  17
ATOM     17  C   UNL A   1      35.249  23.232  23.436  1.00  0.00     0.038 C 
BRANCH  17  18
ATOM     18  C   UNL A   1      36.653  22.722  23.768  1.00  0.00     0.160 C 
BRANCH  18  19
ATOM     19  O   UNL A   1      37.006  22.615  25.144  1.00  0.00    -0.385 OA
ATOM     20  C   UNL A   1      37.678  23.701  25.751  1.00  0.00     0.194 C 
ENDBRANCH  18  19
ENDBRANCH  17  18
ENDBRANCH  16  17
ENDBRANCH  13  16
ENDBRANCH   7  12
ENDBRANCH   3   6
ENDBRANCH   1   2
BRANCH   1  21
ATOM     21  C   UNL A   1      31.643  29.202  25.840  1.00  0.00     0.023 C 
BRANCH  21  22
ATOM     22  C   UNL A   1      32.276  28.618  27.095  1.00  0.00     0.023 C 
BRANCH  22  23
ATOM     23  C   UNL A   1      33.710  29.062  27.353  1.00  0.00     0.116 C 
BRANCH  23  24
ATOM     24  N   UNL A   1      33.859  30.358  28.001  1.00  0.00    -0.352 N 
ATOM     25  C   UNL A   1      35.007  30.875  28.576  1.00  0.00     0.251 C 
ATOM     26  H   UNL A   1      33.057  30.929  28.035  1.00  0.00     0.163 HD
ATOM     27  O   UNL A   1      35.012  31.957  29.143  1.00  0.00    -0.269 OA
BRANCH  25  28
ATOM     28  C   UNL A   1      36.224  30.035  28.566  1.00  0.00     0.039 A 
ATOM     29  C   UNL A   1      37.049  30.081  27.441  1.00  0.00     0.014 A 
ATOM     30  C   UNL A   1      36.628  29.369  29.725  1.00  0.00     0.014 A 
ATOM     31  C   UNL A   1      38.342  29.564  27.524  1.00  0.00     0.010 A 
ATOM     32  C   UNL A   1      37.946  28.944  29.835  1.00  0.00     0.010 A 
ATOM     33  C   UNL A   1      38.823  29.058  28.743  1.00  0.00    -0.014 A 
BRANCH  33  34
ATOM     34  C   UNL A   1      40.248  28.674  28.906  1.00  0.00     0.031 A 
ATOM     35  C   UNL A   1      41.233  29.663  29.459  1.00  0.00     0.074 A 
ATOM     36  C   UNL A   1      40.670  27.467  28.478  1.00  0.00     0.049 A 
ATOM     37  N   UNL A   1      42.529  29.550  29.595  1.00  0.00    -0.248 NA
ATOM     38  C   UNL A   1      40.695  30.967  29.876  1.00  0.00     0.031 C 
ATOM     39  C   UNL A   1      39.830  26.443  27.852  1.00  0.00     0.029 A 
ATOM     40  N   UNL A   1      41.919  26.899  28.497  1.00  0.00    -0.354 N 
ATOM     41  C   UNL A   1      42.961  30.774  30.087  1.00  0.00     0.074 A 
ATOM     42  C   UNL A   1      41.801  31.633  30.172  1.00  0.00     0.031 C 
ATOM     43  C   UNL A   1      40.579  25.363  27.578  1.00  0.00     0.029 A 
ATOM     44  C   UNL A   1      41.957  25.626  27.979  1.00  0.00     0.049 A 
ATOM     45  H   UNL A   1      42.715  27.360  28.850  1.00  0.00     0.167 HD
ATOM     46  C   UNL A   1      44.209  31.142  30.465  1.00  0.00     0.037 A 
ATOM     47  C   UNL A   1      42.987  24.769  27.848  1.00  0.00     0.037 A 
ATOM     48  C   UNL A   1      45.353  30.273  30.429  1.00  0.00     0.049 A 
ATOM     49  C   UNL A   1      44.351  25.180  28.324  1.00  0.00     0.074 A 
ATOM     50  C   UNL A   1      46.645  30.530  30.851  1.00  0.00     0.029 A 
ATOM     51  N   UNL A   1      45.338  28.972  29.949  1.00  0.00    -0.354 N 
ATOM     52  N   UNL A   1      44.733  26.319  28.847  1.00  0.00    -0.248 NA
ATOM     53  C   UNL A   1      45.426  24.185  28.198  1.00  0.00     0.031 C 
ATOM     54  C   UNL A   1      47.418  29.389  30.610  1.00  0.00     0.029 A 
ATOM     55  C   UNL A   1      46.599  28.413  30.063  1.00  0.00     0.049 A 
ATOM     56  H   UNL A   1      44.547  28.514  29.583  1.00  0.00     0.167 HD
ATOM     57  C   UNL A   1      46.084  26.172  29.133  1.00  0.00     0.074 A 
ATOM     58  C   UNL A   1      46.452  24.829  28.738  1.00  0.00     0.031 C 
ATOM     59  C   UNL A   1      46.942  27.070  29.673  1.00  0.00     0.037 A 
BRANCH  46  60
ATOM     60  C   UNL A   1      44.383  32.543  30.966  1.00  0.00     0.057 A 
ATOM     61  C   UNL A   1      44.660  33.605  30.094  1.00  0.00     0.134 A 
ATOM     62  C   UNL A   1      44.274  32.837  32.330  1.00  0.00     0.134 A 
ATOM     63  F   UNL A   1      44.795  33.386  28.777  1.00  0.00    -0.206 F 
ATOM     64  C   UNL A   1      44.853  34.905  30.566  1.00  0.00     0.040 A 
ATOM     65  C   UNL A   1      44.440  34.137  32.811  1.00  0.00     0.040 A 
ATOM     66  F   UNL A   1      44.010  31.866  33.217  1.00  0.00    -0.206 F 
ATOM     67  C   UNL A   1      44.738  35.173  31.927  1.00  0.00     0.006 A 
ENDBRANCH  46  60
BRANCH  47  68
ATOM     68  C   UNL A   1      42.761  23.418  27.276  1.00  0.00     0.057 A 
ATOM     69  C   UNL A   1      42.389  22.345  28.095  1.00  0.00     0.134 A 
ATOM     70  C   UNL A   1      42.916  23.164  25.909  1.00  0.00     0.134 A 
ATOM     71  F   UNL A   1      42.243  22.524  29.416  1.00  0.00    -0.206 F 
ATOM     72  C   UNL A   1      42.196  21.063  27.578  1.00  0.00     0.040 A 
ATOM     73  C   UNL A   1      42.707  21.891  25.376  1.00  0.00     0.040 A 
ATOM     74  F   UNL A   1      43.264  24.152  25.072  1.00  0.00    -0.206 F 
ATOM     75  C   UNL A   1      42.351  20.834  26.213  1.00  0.00     0.006 A 
ENDBRANCH  47  68
BRANCH  59  76
ATOM     76  C   UNL A   1      48.354  26.621  29.894  1.00  0.00     0.057 A 
ATOM     77  C   UNL A   1      48.734  25.935  31.054  1.00  0.00     0.134 A 
ATOM     78  C   UNL A   1      49.332  26.837  28.916  1.00  0.00     0.134 A 
ATOM     79  F   UNL A   1      47.844  25.710  32.032  1.00  0.00    -0.206 F 
ATOM     80  C   UNL A   1      50.043  25.492  31.240  1.00  0.00     0.040 A 
ATOM     81  C   UNL A   1      50.640  26.381  29.081  1.00  0.00     0.040 A 
ATOM     82  F   UNL A   1      49.027  27.483  27.780  1.00  0.00    -0.206 F 
ATOM     83  C   UNL A   1      50.998  25.709  30.248  1.00  0.00     0.006 A 
ENDBRANCH  59  76
ENDBRANCH  33  34
ENDBRANCH  25  28
ENDBRANCH  23  24
ENDBRANCH  22  23
ENDBRANCH  21  22
ENDBRANCH   1  21
TORSDOF 16
ENDMDL
