MODEL 1
REMARK VINA RESULT:     -11.3      0.000      0.000
REMARK SMILES CC(=O)Oc1ccc(Br)cc1C(=O)NCC(=O)NCCCCNC(=O)c1ccc(-c2c3nc(c(-c4c(F)cccc4F)c4ccc([nH]4)c(-c4c(F)cccc4F)c4nc(c(-c5c(F)cccc5F)c5ccc2[nH]5)C=C4)C=C3)cc1
REMARK SMILES IDX 19 1 18 2 16 3 17 4 15 6 14 7 12 8 13 9 11 11 5 12 6 13 7 14
REMARK SMILES IDX 10 15 8 16 9 17 4 18 2 19 1 20 3 21 20 22 21 23 22 24 23 25
REMARK SMILES IDX 24 26 25 28 26 29 27 30 79 31 28 32 78 33 29 34 30 35 31 36
REMARK SMILES IDX 72 37 32 38 77 39 71 40 73 41 33 42 76 43 70 44 69 45 34 47
REMARK SMILES IDX 60 48 43 49 59 50 44 51 47 52 58 53 74 54 45 55 46 56 57 58
REMARK SMILES IDX 75 59 48 60 35 61 36 62 41 63 37 64 38 65 40 66 42 67 39 68
REMARK SMILES IDX 61 69 62 70 67 71 63 72 64 73 66 74 68 75 65 76 49 77 50 78
REMARK SMILES IDX 55 79 51 80 52 81 54 82 56 83 53 84
REMARK H PARENT 18 5 14 10 23 27 73 46 47 57
REMARK Flexibility Score: inf
ROOT
ATOM      1  C   UNL A   1      31.582  29.742  25.273  1.00  0.00     0.116 C 
ENDROOT
BRANCH   1   2
ATOM      2  N   UNL A   1      32.722  29.674  24.389  1.00  0.00    -0.355 N 
ATOM      3  C   UNL A   1      33.128  28.704  23.532  1.00  0.00     0.239 C 
ATOM      4  O   UNL A   1      34.103  28.973  22.820  1.00  0.00    -0.273 OA
ATOM      5  H   UNL A   1      33.305  30.467  24.411  1.00  0.00     0.163 HD
BRANCH   3   6
ATOM      6  C   UNL A   1      32.342  27.409  23.269  1.00  0.00     0.216 C 
BRANCH   6   7
ATOM      7  N   UNL A   1      32.933  26.290  22.564  1.00  0.00    -0.343 N 
ATOM      8  C   UNL A   1      33.317  25.011  22.838  1.00  0.00     0.255 C 
ATOM      9  O   UNL A   1      33.498  24.329  21.821  1.00  0.00    -0.269 OA
ATOM     10  H   UNL A   1      33.106  26.517  21.622  1.00  0.00     0.164 HD
BRANCH   8  11
ATOM     11  C   UNL A   1      33.637  24.373  24.161  1.00  0.00     0.083 A 
ATOM     12  C   UNL A   1      32.803  23.927  25.196  1.00  0.00     0.143 A 
ATOM     13  C   UNL A   1      33.345  23.331  26.357  1.00  0.00     0.049 A 
ATOM     14  C   UNL A   1      34.721  23.235  26.542  1.00  0.00     0.019 A 
ATOM     15  C   UNL A   1      35.034  24.253  24.382  1.00  0.00     0.033 A 
ATOM     16  C   UNL A   1      35.563  23.704  25.550  1.00  0.00     0.019 A 
ATOM     17  Br  UNL A   1      37.436  23.601  25.780  1.00  0.00    -0.051 Br
BRANCH  12  18
ATOM     18  O   UNL A   1      31.405  23.953  25.118  1.00  0.00    -0.426 OA
BRANCH  18  19
ATOM     19  C   UNL A   1      30.743  24.520  26.212  1.00  0.00     0.308 C 
ATOM     20  C   UNL A   1      30.833  26.016  26.133  1.00  0.00     0.139 C 
ATOM     21  O   UNL A   1      30.210  23.911  27.130  1.00  0.00    -0.252 OA
ENDBRANCH  18  19
ENDBRANCH  12  18
ENDBRANCH   8  11
ENDBRANCH   6   7
ENDBRANCH   3   6
ENDBRANCH   1   2
BRANCH   1  22
ATOM     22  C   UNL A   1      31.944  30.321  26.635  1.00  0.00     0.023 C 
BRANCH  22  23
ATOM     23  C   UNL A   1      31.643  31.815  26.770  1.00  0.00     0.023 C 
BRANCH  23  24
ATOM     24  C   UNL A   1      32.806  32.664  27.270  1.00  0.00     0.116 C 
BRANCH  24  25
ATOM     25  N   UNL A   1      32.421  34.033  27.578  1.00  0.00    -0.352 N 
ATOM     26  C   UNL A   1      32.953  34.883  28.521  1.00  0.00     0.251 C 
ATOM     27  H   UNL A   1      31.682  34.400  27.040  1.00  0.00     0.163 HD
ATOM     28  O   UNL A   1      32.434  35.964  28.754  1.00  0.00    -0.269 OA
BRANCH  26  29
ATOM     29  C   UNL A   1      34.149  34.456  29.277  1.00  0.00     0.039 A 
ATOM     30  C   UNL A   1      33.981  33.872  30.534  1.00  0.00     0.014 A 
ATOM     31  C   UNL A   1      35.426  34.596  28.726  1.00  0.00     0.014 A 
ATOM     32  C   UNL A   1      35.090  33.362  31.212  1.00  0.00     0.010 A 
ATOM     33  C   UNL A   1      36.520  34.028  29.371  1.00  0.00     0.010 A 
ATOM     34  C   UNL A   1      36.362  33.402  30.617  1.00  0.00    -0.014 A 
BRANCH  34  35
ATOM     35  C   UNL A   1      37.540  32.783  31.277  1.00  0.00     0.031 A 
ATOM     36  C   UNL A   1      38.199  31.579  30.667  1.00  0.00     0.074 A 
ATOM     37  C   UNL A   1      37.968  33.260  32.462  1.00  0.00     0.049 A 
ATOM     38  N   UNL A   1      39.181  30.849  31.132  1.00  0.00    -0.248 NA
ATOM     39  C   UNL A   1      37.666  31.117  29.374  1.00  0.00     0.031 C 
ATOM     40  C   UNL A   1      37.383  34.393  33.182  1.00  0.00     0.029 A 
ATOM     41  N   UNL A   1      38.989  32.840  33.278  1.00  0.00    -0.354 N 
ATOM     42  C   UNL A   1      39.372  29.837  30.201  1.00  0.00     0.074 A 
ATOM     43  C   UNL A   1      38.373  30.017  29.169  1.00  0.00     0.031 C 
ATOM     44  C   UNL A   1      38.065  34.591  34.321  1.00  0.00     0.029 A 
ATOM     45  C   UNL A   1      39.110  33.578  34.432  1.00  0.00     0.049 A 
ATOM     46  H   UNL A   1      39.578  32.084  33.057  1.00  0.00     0.167 HD
ATOM     47  C   UNL A   1      40.310  28.861  30.193  1.00  0.00     0.037 A 
ATOM     48  C   UNL A   1      39.962  33.446  35.466  1.00  0.00     0.037 A 
ATOM     49  C   UNL A   1      41.320  28.701  31.206  1.00  0.00     0.049 A 
ATOM     50  C   UNL A   1      40.990  32.348  35.437  1.00  0.00     0.074 A 
ATOM     51  C   UNL A   1      42.354  27.780  31.255  1.00  0.00     0.029 A 
ATOM     52  N   UNL A   1      41.421  29.478  32.350  1.00  0.00    -0.354 N 
ATOM     53  N   UNL A   1      41.203  31.439  34.517  1.00  0.00    -0.248 NA
ATOM     54  C   UNL A   1      41.899  32.262  36.589  1.00  0.00     0.031 C 
ATOM     55  C   UNL A   1      43.055  27.975  32.449  1.00  0.00     0.029 A 
ATOM     56  C   UNL A   1      42.487  29.045  33.121  1.00  0.00     0.049 A 
ATOM     57  H   UNL A   1      40.825  30.227  32.578  1.00  0.00     0.167 HD
ATOM     58  C   UNL A   1      42.284  30.691  34.965  1.00  0.00     0.074 A 
ATOM     59  C   UNL A   1      42.691  31.260  36.232  1.00  0.00     0.031 C 
ATOM     60  C   UNL A   1      42.885  29.628  34.377  1.00  0.00     0.037 A 
BRANCH  47  61
ATOM     61  C   UNL A   1      40.290  27.891  29.048  1.00  0.00     0.057 A 
ATOM     62  C   UNL A   1      41.032  28.113  27.880  1.00  0.00     0.134 A 
ATOM     63  C   UNL A   1      39.547  26.707  29.124  1.00  0.00     0.134 A 
ATOM     64  F   UNL A   1      41.756  29.234  27.737  1.00  0.00    -0.206 F 
ATOM     65  C   UNL A   1      41.015  27.205  26.820  1.00  0.00     0.040 A 
ATOM     66  C   UNL A   1      39.544  25.778  28.083  1.00  0.00     0.040 A 
ATOM     67  F   UNL A   1      38.819  26.429  30.216  1.00  0.00    -0.206 F 
ATOM     68  C   UNL A   1      40.275  26.030  26.923  1.00  0.00     0.006 A 
ENDBRANCH  47  61
BRANCH  48  69
ATOM     69  C   UNL A   1      39.895  34.389  36.610  1.00  0.00     0.057 A 
ATOM     70  C   UNL A   1      39.155  34.079  37.757  1.00  0.00     0.134 A 
ATOM     71  C   UNL A   1      40.557  35.623  36.584  1.00  0.00     0.134 A 
ATOM     72  F   UNL A   1      38.482  32.920  37.834  1.00  0.00    -0.206 F 
ATOM     73  C   UNL A   1      39.058  34.968  38.829  1.00  0.00     0.040 A 
ATOM     74  C   UNL A   1      40.489  36.511  37.658  1.00  0.00     0.040 A 
ATOM     75  F   UNL A   1      41.288  35.975  35.516  1.00  0.00    -0.206 F 
ATOM     76  C   UNL A   1      39.732  36.187  38.782  1.00  0.00     0.006 A 
ENDBRANCH  48  69
BRANCH  60  77
ATOM     77  C   UNL A   1      44.067  29.031  35.082  1.00  0.00     0.057 A 
ATOM     78  C   UNL A   1      43.924  28.011  36.030  1.00  0.00     0.134 A 
ATOM     79  C   UNL A   1      45.366  29.453  34.774  1.00  0.00     0.134 A 
ATOM     80  F   UNL A   1      42.705  27.572  36.379  1.00  0.00    -0.206 F 
ATOM     81  C   UNL A   1      45.032  27.443  36.662  1.00  0.00     0.040 A 
ATOM     82  C   UNL A   1      46.483  28.876  35.380  1.00  0.00     0.040 A 
ATOM     83  F   UNL A   1      45.572  30.420  33.868  1.00  0.00    -0.206 F 
ATOM     84  C   UNL A   1      46.317  27.871  36.330  1.00  0.00     0.006 A 
ENDBRANCH  60  77
ENDBRANCH  34  35
ENDBRANCH  26  29
ENDBRANCH  24  25
ENDBRANCH  23  24
ENDBRANCH  22  23
ENDBRANCH   1  22
TORSDOF 15
ENDMDL
MODEL 2
REMARK VINA RESULT:     -11.2      2.242      6.948
REMARK SMILES CC(=O)Oc1ccc(Br)cc1C(=O)NCC(=O)NCCCCNC(=O)c1ccc(-c2c3nc(c(-c4c(F)cccc4F)c4ccc([nH]4)c(-c4c(F)cccc4F)c4nc(c(-c5c(F)cccc5F)c5ccc2[nH]5)C=C4)C=C3)cc1
REMARK SMILES IDX 19 1 18 2 16 3 17 4 15 6 14 7 12 8 13 9 11 11 5 12 6 13 7 14
REMARK SMILES IDX 10 15 8 16 9 17 4 18 2 19 1 20 3 21 20 22 21 23 22 24 23 25
REMARK SMILES IDX 24 26 25 28 26 29 27 30 79 31 28 32 78 33 29 34 30 35 31 36
REMARK SMILES IDX 72 37 32 38 77 39 71 40 73 41 33 42 76 43 70 44 69 45 34 47
REMARK SMILES IDX 60 48 43 49 59 50 44 51 47 52 58 53 74 54 45 55 46 56 57 58
REMARK SMILES IDX 75 59 48 60 35 61 36 62 41 63 37 64 38 65 40 66 42 67 39 68
REMARK SMILES IDX 61 69 62 70 67 71 63 72 64 73 66 74 68 75 65 76 49 77 50 78
REMARK SMILES IDX 55 79 51 80 52 81 54 82 56 83 53 84
REMARK H PARENT 18 5 14 10 23 27 73 46 47 57
REMARK Flexibility Score: inf
ROOT
ATOM      1  C   UNL A   1      34.065  32.053  28.381  1.00  0.00     0.116 C 
ENDROOT
BRANCH   1   2
ATOM      2  N   UNL A   1      35.201  31.161  28.413  1.00  0.00    -0.355 N 
ATOM      3  C   UNL A   1      35.380  29.929  27.875  1.00  0.00     0.239 C 
ATOM      4  O   UNL A   1      36.512  29.442  27.983  1.00  0.00    -0.273 OA
ATOM      5  H   UNL A   1      35.978  31.505  28.911  1.00  0.00     0.163 HD
BRANCH   3   6
ATOM      6  C   UNL A   1      34.339  29.218  26.994  1.00  0.00     0.216 C 
BRANCH   6   7
ATOM      7  N   UNL A   1      33.049  28.816  27.515  1.00  0.00    -0.343 N 
ATOM      8  C   UNL A   1      32.055  27.941  27.191  1.00  0.00     0.255 C 
ATOM      9  O   UNL A   1      31.264  27.737  28.121  1.00  0.00    -0.269 OA
ATOM     10  H   UNL A   1      32.826  29.318  28.332  1.00  0.00     0.164 HD
BRANCH   8  11
ATOM     11  C   UNL A   1      31.746  27.293  25.870  1.00  0.00     0.083 A 
ATOM     12  C   UNL A   1      32.116  26.045  25.347  1.00  0.00     0.143 A 
ATOM     13  C   UNL A   1      31.679  25.641  24.064  1.00  0.00     0.049 A 
ATOM     14  C   UNL A   1      30.934  26.492  23.255  1.00  0.00     0.019 A 
ATOM     15  C   UNL A   1      30.982  28.132  25.019  1.00  0.00     0.033 A 
ATOM     16  C   UNL A   1      30.592  27.743  23.737  1.00  0.00     0.019 A 
ATOM     17  Br  UNL A   1      29.594  28.928  22.654  1.00  0.00    -0.051 Br
BRANCH  12  18
ATOM     18  O   UNL A   1      32.846  25.095  26.072  1.00  0.00    -0.426 OA
BRANCH  18  19
ATOM     19  C   UNL A   1      32.108  24.029  26.596  1.00  0.00     0.308 C 
ATOM     20  C   UNL A   1      32.727  22.731  26.169  1.00  0.00     0.139 C 
ATOM     21  O   UNL A   1      31.083  24.116  27.261  1.00  0.00    -0.252 OA
ENDBRANCH  18  19
ENDBRANCH  12  18
ENDBRANCH   8  11
ENDBRANCH   6   7
ENDBRANCH   3   6
ENDBRANCH   1   2
BRANCH   1  22
ATOM     22  C   UNL A   1      34.349  33.371  29.091  1.00  0.00     0.023 C 
BRANCH  22  23
ATOM     23  C   UNL A   1      33.283  34.442  28.850  1.00  0.00     0.023 C 
BRANCH  23  24
ATOM     24  C   UNL A   1      33.544  35.777  29.539  1.00  0.00     0.116 C 
BRANCH  24  25
ATOM     25  N   UNL A   1      32.571  36.081  30.578  1.00  0.00    -0.352 N 
ATOM     26  C   UNL A   1      32.596  35.726  31.907  1.00  0.00     0.251 C 
ATOM     27  H   UNL A   1      31.791  36.610  30.292  1.00  0.00     0.163 HD
ATOM     28  O   UNL A   1      31.637  35.941  32.632  1.00  0.00    -0.269 OA
BRANCH  26  29
ATOM     29  C   UNL A   1      33.793  35.045  32.444  1.00  0.00     0.039 A 
ATOM     30  C   UNL A   1      33.650  33.780  33.019  1.00  0.00     0.014 A 
ATOM     31  C   UNL A   1      35.054  35.638  32.343  1.00  0.00     0.014 A 
ATOM     32  C   UNL A   1      34.785  33.077  33.430  1.00  0.00     0.010 A 
ATOM     33  C   UNL A   1      36.188  34.909  32.689  1.00  0.00     0.010 A 
ATOM     34  C   UNL A   1      36.065  33.621  33.231  1.00  0.00    -0.014 A 
BRANCH  34  35
ATOM     35  C   UNL A   1      37.289  32.853  33.573  1.00  0.00     0.031 A 
ATOM     36  C   UNL A   1      38.040  33.159  34.838  1.00  0.00     0.074 A 
ATOM     37  C   UNL A   1      37.764  31.935  32.710  1.00  0.00     0.049 A 
ATOM     38  N   UNL A   1      39.171  32.659  35.269  1.00  0.00    -0.248 NA
ATOM     39  C   UNL A   1      37.457  34.180  35.724  1.00  0.00     0.031 C 
ATOM     40  C   UNL A   1      37.153  31.581  31.427  1.00  0.00     0.029 A 
ATOM     41  N   UNL A   1      38.881  31.140  32.776  1.00  0.00    -0.354 N 
ATOM     42  C   UNL A   1      39.441  33.314  36.463  1.00  0.00     0.074 A 
ATOM     43  C   UNL A   1      38.384  34.282  36.664  1.00  0.00     0.031 C 
ATOM     44  C   UNL A   1      37.891  30.627  30.837  1.00  0.00     0.029 A 
ATOM     45  C   UNL A   1      39.045  30.329  31.678  1.00  0.00     0.049 A 
ATOM     46  H   UNL A   1      39.504  31.149  33.537  1.00  0.00     0.167 HD
ATOM     47  C   UNL A   1      40.465  33.112  37.326  1.00  0.00     0.037 A 
ATOM     48  C   UNL A   1      40.022  29.451  31.380  1.00  0.00     0.037 A 
ATOM     49  C   UNL A   1      41.500  32.130  37.137  1.00  0.00     0.049 A 
ATOM     50  C   UNL A   1      41.152  29.250  32.352  1.00  0.00     0.074 A 
ATOM     51  C   UNL A   1      42.546  31.806  37.986  1.00  0.00     0.029 A 
ATOM     52  N   UNL A   1      41.623  31.316  36.022  1.00  0.00    -0.354 N 
ATOM     53  N   UNL A   1      41.359  29.829  33.510  1.00  0.00    -0.248 NA
ATOM     54  C   UNL A   1      42.182  28.271  31.977  1.00  0.00     0.031 C 
ATOM     55  C   UNL A   1      43.324  30.825  37.365  1.00  0.00     0.029 A 
ATOM     56  C   UNL A   1      42.738  30.505  36.150  1.00  0.00     0.049 A 
ATOM     57  H   UNL A   1      41.008  31.314  35.254  1.00  0.00     0.167 HD
ATOM     58  C   UNL A   1      42.525  29.266  34.013  1.00  0.00     0.074 A 
ATOM     59  C   UNL A   1      42.973  28.291  33.041  1.00  0.00     0.031 C 
ATOM     60  C   UNL A   1      43.166  29.533  35.177  1.00  0.00     0.037 A 
BRANCH  47  61
ATOM     61  C   UNL A   1      40.511  33.968  38.558  1.00  0.00     0.057 A 
ATOM     62  C   UNL A   1      41.216  35.179  38.589  1.00  0.00     0.134 A 
ATOM     63  C   UNL A   1      39.818  33.596  39.716  1.00  0.00     0.134 A 
ATOM     64  F   UNL A   1      41.912  35.588  37.516  1.00  0.00    -0.206 F 
ATOM     65  C   UNL A   1      41.251  35.975  39.735  1.00  0.00     0.040 A 
ATOM     66  C   UNL A   1      39.822  34.397  40.859  1.00  0.00     0.040 A 
ATOM     67  F   UNL A   1      39.118  32.452  39.753  1.00  0.00    -0.206 F 
ATOM     68  C   UNL A   1      40.547  35.588  40.872  1.00  0.00     0.006 A 
ENDBRANCH  47  61
BRANCH  48  69
ATOM     69  C   UNL A   1      39.967  28.679  30.114  1.00  0.00     0.057 A 
ATOM     70  C   UNL A   1      40.615  29.137  28.961  1.00  0.00     0.134 A 
ATOM     71  C   UNL A   1      39.260  27.473  30.020  1.00  0.00     0.134 A 
ATOM     72  F   UNL A   1      41.292  30.296  28.984  1.00  0.00    -0.206 F 
ATOM     73  C   UNL A   1      40.549  28.437  27.756  1.00  0.00     0.040 A 
ATOM     74  C   UNL A   1      39.205  26.750  28.828  1.00  0.00     0.040 A 
ATOM     75  F   UNL A   1      38.624  26.977  31.091  1.00  0.00    -0.206 F 
ATOM     76  C   UNL A   1      39.844  27.236  27.689  1.00  0.00     0.006 A 
ENDBRANCH  48  69
BRANCH  60  77
ATOM     77  C   UNL A   1      44.402  28.738  35.478  1.00  0.00     0.057 A 
ATOM     78  C   UNL A   1      44.347  27.522  36.170  1.00  0.00     0.134 A 
ATOM     79  C   UNL A   1      45.655  29.175  35.031  1.00  0.00     0.134 A 
ATOM     80  F   UNL A   1      43.180  27.056  36.636  1.00  0.00    -0.206 F 
ATOM     81  C   UNL A   1      45.501  26.775  36.421  1.00  0.00     0.040 A 
ATOM     82  C   UNL A   1      46.811  28.425  35.255  1.00  0.00     0.040 A 
ATOM     83  F   UNL A   1      45.774  30.327  34.356  1.00  0.00    -0.206 F 
ATOM     84  C   UNL A   1      46.736  27.224  35.957  1.00  0.00     0.006 A 
ENDBRANCH  60  77
ENDBRANCH  34  35
ENDBRANCH  26  29
ENDBRANCH  24  25
ENDBRANCH  23  24
ENDBRANCH  22  23
ENDBRANCH   1  22
TORSDOF 15
ENDMDL
MODEL 3
REMARK VINA RESULT:     -11.2      2.004      2.818
REMARK SMILES CC(=O)Oc1ccc(Br)cc1C(=O)NCC(=O)NCCCCNC(=O)c1ccc(-c2c3nc(c(-c4c(F)cccc4F)c4ccc([nH]4)c(-c4c(F)cccc4F)c4nc(c(-c5c(F)cccc5F)c5ccc2[nH]5)C=C4)C=C3)cc1
REMARK SMILES IDX 19 1 18 2 16 3 17 4 15 6 14 7 12 8 13 9 11 11 5 12 6 13 7 14
REMARK SMILES IDX 10 15 8 16 9 17 4 18 2 19 1 20 3 21 20 22 21 23 22 24 23 25
REMARK SMILES IDX 24 26 25 28 26 29 27 30 79 31 28 32 78 33 29 34 30 35 31 36
REMARK SMILES IDX 72 37 32 38 77 39 71 40 73 41 33 42 76 43 70 44 69 45 34 47
REMARK SMILES IDX 60 48 43 49 59 50 44 51 47 52 58 53 74 54 45 55 46 56 57 58
REMARK SMILES IDX 75 59 48 60 35 61 36 62 41 63 37 64 38 65 40 66 42 67 39 68
REMARK SMILES IDX 61 69 62 70 67 71 63 72 64 73 66 74 68 75 65 76 49 77 50 78
REMARK SMILES IDX 55 79 51 80 52 81 54 82 56 83 53 84
REMARK H PARENT 18 5 14 10 23 27 73 46 47 57
REMARK Flexibility Score: inf
ROOT
ATOM      1  C   UNL A   1      31.760  29.735  27.226  1.00  0.00     0.116 C 
ENDROOT
BRANCH   1   2
ATOM      2  N   UNL A   1      33.159  29.685  27.579  1.00  0.00    -0.355 N 
ATOM      3  C   UNL A   1      34.164  28.894  27.125  1.00  0.00     0.239 C 
ATOM      4  O   UNL A   1      35.299  29.153  27.546  1.00  0.00    -0.273 OA
ATOM      5  H   UNL A   1      33.432  30.335  28.266  1.00  0.00     0.163 HD
BRANCH   3   6
ATOM      6  C   UNL A   1      33.999  27.857  26.002  1.00  0.00     0.216 C 
BRANCH   6   7
ATOM      7  N   UNL A   1      33.955  28.246  24.608  1.00  0.00    -0.343 N 
ATOM      8  C   UNL A   1      33.010  28.500  23.658  1.00  0.00     0.255 C 
ATOM      9  O   UNL A   1      33.460  29.100  22.673  1.00  0.00    -0.269 OA
ATOM     10  H   UNL A   1      34.862  28.357  24.243  1.00  0.00     0.164 HD
BRANCH   8  11
ATOM     11  C   UNL A   1      31.570  28.073  23.605  1.00  0.00     0.083 A 
ATOM     12  C   UNL A   1      30.937  26.904  24.053  1.00  0.00     0.143 A 
ATOM     13  C   UNL A   1      29.542  26.736  23.908  1.00  0.00     0.049 A 
ATOM     14  C   UNL A   1      28.765  27.687  23.253  1.00  0.00     0.019 A 
ATOM     15  C   UNL A   1      30.746  29.023  22.948  1.00  0.00     0.033 A 
ATOM     16  C   UNL A   1      29.376  28.829  22.769  1.00  0.00     0.019 A 
ATOM     17  Br  UNL A   1      28.350  30.131  21.861  1.00  0.00    -0.051 Br
BRANCH  12  18
ATOM     18  O   UNL A   1      31.607  25.886  24.743  1.00  0.00    -0.426 OA
BRANCH  18  19
ATOM     19  C   UNL A   1      31.543  24.613  24.166  1.00  0.00     0.308 C 
ATOM     20  C   UNL A   1      32.390  24.579  22.928  1.00  0.00     0.139 C 
ATOM     21  O   UNL A   1      30.867  23.673  24.563  1.00  0.00    -0.252 OA
ENDBRANCH  18  19
ENDBRANCH  12  18
ENDBRANCH   8  11
ENDBRANCH   6   7
ENDBRANCH   3   6
ENDBRANCH   1   2
BRANCH   1  22
ATOM     22  C   UNL A   1      31.470  30.796  26.171  1.00  0.00     0.023 C 
BRANCH  22  23
ATOM     23  C   UNL A   1      31.303  32.205  26.745  1.00  0.00     0.023 C 
BRANCH  23  24
ATOM     24  C   UNL A   1      32.602  32.982  26.932  1.00  0.00     0.116 C 
BRANCH  24  25
ATOM     25  N   UNL A   1      32.425  34.213  27.686  1.00  0.00    -0.352 N 
ATOM     26  C   UNL A   1      33.139  34.662  28.774  1.00  0.00     0.251 C 
ATOM     27  H   UNL A   1      31.699  34.803  27.379  1.00  0.00     0.163 HD
ATOM     28  O   UNL A   1      32.787  35.659  29.386  1.00  0.00    -0.269 OA
BRANCH  26  29
ATOM     29  C   UNL A   1      34.327  33.902  29.216  1.00  0.00     0.039 A 
ATOM     30  C   UNL A   1      35.598  34.401  28.919  1.00  0.00     0.014 A 
ATOM     31  C   UNL A   1      34.183  32.724  29.954  1.00  0.00     0.014 A 
ATOM     32  C   UNL A   1      36.727  33.754  29.425  1.00  0.00     0.010 A 
ATOM     33  C   UNL A   1      35.305  32.120  30.513  1.00  0.00     0.010 A 
ATOM     34  C   UNL A   1      36.587  32.632  30.258  1.00  0.00    -0.014 A 
BRANCH  34  35
ATOM     35  C   UNL A   1      37.768  31.985  30.883  1.00  0.00     0.031 A 
ATOM     36  C   UNL A   1      38.513  30.907  30.148  1.00  0.00     0.074 A 
ATOM     37  C   UNL A   1      38.123  32.315  32.140  1.00  0.00     0.049 A 
ATOM     38  N   UNL A   1      39.513  30.167  30.556  1.00  0.00    -0.248 NA
ATOM     39  C   UNL A   1      38.058  30.602  28.782  1.00  0.00     0.031 C 
ATOM     40  C   UNL A   1      37.451  33.310  32.978  1.00  0.00     0.029 A 
ATOM     41  N   UNL A   1      39.131  31.835  32.940  1.00  0.00    -0.354 N 
ATOM     42  C   UNL A   1      39.794  29.302  29.507  1.00  0.00     0.074 A 
ATOM     43  C   UNL A   1      38.829  29.574  28.464  1.00  0.00     0.031 C 
ATOM     44  C   UNL A   1      38.076  33.382  34.164  1.00  0.00     0.029 A 
ATOM     45  C   UNL A   1      39.167  32.413  34.186  1.00  0.00     0.049 A 
ATOM     46  H   UNL A   1      39.767  31.144  32.647  1.00  0.00     0.167 HD
ATOM     47  C   UNL A   1      40.782  28.380  29.412  1.00  0.00     0.037 A 
ATOM     48  C   UNL A   1      39.983  32.180  35.232  1.00  0.00     0.037 A 
ATOM     49  C   UNL A   1      41.757  28.130  30.441  1.00  0.00     0.049 A 
ATOM     50  C   UNL A   1      41.066  31.146  35.104  1.00  0.00     0.074 A 
ATOM     51  C   UNL A   1      42.834  27.261  30.414  1.00  0.00     0.029 A 
ATOM     52  N   UNL A   1      41.771  28.748  31.682  1.00  0.00    -0.354 N 
ATOM     53  N   UNL A   1      41.363  30.382  34.081  1.00  0.00    -0.248 NA
ATOM     54  C   UNL A   1      41.931  30.945  36.275  1.00  0.00     0.031 C 
ATOM     55  C   UNL A   1      43.477  27.323  31.654  1.00  0.00     0.029 A 
ATOM     56  C   UNL A   1      42.826  28.263  32.437  1.00  0.00     0.049 A 
ATOM     57  H   UNL A   1      41.128  29.430  31.981  1.00  0.00     0.167 HD
ATOM     58  C   UNL A   1      42.463  29.631  34.474  1.00  0.00     0.074 A 
ATOM     59  C   UNL A   1      42.789  30.039  35.824  1.00  0.00     0.031 C 
ATOM     60  C   UNL A   1      43.142  28.687  33.777  1.00  0.00     0.037 A 
BRANCH  47  61
ATOM     61  C   UNL A   1      40.858  27.576  28.148  1.00  0.00     0.057 A 
ATOM     62  C   UNL A   1      41.604  28.009  27.043  1.00  0.00     0.134 A 
ATOM     63  C   UNL A   1      40.206  26.341  28.042  1.00  0.00     0.134 A 
ATOM     64  F   UNL A   1      42.243  29.188  27.073  1.00  0.00    -0.206 F 
ATOM     65  C   UNL A   1      41.678  27.254  25.870  1.00  0.00     0.040 A 
ATOM     66  C   UNL A   1      40.295  25.565  26.886  1.00  0.00     0.040 A 
ATOM     67  F   UNL A   1      39.480  25.865  29.065  1.00  0.00    -0.206 F 
ATOM     68  C   UNL A   1      41.027  26.025  25.792  1.00  0.00     0.006 A 
ENDBRANCH  47  61
BRANCH  48  69
ATOM     69  C   UNL A   1      39.820  32.954  36.488  1.00  0.00     0.057 A 
ATOM     70  C   UNL A   1      38.863  32.587  37.442  1.00  0.00     0.134 A 
ATOM     71  C   UNL A   1      40.605  34.080  36.763  1.00  0.00     0.134 A 
ATOM     72  F   UNL A   1      38.067  31.529  37.227  1.00  0.00    -0.206 F 
ATOM     73  C   UNL A   1      38.679  33.322  38.615  1.00  0.00     0.040 A 
ATOM     74  C   UNL A   1      40.448  34.810  37.942  1.00  0.00     0.040 A 
ATOM     75  F   UNL A   1      41.544  34.479  35.892  1.00  0.00    -0.206 F 
ATOM     76  C   UNL A   1      39.478  34.435  38.868  1.00  0.00     0.006 A 
ENDBRANCH  48  69
BRANCH  60  77
ATOM     77  C   UNL A   1      44.325  28.055  34.450  1.00  0.00     0.057 A 
ATOM     78  C   UNL A   1      44.217  26.850  35.155  1.00  0.00     0.134 A 
ATOM     79  C   UNL A   1      45.594  28.638  34.353  1.00  0.00     0.134 A 
ATOM     80  F   UNL A   1      43.027  26.249  35.297  1.00  0.00    -0.206 F 
ATOM     81  C   UNL A   1      45.329  26.256  35.756  1.00  0.00     0.040 A 
ATOM     82  C   UNL A   1      46.717  28.041  34.927  1.00  0.00     0.040 A 
ATOM     83  F   UNL A   1      45.767  29.788  33.684  1.00  0.00    -0.206 F 
ATOM     84  C   UNL A   1      46.585  26.848  35.635  1.00  0.00     0.006 A 
ENDBRANCH  60  77
ENDBRANCH  34  35
ENDBRANCH  26  29
ENDBRANCH  24  25
ENDBRANCH  23  24
ENDBRANCH  22  23
ENDBRANCH   1  22
TORSDOF 15
ENDMDL
