MODEL 1
REMARK VINA RESULT:     -11.1      0.000      0.000
REMARK SMILES CC[C@H](C)N(CC)c1cc(C)c(N)c(C(=O)NCCCCNC(=O)c2ccc(-c3c4nc(c(-c5c(F)cccc5F)c5ccc([nH]5)c(-c5c(F)cccc5F)c5nc(c(-c6c(F)cccc6F)c6ccc3[nH]6)C=C5)C=C4)cc2)c1
REMARK SMILES IDX 19 1 18 2 17 3 15 4 16 5 14 7 8 8 9 9 79 10 10 11 11 12
REMARK SMILES IDX 12 13 5 14 3 15 4 16 2 17 1 18 6 19 7 20 13 21 20 24 21 25
REMARK SMILES IDX 22 26 23 27 24 29 25 30 26 31 78 32 27 33 77 34 28 35 29 36
REMARK SMILES IDX 30 37 71 38 31 39 76 40 70 41 72 42 32 43 75 44 69 45 68 46
REMARK SMILES IDX 33 48 59 49 42 50 58 51 43 52 46 53 57 54 73 55 44 56 45 57
REMARK SMILES IDX 56 59 74 60 47 61 34 62 35 63 40 64 36 65 37 66 39 67 41 68
REMARK SMILES IDX 38 69 60 70 61 71 66 72 62 73 63 74 65 75 67 76 64 77 48 78
REMARK SMILES IDX 49 79 54 80 50 81 51 82 53 83 55 84 52 85
REMARK H PARENT 17 6 13 22 13 23 22 28 72 47 46 58
REMARK Flexibility Score: inf
ROOT
ATOM      1  C   UNL A   1      31.734  30.312  26.817  1.00  0.00     0.023 C 
ENDROOT
BRANCH   1   2
ATOM      2  C   UNL A   1      33.119  29.677  26.652  1.00  0.00     0.116 C 
BRANCH   2   3
ATOM      3  N   UNL A   1      33.515  29.675  25.262  1.00  0.00    -0.352 N 
ATOM      4  C   UNL A   1      33.014  29.063  24.139  1.00  0.00     0.253 C 
ATOM      5  O   UNL A   1      33.620  29.326  23.094  1.00  0.00    -0.269 OA
ATOM      6  H   UNL A   1      34.308  30.230  25.082  1.00  0.00     0.163 HD
BRANCH   4   7
ATOM      7  C   UNL A   1      31.799  28.170  24.109  1.00  0.00     0.065 A 
ATOM      8  C   UNL A   1      30.722  25.986  24.506  1.00  0.00     0.038 A 
ATOM      9  C   UNL A   1      29.511  26.544  24.105  1.00  0.00     0.031 A 
ATOM     10  C   UNL A   1      31.850  26.814  24.477  1.00  0.00     0.042 A 
ATOM     11  C   UNL A   1      29.424  27.862  23.625  1.00  0.00    -0.025 A 
ATOM     12  C   UNL A   1      28.116  28.332  23.050  1.00  0.00     0.046 C 
ATOM     13  C   UNL A   1      30.562  28.697  23.652  1.00  0.00     0.047 A 
BRANCH   8  14
ATOM     14  N   UNL A   1      30.836  24.660  24.895  1.00  0.00    -0.369 N 
BRANCH  14  15
ATOM     15  C   UNL A   1      31.154  24.234  26.274  1.00  0.00     0.078 C 
ATOM     16  C   UNL A   1      30.282  23.085  26.776  1.00  0.00     0.031 C 
BRANCH  15  17
ATOM     17  C   UNL A   1      32.658  24.018  26.525  1.00  0.00     0.021 C 
ATOM     18  C   UNL A   1      33.137  22.594  26.765  1.00  0.00     0.006 C 
ENDBRANCH  15  17
ENDBRANCH  14  15
BRANCH  14  19
ATOM     19  C   UNL A   1      30.872  23.640  23.837  1.00  0.00     0.113 C 
ATOM     20  C   UNL A   1      32.175  23.681  23.051  1.00  0.00     0.027 C 
ENDBRANCH  14  19
ENDBRANCH   8  14
BRANCH  13  21
ATOM     21  N   UNL A   1      30.459  29.995  23.157  1.00  0.00    -0.398 N 
ATOM     22  H   UNL A   1      30.696  30.760  23.728  1.00  0.00     0.156 HD
ATOM     23  H   UNL A   1      30.147  30.146  22.236  1.00  0.00     0.156 HD
ENDBRANCH  13  21
ENDBRANCH   4   7
ENDBRANCH   2   3
ENDBRANCH   1   2
BRANCH   1  24
ATOM     24  C   UNL A   1      31.709  31.821  26.551  1.00  0.00     0.023 C 
BRANCH  24  25
ATOM     25  C   UNL A   1      32.779  32.614  27.293  1.00  0.00     0.116 C 
BRANCH  25  26
ATOM     26  N   UNL A   1      32.381  33.979  27.601  1.00  0.00    -0.352 N 
ATOM     27  C   UNL A   1      32.958  34.850  28.496  1.00  0.00     0.251 C 
ATOM     28  H   UNL A   1      31.601  34.322  27.107  1.00  0.00     0.163 HD
ATOM     29  O   UNL A   1      32.457  35.942  28.719  1.00  0.00    -0.269 OA
BRANCH  27  30
ATOM     30  C   UNL A   1      34.171  34.421  29.222  1.00  0.00     0.039 A 
ATOM     31  C   UNL A   1      34.027  33.850  30.488  1.00  0.00     0.014 A 
ATOM     32  C   UNL A   1      35.432  34.535  28.633  1.00  0.00     0.014 A 
ATOM     33  C   UNL A   1      35.147  33.329  31.138  1.00  0.00     0.010 A 
ATOM     34  C   UNL A   1      36.535  33.953  29.249  1.00  0.00     0.010 A 
ATOM     35  C   UNL A   1      36.403  33.344  30.506  1.00  0.00    -0.014 A 
BRANCH  35  36
ATOM     36  C   UNL A   1      37.588  32.723  31.145  1.00  0.00     0.031 A 
ATOM     37  C   UNL A   1      38.236  31.519  30.523  1.00  0.00     0.074 A 
ATOM     38  C   UNL A   1      38.036  33.201  32.322  1.00  0.00     0.049 A 
ATOM     39  N   UNL A   1      39.241  30.803  30.959  1.00  0.00    -0.248 NA
ATOM     40  C   UNL A   1      37.659  31.037  29.257  1.00  0.00     0.031 C 
ATOM     41  C   UNL A   1      37.453  34.325  33.057  1.00  0.00     0.029 A 
ATOM     42  N   UNL A   1      39.081  32.793  33.112  1.00  0.00    -0.354 N 
ATOM     43  C   UNL A   1      39.403  29.780  30.034  1.00  0.00     0.074 A 
ATOM     44  C   UNL A   1      38.363  29.936  29.041  1.00  0.00     0.031 C 
ATOM     45  C   UNL A   1      38.163  34.531  34.179  1.00  0.00     0.029 A 
ATOM     46  C   UNL A   1      39.229  33.538  34.257  1.00  0.00     0.049 A 
ATOM     47  H   UNL A   1      39.670  32.039  32.880  1.00  0.00     0.167 HD
ATOM     48  C   UNL A   1      40.350  28.812  30.002  1.00  0.00     0.037 A 
ATOM     49  C   UNL A   1      40.125  33.430  35.257  1.00  0.00     0.037 A 
ATOM     50  C   UNL A   1      41.403  28.679  30.973  1.00  0.00     0.049 A 
ATOM     51  C   UNL A   1      41.180  32.362  35.185  1.00  0.00     0.074 A 
ATOM     52  C   UNL A   1      42.451  27.775  30.991  1.00  0.00     0.029 A 
ATOM     53  N   UNL A   1      41.542  29.474  32.101  1.00  0.00    -0.354 N 
ATOM     54  N   UNL A   1      41.370  31.448  34.264  1.00  0.00    -0.248 NA
ATOM     55  C   UNL A   1      42.152  32.317  36.286  1.00  0.00     0.031 C 
ATOM     56  C   UNL A   1      43.204  28.000  32.148  1.00  0.00     0.029 A 
ATOM     57  C   UNL A   1      42.649  29.072  32.829  1.00  0.00     0.049 A 
ATOM     58  H   UNL A   1      40.942  30.216  32.346  1.00  0.00     0.167 HD
ATOM     59  C   UNL A   1      42.496  30.738  34.660  1.00  0.00     0.074 A 
ATOM     60  C   UNL A   1      42.954  31.336  35.897  1.00  0.00     0.031 C 
ATOM     61  C   UNL A   1      43.095  29.685  34.054  1.00  0.00     0.037 A 
BRANCH  48  62
ATOM     62  C   UNL A   1      40.291  27.827  28.872  1.00  0.00     0.057 A 
ATOM     63  C   UNL A   1      40.994  28.032  27.677  1.00  0.00     0.134 A 
ATOM     64  C   UNL A   1      39.545  26.648  28.989  1.00  0.00     0.134 A 
ATOM     65  F   UNL A   1      41.716  29.149  27.496  1.00  0.00    -0.206 F 
ATOM     66  C   UNL A   1      40.935  27.112  26.629  1.00  0.00     0.040 A 
ATOM     67  C   UNL A   1      39.501  25.707  27.958  1.00  0.00     0.040 A 
ATOM     68  F   UNL A   1      38.853  26.387  30.108  1.00  0.00    -0.206 F 
ATOM     69  C   UNL A   1      40.193  25.943  26.770  1.00  0.00     0.006 A 
ENDBRANCH  48  62
BRANCH  49  70
ATOM     70  C   UNL A   1      40.084  34.381  36.395  1.00  0.00     0.057 A 
ATOM     71  C   UNL A   1      40.760  35.605  36.337  1.00  0.00     0.134 A 
ATOM     72  C   UNL A   1      39.376  34.090  37.567  1.00  0.00     0.134 A 
ATOM     73  F   UNL A   1      41.471  35.931  35.248  1.00  0.00    -0.206 F 
ATOM     74  C   UNL A   1      40.750  36.498  37.410  1.00  0.00     0.040 A 
ATOM     75  C   UNL A   1      39.338  34.984  38.639  1.00  0.00     0.040 A 
ATOM     76  F   UNL A   1      38.700  32.937  37.681  1.00  0.00    -0.206 F 
ATOM     77  C   UNL A   1      40.032  36.189  38.563  1.00  0.00     0.006 A 
ENDBRANCH  49  70
BRANCH  61  78
ATOM     78  C   UNL A   1      44.331  29.134  34.702  1.00  0.00     0.057 A 
ATOM     79  C   UNL A   1      45.600  29.668  34.446  1.00  0.00     0.134 A 
ATOM     80  C   UNL A   1      44.244  28.079  35.620  1.00  0.00     0.134 A 
ATOM     81  F   UNL A   1      45.751  30.670  33.567  1.00  0.00    -0.206 F 
ATOM     82  C   UNL A   1      46.743  29.158  35.065  1.00  0.00     0.040 A 
ATOM     83  C   UNL A   1      45.375  27.578  36.263  1.00  0.00     0.040 A 
ATOM     84  F   UNL A   1      43.056  27.529  35.915  1.00  0.00    -0.206 F 
ATOM     85  C   UNL A   1      46.631  28.114  35.982  1.00  0.00     0.006 A 
ENDBRANCH  61  78
ENDBRANCH  35  36
ENDBRANCH  27  30
ENDBRANCH  25  26
ENDBRANCH  24  25
ENDBRANCH   1  24
TORSDOF 16
ENDMDL
MODEL 2
REMARK VINA RESULT:     -11.0      4.561      9.177
REMARK SMILES CC[C@H](C)N(CC)c1cc(C)c(N)c(C(=O)NCCCCNC(=O)c2ccc(-c3c4nc(c(-c5c(F)cccc5F)c5ccc([nH]5)c(-c5c(F)cccc5F)c5nc(c(-c6c(F)cccc6F)c6ccc3[nH]6)C=C5)C=C4)cc2)c1
REMARK SMILES IDX 19 1 18 2 17 3 15 4 16 5 14 7 8 8 9 9 79 10 10 11 11 12
REMARK SMILES IDX 12 13 5 14 3 15 4 16 2 17 1 18 6 19 7 20 13 21 20 24 21 25
REMARK SMILES IDX 22 26 23 27 24 29 25 30 26 31 78 32 27 33 77 34 28 35 29 36
REMARK SMILES IDX 30 37 71 38 31 39 76 40 70 41 72 42 32 43 75 44 69 45 68 46
REMARK SMILES IDX 33 48 59 49 42 50 58 51 43 52 46 53 57 54 73 55 44 56 45 57
REMARK SMILES IDX 56 59 74 60 47 61 34 62 35 63 40 64 36 65 37 66 39 67 41 68
REMARK SMILES IDX 38 69 60 70 61 71 66 72 62 73 63 74 65 75 67 76 64 77 48 78
REMARK SMILES IDX 49 79 54 80 50 81 51 82 53 83 55 84 52 85
REMARK H PARENT 17 6 13 22 13 23 22 28 72 47 46 58
REMARK Flexibility Score: inf
ROOT
ATOM      1  C   UNL A   1      37.112  21.420  24.458  1.00  0.00     0.023 C 
ENDROOT
BRANCH   1   2
ATOM      2  C   UNL A   1      36.916  22.481  25.546  1.00  0.00     0.116 C 
BRANCH   2   3
ATOM      3  N   UNL A   1      35.926  22.047  26.506  1.00  0.00    -0.352 N 
ATOM      4  C   UNL A   1      34.552  22.028  26.501  1.00  0.00     0.253 C 
ATOM      5  O   UNL A   1      34.039  21.547  27.518  1.00  0.00    -0.269 OA
ATOM      6  H   UNL A   1      36.318  21.689  27.335  1.00  0.00     0.163 HD
BRANCH   4   7
ATOM      7  C   UNL A   1      33.684  22.497  25.360  1.00  0.00     0.065 A 
ATOM      8  C   UNL A   1      32.462  24.285  24.178  1.00  0.00     0.038 A 
ATOM      9  C   UNL A   1      32.121  23.360  23.195  1.00  0.00     0.031 A 
ATOM     10  C   UNL A   1      33.223  23.821  25.258  1.00  0.00     0.042 A 
ATOM     11  C   UNL A   1      32.464  22.001  23.303  1.00  0.00    -0.025 A 
ATOM     12  C   UNL A   1      31.911  21.039  22.287  1.00  0.00     0.046 C 
ATOM     13  C   UNL A   1      33.276  21.564  24.371  1.00  0.00     0.047 A 
BRANCH   8  14
ATOM     14  N   UNL A   1      32.051  25.607  24.127  1.00  0.00    -0.369 N 
BRANCH  14  15
ATOM     15  C   UNL A   1      31.333  26.286  25.227  1.00  0.00     0.078 C 
ATOM     16  C   UNL A   1      30.233  25.434  25.856  1.00  0.00     0.031 C 
BRANCH  15  17
ATOM     17  C   UNL A   1      32.262  26.950  26.260  1.00  0.00     0.021 C 
ATOM     18  C   UNL A   1      31.623  27.842  27.314  1.00  0.00     0.006 C 
ENDBRANCH  15  17
ENDBRANCH  14  15
BRANCH  14  19
ATOM     19  C   UNL A   1      32.128  26.296  22.831  1.00  0.00     0.113 C 
ATOM     20  C   UNL A   1      33.543  26.759  22.515  1.00  0.00     0.027 C 
ENDBRANCH  14  19
ENDBRANCH   8  14
BRANCH  13  21
ATOM     21  N   UNL A   1      33.591  20.210  24.468  1.00  0.00    -0.398 N 
ATOM     22  H   UNL A   1      34.531  19.927  24.539  1.00  0.00     0.156 HD
ATOM     23  H   UNL A   1      32.873  19.536  24.465  1.00  0.00     0.156 HD
ENDBRANCH  13  21
ENDBRANCH   4   7
ENDBRANCH   2   3
ENDBRANCH   1   2
BRANCH   1  24
ATOM     24  C   UNL A   1      37.835  20.159  24.943  1.00  0.00     0.023 C 
BRANCH  24  25
ATOM     25  C   UNL A   1      39.016  20.423  25.871  1.00  0.00     0.116 C 
BRANCH  25  26
ATOM     26  N   UNL A   1      40.070  19.426  25.766  1.00  0.00    -0.352 N 
ATOM     27  C   UNL A   1      41.408  19.573  26.049  1.00  0.00     0.251 C 
ATOM     28  H   UNL A   1      39.791  18.535  25.453  1.00  0.00     0.163 HD
ATOM     29  O   UNL A   1      42.199  18.669  25.825  1.00  0.00    -0.269 OA
BRANCH  27  30
ATOM     30  C   UNL A   1      41.883  20.865  26.585  1.00  0.00     0.039 A 
ATOM     31  C   UNL A   1      42.291  21.854  25.688  1.00  0.00     0.014 A 
ATOM     32  C   UNL A   1      41.873  21.113  27.960  1.00  0.00     0.014 A 
ATOM     33  C   UNL A   1      42.626  23.121  26.167  1.00  0.00     0.010 A 
ATOM     34  C   UNL A   1      42.140  22.395  28.429  1.00  0.00     0.010 A 
ATOM     35  C   UNL A   1      42.518  23.410  27.538  1.00  0.00    -0.014 A 
BRANCH  35  36
ATOM     36  C   UNL A   1      42.792  24.773  28.056  1.00  0.00     0.031 A 
ATOM     37  C   UNL A   1      44.185  25.158  28.464  1.00  0.00     0.074 A 
ATOM     38  C   UNL A   1      41.773  25.638  28.223  1.00  0.00     0.049 A 
ATOM     39  N   UNL A   1      44.612  26.278  28.991  1.00  0.00    -0.248 NA
ATOM     40  C   UNL A   1      45.233  24.140  28.285  1.00  0.00     0.031 C 
ATOM     41  C   UNL A   1      40.367  25.360  27.922  1.00  0.00     0.029 A 
ATOM     42  N   UNL A   1      41.764  26.925  28.698  1.00  0.00    -0.354 N 
ATOM     43  C   UNL A   1      45.969  26.091  29.221  1.00  0.00     0.074 A 
ATOM     44  C   UNL A   1      46.284  24.736  28.827  1.00  0.00     0.031 C 
ATOM     45  C   UNL A   1      39.635  26.452  28.199  1.00  0.00     0.029 A 
ATOM     46  C   UNL A   1      40.513  27.494  28.722  1.00  0.00     0.049 A 
ATOM     47  H   UNL A   1      42.576  27.397  28.993  1.00  0.00     0.167 HD
ATOM     48  C   UNL A   1      46.875  26.978  29.696  1.00  0.00     0.037 A 
ATOM     49  C   UNL A   1      40.120  28.718  29.123  1.00  0.00     0.037 A 
ATOM     50  C   UNL A   1      46.565  28.336  30.057  1.00  0.00     0.049 A 
ATOM     51  C   UNL A   1      41.149  29.692  29.623  1.00  0.00     0.074 A 
ATOM     52  C   UNL A   1      47.425  29.334  30.482  1.00  0.00     0.029 A 
ATOM     53  N   UNL A   1      45.293  28.887  30.035  1.00  0.00    -0.354 N 
ATOM     54  N   UNL A   1      42.443  29.529  29.763  1.00  0.00    -0.248 NA
ATOM     55  C   UNL A   1      40.666  31.025  30.011  1.00  0.00     0.031 C 
ATOM     56  C   UNL A   1      46.668  30.479  30.751  1.00  0.00     0.029 A 
ATOM     57  C   UNL A   1      45.342  30.206  30.453  1.00  0.00     0.049 A 
ATOM     58  H   UNL A   1      44.475  28.411  29.761  1.00  0.00     0.167 HD
ATOM     59  C   UNL A   1      42.931  30.742  30.229  1.00  0.00     0.074 A 
ATOM     60  C   UNL A   1      41.797  31.637  30.334  1.00  0.00     0.031 C 
ATOM     61  C   UNL A   1      44.204  31.085  30.543  1.00  0.00     0.037 A 
BRANCH  48  62
ATOM     62  C   UNL A   1      48.291  26.505  29.843  1.00  0.00     0.057 A 
ATOM     63  C   UNL A   1      48.736  25.852  31.000  1.00  0.00     0.134 A 
ATOM     64  C   UNL A   1      49.215  26.680  28.805  1.00  0.00     0.134 A 
ATOM     65  F   UNL A   1      47.904  25.666  32.037  1.00  0.00    -0.206 F 
ATOM     66  C   UNL A   1      50.055  25.415  31.131  1.00  0.00     0.040 A 
ATOM     67  C   UNL A   1      50.530  26.222  28.913  1.00  0.00     0.040 A 
ATOM     68  F   UNL A   1      48.855  27.292  27.667  1.00  0.00    -0.206 F 
ATOM     69  C   UNL A   1      50.954  25.593  30.083  1.00  0.00     0.006 A 
ENDBRANCH  48  62
BRANCH  49  70
ATOM     70  C   UNL A   1      38.690  29.104  29.035  1.00  0.00     0.057 A 
ATOM     71  C   UNL A   1      38.139  29.561  27.833  1.00  0.00     0.134 A 
ATOM     72  C   UNL A   1      37.842  29.031  30.147  1.00  0.00     0.134 A 
ATOM     73  F   UNL A   1      38.906  29.670  26.738  1.00  0.00    -0.206 F 
ATOM     74  C   UNL A   1      36.802  29.950  27.742  1.00  0.00     0.040 A 
ATOM     75  C   UNL A   1      36.497  29.395  30.065  1.00  0.00     0.040 A 
ATOM     76  F   UNL A   1      38.309  28.592  31.326  1.00  0.00    -0.206 F 
ATOM     77  C   UNL A   1      35.976  29.862  28.861  1.00  0.00     0.006 A 
ENDBRANCH  49  70
BRANCH  61  78
ATOM     78  C   UNL A   1      44.442  32.495  30.996  1.00  0.00     0.057 A 
ATOM     79  C   UNL A   1      44.705  33.528  30.089  1.00  0.00     0.134 A 
ATOM     80  C   UNL A   1      44.373  32.827  32.356  1.00  0.00     0.134 A 
ATOM     81  F   UNL A   1      44.797  33.272  28.776  1.00  0.00    -0.206 F 
ATOM     82  C   UNL A   1      44.911  34.840  30.519  1.00  0.00     0.040 A 
ATOM     83  C   UNL A   1      44.552  34.138  32.795  1.00  0.00     0.040 A 
ATOM     84  F   UNL A   1      44.116  31.884  33.275  1.00  0.00    -0.206 F 
ATOM     85  C   UNL A   1      44.828  35.149  31.876  1.00  0.00     0.006 A 
ENDBRANCH  61  78
ENDBRANCH  35  36
ENDBRANCH  27  30
ENDBRANCH  25  26
ENDBRANCH  24  25
ENDBRANCH   1  24
TORSDOF 16
ENDMDL
MODEL 3
REMARK VINA RESULT:     -11.0      5.547     10.495
REMARK SMILES CC[C@H](C)N(CC)c1cc(C)c(N)c(C(=O)NCCCCNC(=O)c2ccc(-c3c4nc(c(-c5c(F)cccc5F)c5ccc([nH]5)c(-c5c(F)cccc5F)c5nc(c(-c6c(F)cccc6F)c6ccc3[nH]6)C=C5)C=C4)cc2)c1
REMARK SMILES IDX 19 1 18 2 17 3 15 4 16 5 14 7 8 8 9 9 79 10 10 11 11 12
REMARK SMILES IDX 12 13 5 14 3 15 4 16 2 17 1 18 6 19 7 20 13 21 20 24 21 25
REMARK SMILES IDX 22 26 23 27 24 29 25 30 26 31 78 32 27 33 77 34 28 35 29 36
REMARK SMILES IDX 30 37 71 38 31 39 76 40 70 41 72 42 32 43 75 44 69 45 68 46
REMARK SMILES IDX 33 48 59 49 42 50 58 51 43 52 46 53 57 54 73 55 44 56 45 57
REMARK SMILES IDX 56 59 74 60 47 61 34 62 35 63 40 64 36 65 37 66 39 67 41 68
REMARK SMILES IDX 38 69 60 70 61 71 66 72 62 73 63 74 65 75 67 76 64 77 48 78
REMARK SMILES IDX 49 79 54 80 50 81 51 82 53 83 55 84 52 85
REMARK H PARENT 17 6 13 22 13 23 22 28 72 47 46 58
REMARK Flexibility Score: inf
ROOT
ATOM      1  C   UNL A   1      37.313  21.336  24.494  1.00  0.00     0.023 C 
ENDROOT
BRANCH   1   2
ATOM      2  C   UNL A   1      37.057  22.380  25.586  1.00  0.00     0.116 C 
BRANCH   2   3
ATOM      3  N   UNL A   1      35.995  21.944  26.465  1.00  0.00    -0.352 N 
ATOM      4  C   UNL A   1      34.625  21.936  26.357  1.00  0.00     0.253 C 
ATOM      5  O   UNL A   1      34.035  21.449  27.328  1.00  0.00    -0.269 OA
ATOM      6  H   UNL A   1      36.321  21.576  27.318  1.00  0.00     0.163 HD
BRANCH   4   7
ATOM      7  C   UNL A   1      33.848  22.422  25.159  1.00  0.00     0.065 A 
ATOM      8  C   UNL A   1      32.926  24.256  23.790  1.00  0.00     0.038 A 
ATOM      9  C   UNL A   1      32.453  23.305  22.890  1.00  0.00     0.031 A 
ATOM     10  C   UNL A   1      33.599  23.785  24.925  1.00  0.00     0.042 A 
ATOM     11  C   UNL A   1      32.580  21.926  23.131  1.00  0.00    -0.025 A 
ATOM     12  C   UNL A   1      31.892  20.968  22.197  1.00  0.00     0.046 C 
ATOM     13  C   UNL A   1      33.307  21.473  24.252  1.00  0.00     0.047 A 
BRANCH   8  14
ATOM     14  N   UNL A   1      32.726  25.615  23.608  1.00  0.00    -0.369 N 
BRANCH  14  15
ATOM     15  C   UNL A   1      31.848  26.437  24.467  1.00  0.00     0.078 C 
ATOM     16  C   UNL A   1      30.373  26.051  24.380  1.00  0.00     0.031 C 
BRANCH  15  17
ATOM     17  C   UNL A   1      32.358  26.590  25.912  1.00  0.00     0.021 C 
ATOM     18  C   UNL A   1      33.653  27.362  26.125  1.00  0.00     0.006 C 
ENDBRANCH  15  17
ENDBRANCH  14  15
BRANCH  14  19
ATOM     19  C   UNL A   1      33.227  26.217  22.364  1.00  0.00     0.113 C 
ATOM     20  C   UNL A   1      33.654  27.664  22.565  1.00  0.00     0.027 C 
ENDBRANCH  14  19
ENDBRANCH   8  14
BRANCH  13  21
ATOM     21  N   UNL A   1      33.408  20.102  24.482  1.00  0.00    -0.398 N 
ATOM     22  H   UNL A   1      32.633  19.602  24.826  1.00  0.00     0.156 HD
ATOM     23  H   UNL A   1      34.255  19.634  24.301  1.00  0.00     0.156 HD
ENDBRANCH  13  21
ENDBRANCH   4   7
ENDBRANCH   2   3
ENDBRANCH   1   2
BRANCH   1  24
ATOM     24  C   UNL A   1      37.998  20.062  25.001  1.00  0.00     0.023 C 
BRANCH  24  25
ATOM     25  C   UNL A   1      39.256  20.304  25.828  1.00  0.00     0.116 C 
BRANCH  25  26
ATOM     26  N   UNL A   1      40.169  19.172  25.841  1.00  0.00    -0.352 N 
ATOM     27  C   UNL A   1      41.525  19.178  26.070  1.00  0.00     0.251 C 
ATOM     28  H   UNL A   1      39.765  18.292  25.663  1.00  0.00     0.163 HD
ATOM     29  O   UNL A   1      42.184  18.155  25.958  1.00  0.00    -0.269 OA
BRANCH  27  30
ATOM     30  C   UNL A   1      42.183  20.457  26.407  1.00  0.00     0.039 A 
ATOM     31  C   UNL A   1      42.740  21.216  25.377  1.00  0.00     0.014 A 
ATOM     32  C   UNL A   1      42.200  20.924  27.724  1.00  0.00     0.014 A 
ATOM     33  C   UNL A   1      43.256  22.482  25.658  1.00  0.00     0.010 A 
ATOM     34  C   UNL A   1      42.651  22.212  27.991  1.00  0.00     0.010 A 
ATOM     35  C   UNL A   1      43.182  23.004  26.961  1.00  0.00    -0.014 A 
BRANCH  35  36
ATOM     36  C   UNL A   1      43.652  24.378  27.263  1.00  0.00     0.031 A 
ATOM     37  C   UNL A   1      42.673  25.429  27.701  1.00  0.00     0.074 A 
ATOM     38  C   UNL A   1      44.948  24.694  27.075  1.00  0.00     0.049 A 
ATOM     39  N   UNL A   1      42.880  26.697  27.954  1.00  0.00    -0.248 NA
ATOM     40  C   UNL A   1      41.270  25.009  27.843  1.00  0.00     0.031 C 
ATOM     41  C   UNL A   1      45.983  23.777  26.594  1.00  0.00     0.029 A 
ATOM     42  N   UNL A   1      45.613  25.880  27.258  1.00  0.00    -0.354 N 
ATOM     43  C   UNL A   1      41.635  27.226  28.267  1.00  0.00     0.074 A 
ATOM     44  C   UNL A   1      40.671  26.158  28.121  1.00  0.00     0.031 C 
ATOM     45  C   UNL A   1      47.156  24.428  26.540  1.00  0.00     0.029 A 
ATOM     46  C   UNL A   1      46.951  25.813  26.954  1.00  0.00     0.049 A 
ATOM     47  H   UNL A   1      45.173  26.701  27.575  1.00  0.00     0.167 HD
ATOM     48  C   UNL A   1      41.327  28.483  28.664  1.00  0.00     0.037 A 
ATOM     49  C   UNL A   1      47.905  26.762  27.004  1.00  0.00     0.037 A 
ATOM     50  C   UNL A   1      42.292  29.536  28.839  1.00  0.00     0.049 A 
ATOM     51  C   UNL A   1      47.542  28.143  27.472  1.00  0.00     0.074 A 
ATOM     52  C   UNL A   1      42.091  30.823  29.304  1.00  0.00     0.029 A 
ATOM     53  N   UNL A   1      43.645  29.420  28.556  1.00  0.00    -0.354 N 
ATOM     54  N   UNL A   1      46.373  28.611  27.839  1.00  0.00    -0.248 NA
ATOM     55  C   UNL A   1      48.631  29.127  27.541  1.00  0.00     0.031 C 
ATOM     56  C   UNL A   1      43.316  31.499  29.269  1.00  0.00     0.029 A 
ATOM     57  C   UNL A   1      44.288  30.617  28.822  1.00  0.00     0.049 A 
ATOM     58  H   UNL A   1      44.084  28.606  28.218  1.00  0.00     0.167 HD
ATOM     59  C   UNL A   1      46.591  29.932  28.208  1.00  0.00     0.074 A 
ATOM     60  C   UNL A   1      48.005  30.187  28.033  1.00  0.00     0.031 C 
ATOM     61  C   UNL A   1      45.699  30.851  28.650  1.00  0.00     0.037 A 
BRANCH  48  62
ATOM     62  C   UNL A   1      39.884  28.784  28.943  1.00  0.00     0.057 A 
ATOM     63  C   UNL A   1      39.345  28.679  30.233  1.00  0.00     0.134 A 
ATOM     64  C   UNL A   1      39.029  29.209  27.918  1.00  0.00     0.134 A 
ATOM     65  F   UNL A   1      40.107  28.264  31.256  1.00  0.00    -0.206 F 
ATOM     66  C   UNL A   1      38.001  28.960  30.487  1.00  0.00     0.040 A 
ATOM     67  C   UNL A   1      37.691  29.519  28.166  1.00  0.00     0.040 A 
ATOM     68  F   UNL A   1      39.483  29.336  26.662  1.00  0.00    -0.206 F 
ATOM     69  C   UNL A   1      37.172  29.388  29.453  1.00  0.00     0.006 A 
ENDBRANCH  48  62
BRANCH  49  70
ATOM     70  C   UNL A   1      49.302  26.430  26.634  1.00  0.00     0.057 A 
ATOM     71  C   UNL A   1      50.184  25.875  27.569  1.00  0.00     0.134 A 
ATOM     72  C   UNL A   1      49.794  26.662  25.344  1.00  0.00     0.134 A 
ATOM     73  F   UNL A   1      49.776  25.646  28.826  1.00  0.00    -0.206 F 
ATOM     74  C   UNL A   1      51.508  25.580  27.241  1.00  0.00     0.040 A 
ATOM     75  C   UNL A   1      51.109  26.351  24.996  1.00  0.00     0.040 A 
ATOM     76  F   UNL A   1      48.995  27.184  24.400  1.00  0.00    -0.206 F 
ATOM     77  C   UNL A   1      51.972  25.814  25.949  1.00  0.00     0.006 A 
ENDBRANCH  49  70
BRANCH  61  78
ATOM     78  C   UNL A   1      46.232  32.206  29.009  1.00  0.00     0.057 A 
ATOM     79  C   UNL A   1      46.708  32.497  30.293  1.00  0.00     0.134 A 
ATOM     80  C   UNL A   1      46.303  33.221  28.045  1.00  0.00     0.134 A 
ATOM     81  F   UNL A   1      46.654  31.572  31.263  1.00  0.00    -0.206 F 
ATOM     82  C   UNL A   1      47.216  33.758  30.613  1.00  0.00     0.040 A 
ATOM     83  C   UNL A   1      46.832  34.476  28.346  1.00  0.00     0.040 A 
ATOM     84  F   UNL A   1      45.872  33.003  26.793  1.00  0.00    -0.206 F 
ATOM     85  C   UNL A   1      47.285  34.749  29.635  1.00  0.00     0.006 A 
ENDBRANCH  61  78
ENDBRANCH  35  36
ENDBRANCH  27  30
ENDBRANCH  25  26
ENDBRANCH  24  25
ENDBRANCH   1  24
TORSDOF 16
ENDMDL
