MODEL 1
REMARK VINA RESULT:     -12.7      0.000      0.000
REMARK SMILES CC(=O)N[C@@H]1[C@H](Oc2ccc(C)c(C)c2)O[C@H]2COC(C)(C)O[C@@H]2[C@H]1O[C@@H](C)C(=O)NCCCCNC(=O)c1ccc(-c2c3nc(c(-c4c(F)cccc4F)c4ccc([nH]4)c(-c4c(F)cccc4F)c4nc(c(-c5c(F)cccc5F)c5ccc2[nH]5)C=C4)C=C3)cc1
REMARK SMILES IDX 32 1 31 2 29 3 30 4 27 6 28 7 26 8 25 9 5 10 6 11 16 12
REMARK SMILES IDX 24 13 17 14 23 15 18 16 20 17 19 18 21 19 22 20 4 21 1 22
REMARK SMILES IDX 2 23 3 24 7 26 8 27 9 28 15 29 10 30 13 31 11 32 14 33 12 34
REMARK SMILES IDX 33 35 34 36 35 37 36 38 37 39 38 41 39 42 40 43 92 44 41 45
REMARK SMILES IDX 91 46 42 47 43 48 44 49 85 50 45 51 90 52 84 53 86 54 46 55
REMARK SMILES IDX 89 56 83 57 82 58 47 60 73 61 56 62 72 63 57 64 60 65 71 66
REMARK SMILES IDX 87 67 58 68 59 69 70 71 88 72 61 73 48 74 49 75 54 76 50 77
REMARK SMILES IDX 51 78 53 79 55 80 52 81 74 82 75 83 80 84 76 85 77 86 79 87
REMARK SMILES IDX 81 88 78 89 62 90 63 91 68 92 64 93 65 94 67 95 69 96 66 97
REMARK H PARENT 31 5 4 25 36 40 86 59 60 70
REMARK Flexibility Score: inf
ROOT
ATOM      1  C   UNL A   1      34.789  29.873  27.610  1.00  0.00     0.116 C 
ENDROOT
BRANCH   1   2
ATOM      2  N   UNL A   1      33.527  29.134  27.591  1.00  0.00    -0.354 N 
ATOM      3  C   UNL A   1      32.327  29.244  26.971  1.00  0.00     0.248 C 
ATOM      4  O   UNL A   1      31.405  28.621  27.515  1.00  0.00    -0.272 OA
ATOM      5  H   UNL A   1      33.558  28.349  28.185  1.00  0.00     0.163 HD
BRANCH   3   6
ATOM      6  C   UNL A   1      32.040  30.010  25.640  1.00  0.00     0.204 C 
ATOM      7  C   UNL A   1      31.024  31.131  25.822  1.00  0.00     0.049 C 
BRANCH   6   8
ATOM      8  O   UNL A   1      32.129  29.422  24.348  1.00  0.00    -0.360 OA
BRANCH   8   9
ATOM      9  C   UNL A   1      31.247  28.420  23.802  1.00  0.00     0.179 C 
ATOM     10  C   UNL A   1      31.456  27.060  24.494  1.00  0.00     0.182 C 
ATOM     11  C   UNL A   1      30.294  26.051  24.301  1.00  0.00     0.333 C 
ATOM     12  O   UNL A   1      28.996  26.680  24.371  1.00  0.00    -0.332 OA
ATOM     13  C   UNL A   1      29.785  28.882  23.686  1.00  0.00     0.184 C 
ATOM     14  C   UNL A   1      28.832  27.732  23.430  1.00  0.00     0.180 C 
ATOM     15  O   UNL A   1      29.655  29.823  22.614  1.00  0.00    -0.342 OA
ATOM     16  C   UNL A   1      27.434  28.342  23.481  1.00  0.00     0.198 C 
ATOM     17  C   UNL A   1      28.322  30.310  22.409  1.00  0.00     0.163 C 
ATOM     18  O   UNL A   1      27.304  29.304  22.437  1.00  0.00    -0.348 OA
ATOM     19  C   UNL A   1      28.298  30.864  20.981  1.00  0.00     0.075 C 
ATOM     20  C   UNL A   1      28.008  31.441  23.387  1.00  0.00     0.075 C 
BRANCH  10  21
ATOM     21  N   UNL A   1      32.888  26.677  24.483  1.00  0.00    -0.345 N 
ATOM     22  C   UNL A   1      33.635  25.980  22.216  1.00  0.00     0.114 C 
ATOM     23  C   UNL A   1      33.639  25.856  23.706  1.00  0.00     0.217 C 
ATOM     24  O   UNL A   1      34.411  25.076  24.267  1.00  0.00    -0.275 OA
ATOM     25  H   UNL A   1      33.409  27.115  25.195  1.00  0.00     0.164 HD
ENDBRANCH  10  21
BRANCH  11  26
ATOM     26  O   UNL A   1      30.440  24.972  23.378  1.00  0.00    -0.463 OA
BRANCH  26  27
ATOM     27  C   UNL A   1      30.882  23.810  23.905  1.00  0.00     0.123 A 
ATOM     28  C   UNL A   1      30.942  23.636  25.278  1.00  0.00     0.047 A 
ATOM     29  C   UNL A   1      31.267  22.797  23.033  1.00  0.00     0.050 A 
ATOM     30  C   UNL A   1      31.549  22.501  25.788  1.00  0.00     0.007 A 
ATOM     31  C   UNL A   1      31.865  21.635  23.536  1.00  0.00    -0.045 A 
ATOM     32  C   UNL A   1      32.064  21.518  24.928  1.00  0.00    -0.048 A 
ATOM     33  C   UNL A   1      32.311  20.597  22.546  1.00  0.00     0.045 C 
ATOM     34  C   UNL A   1      32.809  20.370  25.539  1.00  0.00     0.044 C 
ENDBRANCH  26  27
ENDBRANCH  11  26
ENDBRANCH   8   9
ENDBRANCH   6   8
ENDBRANCH   3   6
ENDBRANCH   1   2
BRANCH   1  35
ATOM     35  C   UNL A   1      34.458  31.337  27.957  1.00  0.00     0.023 C 
BRANCH  35  36
ATOM     36  C   UNL A   1      35.575  32.347  28.225  1.00  0.00     0.023 C 
BRANCH  36  37
ATOM     37  C   UNL A   1      35.965  32.564  29.674  1.00  0.00     0.116 C 
BRANCH  37  38
ATOM     38  N   UNL A   1      35.739  31.408  30.538  1.00  0.00    -0.352 N 
ATOM     39  C   UNL A   1      36.610  30.390  30.893  1.00  0.00     0.251 C 
ATOM     40  H   UNL A   1      34.836  31.341  30.924  1.00  0.00     0.163 HD
ATOM     41  O   UNL A   1      36.240  29.479  31.616  1.00  0.00    -0.269 OA
BRANCH  39  42
ATOM     42  C   UNL A   1      37.982  30.379  30.327  1.00  0.00     0.039 A 
ATOM     43  C   UNL A   1      39.077  30.429  31.191  1.00  0.00     0.014 A 
ATOM     44  C   UNL A   1      38.182  30.192  28.963  1.00  0.00     0.014 A 
ATOM     45  C   UNL A   1      40.356  30.146  30.699  1.00  0.00     0.010 A 
ATOM     46  C   UNL A   1      39.419  29.751  28.511  1.00  0.00     0.010 A 
ATOM     47  C   UNL A   1      40.527  29.721  29.369  1.00  0.00    -0.014 A 
BRANCH  47  48
ATOM     48  C   UNL A   1      41.843  29.242  28.862  1.00  0.00     0.031 A 
ATOM     49  C   UNL A   1      43.006  30.196  28.748  1.00  0.00     0.074 A 
ATOM     50  C   UNL A   1      41.981  27.969  28.434  1.00  0.00     0.049 A 
ATOM     51  N   UNL A   1      44.209  29.984  28.272  1.00  0.00    -0.248 NA
ATOM     52  C   UNL A   1      42.778  31.587  29.177  1.00  0.00     0.031 C 
ATOM     53  C   UNL A   1      40.916  26.962  28.386  1.00  0.00     0.029 A 
ATOM     54  N   UNL A   1      43.081  27.298  27.958  1.00  0.00    -0.354 N 
ATOM     55  C   UNL A   1      44.858  31.211  28.327  1.00  0.00     0.074 A 
ATOM     56  C   UNL A   1      43.895  32.182  28.792  1.00  0.00     0.031 C 
ATOM     57  C   UNL A   1      41.428  25.793  27.969  1.00  0.00     0.029 A 
ATOM     58  C   UNL A   1      42.847  25.970  27.685  1.00  0.00     0.049 A 
ATOM     59  H   UNL A   1      43.957  27.728  27.823  1.00  0.00     0.167 HD
ATOM     60  C   UNL A   1      46.154  31.503  28.065  1.00  0.00     0.037 A 
ATOM     61  C   UNL A   1      43.687  25.002  27.270  1.00  0.00     0.037 A 
ATOM     62  C   UNL A   1      47.134  30.531  27.665  1.00  0.00     0.049 A 
ATOM     63  C   UNL A   1      45.136  25.340  27.044  1.00  0.00     0.074 A 
ATOM     64  C   UNL A   1      48.486  30.713  27.430  1.00  0.00     0.029 A 
ATOM     65  N   UNL A   1      46.868  29.186  27.462  1.00  0.00    -0.354 N 
ATOM     66  N   UNL A   1      45.748  26.491  27.173  1.00  0.00    -0.248 NA
ATOM     67  C   UNL A   1      46.014  24.236  26.629  1.00  0.00     0.031 C 
ATOM     68  C   UNL A   1      49.035  29.478  27.069  1.00  0.00     0.029 A 
ATOM     69  C   UNL A   1      48.031  28.525  27.110  1.00  0.00     0.049 A 
ATOM     70  H   UNL A   1      45.982  28.764  27.554  1.00  0.00     0.167 HD
ATOM     71  C   UNL A   1      47.083  26.245  26.884  1.00  0.00     0.074 A 
ATOM     72  C   UNL A   1      47.197  24.831  26.597  1.00  0.00     0.031 C 
ATOM     73  C   UNL A   1      48.124  27.113  26.850  1.00  0.00     0.037 A 
BRANCH  60  74
ATOM     74  C   UNL A   1      46.593  32.925  28.259  1.00  0.00     0.057 A 
ATOM     75  C   UNL A   1      47.093  33.373  29.490  1.00  0.00     0.134 A 
ATOM     76  C   UNL A   1      46.540  33.847  27.209  1.00  0.00     0.134 A 
ATOM     77  F   UNL A   1      47.153  32.542  30.542  1.00  0.00    -0.206 F 
ATOM     78  C   UNL A   1      47.500  34.694  29.677  1.00  0.00     0.040 A 
ATOM     79  C   UNL A   1      46.970  35.166  27.376  1.00  0.00     0.040 A 
ATOM     80  F   UNL A   1      46.075  33.485  26.004  1.00  0.00    -0.206 F 
ATOM     81  C   UNL A   1      47.446  35.593  28.615  1.00  0.00     0.006 A 
ENDBRANCH  60  74
BRANCH  61  82
ATOM     82  C   UNL A   1      43.206  23.607  27.086  1.00  0.00     0.057 A 
ATOM     83  C   UNL A   1      42.895  23.117  25.811  1.00  0.00     0.134 A 
ATOM     84  C   UNL A   1      43.001  22.750  28.172  1.00  0.00     0.134 A 
ATOM     85  F   UNL A   1      43.053  23.898  24.731  1.00  0.00    -0.206 F 
ATOM     86  C   UNL A   1      42.363  21.840  25.626  1.00  0.00     0.040 A 
ATOM     87  C   UNL A   1      42.494  21.460  27.999  1.00  0.00     0.040 A 
ATOM     88  F   UNL A   1      43.287  23.154  29.418  1.00  0.00    -0.206 F 
ATOM     89  C   UNL A   1      42.161  21.007  26.723  1.00  0.00     0.006 A 
ENDBRANCH  61  82
BRANCH  73  90
ATOM     90  C   UNL A   1      49.474  26.546  26.531  1.00  0.00     0.057 A 
ATOM     91  C   UNL A   1      50.004  26.588  25.235  1.00  0.00     0.134 A 
ATOM     92  C   UNL A   1      50.261  25.972  27.536  1.00  0.00     0.134 A 
ATOM     93  F   UNL A   1      49.291  27.114  24.226  1.00  0.00    -0.206 F 
ATOM     94  C   UNL A   1      51.259  26.052  24.944  1.00  0.00     0.040 A 
ATOM     95  C   UNL A   1      51.528  25.456  27.263  1.00  0.00     0.040 A 
ATOM     96  F   UNL A   1      49.815  25.910  28.800  1.00  0.00    -0.206 F 
ATOM     97  C   UNL A   1      52.026  25.488  25.962  1.00  0.00     0.006 A 
ENDBRANCH  73  90
ENDBRANCH  47  48
ENDBRANCH  39  42
ENDBRANCH  37  38
ENDBRANCH  36  37
ENDBRANCH  35  36
ENDBRANCH   1  35
TORSDOF 16
ENDMDL
MODEL 2
REMARK VINA RESULT:     -12.7      2.875      8.492
REMARK SMILES CC(=O)N[C@@H]1[C@H](Oc2ccc(C)c(C)c2)O[C@H]2COC(C)(C)O[C@@H]2[C@H]1O[C@@H](C)C(=O)NCCCCNC(=O)c1ccc(-c2c3nc(c(-c4c(F)cccc4F)c4ccc([nH]4)c(-c4c(F)cccc4F)c4nc(c(-c5c(F)cccc5F)c5ccc2[nH]5)C=C4)C=C3)cc1
REMARK SMILES IDX 32 1 31 2 29 3 30 4 27 6 28 7 26 8 25 9 5 10 6 11 16 12
REMARK SMILES IDX 24 13 17 14 23 15 18 16 20 17 19 18 21 19 22 20 4 21 1 22
REMARK SMILES IDX 2 23 3 24 7 26 8 27 9 28 15 29 10 30 13 31 11 32 14 33 12 34
REMARK SMILES IDX 33 35 34 36 35 37 36 38 37 39 38 41 39 42 40 43 92 44 41 45
REMARK SMILES IDX 91 46 42 47 43 48 44 49 85 50 45 51 90 52 84 53 86 54 46 55
REMARK SMILES IDX 89 56 83 57 82 58 47 60 73 61 56 62 72 63 57 64 60 65 71 66
REMARK SMILES IDX 87 67 58 68 59 69 70 71 88 72 61 73 48 74 49 75 54 76 50 77
REMARK SMILES IDX 51 78 53 79 55 80 52 81 74 82 75 83 80 84 76 85 77 86 79 87
REMARK SMILES IDX 81 88 78 89 62 90 63 91 68 92 64 93 65 94 67 95 69 96 66 97
REMARK H PARENT 31 5 4 25 36 40 86 59 60 70
REMARK Flexibility Score: inf
ROOT
ATOM      1  C   UNL A   1      39.584  22.227  26.427  1.00  0.00     0.116 C 
ENDROOT
BRANCH   1   2
ATOM      2  N   UNL A   1      38.821  21.327  25.564  1.00  0.00    -0.354 N 
ATOM      3  C   UNL A   1      37.520  21.145  25.231  1.00  0.00     0.248 C 
ATOM      4  O   UNL A   1      37.259  20.033  24.752  1.00  0.00    -0.272 OA
ATOM      5  H   UNL A   1      39.406  20.683  25.104  1.00  0.00     0.163 HD
BRANCH   3   6
ATOM      6  C   UNL A   1      36.380  22.209  25.335  1.00  0.00     0.204 C 
ATOM      7  C   UNL A   1      36.918  23.633  25.384  1.00  0.00     0.049 C 
BRANCH   6   8
ATOM      8  O   UNL A   1      35.122  21.971  25.955  1.00  0.00    -0.360 OA
BRANCH   8   9
ATOM      9  C   UNL A   1      33.846  21.876  25.288  1.00  0.00     0.179 C 
ATOM     10  C   UNL A   1      33.532  23.162  24.503  1.00  0.00     0.182 C 
ATOM     11  C   UNL A   1      32.428  23.009  23.425  1.00  0.00     0.333 C 
ATOM     12  O   UNL A   1      32.521  21.757  22.711  1.00  0.00    -0.332 OA
ATOM     13  C   UNL A   1      33.655  20.564  24.509  1.00  0.00     0.184 C 
ATOM     14  C   UNL A   1      32.473  20.620  23.562  1.00  0.00     0.180 C 
ATOM     15  O   UNL A   1      33.450  19.480  25.422  1.00  0.00    -0.342 OA
ATOM     16  C   UNL A   1      32.513  19.309  22.782  1.00  0.00     0.198 C 
ATOM     17  C   UNL A   1      33.246  18.206  24.795  1.00  0.00     0.163 C 
ATOM     18  O   UNL A   1      32.342  18.220  23.685  1.00  0.00    -0.348 OA
ATOM     19  C   UNL A   1      32.568  17.328  25.852  1.00  0.00     0.075 C 
ATOM     20  C   UNL A   1      34.584  17.578  24.410  1.00  0.00     0.075 C 
BRANCH  10  21
ATOM     21  N   UNL A   1      33.675  24.357  25.369  1.00  0.00    -0.345 N 
ATOM     22  C   UNL A   1      31.733  24.618  26.901  1.00  0.00     0.114 C 
ATOM     23  C   UNL A   1      32.795  25.172  26.005  1.00  0.00     0.217 C 
ATOM     24  O   UNL A   1      32.964  26.389  25.912  1.00  0.00    -0.275 OA
ATOM     25  H   UNL A   1      34.613  24.616  25.515  1.00  0.00     0.164 HD
ENDBRANCH  10  21
BRANCH  11  26
ATOM     26  O   UNL A   1      31.115  23.510  23.680  1.00  0.00    -0.463 OA
BRANCH  26  27
ATOM     27  C   UNL A   1      30.877  24.765  23.241  1.00  0.00     0.123 A 
ATOM     28  C   UNL A   1      31.778  25.403  22.405  1.00  0.00     0.047 A 
ATOM     29  C   UNL A   1      29.703  25.391  23.647  1.00  0.00     0.050 A 
ATOM     30  C   UNL A   1      31.587  26.741  22.104  1.00  0.00     0.007 A 
ATOM     31  C   UNL A   1      29.488  26.738  23.334  1.00  0.00    -0.045 A 
ATOM     32  C   UNL A   1      30.476  27.436  22.607  1.00  0.00    -0.048 A 
ATOM     33  C   UNL A   1      28.229  27.379  23.844  1.00  0.00     0.045 C 
ATOM     34  C   UNL A   1      30.388  28.908  22.339  1.00  0.00     0.044 C 
ENDBRANCH  26  27
ENDBRANCH  11  26
ENDBRANCH   8   9
ENDBRANCH   6   8
ENDBRANCH   3   6
ENDBRANCH   1   2
BRANCH   1  35
ATOM     35  C   UNL A   1      40.920  21.530  26.750  1.00  0.00     0.023 C 
BRANCH  35  36
ATOM     36  C   UNL A   1      41.294  20.209  26.075  1.00  0.00     0.023 C 
BRANCH  36  37
ATOM     37  C   UNL A   1      42.689  19.678  26.342  1.00  0.00     0.116 C 
BRANCH  37  38
ATOM     38  N   UNL A   1      43.337  19.078  25.179  1.00  0.00    -0.352 N 
ATOM     39  C   UNL A   1      44.334  19.590  24.364  1.00  0.00     0.251 C 
ATOM     40  H   UNL A   1      43.019  18.177  24.938  1.00  0.00     0.163 HD
ATOM     41  O   UNL A   1      44.747  18.950  23.410  1.00  0.00    -0.269 OA
BRANCH  39  42
ATOM     42  C   UNL A   1      44.850  20.957  24.620  1.00  0.00     0.039 A 
ATOM     43  C   UNL A   1      44.396  22.017  23.834  1.00  0.00     0.014 A 
ATOM     44  C   UNL A   1      45.678  21.207  25.711  1.00  0.00     0.014 A 
ATOM     45  C   UNL A   1      44.657  23.332  24.234  1.00  0.00     0.010 A 
ATOM     46  C   UNL A   1      45.793  22.503  26.195  1.00  0.00     0.010 A 
ATOM     47  C   UNL A   1      45.287  23.588  25.465  1.00  0.00    -0.014 A 
BRANCH  47  48
ATOM     48  C   UNL A   1      45.422  24.970  26.004  1.00  0.00     0.031 A 
ATOM     49  C   UNL A   1      46.760  25.668  25.983  1.00  0.00     0.074 A 
ATOM     50  C   UNL A   1      44.363  25.578  26.581  1.00  0.00     0.049 A 
ATOM     51  N   UNL A   1      47.090  26.842  26.461  1.00  0.00    -0.248 NA
ATOM     52  C   UNL A   1      47.891  24.931  25.394  1.00  0.00     0.031 C 
ATOM     53  C   UNL A   1      43.034  24.986  26.767  1.00  0.00     0.029 A 
ATOM     54  N   UNL A   1      44.234  26.836  27.116  1.00  0.00    -0.354 N 
ATOM     55  C   UNL A   1      48.457  26.966  26.248  1.00  0.00     0.074 A 
ATOM     56  C   UNL A   1      48.914  25.717  25.685  1.00  0.00     0.031 C 
ATOM     57  C   UNL A   1      42.214  25.899  27.314  1.00  0.00     0.029 A 
ATOM     58  C   UNL A   1      42.962  27.128  27.551  1.00  0.00     0.049 A 
ATOM     59  H   UNL A   1      44.984  27.472  27.183  1.00  0.00     0.167 HD
ATOM     60  C   UNL A   1      49.259  28.038  26.451  1.00  0.00     0.037 A 
ATOM     61  C   UNL A   1      42.454  28.263  28.067  1.00  0.00     0.037 A 
ATOM     62  C   UNL A   1      48.799  29.304  26.950  1.00  0.00     0.049 A 
ATOM     63  C   UNL A   1      43.352  29.460  28.226  1.00  0.00     0.074 A 
ATOM     64  C   UNL A   1      49.519  30.471  27.138  1.00  0.00     0.029 A 
ATOM     65  N   UNL A   1      47.491  29.575  27.318  1.00  0.00    -0.354 N 
ATOM     66  N   UNL A   1      44.627  29.581  27.949  1.00  0.00    -0.248 NA
ATOM     67  C   UNL A   1      42.734  30.684  28.757  1.00  0.00     0.031 C 
ATOM     68  C   UNL A   1      48.647  31.446  27.637  1.00  0.00     0.029 A 
ATOM     69  C   UNL A   1      47.381  30.892  27.728  1.00  0.00     0.049 A 
ATOM     70  H   UNL A   1      46.751  28.926  27.292  1.00  0.00     0.167 HD
ATOM     71  C   UNL A   1      44.956  30.897  28.243  1.00  0.00     0.074 A 
ATOM     72  C   UNL A   1      43.742  31.542  28.698  1.00  0.00     0.031 C 
ATOM     73  C   UNL A   1      46.158  31.517  28.155  1.00  0.00     0.037 A 
BRANCH  60  74
ATOM     74  C   UNL A   1      50.706  27.896  26.080  1.00  0.00     0.057 A 
ATOM     75  C   UNL A   1      51.135  28.034  24.752  1.00  0.00     0.134 A 
ATOM     76  C   UNL A   1      51.681  27.644  27.051  1.00  0.00     0.134 A 
ATOM     77  F   UNL A   1      50.248  28.259  23.771  1.00  0.00    -0.206 F 
ATOM     78  C   UNL A   1      52.479  27.900  24.400  1.00  0.00     0.040 A 
ATOM     79  C   UNL A   1      53.032  27.535  26.715  1.00  0.00     0.040 A 
ATOM     80  F   UNL A   1      51.340  27.503  28.340  1.00  0.00    -0.206 F 
ATOM     81  C   UNL A   1      53.433  27.658  25.386  1.00  0.00     0.006 A 
ENDBRANCH  60  74
BRANCH  61  82
ATOM     82  C   UNL A   1      41.014  28.357  28.426  1.00  0.00     0.057 A 
ATOM     83  C   UNL A   1      40.075  28.841  27.505  1.00  0.00     0.134 A 
ATOM     84  C   UNL A   1      40.548  28.015  29.699  1.00  0.00     0.134 A 
ATOM     85  F   UNL A   1      40.463  29.203  26.273  1.00  0.00    -0.206 F 
ATOM     86  C   UNL A   1      38.733  29.017  27.849  1.00  0.00     0.040 A 
ATOM     87  C   UNL A   1      39.203  28.160  30.049  1.00  0.00     0.040 A 
ATOM     88  F   UNL A   1      41.393  27.537  30.624  1.00  0.00    -0.206 F 
ATOM     89  C   UNL A   1      38.295  28.675  29.126  1.00  0.00     0.006 A 
ENDBRANCH  61  82
BRANCH  73  90
ATOM     90  C   UNL A   1      46.203  32.971  28.518  1.00  0.00     0.057 A 
ATOM     91  C   UNL A   1      46.464  33.396  29.827  1.00  0.00     0.134 A 
ATOM     92  C   UNL A   1      46.005  33.955  27.543  1.00  0.00     0.134 A 
ATOM     93  F   UNL A   1      46.650  32.499  30.809  1.00  0.00    -0.206 F 
ATOM     94  C   UNL A   1      46.498  34.751  30.159  1.00  0.00     0.040 A 
ATOM     95  C   UNL A   1      46.062  35.313  27.857  1.00  0.00     0.040 A 
ATOM     96  F   UNL A   1      45.760  33.613  26.268  1.00  0.00    -0.206 F 
ATOM     97  C   UNL A   1      46.301  35.713  29.170  1.00  0.00     0.006 A 
ENDBRANCH  73  90
ENDBRANCH  47  48
ENDBRANCH  39  42
ENDBRANCH  37  38
ENDBRANCH  36  37
ENDBRANCH  35  36
ENDBRANCH   1  35
TORSDOF 16
ENDMDL
MODEL 3
REMARK VINA RESULT:     -12.7      4.942     10.499
REMARK SMILES CC(=O)N[C@@H]1[C@H](Oc2ccc(C)c(C)c2)O[C@H]2COC(C)(C)O[C@@H]2[C@H]1O[C@@H](C)C(=O)NCCCCNC(=O)c1ccc(-c2c3nc(c(-c4c(F)cccc4F)c4ccc([nH]4)c(-c4c(F)cccc4F)c4nc(c(-c5c(F)cccc5F)c5ccc2[nH]5)C=C4)C=C3)cc1
REMARK SMILES IDX 32 1 31 2 29 3 30 4 27 6 28 7 26 8 25 9 5 10 6 11 16 12
REMARK SMILES IDX 24 13 17 14 23 15 18 16 20 17 19 18 21 19 22 20 4 21 1 22
REMARK SMILES IDX 2 23 3 24 7 26 8 27 9 28 15 29 10 30 13 31 11 32 14 33 12 34
REMARK SMILES IDX 33 35 34 36 35 37 36 38 37 39 38 41 39 42 40 43 92 44 41 45
REMARK SMILES IDX 91 46 42 47 43 48 44 49 85 50 45 51 90 52 84 53 86 54 46 55
REMARK SMILES IDX 89 56 83 57 82 58 47 60 73 61 56 62 72 63 57 64 60 65 71 66
REMARK SMILES IDX 87 67 58 68 59 69 70 71 88 72 61 73 48 74 49 75 54 76 50 77
REMARK SMILES IDX 51 78 53 79 55 80 52 81 74 82 75 83 80 84 76 85 77 86 79 87
REMARK SMILES IDX 81 88 78 89 62 90 63 91 68 92 64 93 65 94 67 95 69 96 66 97
REMARK H PARENT 31 5 4 25 36 40 86 59 60 70
REMARK Flexibility Score: inf
ROOT
ATOM      1  C   UNL A   1      39.323  22.440  26.494  1.00  0.00     0.116 C 
ENDROOT
BRANCH   1   2
ATOM      2  N   UNL A   1      38.910  21.251  25.749  1.00  0.00    -0.354 N 
ATOM      3  C   UNL A   1      37.770  20.790  25.178  1.00  0.00     0.248 C 
ATOM      4  O   UNL A   1      37.755  19.569  24.967  1.00  0.00    -0.272 OA
ATOM      5  H   UNL A   1      39.656  20.620  25.630  1.00  0.00     0.163 HD
BRANCH   3   6
ATOM      6  C   UNL A   1      36.549  21.650  24.720  1.00  0.00     0.204 C 
ATOM      7  C   UNL A   1      36.957  22.789  23.793  1.00  0.00     0.049 C 
BRANCH   6   8
ATOM      8  O   UNL A   1      35.371  21.837  25.494  1.00  0.00    -0.360 OA
BRANCH   8   9
ATOM      9  C   UNL A   1      34.014  21.810  25.003  1.00  0.00     0.179 C 
ATOM     10  C   UNL A   1      33.660  23.120  24.277  1.00  0.00     0.182 C 
ATOM     11  C   UNL A   1      32.415  23.034  23.355  1.00  0.00     0.333 C 
ATOM     12  O   UNL A   1      32.353  21.789  22.625  1.00  0.00    -0.332 OA
ATOM     13  C   UNL A   1      33.658  20.520  24.246  1.00  0.00     0.184 C 
ATOM     14  C   UNL A   1      32.365  20.644  23.466  1.00  0.00     0.180 C 
ATOM     15  O   UNL A   1      33.525  19.434  25.170  1.00  0.00    -0.342 OA
ATOM     16  C   UNL A   1      32.237  19.344  22.677  1.00  0.00     0.198 C 
ATOM     17  C   UNL A   1      33.178  18.179  24.566  1.00  0.00     0.163 C 
ATOM     18  O   UNL A   1      32.136  18.251  23.587  1.00  0.00    -0.348 OA
ATOM     19  C   UNL A   1      32.607  17.319  25.698  1.00  0.00     0.075 C 
ATOM     20  C   UNL A   1      34.422  17.495  24.000  1.00  0.00     0.075 C 
BRANCH  10  21
ATOM     21  N   UNL A   1      33.973  24.295  25.125  1.00  0.00    -0.345 N 
ATOM     22  C   UNL A   1      32.215  24.686  26.840  1.00  0.00     0.114 C 
ATOM     23  C   UNL A   1      33.222  25.167  25.844  1.00  0.00     0.217 C 
ATOM     24  O   UNL A   1      33.470  26.369  25.736  1.00  0.00    -0.275 OA
ATOM     25  H   UNL A   1      34.938  24.483  25.180  1.00  0.00     0.164 HD
ENDBRANCH  10  21
BRANCH  11  26
ATOM     26  O   UNL A   1      31.174  23.592  23.787  1.00  0.00    -0.463 OA
BRANCH  26  27
ATOM     27  C   UNL A   1      30.898  24.827  23.317  1.00  0.00     0.123 A 
ATOM     28  C   UNL A   1      31.789  25.481  22.484  1.00  0.00     0.047 A 
ATOM     29  C   UNL A   1      29.694  25.417  23.690  1.00  0.00     0.050 A 
ATOM     30  C   UNL A   1      31.555  26.805  22.152  1.00  0.00     0.007 A 
ATOM     31  C   UNL A   1      29.435  26.749  23.345  1.00  0.00    -0.045 A 
ATOM     32  C   UNL A   1      30.409  27.467  22.621  1.00  0.00    -0.048 A 
ATOM     33  C   UNL A   1      28.144  27.352  23.820  1.00  0.00     0.045 C 
ATOM     34  C   UNL A   1      30.271  28.930  22.320  1.00  0.00     0.044 C 
ENDBRANCH  26  27
ENDBRANCH  11  26
ENDBRANCH   8   9
ENDBRANCH   6   8
ENDBRANCH   3   6
ENDBRANCH   1   2
BRANCH   1  35
ATOM     35  C   UNL A   1      40.448  22.011  27.454  1.00  0.00     0.023 C 
BRANCH  35  36
ATOM     36  C   UNL A   1      41.882  21.840  26.949  1.00  0.00     0.023 C 
BRANCH  36  37
ATOM     37  C   UNL A   1      42.721  23.098  26.840  1.00  0.00     0.116 C 
BRANCH  37  38
ATOM     38  N   UNL A   1      42.275  24.033  25.810  1.00  0.00    -0.352 N 
ATOM     39  C   UNL A   1      41.865  25.350  25.934  1.00  0.00     0.251 C 
ATOM     40  H   UNL A   1      42.263  23.673  24.893  1.00  0.00     0.163 HD
ATOM     41  O   UNL A   1      41.499  25.982  24.956  1.00  0.00    -0.269 OA
BRANCH  39  42
ATOM     42  C   UNL A   1      41.808  25.968  27.282  1.00  0.00     0.039 A 
ATOM     43  C   UNL A   1      42.797  26.879  27.659  1.00  0.00     0.014 A 
ATOM     44  C   UNL A   1      40.715  25.746  28.115  1.00  0.00     0.014 A 
ATOM     45  C   UNL A   1      42.609  27.666  28.800  1.00  0.00     0.010 A 
ATOM     46  C   UNL A   1      40.454  26.638  29.147  1.00  0.00     0.010 A 
ATOM     47  C   UNL A   1      41.395  27.612  29.508  1.00  0.00    -0.014 A 
BRANCH  47  48
ATOM     48  C   UNL A   1      41.092  28.559  30.617  1.00  0.00     0.031 A 
ATOM     49  C   UNL A   1      41.884  28.505  31.901  1.00  0.00     0.074 A 
ATOM     50  C   UNL A   1      40.059  29.422  30.507  1.00  0.00     0.049 A 
ATOM     51  N   UNL A   1      41.728  29.201  33.000  1.00  0.00    -0.248 NA
ATOM     52  C   UNL A   1      42.960  27.503  31.983  1.00  0.00     0.031 C 
ATOM     53  C   UNL A   1      39.141  29.516  29.367  1.00  0.00     0.029 A 
ATOM     54  N   UNL A   1      39.608  30.394  31.367  1.00  0.00    -0.354 N 
ATOM     55  C   UNL A   1      42.666  28.704  33.897  1.00  0.00     0.074 A 
ATOM     56  C   UNL A   1      43.322  27.590  33.253  1.00  0.00     0.031 C 
ATOM     57  C   UNL A   1      38.281  30.527  29.573  1.00  0.00     0.029 A 
ATOM     58  C   UNL A   1      38.560  31.132  30.870  1.00  0.00     0.049 A 
ATOM     59  H   UNL A   1      39.999  30.547  32.258  1.00  0.00     0.167 HD
ATOM     60  C   UNL A   1      42.994  29.161  35.129  1.00  0.00     0.037 A 
ATOM     61  C   UNL A   1      37.909  32.189  31.394  1.00  0.00     0.037 A 
ATOM     62  C   UNL A   1      42.392  30.307  35.749  1.00  0.00     0.049 A 
ATOM     63  C   UNL A   1      38.334  32.715  32.738  1.00  0.00     0.074 A 
ATOM     64  C   UNL A   1      42.692  30.887  36.970  1.00  0.00     0.029 A 
ATOM     65  N   UNL A   1      41.378  31.064  35.184  1.00  0.00    -0.354 N 
ATOM     66  N   UNL A   1      39.274  32.277  33.539  1.00  0.00    -0.248 NA
ATOM     67  C   UNL A   1      37.615  33.894  33.244  1.00  0.00     0.031 C 
ATOM     68  C   UNL A   1      41.847  31.987  37.150  1.00  0.00     0.029 A 
ATOM     69  C   UNL A   1      41.044  32.108  36.028  1.00  0.00     0.049 A 
ATOM     70  H   UNL A   1      40.957  30.884  34.311  1.00  0.00     0.167 HD
ATOM     71  C   UNL A   1      39.278  33.140  34.627  1.00  0.00     0.074 A 
ATOM     72  C   UNL A   1      38.264  34.142  34.372  1.00  0.00     0.031 C 
ATOM     73  C   UNL A   1      40.047  33.105  35.742  1.00  0.00     0.037 A 
BRANCH  60  74
ATOM     74  C   UNL A   1      44.094  28.445  35.858  1.00  0.00     0.057 A 
ATOM     75  C   UNL A   1      43.819  27.390  36.739  1.00  0.00     0.134 A 
ATOM     76  C   UNL A   1      45.435  28.792  35.664  1.00  0.00     0.134 A 
ATOM     77  F   UNL A   1      42.552  27.020  36.982  1.00  0.00    -0.206 F 
ATOM     78  C   UNL A   1      44.837  26.723  37.422  1.00  0.00     0.040 A 
ATOM     79  C   UNL A   1      46.464  28.114  36.321  1.00  0.00     0.040 A 
ATOM     80  F   UNL A   1      45.769  29.790  34.833  1.00  0.00    -0.206 F 
ATOM     81  C   UNL A   1      46.165  27.080  37.207  1.00  0.00     0.006 A 
ENDBRANCH  60  74
BRANCH  61  82
ATOM     82  C   UNL A   1      36.821  32.863  30.637  1.00  0.00     0.057 A 
ATOM     83  C   UNL A   1      35.476  32.586  30.913  1.00  0.00     0.134 A 
ATOM     84  C   UNL A   1      37.093  33.757  29.596  1.00  0.00     0.134 A 
ATOM     85  F   UNL A   1      35.152  31.722  31.887  1.00  0.00    -0.206 F 
ATOM     86  C   UNL A   1      34.442  33.142  30.158  1.00  0.00     0.040 A 
ATOM     87  C   UNL A   1      36.068  34.343  28.849  1.00  0.00     0.040 A 
ATOM     88  F   UNL A   1      38.359  34.072  29.287  1.00  0.00    -0.206 F 
ATOM     89  C   UNL A   1      34.738  34.025  29.122  1.00  0.00     0.006 A 
ENDBRANCH  61  82
BRANCH  73  90
ATOM     90  C   UNL A   1      39.844  34.202  36.744  1.00  0.00     0.057 A 
ATOM     91  C   UNL A   1      40.436  35.462  36.588  1.00  0.00     0.134 A 
ATOM     92  C   UNL A   1      39.032  34.000  37.866  1.00  0.00     0.134 A 
ATOM     93  F   UNL A   1      41.235  35.712  35.539  1.00  0.00    -0.206 F 
ATOM     94  C   UNL A   1      40.248  36.475  37.528  1.00  0.00     0.040 A 
ATOM     95  C   UNL A   1      38.816  35.014  38.799  1.00  0.00     0.040 A 
ATOM     96  F   UNL A   1      38.429  32.818  38.068  1.00  0.00    -0.206 F 
ATOM     97  C   UNL A   1      39.431  36.253  38.636  1.00  0.00     0.006 A 
ENDBRANCH  73  90
ENDBRANCH  47  48
ENDBRANCH  39  42
ENDBRANCH  37  38
ENDBRANCH  36  37
ENDBRANCH  35  36
ENDBRANCH   1  35
TORSDOF 16
ENDMDL
