MODEL 1
REMARK VINA RESULT:     -11.2      0.000      0.000
REMARK SMILES CN1C(=O)Cc2cc([C@@H](O)CCCCC(=O)NCCCCNC(=O)c3ccc(-c4c5nc(c(-c6c(F)cccc6F)c6ccc([nH]6)c(-c6c(F)cccc6F)c6nc(c(-c7c(F)cccc7F)c7ccc4[nH]7)C=C6)C=C5)cc3)ccc21
REMARK SMILES IDX 18 1 17 2 15 3 16 4 14 6 13 7 12 8 11 9 9 10 8 11 1 12 2 13
REMARK SMILES IDX 3 14 81 15 4 16 5 17 6 18 80 19 7 20 79 21 10 22 19 24 20 25
REMARK SMILES IDX 21 26 22 27 23 28 24 30 25 31 26 32 78 33 27 34 77 35 28 36
REMARK SMILES IDX 29 37 30 38 71 39 31 40 76 41 70 42 72 43 32 44 75 45 69 46
REMARK SMILES IDX 68 47 33 49 59 50 42 51 58 52 43 53 46 54 57 55 73 56 44 57
REMARK SMILES IDX 45 58 56 60 74 61 47 62 34 63 35 64 40 65 36 66 37 67 39 68
REMARK SMILES IDX 41 69 38 70 60 71 61 72 66 73 62 74 63 75 65 76 67 77 64 78
REMARK SMILES IDX 48 79 49 80 54 81 50 82 51 83 53 84 55 85 52 86
REMARK H PARENT 17 5 10 23 22 29 72 48 46 59
REMARK Flexibility Score: inf
ROOT
ATOM      1  C   UNL A   1      32.518  29.674  26.564  1.00  0.00     0.116 C 
ENDROOT
BRANCH   1   2
ATOM      2  N   UNL A   1      31.665  28.534  26.825  1.00  0.00    -0.356 N 
ATOM      3  C   UNL A   1      31.894  27.207  26.630  1.00  0.00     0.219 C 
ATOM      4  O   UNL A   1      30.970  26.421  26.845  1.00  0.00    -0.275 OA
ATOM      5  H   UNL A   1      30.782  28.753  27.204  1.00  0.00     0.163 HD
BRANCH   3   6
ATOM      6  C   UNL A   1      33.259  26.702  26.195  1.00  0.00     0.100 C 
BRANCH   6   7
ATOM      7  C   UNL A   1      33.345  25.191  25.963  1.00  0.00     0.010 C 
BRANCH   7   8
ATOM      8  C   UNL A   1      34.195  24.723  24.784  1.00  0.00     0.004 C 
BRANCH   8   9
ATOM      9  C   UNL A   1      34.195  25.632  23.545  1.00  0.00     0.037 C 
BRANCH   9  10
ATOM     10  C   UNL A   1      32.960  25.491  22.653  1.00  0.00     0.144 C 
BRANCH  10  11
ATOM     11  C   UNL A   1      31.977  26.616  22.900  1.00  0.00    -0.019 A 
ATOM     12  C   UNL A   1      29.153  30.987  22.915  1.00  0.00     0.153 C 
ATOM     13  N   UNL A   1      29.069  29.563  23.100  1.00  0.00    -0.315 N 
ATOM     14  C   UNL A   1      27.889  28.864  23.372  1.00  0.00     0.231 C 
ATOM     15  C   UNL A   1      30.162  28.702  23.018  1.00  0.00     0.047 A 
ATOM     16  O   UNL A   1      26.770  29.328  23.501  1.00  0.00    -0.274 OA
ATOM     17  C   UNL A   1      28.257  27.378  23.472  1.00  0.00     0.138 C 
ATOM     18  C   UNL A   1      29.737  27.394  23.242  1.00  0.00    -0.014 A 
ATOM     19  C   UNL A   1      31.482  29.005  22.750  1.00  0.00     0.027 A 
ATOM     20  C   UNL A   1      30.629  26.339  23.197  1.00  0.00     0.012 A 
ATOM     21  C   UNL A   1      32.393  27.951  22.695  1.00  0.00     0.008 A 
ENDBRANCH  10  11
BRANCH  10  22
ATOM     22  O   UNL A   1      33.389  25.512  21.292  1.00  0.00    -0.388 OA
ATOM     23  H   UNL A   1      33.882  24.700  21.096  1.00  0.00     0.211 HD
ENDBRANCH  10  22
ENDBRANCH   9  10
ENDBRANCH   8   9
ENDBRANCH   7   8
ENDBRANCH   6   7
ENDBRANCH   3   6
ENDBRANCH   1   2
BRANCH   1  24
ATOM     24  C   UNL A   1      31.720  30.817  25.931  1.00  0.00     0.023 C 
BRANCH  24  25
ATOM     25  C   UNL A   1      31.412  31.976  26.865  1.00  0.00     0.023 C 
BRANCH  25  26
ATOM     26  C   UNL A   1      32.623  32.803  27.251  1.00  0.00     0.116 C 
BRANCH  26  27
ATOM     27  N   UNL A   1      32.309  34.173  27.629  1.00  0.00    -0.352 N 
ATOM     28  C   UNL A   1      32.959  34.966  28.546  1.00  0.00     0.251 C 
ATOM     29  H   UNL A   1      31.537  34.583  27.174  1.00  0.00     0.163 HD
ATOM     30  O   UNL A   1      32.528  36.076  28.840  1.00  0.00    -0.269 OA
BRANCH  28  31
ATOM     31  C   UNL A   1      34.168  34.432  29.210  1.00  0.00     0.039 A 
ATOM     32  C   UNL A   1      34.023  33.649  30.355  1.00  0.00     0.014 A 
ATOM     33  C   UNL A   1      35.429  34.634  28.644  1.00  0.00     0.014 A 
ATOM     34  C   UNL A   1      35.143  33.017  30.896  1.00  0.00     0.010 A 
ATOM     35  C   UNL A   1      36.516  33.909  29.111  1.00  0.00     0.010 A 
ATOM     36  C   UNL A   1      36.392  33.113  30.257  1.00  0.00    -0.014 A 
BRANCH  36  37
ATOM     37  C   UNL A   1      37.586  32.420  30.804  1.00  0.00     0.031 A 
ATOM     38  C   UNL A   1      38.188  32.880  32.107  1.00  0.00     0.074 A 
ATOM     39  C   UNL A   1      38.148  31.406  30.116  1.00  0.00     0.049 A 
ATOM     40  N   UNL A   1      39.224  32.406  32.750  1.00  0.00    -0.248 NA
ATOM     41  C   UNL A   1      37.568  34.048  32.756  1.00  0.00     0.031 C 
ATOM     42  C   UNL A   1      37.707  30.921  28.806  1.00  0.00     0.029 A 
ATOM     43  N   UNL A   1      39.214  30.599  30.425  1.00  0.00    -0.354 N 
ATOM     44  C   UNL A   1      39.385  33.226  33.861  1.00  0.00     0.074 A 
ATOM     45  C   UNL A   1      38.389  34.267  33.771  1.00  0.00     0.031 C 
ATOM     46  C   UNL A   1      38.471  29.877  28.443  1.00  0.00     0.029 A 
ATOM     47  C   UNL A   1      39.475  29.640  29.475  1.00  0.00     0.049 A 
ATOM     48  H   UNL A   1      39.744  30.698  31.249  1.00  0.00     0.167 HD
ATOM     49  C   UNL A   1      40.261  33.100  34.883  1.00  0.00     0.037 A 
ATOM     50  C   UNL A   1      40.414  28.676  29.445  1.00  0.00     0.037 A 
ATOM     51  C   UNL A   1      41.219  32.035  34.994  1.00  0.00     0.049 A 
ATOM     52  C   UNL A   1      41.355  28.541  30.613  1.00  0.00     0.074 A 
ATOM     53  C   UNL A   1      42.090  31.765  36.033  1.00  0.00     0.029 A 
ATOM     54  N   UNL A   1      41.432  31.064  34.027  1.00  0.00    -0.354 N 
ATOM     55  N   UNL A   1      41.424  29.259  31.709  1.00  0.00    -0.248 NA
ATOM     56  C   UNL A   1      42.341  27.453  30.546  1.00  0.00     0.031 C 
ATOM     57  C   UNL A   1      42.870  30.663  35.672  1.00  0.00     0.029 A 
ATOM     58  C   UNL A   1      42.444  30.211  34.433  1.00  0.00     0.049 A 
ATOM     59  H   UNL A   1      40.938  30.992  33.178  1.00  0.00     0.167 HD
ATOM     60  C   UNL A   1      42.441  28.696  32.470  1.00  0.00     0.074 A 
ATOM     61  C   UNL A   1      42.941  27.560  31.723  1.00  0.00     0.031 C 
ATOM     62  C   UNL A   1      42.924  29.085  33.675  1.00  0.00     0.037 A 
BRANCH  49  63
ATOM     63  C   UNL A   1      40.215  34.132  35.974  1.00  0.00     0.057 A 
ATOM     64  C   UNL A   1      40.955  35.319  35.904  1.00  0.00     0.134 A 
ATOM     65  C   UNL A   1      39.378  33.956  37.084  1.00  0.00     0.134 A 
ATOM     66  F   UNL A   1      41.787  35.543  34.875  1.00  0.00    -0.206 F 
ATOM     67  C   UNL A   1      40.880  36.287  36.907  1.00  0.00     0.040 A 
ATOM     68  C   UNL A   1      39.273  34.930  38.079  1.00  0.00     0.040 A 
ATOM     69  F   UNL A   1      38.641  32.844  37.214  1.00  0.00    -0.206 F 
ATOM     70  C   UNL A   1      40.029  36.098  37.993  1.00  0.00     0.006 A 
ENDBRANCH  49  63
BRANCH  50  71
ATOM     71  C   UNL A   1      40.509  27.750  28.286  1.00  0.00     0.057 A 
ATOM     72  C   UNL A   1      39.881  26.499  28.299  1.00  0.00     0.134 A 
ATOM     73  C   UNL A   1      41.260  28.080  27.151  1.00  0.00     0.134 A 
ATOM     74  F   UNL A   1      39.160  26.117  29.364  1.00  0.00    -0.206 F 
ATOM     75  C   UNL A   1      40.025  25.595  27.244  1.00  0.00     0.040 A 
ATOM     76  C   UNL A   1      41.387  27.198  26.076  1.00  0.00     0.040 A 
ATOM     77  F   UNL A   1      41.879  29.266  27.069  1.00  0.00    -0.206 F 
ATOM     78  C   UNL A   1      40.778  25.945  26.126  1.00  0.00     0.006 A 
ENDBRANCH  50  71
BRANCH  62  79
ATOM     79  C   UNL A   1      44.029  28.261  34.269  1.00  0.00     0.057 A 
ATOM     80  C   UNL A   1      45.378  28.585  34.077  1.00  0.00     0.134 A 
ATOM     81  C   UNL A   1      43.739  27.148  35.068  1.00  0.00     0.134 A 
ATOM     82  F   UNL A   1      45.724  29.633  33.315  1.00  0.00    -0.206 F 
ATOM     83  C   UNL A   1      46.399  27.813  34.633  1.00  0.00     0.040 A 
ATOM     84  C   UNL A   1      44.749  26.387  35.655  1.00  0.00     0.040 A 
ATOM     85  F   UNL A   1      42.467  26.790  35.302  1.00  0.00    -0.206 F 
ATOM     86  C   UNL A   1      46.085  26.714  35.430  1.00  0.00     0.006 A 
ENDBRANCH  62  79
ENDBRANCH  36  37
ENDBRANCH  28  31
ENDBRANCH  26  27
ENDBRANCH  25  26
ENDBRANCH  24  25
ENDBRANCH   1  24
TORSDOF 17
ENDMDL
MODEL 2
REMARK VINA RESULT:     -11.1      1.632      3.161
REMARK SMILES CN1C(=O)Cc2cc([C@@H](O)CCCCC(=O)NCCCCNC(=O)c3ccc(-c4c5nc(c(-c6c(F)cccc6F)c6ccc([nH]6)c(-c6c(F)cccc6F)c6nc(c(-c7c(F)cccc7F)c7ccc4[nH]7)C=C6)C=C5)cc3)ccc21
REMARK SMILES IDX 18 1 17 2 15 3 16 4 14 6 13 7 12 8 11 9 9 10 8 11 1 12 2 13
REMARK SMILES IDX 3 14 81 15 4 16 5 17 6 18 80 19 7 20 79 21 10 22 19 24 20 25
REMARK SMILES IDX 21 26 22 27 23 28 24 30 25 31 26 32 78 33 27 34 77 35 28 36
REMARK SMILES IDX 29 37 30 38 71 39 31 40 76 41 70 42 72 43 32 44 75 45 69 46
REMARK SMILES IDX 68 47 33 49 59 50 42 51 58 52 43 53 46 54 57 55 73 56 44 57
REMARK SMILES IDX 45 58 56 60 74 61 47 62 34 63 35 64 40 65 36 66 37 67 39 68
REMARK SMILES IDX 41 69 38 70 60 71 61 72 66 73 62 74 63 75 65 76 67 77 64 78
REMARK SMILES IDX 48 79 49 80 54 81 50 82 51 83 53 84 55 85 52 86
REMARK H PARENT 17 5 10 23 22 29 72 48 46 59
REMARK Flexibility Score: inf
ROOT
ATOM      1  C   UNL A   1      32.419  29.937  27.258  1.00  0.00     0.116 C 
ENDROOT
BRANCH   1   2
ATOM      2  N   UNL A   1      31.831  28.617  27.339  1.00  0.00    -0.356 N 
ATOM      3  C   UNL A   1      32.224  27.447  26.764  1.00  0.00     0.219 C 
ATOM      4  O   UNL A   1      31.502  26.459  26.906  1.00  0.00    -0.275 OA
ATOM      5  H   UNL A   1      31.022  28.555  27.897  1.00  0.00     0.163 HD
BRANCH   3   6
ATOM      6  C   UNL A   1      33.532  27.350  25.999  1.00  0.00     0.100 C 
BRANCH   6   7
ATOM      7  C   UNL A   1      33.500  27.942  24.587  1.00  0.00     0.010 C 
BRANCH   7   8
ATOM      8  C   UNL A   1      32.171  27.868  23.839  1.00  0.00     0.004 C 
BRANCH   8   9
ATOM      9  C   UNL A   1      32.034  26.735  22.810  1.00  0.00     0.037 C 
BRANCH   9  10
ATOM     10  C   UNL A   1      33.364  26.193  22.280  1.00  0.00     0.144 C 
BRANCH  10  11
ATOM     11  C   UNL A   1      33.586  24.763  22.724  1.00  0.00    -0.019 A 
ATOM     12  C   UNL A   1      34.663  20.325  25.219  1.00  0.00     0.153 C 
ATOM     13  N   UNL A   1      33.768  20.917  24.263  1.00  0.00    -0.315 N 
ATOM     14  C   UNL A   1      32.696  20.254  23.658  1.00  0.00     0.231 C 
ATOM     15  C   UNL A   1      33.857  22.240  23.829  1.00  0.00     0.047 A 
ATOM     16  O   UNL A   1      32.355  19.098  23.828  1.00  0.00    -0.274 OA
ATOM     17  C   UNL A   1      32.006  21.263  22.730  1.00  0.00     0.138 C 
ATOM     18  C   UNL A   1      32.841  22.493  22.910  1.00  0.00    -0.014 A 
ATOM     19  C   UNL A   1      34.761  23.213  24.206  1.00  0.00     0.027 A 
ATOM     20  C   UNL A   1      32.694  23.744  22.339  1.00  0.00     0.012 A 
ATOM     21  C   UNL A   1      34.623  24.481  23.643  1.00  0.00     0.008 A 
ENDBRANCH  10  11
BRANCH  10  22
ATOM     22  O   UNL A   1      33.336  26.260  20.856  1.00  0.00    -0.388 OA
ATOM     23  H   UNL A   1      34.244  26.279  20.515  1.00  0.00     0.211 HD
ENDBRANCH  10  22
ENDBRANCH   9  10
ENDBRANCH   8   9
ENDBRANCH   7   8
ENDBRANCH   6   7
ENDBRANCH   3   6
ENDBRANCH   1   2
BRANCH   1  24
ATOM     24  C   UNL A   1      31.742  30.768  26.163  1.00  0.00     0.023 C 
BRANCH  24  25
ATOM     25  C   UNL A   1      31.412  32.198  26.559  1.00  0.00     0.023 C 
BRANCH  25  26
ATOM     26  C   UNL A   1      32.544  32.927  27.257  1.00  0.00     0.116 C 
BRANCH  26  27
ATOM     27  N   UNL A   1      32.220  34.295  27.637  1.00  0.00    -0.352 N 
ATOM     28  C   UNL A   1      32.877  35.097  28.542  1.00  0.00     0.251 C 
ATOM     29  H   UNL A   1      31.438  34.696  27.193  1.00  0.00     0.163 HD
ATOM     30  O   UNL A   1      32.439  36.202  28.840  1.00  0.00    -0.269 OA
BRANCH  28  31
ATOM     31  C   UNL A   1      34.101  34.576  29.188  1.00  0.00     0.039 A 
ATOM     32  C   UNL A   1      33.993  33.906  30.407  1.00  0.00     0.014 A 
ATOM     33  C   UNL A   1      35.335  34.676  28.541  1.00  0.00     0.014 A 
ATOM     34  C   UNL A   1      35.118  33.281  30.944  1.00  0.00     0.010 A 
ATOM     35  C   UNL A   1      36.421  33.953  29.016  1.00  0.00     0.010 A 
ATOM     36  C   UNL A   1      36.333  33.269  30.235  1.00  0.00    -0.014 A 
BRANCH  36  37
ATOM     37  C   UNL A   1      37.529  32.581  30.781  1.00  0.00     0.031 A 
ATOM     38  C   UNL A   1      38.128  33.040  32.085  1.00  0.00     0.074 A 
ATOM     39  C   UNL A   1      38.098  31.572  30.090  1.00  0.00     0.049 A 
ATOM     40  N   UNL A   1      39.166  32.570  32.727  1.00  0.00    -0.248 NA
ATOM     41  C   UNL A   1      37.501  34.202  32.738  1.00  0.00     0.031 C 
ATOM     42  C   UNL A   1      37.661  31.089  28.778  1.00  0.00     0.029 A 
ATOM     43  N   UNL A   1      39.168  30.770  30.396  1.00  0.00    -0.354 N 
ATOM     44  C   UNL A   1      39.322  33.386  33.841  1.00  0.00     0.074 A 
ATOM     45  C   UNL A   1      38.320  34.422  33.754  1.00  0.00     0.031 C 
ATOM     46  C   UNL A   1      38.430  30.051  28.411  1.00  0.00     0.029 A 
ATOM     47  C   UNL A   1      39.435  29.816  29.444  1.00  0.00     0.049 A 
ATOM     48  H   UNL A   1      39.697  30.869  31.221  1.00  0.00     0.167 HD
ATOM     49  C   UNL A   1      40.197  33.262  34.864  1.00  0.00     0.037 A 
ATOM     50  C   UNL A   1      40.380  28.857  29.411  1.00  0.00     0.037 A 
ATOM     51  C   UNL A   1      41.162  32.202  34.972  1.00  0.00     0.049 A 
ATOM     52  C   UNL A   1      41.321  28.724  30.579  1.00  0.00     0.074 A 
ATOM     53  C   UNL A   1      42.034  31.934  36.011  1.00  0.00     0.029 A 
ATOM     54  N   UNL A   1      41.381  31.235  34.002  1.00  0.00    -0.354 N 
ATOM     55  N   UNL A   1      41.385  29.438  31.678  1.00  0.00    -0.248 NA
ATOM     56  C   UNL A   1      42.313  27.642  30.509  1.00  0.00     0.031 C 
ATOM     57  C   UNL A   1      42.820  30.837  35.646  1.00  0.00     0.029 A 
ATOM     58  C   UNL A   1      42.397  30.387  34.405  1.00  0.00     0.049 A 
ATOM     59  H   UNL A   1      40.888  31.164  33.152  1.00  0.00     0.167 HD
ATOM     60  C   UNL A   1      42.404  28.879  32.437  1.00  0.00     0.074 A 
ATOM     61  C   UNL A   1      42.911  27.748  31.686  1.00  0.00     0.031 C 
ATOM     62  C   UNL A   1      42.884  29.266  33.644  1.00  0.00     0.037 A 
BRANCH  49  63
ATOM     63  C   UNL A   1      40.145  34.289  35.959  1.00  0.00     0.057 A 
ATOM     64  C   UNL A   1      40.893  35.473  35.901  1.00  0.00     0.134 A 
ATOM     65  C   UNL A   1      39.295  34.114  37.058  1.00  0.00     0.134 A 
ATOM     66  F   UNL A   1      41.738  35.696  34.883  1.00  0.00    -0.206 F 
ATOM     67  C   UNL A   1      40.812  36.437  36.907  1.00  0.00     0.040 A 
ATOM     68  C   UNL A   1      39.184  35.085  38.055  1.00  0.00     0.040 A 
ATOM     69  F   UNL A   1      38.550  33.006  37.175  1.00  0.00    -0.206 F 
ATOM     70  C   UNL A   1      39.947  36.249  37.983  1.00  0.00     0.006 A 
ENDBRANCH  49  63
BRANCH  50  71
ATOM     71  C   UNL A   1      40.481  27.936  28.249  1.00  0.00     0.057 A 
ATOM     72  C   UNL A   1      39.823  26.700  28.239  1.00  0.00     0.134 A 
ATOM     73  C   UNL A   1      41.266  28.254  27.134  1.00  0.00     0.134 A 
ATOM     74  F   UNL A   1      39.068  26.330  29.284  1.00  0.00    -0.206 F 
ATOM     75  C   UNL A   1      39.970  25.799  27.182  1.00  0.00     0.040 A 
ATOM     76  C   UNL A   1      41.398  27.375  26.057  1.00  0.00     0.040 A 
ATOM     77  F   UNL A   1      41.915  29.425  27.074  1.00  0.00    -0.206 F 
ATOM     78  C   UNL A   1      40.759  26.138  26.085  1.00  0.00     0.006 A 
ENDBRANCH  50  71
BRANCH  62  79
ATOM     79  C   UNL A   1      43.994  28.446  34.236  1.00  0.00     0.057 A 
ATOM     80  C   UNL A   1      43.739  27.316  35.022  1.00  0.00     0.134 A 
ATOM     81  C   UNL A   1      45.333  28.775  33.989  1.00  0.00     0.134 A 
ATOM     82  F   UNL A   1      42.479  26.952  35.304  1.00  0.00    -0.206 F 
ATOM     83  C   UNL A   1      44.778  26.560  35.570  1.00  0.00     0.040 A 
ATOM     84  C   UNL A   1      46.378  28.009  34.503  1.00  0.00     0.040 A 
ATOM     85  F   UNL A   1      45.646  29.838  33.232  1.00  0.00    -0.206 F 
ATOM     86  C   UNL A   1      46.101  26.904  35.304  1.00  0.00     0.006 A 
ENDBRANCH  62  79
ENDBRANCH  36  37
ENDBRANCH  28  31
ENDBRANCH  26  27
ENDBRANCH  25  26
ENDBRANCH  24  25
ENDBRANCH   1  24
TORSDOF 17
ENDMDL
MODEL 3
REMARK VINA RESULT:     -11.0      4.291      9.143
REMARK SMILES CN1C(=O)Cc2cc([C@@H](O)CCCCC(=O)NCCCCNC(=O)c3ccc(-c4c5nc(c(-c6c(F)cccc6F)c6ccc([nH]6)c(-c6c(F)cccc6F)c6nc(c(-c7c(F)cccc7F)c7ccc4[nH]7)C=C6)C=C5)cc3)ccc21
REMARK SMILES IDX 18 1 17 2 15 3 16 4 14 6 13 7 12 8 11 9 9 10 8 11 1 12 2 13
REMARK SMILES IDX 3 14 81 15 4 16 5 17 6 18 80 19 7 20 79 21 10 22 19 24 20 25
REMARK SMILES IDX 21 26 22 27 23 28 24 30 25 31 26 32 78 33 27 34 77 35 28 36
REMARK SMILES IDX 29 37 30 38 71 39 31 40 76 41 70 42 72 43 32 44 75 45 69 46
REMARK SMILES IDX 68 47 33 49 59 50 42 51 58 52 43 53 46 54 57 55 73 56 44 57
REMARK SMILES IDX 45 58 56 60 74 61 47 62 34 63 35 64 40 65 36 66 37 67 39 68
REMARK SMILES IDX 41 69 38 70 60 71 61 72 66 73 62 74 63 75 65 76 67 77 64 78
REMARK SMILES IDX 48 79 49 80 54 81 50 82 51 83 53 84 55 85 52 86
REMARK H PARENT 17 5 10 23 22 29 72 48 46 59
REMARK Flexibility Score: inf
ROOT
ATOM      1  C   UNL A   1      35.658  21.772  24.331  1.00  0.00     0.116 C 
ENDROOT
BRANCH   1   2
ATOM      2  N   UNL A   1      35.221  22.968  23.643  1.00  0.00    -0.356 N 
ATOM      3  C   UNL A   1      34.064  23.218  22.971  1.00  0.00     0.219 C 
ATOM      4  O   UNL A   1      33.956  24.295  22.382  1.00  0.00    -0.275 OA
ATOM      5  H   UNL A   1      35.860  23.718  23.666  1.00  0.00     0.163 HD
BRANCH   3   6
ATOM      6  C   UNL A   1      32.923  22.216  22.975  1.00  0.00     0.100 C 
BRANCH   6   7
ATOM      7  C   UNL A   1      31.736  22.592  23.866  1.00  0.00     0.010 C 
BRANCH   7   8
ATOM      8  C   UNL A   1      31.722  22.009  25.278  1.00  0.00     0.004 C 
BRANCH   8   9
ATOM      9  C   UNL A   1      32.581  22.740  26.321  1.00  0.00     0.037 C 
BRANCH   9  10
ATOM     10  C   UNL A   1      31.901  23.943  26.976  1.00  0.00     0.144 C 
BRANCH  10  11
ATOM     11  C   UNL A   1      31.949  25.157  26.073  1.00  0.00    -0.019 A 
ATOM     12  C   UNL A   1      33.096  28.894  22.637  1.00  0.00     0.153 C 
ATOM     13  N   UNL A   1      32.006  28.136  23.190  1.00  0.00    -0.315 N 
ATOM     14  C   UNL A   1      30.670  28.259  22.797  1.00  0.00     0.231 C 
ATOM     15  C   UNL A   1      32.156  27.170  24.184  1.00  0.00     0.047 A 
ATOM     16  O   UNL A   1      30.217  29.012  21.953  1.00  0.00    -0.274 OA
ATOM     17  C   UNL A   1      29.860  27.255  23.627  1.00  0.00     0.138 C 
ATOM     18  C   UNL A   1      30.911  26.624  24.488  1.00  0.00    -0.014 A 
ATOM     19  C   UNL A   1      33.312  26.748  24.812  1.00  0.00     0.027 A 
ATOM     20  C   UNL A   1      30.784  25.625  25.435  1.00  0.00     0.012 A 
ATOM     21  C   UNL A   1      33.201  25.737  25.765  1.00  0.00     0.008 A 
ENDBRANCH  10  11
BRANCH  10  22
ATOM     22  O   UNL A   1      30.545  23.594  27.249  1.00  0.00    -0.388 OA
ATOM     23  H   UNL A   1      30.519  22.906  27.932  1.00  0.00     0.211 HD
ENDBRANCH  10  22
ENDBRANCH   9  10
ENDBRANCH   8   9
ENDBRANCH   7   8
ENDBRANCH   6   7
ENDBRANCH   3   6
ENDBRANCH   1   2
BRANCH   1  24
ATOM     24  C   UNL A   1      37.174  21.791  24.547  1.00  0.00     0.023 C 
BRANCH  24  25
ATOM     25  C   UNL A   1      37.799  20.432  24.817  1.00  0.00     0.023 C 
BRANCH  25  26
ATOM     26  C   UNL A   1      38.827  20.431  25.932  1.00  0.00     0.116 C 
BRANCH  26  27
ATOM     27  N   UNL A   1      39.870  19.427  25.773  1.00  0.00    -0.352 N 
ATOM     28  C   UNL A   1      41.217  19.563  26.019  1.00  0.00     0.251 C 
ATOM     29  H   UNL A   1      39.576  18.543  25.452  1.00  0.00     0.163 HD
ATOM     30  O   UNL A   1      42.002  18.660  25.750  1.00  0.00    -0.269 OA
BRANCH  28  31
ATOM     31  C   UNL A   1      41.708  20.844  26.570  1.00  0.00     0.039 A 
ATOM     32  C   UNL A   1      42.086  21.860  25.693  1.00  0.00     0.014 A 
ATOM     33  C   UNL A   1      41.706  21.063  27.950  1.00  0.00     0.014 A 
ATOM     34  C   UNL A   1      42.403  23.119  26.203  1.00  0.00     0.010 A 
ATOM     35  C   UNL A   1      41.904  22.346  28.442  1.00  0.00     0.010 A 
ATOM     36  C   UNL A   1      42.279  23.382  27.578  1.00  0.00    -0.014 A 
BRANCH  36  37
ATOM     37  C   UNL A   1      42.583  24.726  28.130  1.00  0.00     0.031 A 
ATOM     38  C   UNL A   1      43.999  25.079  28.506  1.00  0.00     0.074 A 
ATOM     39  C   UNL A   1      41.587  25.613  28.328  1.00  0.00     0.049 A 
ATOM     40  N   UNL A   1      44.468  26.197  28.999  1.00  0.00    -0.248 NA
ATOM     41  C   UNL A   1      45.018  24.029  28.340  1.00  0.00     0.031 C 
ATOM     42  C   UNL A   1      40.165  25.362  28.080  1.00  0.00     0.029 A 
ATOM     43  N   UNL A   1      41.618  26.907  28.783  1.00  0.00    -0.354 N 
ATOM     44  C   UNL A   1      45.823  25.975  29.214  1.00  0.00     0.074 A 
ATOM     45  C   UNL A   1      46.090  24.599  28.867  1.00  0.00     0.031 C 
ATOM     46  C   UNL A   1      39.467  26.477  28.348  1.00  0.00     0.029 A 
ATOM     47  C   UNL A   1      40.384  27.511  28.819  1.00  0.00     0.049 A 
ATOM     48  H   UNL A   1      42.447  27.361  29.059  1.00  0.00     0.167 HD
ATOM     49  C   UNL A   1      46.767  26.850  29.629  1.00  0.00     0.037 A 
ATOM     50  C   UNL A   1      40.034  28.759  29.184  1.00  0.00     0.037 A 
ATOM     51  C   UNL A   1      46.506  28.231  29.928  1.00  0.00     0.049 A 
ATOM     52  C   UNL A   1      41.111  29.719  29.612  1.00  0.00     0.074 A 
ATOM     53  C   UNL A   1      47.407  29.223  30.268  1.00  0.00     0.029 A 
ATOM     54  N   UNL A   1      45.248  28.814  29.922  1.00  0.00    -0.354 N 
ATOM     55  N   UNL A   1      42.405  29.525  29.707  1.00  0.00    -0.248 NA
ATOM     56  C   UNL A   1      40.682  31.078  29.970  1.00  0.00     0.031 C 
ATOM     57  C   UNL A   1      46.688  30.394  30.523  1.00  0.00     0.029 A 
ATOM     58  C   UNL A   1      45.346  30.146  30.285  1.00  0.00     0.049 A 
ATOM     59  H   UNL A   1      44.410  28.349  29.695  1.00  0.00     0.167 HD
ATOM     60  C   UNL A   1      42.944  30.739  30.112  1.00  0.00     0.074 A 
ATOM     61  C   UNL A   1      41.840  31.671  30.216  1.00  0.00     0.031 C 
ATOM     62  C   UNL A   1      44.234  31.057  30.379  1.00  0.00     0.037 A 
BRANCH  49  63
ATOM     63  C   UNL A   1      48.174  26.345  29.771  1.00  0.00     0.057 A 
ATOM     64  C   UNL A   1      49.091  26.396  28.713  1.00  0.00     0.134 A 
ATOM     65  C   UNL A   1      48.631  25.849  30.999  1.00  0.00     0.134 A 
ATOM     66  F   UNL A   1      48.714  26.845  27.506  1.00  0.00    -0.206 F 
ATOM     67  C   UNL A   1      50.407  25.955  28.865  1.00  0.00     0.040 A 
ATOM     68  C   UNL A   1      49.952  25.432  31.171  1.00  0.00     0.040 A 
ATOM     69  F   UNL A   1      47.807  25.774  32.054  1.00  0.00    -0.206 F 
ATOM     70  C   UNL A   1      50.843  25.481  30.100  1.00  0.00     0.006 A 
ENDBRANCH  49  63
BRANCH  50  71
ATOM     71  C   UNL A   1      38.610  29.183  29.150  1.00  0.00     0.057 A 
ATOM     72  C   UNL A   1      38.021  29.664  27.974  1.00  0.00     0.134 A 
ATOM     73  C   UNL A   1      37.813  29.153  30.301  1.00  0.00     0.134 A 
ATOM     74  F   UNL A   1      38.736  29.733  26.842  1.00  0.00    -0.206 F 
ATOM     75  C   UNL A   1      36.706  30.133  27.951  1.00  0.00     0.040 A 
ATOM     76  C   UNL A   1      36.488  29.590  30.285  1.00  0.00     0.040 A 
ATOM     77  F   UNL A   1      38.312  28.696  31.458  1.00  0.00    -0.206 F 
ATOM     78  C   UNL A   1      35.934  30.094  29.110  1.00  0.00     0.006 A 
ENDBRANCH  50  71
BRANCH  62  79
ATOM     79  C   UNL A   1      44.522  32.474  30.784  1.00  0.00     0.057 A 
ATOM     80  C   UNL A   1      44.533  32.871  32.127  1.00  0.00     0.134 A 
ATOM     81  C   UNL A   1      44.823  33.444  29.820  1.00  0.00     0.134 A 
ATOM     82  F   UNL A   1      44.244  31.993  33.099  1.00  0.00    -0.206 F 
ATOM     83  C   UNL A   1      44.801  34.191  32.494  1.00  0.00     0.040 A 
ATOM     84  C   UNL A   1      45.124  34.757  30.176  1.00  0.00     0.040 A 
ATOM     85  F   UNL A   1      44.843  33.126  28.516  1.00  0.00    -0.206 F 
ATOM     86  C   UNL A   1      45.104  35.136  31.517  1.00  0.00     0.006 A 
ENDBRANCH  62  79
ENDBRANCH  36  37
ENDBRANCH  28  31
ENDBRANCH  26  27
ENDBRANCH  25  26
ENDBRANCH  24  25
ENDBRANCH   1  24
TORSDOF 17
ENDMDL
