MODEL 1
REMARK VINA RESULT:     -12.2      0.000      0.000
REMARK SMILES Cc1ccc(-c2ncccc2C(=O)NCCCCNC(=O)c2ccc(-c3c4nc(c(-c5c(F)cccc5F)c5ccc([nH]5)c(-c5c(F)cccc5F)c5nc(c(-c6c(F)cccc6F)c6ccc3[nH]6)C=C5)C=C4)cc2)c(C)c1
REMARK SMILES IDX 17 1 16 2 15 3 14 4 12 5 13 6 11 8 6 9 7 10 8 11 10 12 9 13
REMARK SMILES IDX 5 14 1 15 2 16 3 17 78 18 4 19 76 20 77 21 18 22 19 23 20 24
REMARK SMILES IDX 21 26 22 27 23 28 75 29 24 30 74 31 25 32 26 33 27 34 68 35
REMARK SMILES IDX 28 36 73 37 67 38 69 39 29 40 72 41 66 42 65 43 30 45 56 46
REMARK SMILES IDX 39 47 55 48 40 49 43 50 54 51 70 52 41 53 42 54 53 56 71 57
REMARK SMILES IDX 44 58 31 59 32 60 37 61 33 62 34 63 36 64 38 65 35 66 57 67
REMARK SMILES IDX 58 68 63 69 59 70 60 71 62 72 64 73 61 74 45 75 46 76 51 77
REMARK SMILES IDX 47 78 48 79 50 80 52 81 49 82
REMARK H PARENT 14 7 19 25 69 44 43 55
REMARK Flexibility Score: inf
ROOT
ATOM      1  C   UNL A   1      31.371  32.121  26.577  1.00  0.00     0.023 C 
ENDROOT
BRANCH   1   2
ATOM      2  C   UNL A   1      31.695  30.851  25.776  1.00  0.00     0.023 C 
BRANCH   2   3
ATOM      3  C   UNL A   1      32.590  29.856  26.514  1.00  0.00     0.116 C 
BRANCH   3   4
ATOM      4  N   UNL A   1      31.831  28.701  26.939  1.00  0.00    -0.352 N 
ATOM      5  C   UNL A   1      31.744  27.384  26.564  1.00  0.00     0.253 C 
ATOM      6  O   UNL A   1      30.924  26.752  27.231  1.00  0.00    -0.269 OA
ATOM      7  H   UNL A   1      31.224  28.912  27.685  1.00  0.00     0.163 HD
BRANCH   5   8
ATOM      8  C   UNL A   1      32.559  26.716  25.490  1.00  0.00     0.066 A 
ATOM      9  C   UNL A   1      32.158  26.765  24.136  1.00  0.00     0.083 A 
ATOM     10  N   UNL A   1      32.800  26.068  23.145  1.00  0.00    -0.255 NA
ATOM     11  C   UNL A   1      33.875  25.331  23.471  1.00  0.00     0.112 A 
ATOM     12  C   UNL A   1      33.733  25.998  25.751  1.00  0.00     0.018 A 
ATOM     13  C   UNL A   1      34.387  25.282  24.746  1.00  0.00     0.021 A 
BRANCH   9  14
ATOM     14  C   UNL A   1      31.074  27.609  23.591  1.00  0.00     0.004 A 
ATOM     15  C   UNL A   1      28.025  30.242  21.992  1.00  0.00     0.044 C 
ATOM     16  C   UNL A   1      29.089  29.328  22.522  1.00  0.00    -0.051 A 
ATOM     17  C   UNL A   1      30.437  29.662  22.416  1.00  0.00     0.004 A 
ATOM     18  C   UNL A   1      28.736  28.114  23.126  1.00  0.00     0.007 A 
ATOM     19  C   UNL A   1      31.413  28.808  22.929  1.00  0.00     0.011 A 
ATOM     20  C   UNL A   1      29.710  27.253  23.670  1.00  0.00    -0.041 A 
ATOM     21  C   UNL A   1      29.244  25.953  24.267  1.00  0.00     0.045 C 
ENDBRANCH   9  14
ENDBRANCH   5   8
ENDBRANCH   3   4
ENDBRANCH   2   3
ENDBRANCH   1   2
BRANCH   1  22
ATOM     22  C   UNL A   1      32.570  32.816  27.218  1.00  0.00     0.116 C 
BRANCH  22  23
ATOM     23  N   UNL A   1      32.294  34.185  27.626  1.00  0.00    -0.352 N 
ATOM     24  C   UNL A   1      32.950  34.954  28.557  1.00  0.00     0.251 C 
ATOM     25  H   UNL A   1      31.534  34.620  27.175  1.00  0.00     0.163 HD
ATOM     26  O   UNL A   1      32.530  36.065  28.852  1.00  0.00    -0.269 OA
BRANCH  24  27
ATOM     27  C   UNL A   1      34.144  34.408  29.233  1.00  0.00     0.039 A 
ATOM     28  C   UNL A   1      33.978  33.735  30.445  1.00  0.00     0.014 A 
ATOM     29  C   UNL A   1      35.413  34.538  28.662  1.00  0.00     0.014 A 
ATOM     30  C   UNL A   1      35.078  33.130  31.054  1.00  0.00     0.010 A 
ATOM     31  C   UNL A   1      36.496  33.882  29.236  1.00  0.00     0.010 A 
ATOM     32  C   UNL A   1      36.338  33.170  30.434  1.00  0.00    -0.014 A 
BRANCH  32  33
ATOM     33  C   UNL A   1      37.502  32.464  31.022  1.00  0.00     0.031 A 
ATOM     34  C   UNL A   1      38.117  32.957  32.300  1.00  0.00     0.074 A 
ATOM     35  C   UNL A   1      38.042  31.418  30.370  1.00  0.00     0.049 A 
ATOM     36  N   UNL A   1      39.168  32.509  32.938  1.00  0.00    -0.248 NA
ATOM     37  C   UNL A   1      37.482  34.124  32.930  1.00  0.00     0.031 C 
ATOM     38  C   UNL A   1      37.561  30.873  29.098  1.00  0.00     0.029 A 
ATOM     39  N   UNL A   1      39.119  30.629  30.683  1.00  0.00    -0.354 N 
ATOM     40  C   UNL A   1      39.327  33.345  34.035  1.00  0.00     0.074 A 
ATOM     41  C   UNL A   1      38.298  34.360  33.945  1.00  0.00     0.031 C 
ATOM     42  C   UNL A   1      38.320  29.819  28.758  1.00  0.00     0.029 A 
ATOM     43  C   UNL A   1      39.361  29.637  29.765  1.00  0.00     0.049 A 
ATOM     44  H   UNL A   1      39.668  30.762  31.490  1.00  0.00     0.167 HD
ATOM     45  C   UNL A   1      40.230  33.261  35.040  1.00  0.00     0.037 A 
ATOM     46  C   UNL A   1      40.312  28.686  29.742  1.00  0.00     0.037 A 
ATOM     47  C   UNL A   1      41.241  32.241  35.136  1.00  0.00     0.049 A 
ATOM     48  C   UNL A   1      41.315  28.622  30.859  1.00  0.00     0.074 A 
ATOM     49  C   UNL A   1      42.172  32.037  36.139  1.00  0.00     0.029 A 
ATOM     50  N   UNL A   1      41.453  31.252  34.186  1.00  0.00    -0.354 N 
ATOM     51  N   UNL A   1      41.417  29.381  31.922  1.00  0.00    -0.248 NA
ATOM     52  C   UNL A   1      42.333  27.566  30.773  1.00  0.00     0.031 C 
ATOM     53  C   UNL A   1      42.972  30.947  35.778  1.00  0.00     0.029 A 
ATOM     54  C   UNL A   1      42.512  30.446  34.571  1.00  0.00     0.049 A 
ATOM     55  H   UNL A   1      40.929  31.140  33.361  1.00  0.00     0.167 HD
ATOM     56  C   UNL A   1      42.490  28.880  32.647  1.00  0.00     0.074 A 
ATOM     57  C   UNL A   1      43.000  27.745  31.904  1.00  0.00     0.031 C 
ATOM     58  C   UNL A   1      43.004  29.318  33.821  1.00  0.00     0.037 A 
BRANCH  45  59
ATOM     59  C   UNL A   1      40.155  34.307  36.115  1.00  0.00     0.057 A 
ATOM     60  C   UNL A   1      40.884  35.501  36.034  1.00  0.00     0.134 A 
ATOM     61  C   UNL A   1      39.349  34.117  37.244  1.00  0.00     0.134 A 
ATOM     62  F   UNL A   1      41.686  35.737  34.985  1.00  0.00    -0.206 F 
ATOM     63  C   UNL A   1      40.842  36.453  37.054  1.00  0.00     0.040 A 
ATOM     64  C   UNL A   1      39.278  35.075  38.258  1.00  0.00     0.040 A 
ATOM     65  F   UNL A   1      38.621  32.999  37.384  1.00  0.00    -0.206 F 
ATOM     66  C   UNL A   1      40.034  36.242  38.169  1.00  0.00     0.006 A 
ENDBRANCH  45  59
BRANCH  46  67
ATOM     67  C   UNL A   1      40.334  27.689  28.644  1.00  0.00     0.057 A 
ATOM     68  C   UNL A   1      41.076  27.922  27.481  1.00  0.00     0.134 A 
ATOM     69  C   UNL A   1      39.627  26.484  28.729  1.00  0.00     0.134 A 
ATOM     70  F   UNL A   1      41.759  29.067  27.335  1.00  0.00    -0.206 F 
ATOM     71  C   UNL A   1      41.106  27.000  26.435  1.00  0.00     0.040 A 
ATOM     72  C   UNL A   1      39.665  25.542  27.700  1.00  0.00     0.040 A 
ATOM     73  F   UNL A   1      38.903  26.199  29.821  1.00  0.00    -0.206 F 
ATOM     74  C   UNL A   1      40.404  25.801  26.546  1.00  0.00     0.006 A 
ENDBRANCH  46  67
BRANCH  58  75
ATOM     75  C   UNL A   1      44.157  28.547  34.392  1.00  0.00     0.057 A 
ATOM     76  C   UNL A   1      45.486  28.898  34.123  1.00  0.00     0.134 A 
ATOM     77  C   UNL A   1      43.934  27.460  35.246  1.00  0.00     0.134 A 
ATOM     78  F   UNL A   1      45.766  29.919  33.301  1.00  0.00    -0.206 F 
ATOM     79  C   UNL A   1      46.553  28.182  34.670  1.00  0.00     0.040 A 
ATOM     80  C   UNL A   1      44.991  26.752  35.817  1.00  0.00     0.040 A 
ATOM     81  F   UNL A   1      42.684  27.076  35.548  1.00  0.00    -0.206 F 
ATOM     82  C   UNL A   1      46.306  27.109  35.525  1.00  0.00     0.006 A 
ENDBRANCH  58  75
ENDBRANCH  32  33
ENDBRANCH  24  27
ENDBRANCH  22  23
ENDBRANCH   1  22
TORSDOF 12
ENDMDL
MODEL 2
REMARK VINA RESULT:     -12.2      4.764      9.463
REMARK SMILES Cc1ccc(-c2ncccc2C(=O)NCCCCNC(=O)c2ccc(-c3c4nc(c(-c5c(F)cccc5F)c5ccc([nH]5)c(-c5c(F)cccc5F)c5nc(c(-c6c(F)cccc6F)c6ccc3[nH]6)C=C5)C=C4)cc2)c(C)c1
REMARK SMILES IDX 17 1 16 2 15 3 14 4 12 5 13 6 11 8 6 9 7 10 8 11 10 12 9 13
REMARK SMILES IDX 5 14 1 15 2 16 3 17 78 18 4 19 76 20 77 21 18 22 19 23 20 24
REMARK SMILES IDX 21 26 22 27 23 28 75 29 24 30 74 31 25 32 26 33 27 34 68 35
REMARK SMILES IDX 28 36 73 37 67 38 69 39 29 40 72 41 66 42 65 43 30 45 56 46
REMARK SMILES IDX 39 47 55 48 40 49 43 50 54 51 70 52 41 53 42 54 53 56 71 57
REMARK SMILES IDX 44 58 31 59 32 60 37 61 33 62 34 63 36 64 38 65 35 66 57 67
REMARK SMILES IDX 58 68 63 69 59 70 60 71 62 72 64 73 61 74 45 75 46 76 51 77
REMARK SMILES IDX 47 78 48 79 50 80 52 81 49 82
REMARK H PARENT 14 7 19 25 69 44 43 55
REMARK Flexibility Score: inf
ROOT
ATOM      1  C   UNL A   1      37.837  20.008  24.968  1.00  0.00     0.023 C 
ENDROOT
BRANCH   1   2
ATOM      2  C   UNL A   1      37.033  21.230  24.499  1.00  0.00     0.023 C 
BRANCH   2   3
ATOM      3  C   UNL A   1      36.861  22.314  25.563  1.00  0.00     0.116 C 
BRANCH   3   4
ATOM      4  N   UNL A   1      35.842  21.937  26.518  1.00  0.00    -0.352 N 
ATOM      5  C   UNL A   1      34.528  21.545  26.457  1.00  0.00     0.253 C 
ATOM      6  O   UNL A   1      34.045  21.327  27.568  1.00  0.00    -0.269 OA
ATOM      7  H   UNL A   1      36.174  21.971  27.444  1.00  0.00     0.163 HD
BRANCH   5   8
ATOM      8  C   UNL A   1      33.723  21.348  25.202  1.00  0.00     0.066 A 
ATOM      9  C   UNL A   1      33.028  22.424  24.606  1.00  0.00     0.083 A 
ATOM     10  N   UNL A   1      32.185  22.264  23.536  1.00  0.00    -0.255 NA
ATOM     11  C   UNL A   1      32.037  21.036  23.014  1.00  0.00     0.112 A 
ATOM     12  C   UNL A   1      33.591  20.109  24.560  1.00  0.00     0.018 A 
ATOM     13  C   UNL A   1      32.729  19.940  23.475  1.00  0.00     0.021 A 
BRANCH   9  14
ATOM     14  C   UNL A   1      33.164  23.847  24.981  1.00  0.00     0.004 A 
ATOM     15  C   UNL A   1      33.743  28.023  25.987  1.00  0.00     0.044 C 
ATOM     16  C   UNL A   1      33.535  26.585  25.617  1.00  0.00    -0.051 A 
ATOM     17  C   UNL A   1      34.258  26.002  24.578  1.00  0.00     0.004 A 
ATOM     18  C   UNL A   1      32.597  25.809  26.309  1.00  0.00     0.007 A 
ATOM     19  C   UNL A   1      34.064  24.659  24.258  1.00  0.00     0.011 A 
ATOM     20  C   UNL A   1      32.407  24.446  26.012  1.00  0.00    -0.041 A 
ATOM     21  C   UNL A   1      31.352  23.698  26.782  1.00  0.00     0.045 C 
ENDBRANCH   9  14
ENDBRANCH   5   8
ENDBRANCH   3   4
ENDBRANCH   2   3
ENDBRANCH   1   2
BRANCH   1  22
ATOM     22  C   UNL A   1      38.999  20.311  25.911  1.00  0.00     0.116 C 
BRANCH  22  23
ATOM     23  N   UNL A   1      40.098  19.364  25.797  1.00  0.00    -0.352 N 
ATOM     24  C   UNL A   1      41.433  19.558  26.058  1.00  0.00     0.251 C 
ATOM     25  H   UNL A   1      39.851  18.461  25.491  1.00  0.00     0.163 HD
ATOM     26  O   UNL A   1      42.246  18.676  25.820  1.00  0.00    -0.269 OA
BRANCH  24  27
ATOM     27  C   UNL A   1      41.883  20.861  26.587  1.00  0.00     0.039 A 
ATOM     28  C   UNL A   1      42.283  21.849  25.684  1.00  0.00     0.014 A 
ATOM     29  C   UNL A   1      41.884  21.115  27.961  1.00  0.00     0.014 A 
ATOM     30  C   UNL A   1      42.622  23.117  26.155  1.00  0.00     0.010 A 
ATOM     31  C   UNL A   1      42.162  22.397  28.424  1.00  0.00     0.010 A 
ATOM     32  C   UNL A   1      42.530  23.409  27.525  1.00  0.00    -0.014 A 
BRANCH  32  33
ATOM     33  C   UNL A   1      42.806  24.773  28.037  1.00  0.00     0.031 A 
ATOM     34  C   UNL A   1      44.204  25.170  28.413  1.00  0.00     0.074 A 
ATOM     35  C   UNL A   1      41.785  25.631  28.222  1.00  0.00     0.049 A 
ATOM     36  N   UNL A   1      44.635  26.292  28.927  1.00  0.00    -0.248 NA
ATOM     37  C   UNL A   1      45.254  24.160  28.206  1.00  0.00     0.031 C 
ATOM     38  C   UNL A   1      40.377  25.347  27.937  1.00  0.00     0.029 A 
ATOM     39  N   UNL A   1      41.775  26.916  28.702  1.00  0.00    -0.354 N 
ATOM     40  C   UNL A   1      46.000  26.121  29.116  1.00  0.00     0.074 A 
ATOM     41  C   UNL A   1      46.315  24.767  28.714  1.00  0.00     0.031 C 
ATOM     42  C   UNL A   1      39.645  26.437  28.217  1.00  0.00     0.029 A 
ATOM     43  C   UNL A   1      40.524  27.482  28.734  1.00  0.00     0.049 A 
ATOM     44  H   UNL A   1      42.587  27.388  28.997  1.00  0.00     0.167 HD
ATOM     45  C   UNL A   1      46.913  27.017  29.561  1.00  0.00     0.037 A 
ATOM     46  C   UNL A   1      40.133  28.706  29.132  1.00  0.00     0.037 A 
ATOM     47  C   UNL A   1      46.599  28.368  29.945  1.00  0.00     0.049 A 
ATOM     48  C   UNL A   1      41.160  29.678  29.638  1.00  0.00     0.074 A 
ATOM     49  C   UNL A   1      47.458  29.371  30.361  1.00  0.00     0.029 A 
ATOM     50  N   UNL A   1      45.320  28.904  29.962  1.00  0.00    -0.354 N 
ATOM     51  N   UNL A   1      42.456  29.524  29.754  1.00  0.00    -0.248 NA
ATOM     52  C   UNL A   1      40.669  30.995  30.064  1.00  0.00     0.031 C 
ATOM     53  C   UNL A   1      46.693  30.503  30.665  1.00  0.00     0.029 A 
ATOM     54  C   UNL A   1      45.364  30.219  30.398  1.00  0.00     0.049 A 
ATOM     55  H   UNL A   1      44.502  28.423  29.702  1.00  0.00     0.167 HD
ATOM     56  C   UNL A   1      42.941  30.731  30.240  1.00  0.00     0.074 A 
ATOM     57  C   UNL A   1      41.799  31.610  30.387  1.00  0.00     0.031 C 
ATOM     58  C   UNL A   1      44.216  31.081  30.534  1.00  0.00     0.037 A 
BRANCH  45  59
ATOM     59  C   UNL A   1      48.338  26.553  29.651  1.00  0.00     0.057 A 
ATOM     60  C   UNL A   1      48.829  25.895  30.786  1.00  0.00     0.134 A 
ATOM     61  C   UNL A   1      49.229  26.768  28.592  1.00  0.00     0.134 A 
ATOM     62  F   UNL A   1      48.030  25.670  31.840  1.00  0.00    -0.206 F 
ATOM     63  C   UNL A   1      50.165  25.500  30.881  1.00  0.00     0.040 A 
ATOM     64  C   UNL A   1      50.561  26.354  28.665  1.00  0.00     0.040 A 
ATOM     65  F   UNL A   1      48.825  27.388  27.474  1.00  0.00    -0.206 F 
ATOM     66  C   UNL A   1      51.034  25.727  29.816  1.00  0.00     0.006 A 
ENDBRANCH  45  59
BRANCH  46  67
ATOM     67  C   UNL A   1      38.705  29.096  29.025  1.00  0.00     0.057 A 
ATOM     68  C   UNL A   1      38.177  29.547  27.810  1.00  0.00     0.134 A 
ATOM     69  C   UNL A   1      37.837  29.022  30.120  1.00  0.00     0.134 A 
ATOM     70  F   UNL A   1      38.965  29.655  26.730  1.00  0.00    -0.206 F 
ATOM     71  C   UNL A   1      36.839  29.923  27.689  1.00  0.00     0.040 A 
ATOM     72  C   UNL A   1      36.491  29.375  30.009  1.00  0.00     0.040 A 
ATOM     73  F   UNL A   1      38.282  28.591  31.309  1.00  0.00    -0.206 F 
ATOM     74  C   UNL A   1      35.990  29.831  28.790  1.00  0.00     0.006 A 
ENDBRANCH  46  67
BRANCH  58  75
ATOM     75  C   UNL A   1      44.447  32.483  31.013  1.00  0.00     0.057 A 
ATOM     76  C   UNL A   1      44.675  33.540  30.123  1.00  0.00     0.134 A 
ATOM     77  C   UNL A   1      44.407  32.785  32.380  1.00  0.00     0.134 A 
ATOM     78  F   UNL A   1      44.740  33.314  28.802  1.00  0.00    -0.206 F 
ATOM     79  C   UNL A   1      44.875  34.845  30.577  1.00  0.00     0.040 A 
ATOM     80  C   UNL A   1      44.581  34.088  32.844  1.00  0.00     0.040 A 
ATOM     81  F   UNL A   1      44.186  31.818  33.284  1.00  0.00    -0.206 F 
ATOM     82  C   UNL A   1      44.822  35.122  31.942  1.00  0.00     0.006 A 
ENDBRANCH  58  75
ENDBRANCH  32  33
ENDBRANCH  24  27
ENDBRANCH  22  23
ENDBRANCH   1  22
TORSDOF 12
ENDMDL
MODEL 3
REMARK VINA RESULT:     -12.2      0.636      1.482
REMARK SMILES Cc1ccc(-c2ncccc2C(=O)NCCCCNC(=O)c2ccc(-c3c4nc(c(-c5c(F)cccc5F)c5ccc([nH]5)c(-c5c(F)cccc5F)c5nc(c(-c6c(F)cccc6F)c6ccc3[nH]6)C=C5)C=C4)cc2)c(C)c1
REMARK SMILES IDX 17 1 16 2 15 3 14 4 12 5 13 6 11 8 6 9 7 10 8 11 10 12 9 13
REMARK SMILES IDX 5 14 1 15 2 16 3 17 78 18 4 19 76 20 77 21 18 22 19 23 20 24
REMARK SMILES IDX 21 26 22 27 23 28 75 29 24 30 74 31 25 32 26 33 27 34 68 35
REMARK SMILES IDX 28 36 73 37 67 38 69 39 29 40 72 41 66 42 65 43 30 45 56 46
REMARK SMILES IDX 39 47 55 48 40 49 43 50 54 51 70 52 41 53 42 54 53 56 71 57
REMARK SMILES IDX 44 58 31 59 32 60 37 61 33 62 34 63 36 64 38 65 35 66 57 67
REMARK SMILES IDX 58 68 63 69 59 70 60 71 62 72 64 73 61 74 45 75 46 76 51 77
REMARK SMILES IDX 47 78 48 79 50 80 52 81 49 82
REMARK H PARENT 14 7 19 25 69 44 43 55
REMARK Flexibility Score: inf
ROOT
ATOM      1  C   UNL A   1      31.364  32.099  26.679  1.00  0.00     0.023 C 
ENDROOT
BRANCH   1   2
ATOM      2  C   UNL A   1      31.597  30.901  25.746  1.00  0.00     0.023 C 
BRANCH   2   3
ATOM      3  C   UNL A   1      32.570  29.858  26.297  1.00  0.00     0.116 C 
BRANCH   3   4
ATOM      4  N   UNL A   1      31.856  28.701  26.791  1.00  0.00    -0.352 N 
ATOM      5  C   UNL A   1      31.784  27.371  26.461  1.00  0.00     0.253 C 
ATOM      6  O   UNL A   1      31.009  26.743  27.183  1.00  0.00    -0.269 OA
ATOM      7  H   UNL A   1      31.277  28.924  27.554  1.00  0.00     0.163 HD
BRANCH   5   8
ATOM      8  C   UNL A   1      32.569  26.686  25.376  1.00  0.00     0.066 A 
ATOM      9  C   UNL A   1      32.141  26.733  24.030  1.00  0.00     0.083 A 
ATOM     10  N   UNL A   1      32.755  26.023  23.030  1.00  0.00    -0.255 NA
ATOM     11  C   UNL A   1      33.825  25.272  23.339  1.00  0.00     0.112 A 
ATOM     12  C   UNL A   1      33.738  25.953  25.617  1.00  0.00     0.018 A 
ATOM     13  C   UNL A   1      34.362  25.223  24.604  1.00  0.00     0.021 A 
BRANCH   9  14
ATOM     14  C   UNL A   1      31.059  27.589  23.501  1.00  0.00     0.004 A 
ATOM     15  C   UNL A   1      28.015  30.256  21.948  1.00  0.00     0.044 C 
ATOM     16  C   UNL A   1      29.077  29.330  22.463  1.00  0.00    -0.051 A 
ATOM     17  C   UNL A   1      30.427  29.648  22.332  1.00  0.00     0.004 A 
ATOM     18  C   UNL A   1      28.720  28.122  23.076  1.00  0.00     0.007 A 
ATOM     19  C   UNL A   1      31.402  28.782  22.830  1.00  0.00     0.011 A 
ATOM     20  C   UNL A   1      29.692  27.251  23.604  1.00  0.00    -0.041 A 
ATOM     21  C   UNL A   1      29.221  25.958  24.214  1.00  0.00     0.045 C 
ENDBRANCH   9  14
ENDBRANCH   5   8
ENDBRANCH   3   4
ENDBRANCH   2   3
ENDBRANCH   1   2
BRANCH   1  22
ATOM     22  C   UNL A   1      32.627  32.744  27.245  1.00  0.00     0.116 C 
BRANCH  22  23
ATOM     23  N   UNL A   1      32.437  34.128  27.650  1.00  0.00    -0.352 N 
ATOM     24  C   UNL A   1      33.134  34.855  28.585  1.00  0.00     0.251 C 
ATOM     25  H   UNL A   1      31.711  34.610  27.192  1.00  0.00     0.163 HD
ATOM     26  O   UNL A   1      32.784  35.991  28.875  1.00  0.00    -0.269 OA
BRANCH  24  27
ATOM     27  C   UNL A   1      34.285  34.234  29.271  1.00  0.00     0.039 A 
ATOM     28  C   UNL A   1      34.039  33.344  30.319  1.00  0.00     0.014 A 
ATOM     29  C   UNL A   1      35.594  34.508  28.866  1.00  0.00     0.014 A 
ATOM     30  C   UNL A   1      35.106  32.675  30.919  1.00  0.00     0.010 A 
ATOM     31  C   UNL A   1      36.650  33.794  29.421  1.00  0.00     0.010 A 
ATOM     32  C   UNL A   1      36.415  32.870  30.450  1.00  0.00    -0.014 A 
BRANCH  32  33
ATOM     33  C   UNL A   1      37.552  32.107  31.018  1.00  0.00     0.031 A 
ATOM     34  C   UNL A   1      38.058  32.418  32.397  1.00  0.00     0.074 A 
ATOM     35  C   UNL A   1      38.169  31.176  30.265  1.00  0.00     0.049 A 
ATOM     36  N   UNL A   1      39.071  31.902  33.043  1.00  0.00    -0.248 NA
ATOM     37  C   UNL A   1      37.344  33.470  33.137  1.00  0.00     0.031 C 
ATOM     38  C   UNL A   1      37.800  30.815  28.895  1.00  0.00     0.029 A 
ATOM     39  N   UNL A   1      39.243  30.370  30.544  1.00  0.00    -0.354 N 
ATOM     40  C   UNL A   1      39.123  32.571  34.258  1.00  0.00     0.074 A 
ATOM     41  C   UNL A   1      38.076  33.570  34.236  1.00  0.00     0.031 C 
ATOM     42  C   UNL A   1      38.612  29.836  28.466  1.00  0.00     0.029 A 
ATOM     43  C   UNL A   1      39.581  29.527  29.514  1.00  0.00     0.049 A 
ATOM     44  H   UNL A   1      39.726  30.393  31.401  1.00  0.00     0.167 HD
ATOM     45  C   UNL A   1      39.952  32.358  35.307  1.00  0.00     0.037 A 
ATOM     46  C   UNL A   1      40.559  28.607  29.428  1.00  0.00     0.037 A 
ATOM     47  C   UNL A   1      40.982  31.353  35.333  1.00  0.00     0.049 A 
ATOM     48  C   UNL A   1      41.478  28.399  30.597  1.00  0.00     0.074 A 
ATOM     49  C   UNL A   1      41.843  31.022  36.365  1.00  0.00     0.029 A 
ATOM     50  N   UNL A   1      41.293  30.518  34.270  1.00  0.00    -0.354 N 
ATOM     51  N   UNL A   1      41.478  28.997  31.764  1.00  0.00    -0.248 NA
ATOM     52  C   UNL A   1      42.529  27.386  30.439  1.00  0.00     0.031 C 
ATOM     53  C   UNL A   1      42.698  30.011  35.914  1.00  0.00     0.029 A 
ATOM     54  C   UNL A   1      42.344  29.683  34.615  1.00  0.00     0.049 A 
ATOM     55  H   UNL A   1      40.835  30.517  33.399  1.00  0.00     0.167 HD
ATOM     56  C   UNL A   1      42.509  28.414  32.489  1.00  0.00     0.074 A 
ATOM     57  C   UNL A   1      43.106  27.410  31.633  1.00  0.00     0.031 C 
ATOM     58  C   UNL A   1      42.922  28.685  33.751  1.00  0.00     0.037 A 
BRANCH  45  59
ATOM     59  C   UNL A   1      39.768  33.234  36.513  1.00  0.00     0.057 A 
ATOM     60  C   UNL A   1      40.486  34.426  36.675  1.00  0.00     0.134 A 
ATOM     61  C   UNL A   1      38.865  32.881  37.524  1.00  0.00     0.134 A 
ATOM     62  F   UNL A   1      41.377  34.814  35.749  1.00  0.00    -0.206 F 
ATOM     63  C   UNL A   1      40.341  35.218  37.815  1.00  0.00     0.040 A 
ATOM     64  C   UNL A   1      38.692  33.679  38.657  1.00  0.00     0.040 A 
ATOM     65  F   UNL A   1      38.142  31.756  37.431  1.00  0.00    -0.206 F 
ATOM     66  C   UNL A   1      39.438  34.846  38.809  1.00  0.00     0.006 A 
ENDBRANCH  45  59
BRANCH  46  67
ATOM     67  C   UNL A   1      40.690  27.782  28.202  1.00  0.00     0.057 A 
ATOM     68  C   UNL A   1      40.054  26.539  28.106  1.00  0.00     0.134 A 
ATOM     69  C   UNL A   1      41.440  28.210  27.101  1.00  0.00     0.134 A 
ATOM     70  F   UNL A   1      39.336  26.068  29.136  1.00  0.00    -0.206 F 
ATOM     71  C   UNL A   1      40.168  25.745  26.965  1.00  0.00     0.040 A 
ATOM     72  C   UNL A   1      41.546  27.437  25.944  1.00  0.00     0.040 A 
ATOM     73  F   UNL A   1      42.067  29.395  27.129  1.00  0.00    -0.206 F 
ATOM     74  C   UNL A   1      40.911  26.197  25.876  1.00  0.00     0.006 A 
ENDBRANCH  46  67
BRANCH  58  75
ATOM     75  C   UNL A   1      44.052  27.860  34.291  1.00  0.00     0.057 A 
ATOM     76  C   UNL A   1      43.835  26.614  34.893  1.00  0.00     0.134 A 
ATOM     77  C   UNL A   1      45.375  28.303  34.179  1.00  0.00     0.134 A 
ATOM     78  F   UNL A   1      42.590  26.140  35.044  1.00  0.00    -0.206 F 
ATOM     79  C   UNL A   1      44.895  25.847  35.381  1.00  0.00     0.040 A 
ATOM     80  C   UNL A   1      46.444  27.536  34.641  1.00  0.00     0.040 A 
ATOM     81  F   UNL A   1      45.651  29.486  33.607  1.00  0.00    -0.206 F 
ATOM     82  C   UNL A   1      46.204  26.305  35.250  1.00  0.00     0.006 A 
ENDBRANCH  58  75
ENDBRANCH  32  33
ENDBRANCH  24  27
ENDBRANCH  22  23
ENDBRANCH   1  22
TORSDOF 12
ENDMDL
