MODEL 1
REMARK VINA RESULT:     -11.9      0.000      0.000
REMARK SMILES C[C@H](C(=O)NCCCCNC(=O)c1ccc(-c2c3nc(c(-c4c(F)cccc4F)c4ccc([nH]4)c(-c4c(F)cccc4F)c4nc(c(-c5c(F)cccc5F)c5ccc2[nH]5)C=C4)C=C3)cc1)[N@@H+]1CCc2ccccc2C1
REMARK SMILES IDX 8 1 7 2 6 3 5 4 3 5 4 6 2 8 1 9 67 10 68 11 76 12 69 14
REMARK SMILES IDX 75 15 70 16 74 17 71 18 73 19 72 20 9 21 10 22 11 23 12 25
REMARK SMILES IDX 13 26 14 27 66 28 15 29 65 30 16 31 17 32 18 33 59 34 19 35
REMARK SMILES IDX 64 36 58 37 60 38 20 39 63 40 57 41 56 42 21 44 47 45 30 46
REMARK SMILES IDX 46 47 31 48 34 49 45 50 61 51 32 52 33 53 44 55 62 56 35 57
REMARK SMILES IDX 22 58 23 59 28 60 24 61 25 62 27 63 29 64 26 65 48 66 49 67
REMARK SMILES IDX 54 68 50 69 51 70 53 71 55 72 52 73 36 74 37 75 42 76 38 77
REMARK SMILES IDX 39 78 41 79 43 80 40 81
REMARK H PARENT 5 7 67 13 10 24 60 43 34 54
REMARK Flexibility Score: inf
ROOT
ATOM      1  C   UNL A   1      38.150  19.842  24.986  1.00  0.00     0.023 C 
ENDROOT
BRANCH   1   2
ATOM      2  C   UNL A   1      37.338  21.081  24.624  1.00  0.00     0.023 C 
BRANCH   2   3
ATOM      3  C   UNL A   1      36.067  21.265  25.446  1.00  0.00     0.116 C 
BRANCH   3   4
ATOM      4  N   UNL A   1      35.166  20.151  25.260  1.00  0.00    -0.351 N 
ATOM      5  C   UNL A   1      33.826  20.180  25.008  1.00  0.00     0.278 C 
ATOM      6  O   UNL A   1      33.223  19.104  25.030  1.00  0.00    -0.268 OA
ATOM      7  H   UNL A   1      35.571  19.256  25.322  1.00  0.00     0.163 HD
BRANCH   5   8
ATOM      8  C   UNL A   1      33.156  21.526  24.673  1.00  0.00     0.271 C 
ATOM      9  C   UNL A   1      32.518  21.357  23.266  1.00  0.00     0.086 C 
BRANCH   8  10
ATOM     10  N   UNL A   1      32.365  22.128  25.788  1.00  0.00    -0.321 N 
ATOM     11  C   UNL A   1      31.034  22.755  25.531  1.00  0.00     0.267 C 
ATOM     12  C   UNL A   1      33.125  22.946  26.707  1.00  0.00     0.299 C 
ATOM     13  H   UNL A   1      32.114  21.238  26.219  1.00  0.00     0.349 HD
ATOM     14  C   UNL A   1      30.644  23.983  26.463  1.00  0.00     0.097 C 
ATOM     15  C   UNL A   1      33.050  24.380  26.291  1.00  0.00     0.010 A 
ATOM     16  C   UNL A   1      31.794  24.967  26.463  1.00  0.00    -0.034 A 
ATOM     17  C   UNL A   1      34.038  25.084  25.624  1.00  0.00     0.010 A 
ATOM     18  C   UNL A   1      31.680  26.349  26.459  1.00  0.00     0.004 A 
ATOM     19  C   UNL A   1      33.873  26.452  25.436  1.00  0.00     0.001 A 
ATOM     20  C   UNL A   1      32.752  27.098  25.968  1.00  0.00     0.000 A 
ENDBRANCH   8  10
ENDBRANCH   5   8
ENDBRANCH   3   4
ENDBRANCH   2   3
ENDBRANCH   1   2
BRANCH   1  21
ATOM     21  C   UNL A   1      39.275  20.100  25.971  1.00  0.00     0.116 C 
BRANCH  21  22
ATOM     22  N   UNL A   1      40.298  19.068  25.927  1.00  0.00    -0.352 N 
ATOM     23  C   UNL A   1      41.658  19.187  26.069  1.00  0.00     0.251 C 
ATOM     24  H   UNL A   1      39.969  18.153  25.774  1.00  0.00     0.163 HD
ATOM     25  O   UNL A   1      42.391  18.241  25.838  1.00  0.00    -0.269 OA
BRANCH  23  26
ATOM     26  C   UNL A   1      42.217  20.491  26.475  1.00  0.00     0.039 A 
ATOM     27  C   UNL A   1      42.675  21.357  25.483  1.00  0.00     0.014 A 
ATOM     28  C   UNL A   1      42.246  20.867  27.821  1.00  0.00     0.014 A 
ATOM     29  C   UNL A   1      43.110  22.630  25.840  1.00  0.00     0.010 A 
ATOM     30  C   UNL A   1      42.587  22.169  28.163  1.00  0.00     0.010 A 
ATOM     31  C   UNL A   1      43.031  23.059  27.176  1.00  0.00    -0.014 A 
BRANCH  31  32
ATOM     32  C   UNL A   1      43.410  24.444  27.545  1.00  0.00     0.031 A 
ATOM     33  C   UNL A   1      44.849  24.877  27.492  1.00  0.00     0.074 A 
ATOM     34  C   UNL A   1      42.452  25.300  27.951  1.00  0.00     0.049 A 
ATOM     35  N   UNL A   1      45.366  26.047  27.764  1.00  0.00    -0.248 NA
ATOM     36  C   UNL A   1      45.839  23.859  27.105  1.00  0.00     0.031 C 
ATOM     37  C   UNL A   1      41.032  24.971  28.106  1.00  0.00     0.029 A 
ATOM     38  N   UNL A   1      42.525  26.623  28.304  1.00  0.00    -0.354 N 
ATOM     39  C   UNL A   1      46.735  25.906  27.577  1.00  0.00     0.074 A 
ATOM     40  C   UNL A   1      46.978  24.521  27.241  1.00  0.00     0.031 C 
ATOM     41  C   UNL A   1      40.364  26.071  28.484  1.00  0.00     0.029 A 
ATOM     42  C   UNL A   1      41.309  27.172  28.635  1.00  0.00     0.049 A 
ATOM     43  H   UNL A   1      43.368  27.131  28.318  1.00  0.00     0.167 HD
ATOM     44  C   UNL A   1      47.698  26.854  27.649  1.00  0.00     0.037 A 
ATOM     45  C   UNL A   1      40.996  28.422  29.020  1.00  0.00     0.037 A 
ATOM     46  C   UNL A   1      47.449  28.233  27.974  1.00  0.00     0.049 A 
ATOM     47  C   UNL A   1      42.091  29.451  29.099  1.00  0.00     0.074 A 
ATOM     48  C   UNL A   1      48.349  29.281  28.035  1.00  0.00     0.029 A 
ATOM     49  N   UNL A   1      46.205  28.754  28.298  1.00  0.00    -0.354 N 
ATOM     50  N   UNL A   1      43.370  29.321  28.844  1.00  0.00    -0.248 NA
ATOM     51  C   UNL A   1      41.694  30.806  29.506  1.00  0.00     0.031 C 
ATOM     52  C   UNL A   1      47.659  30.428  28.441  1.00  0.00     0.029 A 
ATOM     53  C   UNL A   1      46.318  30.107  28.577  1.00  0.00     0.049 A 
ATOM     54  H   UNL A   1      45.365  28.241  28.324  1.00  0.00     0.167 HD
ATOM     55  C   UNL A   1      43.926  30.579  29.037  1.00  0.00     0.074 A 
ATOM     56  C   UNL A   1      42.838  31.464  29.397  1.00  0.00     0.031 C 
ATOM     57  C   UNL A   1      45.221  30.969  28.935  1.00  0.00     0.037 A 
BRANCH  44  58
ATOM     58  C   UNL A   1      49.109  26.436  27.349  1.00  0.00     0.057 A 
ATOM     59  C   UNL A   1      49.977  26.000  28.361  1.00  0.00     0.134 A 
ATOM     60  C   UNL A   1      49.589  26.415  26.035  1.00  0.00     0.134 A 
ATOM     61  F   UNL A   1      49.585  26.010  29.644  1.00  0.00    -0.206 F 
ATOM     62  C   UNL A   1      51.275  25.573  28.077  1.00  0.00     0.040 A 
ATOM     63  C   UNL A   1      50.876  25.963  25.735  1.00  0.00     0.040 A 
ATOM     64  F   UNL A   1      48.812  26.815  25.018  1.00  0.00    -0.206 F 
ATOM     65  C   UNL A   1      51.724  25.544  26.758  1.00  0.00     0.006 A 
ENDBRANCH  44  58
BRANCH  45  66
ATOM     66  C   UNL A   1      39.593  28.780  29.350  1.00  0.00     0.057 A 
ATOM     67  C   UNL A   1      39.084  28.614  30.644  1.00  0.00     0.134 A 
ATOM     68  C   UNL A   1      38.714  29.261  28.371  1.00  0.00     0.134 A 
ATOM     69  F   UNL A   1      39.870  28.144  31.623  1.00  0.00    -0.206 F 
ATOM     70  C   UNL A   1      37.745  28.875  30.944  1.00  0.00     0.040 A 
ATOM     71  C   UNL A   1      37.383  29.557  28.665  1.00  0.00     0.040 A 
ATOM     72  F   UNL A   1      39.140  29.455  27.115  1.00  0.00    -0.206 F 
ATOM     73  C   UNL A   1      36.892  29.352  29.952  1.00  0.00     0.006 A 
ENDBRANCH  45  66
BRANCH  57  74
ATOM     74  C   UNL A   1      45.515  32.419  29.189  1.00  0.00     0.057 A 
ATOM     75  C   UNL A   1      45.465  33.376  28.167  1.00  0.00     0.134 A 
ATOM     76  C   UNL A   1      45.848  32.865  30.475  1.00  0.00     0.134 A 
ATOM     77  F   UNL A   1      45.164  33.013  26.910  1.00  0.00    -0.206 F 
ATOM     78  C   UNL A   1      45.775  34.715  28.405  1.00  0.00     0.040 A 
ATOM     79  C   UNL A   1      46.127  34.208  30.732  1.00  0.00     0.040 A 
ATOM     80  F   UNL A   1      45.903  32.005  31.503  1.00  0.00    -0.206 F 
ATOM     81  C   UNL A   1      46.103  35.135  29.693  1.00  0.00     0.006 A 
ENDBRANCH  57  74
ENDBRANCH  31  32
ENDBRANCH  23  26
ENDBRANCH  21  22
ENDBRANCH   1  21
TORSDOF 12
ENDMDL
MODEL 2
REMARK VINA RESULT:     -11.8      5.593     10.368
REMARK SMILES C[C@H](C(=O)NCCCCNC(=O)c1ccc(-c2c3nc(c(-c4c(F)cccc4F)c4ccc([nH]4)c(-c4c(F)cccc4F)c4nc(c(-c5c(F)cccc5F)c5ccc2[nH]5)C=C4)C=C3)cc1)[N@@H+]1CCc2ccccc2C1
REMARK SMILES IDX 8 1 7 2 6 3 5 4 3 5 4 6 2 8 1 9 67 10 68 11 76 12 69 14
REMARK SMILES IDX 75 15 70 16 74 17 71 18 73 19 72 20 9 21 10 22 11 23 12 25
REMARK SMILES IDX 13 26 14 27 66 28 15 29 65 30 16 31 17 32 18 33 59 34 19 35
REMARK SMILES IDX 64 36 58 37 60 38 20 39 63 40 57 41 56 42 21 44 47 45 30 46
REMARK SMILES IDX 46 47 31 48 34 49 45 50 61 51 32 52 33 53 44 55 62 56 35 57
REMARK SMILES IDX 22 58 23 59 28 60 24 61 25 62 27 63 29 64 26 65 48 66 49 67
REMARK SMILES IDX 54 68 50 69 51 70 53 71 55 72 52 73 36 74 37 75 42 76 38 77
REMARK SMILES IDX 39 78 41 79 43 80 40 81
REMARK H PARENT 5 7 67 13 10 24 60 43 34 54
REMARK Flexibility Score: inf
ROOT
ATOM      1  C   UNL A   1      31.550  31.896  26.872  1.00  0.00     0.023 C 
ENDROOT
BRANCH   1   2
ATOM      2  C   UNL A   1      31.776  30.388  26.892  1.00  0.00     0.023 C 
BRANCH   2   3
ATOM      3  C   UNL A   1      32.093  29.780  25.530  1.00  0.00     0.116 C 
BRANCH   3   4
ATOM      4  N   UNL A   1      31.066  30.104  24.567  1.00  0.00    -0.351 N 
ATOM      5  C   UNL A   1      30.477  29.285  23.649  1.00  0.00     0.278 C 
ATOM      6  O   UNL A   1      29.725  29.808  22.824  1.00  0.00    -0.268 OA
ATOM      7  H   UNL A   1      30.750  31.037  24.574  1.00  0.00     0.163 HD
BRANCH   5   8
ATOM      8  C   UNL A   1      30.746  27.770  23.718  1.00  0.00     0.271 C 
ATOM      9  C   UNL A   1      29.358  27.087  23.867  1.00  0.00     0.086 C 
BRANCH   8  10
ATOM     10  N   UNL A   1      31.727  27.260  22.714  1.00  0.00    -0.321 N 
ATOM     11  C   UNL A   1      31.536  25.930  22.062  1.00  0.00     0.267 C 
ATOM     12  C   UNL A   1      33.117  27.437  23.071  1.00  0.00     0.299 C 
ATOM     13  H   UNL A   1      31.458  27.912  21.977  1.00  0.00     0.349 HD
ATOM     14  C   UNL A   1      32.860  25.137  21.681  1.00  0.00     0.097 C 
ATOM     15  C   UNL A   1      33.630  26.203  23.742  1.00  0.00     0.010 A 
ATOM     16  C   UNL A   1      33.760  25.098  22.897  1.00  0.00    -0.034 A 
ATOM     17  C   UNL A   1      33.814  26.036  25.104  1.00  0.00     0.010 A 
ATOM     18  C   UNL A   1      34.543  24.024  23.294  1.00  0.00     0.004 A 
ATOM     19  C   UNL A   1      34.436  24.878  25.557  1.00  0.00     0.001 A 
ATOM     20  C   UNL A   1      34.911  23.936  24.638  1.00  0.00     0.000 A 
ENDBRANCH   8  10
ENDBRANCH   5   8
ENDBRANCH   3   4
ENDBRANCH   2   3
ENDBRANCH   1   2
BRANCH   1  21
ATOM     21  C   UNL A   1      32.802  32.716  27.129  1.00  0.00     0.116 C 
BRANCH  21  22
ATOM     22  N   UNL A   1      32.499  34.058  27.600  1.00  0.00    -0.352 N 
ATOM     23  C   UNL A   1      33.072  34.768  28.624  1.00  0.00     0.251 C 
ATOM     24  H   UNL A   1      31.780  34.523  27.114  1.00  0.00     0.163 HD
ATOM     25  O   UNL A   1      32.585  35.822  28.997  1.00  0.00    -0.269 OA
BRANCH  23  26
ATOM     26  C   UNL A   1      34.269  34.216  29.287  1.00  0.00     0.039 A 
ATOM     27  C   UNL A   1      34.093  33.301  30.324  1.00  0.00     0.014 A 
ATOM     28  C   UNL A   1      35.551  34.569  28.855  1.00  0.00     0.014 A 
ATOM     29  C   UNL A   1      35.210  32.694  30.891  1.00  0.00     0.010 A 
ATOM     30  C   UNL A   1      36.655  33.890  29.354  1.00  0.00     0.010 A 
ATOM     31  C   UNL A   1      36.495  32.953  30.384  1.00  0.00    -0.014 A 
BRANCH  31  32
ATOM     32  C   UNL A   1      37.676  32.241  30.926  1.00  0.00     0.031 A 
ATOM     33  C   UNL A   1      38.220  32.596  32.281  1.00  0.00     0.074 A 
ATOM     34  C   UNL A   1      38.269  31.290  30.178  1.00  0.00     0.049 A 
ATOM     35  N   UNL A   1      39.234  32.075  32.923  1.00  0.00    -0.248 NA
ATOM     36  C   UNL A   1      37.556  33.695  33.001  1.00  0.00     0.031 C 
ATOM     37  C   UNL A   1      37.869  30.907  28.821  1.00  0.00     0.029 A 
ATOM     38  N   UNL A   1      39.331  30.468  30.453  1.00  0.00    -0.354 N 
ATOM     39  C   UNL A   1      39.324  32.777  34.119  1.00  0.00     0.074 A 
ATOM     40  C   UNL A   1      38.312  33.808  34.083  1.00  0.00     0.031 C 
ATOM     41  C   UNL A   1      38.650  29.901  28.398  1.00  0.00     0.029 A 
ATOM     42  C   UNL A   1      39.627  29.592  29.436  1.00  0.00     0.049 A 
ATOM     43  H   UNL A   1      39.833  30.501  31.299  1.00  0.00     0.167 HD
ATOM     44  C   UNL A   1      40.155  32.558  35.164  1.00  0.00     0.037 A 
ATOM     45  C   UNL A   1      40.582  28.648  29.352  1.00  0.00     0.037 A 
ATOM     46  C   UNL A   1      41.153  31.523  35.197  1.00  0.00     0.049 A 
ATOM     47  C   UNL A   1      41.497  28.436  30.528  1.00  0.00     0.074 A 
ATOM     48  C   UNL A   1      42.019  31.193  36.224  1.00  0.00     0.029 A 
ATOM     49  N   UNL A   1      41.421  30.651  34.152  1.00  0.00    -0.354 N 
ATOM     50  N   UNL A   1      41.519  29.057  31.682  1.00  0.00    -0.248 NA
ATOM     51  C   UNL A   1      42.511  27.382  30.393  1.00  0.00     0.031 C 
ATOM     52  C   UNL A   1      42.843  30.153  35.784  1.00  0.00     0.029 A 
ATOM     53  C   UNL A   1      42.452  29.795  34.504  1.00  0.00     0.049 A 
ATOM     54  H   UNL A   1      40.947  30.641  33.289  1.00  0.00     0.167 HD
ATOM     55  C   UNL A   1      42.531  28.454  32.418  1.00  0.00     0.074 A 
ATOM     56  C   UNL A   1      43.074  27.397  31.591  1.00  0.00     0.031 C 
ATOM     57  C   UNL A   1      42.979  28.751  33.664  1.00  0.00     0.037 A 
BRANCH  44  58
ATOM     58  C   UNL A   1      40.005  33.444  36.368  1.00  0.00     0.057 A 
ATOM     59  C   UNL A   1      40.747  34.625  36.508  1.00  0.00     0.134 A 
ATOM     60  C   UNL A   1      39.073  33.146  37.369  1.00  0.00     0.134 A 
ATOM     61  F   UNL A   1      41.668  34.963  35.592  1.00  0.00    -0.206 F 
ATOM     62  C   UNL A   1      40.578  35.469  37.607  1.00  0.00     0.040 A 
ATOM     63  C   UNL A   1      38.874  33.996  38.459  1.00  0.00     0.040 A 
ATOM     64  F   UNL A   1      38.327  32.033  37.297  1.00  0.00    -0.206 F 
ATOM     65  C   UNL A   1      39.632  35.160  38.581  1.00  0.00     0.006 A 
ENDBRANCH  44  58
BRANCH  45  66
ATOM     66  C   UNL A   1      40.723  27.825  28.123  1.00  0.00     0.057 A 
ATOM     67  C   UNL A   1      40.096  26.578  28.007  1.00  0.00     0.134 A 
ATOM     68  C   UNL A   1      41.517  28.247  27.050  1.00  0.00     0.134 A 
ATOM     69  F   UNL A   1      39.333  26.110  29.006  1.00  0.00    -0.206 F 
ATOM     70  C   UNL A   1      40.285  25.765  26.888  1.00  0.00     0.040 A 
ATOM     71  C   UNL A   1      41.688  27.459  25.912  1.00  0.00     0.040 A 
ATOM     72  F   UNL A   1      42.135  29.436  27.092  1.00  0.00    -0.206 F 
ATOM     73  C   UNL A   1      41.081  26.207  25.834  1.00  0.00     0.006 A 
ENDBRANCH  45  66
BRANCH  57  74
ATOM     74  C   UNL A   1      44.089  27.898  34.207  1.00  0.00     0.057 A 
ATOM     75  C   UNL A   1      45.436  28.259  34.069  1.00  0.00     0.134 A 
ATOM     76  C   UNL A   1      43.806  26.703  34.881  1.00  0.00     0.134 A 
ATOM     77  F   UNL A   1      45.775  29.386  33.424  1.00  0.00    -0.206 F 
ATOM     78  C   UNL A   1      46.462  27.443  34.545  1.00  0.00     0.040 A 
ATOM     79  C   UNL A   1      44.823  25.895  35.391  1.00  0.00     0.040 A 
ATOM     80  F   UNL A   1      42.538  26.303  35.059  1.00  0.00    -0.206 F 
ATOM     81  C   UNL A   1      46.156  26.258  35.212  1.00  0.00     0.006 A 
ENDBRANCH  57  74
ENDBRANCH  31  32
ENDBRANCH  23  26
ENDBRANCH  21  22
ENDBRANCH   1  21
TORSDOF 12
ENDMDL
MODEL 3
REMARK VINA RESULT:     -11.8      0.958      1.694
REMARK SMILES C[C@H](C(=O)NCCCCNC(=O)c1ccc(-c2c3nc(c(-c4c(F)cccc4F)c4ccc([nH]4)c(-c4c(F)cccc4F)c4nc(c(-c5c(F)cccc5F)c5ccc2[nH]5)C=C4)C=C3)cc1)[N@@H+]1CCc2ccccc2C1
REMARK SMILES IDX 8 1 7 2 6 3 5 4 3 5 4 6 2 8 1 9 67 10 68 11 76 12 69 14
REMARK SMILES IDX 75 15 70 16 74 17 71 18 73 19 72 20 9 21 10 22 11 23 12 25
REMARK SMILES IDX 13 26 14 27 66 28 15 29 65 30 16 31 17 32 18 33 59 34 19 35
REMARK SMILES IDX 64 36 58 37 60 38 20 39 63 40 57 41 56 42 21 44 47 45 30 46
REMARK SMILES IDX 46 47 31 48 34 49 45 50 61 51 32 52 33 53 44 55 62 56 35 57
REMARK SMILES IDX 22 58 23 59 28 60 24 61 25 62 27 63 29 64 26 65 48 66 49 67
REMARK SMILES IDX 54 68 50 69 51 70 53 71 55 72 52 73 36 74 37 75 42 76 38 77
REMARK SMILES IDX 39 78 41 79 43 80 40 81
REMARK H PARENT 5 7 67 13 10 24 60 43 34 54
REMARK Flexibility Score: inf
ROOT
ATOM      1  C   UNL A   1      37.625  19.979  24.998  1.00  0.00     0.023 C 
ENDROOT
BRANCH   1   2
ATOM      2  C   UNL A   1      36.633  21.100  24.707  1.00  0.00     0.023 C 
BRANCH   2   3
ATOM      3  C   UNL A   1      35.531  21.253  25.750  1.00  0.00     0.116 C 
BRANCH   3   4
ATOM      4  N   UNL A   1      34.532  20.219  25.601  1.00  0.00    -0.351 N 
ATOM      5  C   UNL A   1      33.219  20.354  25.257  1.00  0.00     0.278 C 
ATOM      6  O   UNL A   1      32.508  19.349  25.333  1.00  0.00    -0.268 OA
ATOM      7  H   UNL A   1      34.839  19.299  25.770  1.00  0.00     0.163 HD
BRANCH   5   8
ATOM      8  C   UNL A   1      32.713  21.721  24.760  1.00  0.00     0.271 C 
ATOM      9  C   UNL A   1      32.202  21.495  23.309  1.00  0.00     0.086 C 
BRANCH   8  10
ATOM     10  N   UNL A   1      31.875  22.475  25.740  1.00  0.00    -0.321 N 
ATOM     11  C   UNL A   1      30.696  23.271  25.287  1.00  0.00     0.267 C 
ATOM     12  C   UNL A   1      32.615  23.216  26.737  1.00  0.00     0.299 C 
ATOM     13  H   UNL A   1      31.443  21.647  26.152  1.00  0.00     0.349 HD
ATOM     14  C   UNL A   1      30.366  24.580  26.128  1.00  0.00     0.097 C 
ATOM     15  C   UNL A   1      32.805  24.627  26.281  1.00  0.00     0.010 A 
ATOM     16  C   UNL A   1      31.636  25.392  26.264  1.00  0.00    -0.034 A 
ATOM     17  C   UNL A   1      33.965  25.157  25.742  1.00  0.00     0.010 A 
ATOM     18  C   UNL A   1      31.725  26.774  26.214  1.00  0.00     0.004 A 
ATOM     19  C   UNL A   1      34.026  26.525  25.502  1.00  0.00     0.001 A 
ATOM     20  C   UNL A   1      32.949  27.344  25.858  1.00  0.00     0.000 A 
ENDBRANCH   8  10
ENDBRANCH   5   8
ENDBRANCH   3   4
ENDBRANCH   2   3
ENDBRANCH   1   2
BRANCH   1  21
ATOM     21  C   UNL A   1      38.877  20.431  25.729  1.00  0.00     0.116 C 
BRANCH  21  22
ATOM     22  N   UNL A   1      39.898  19.396  25.769  1.00  0.00    -0.352 N 
ATOM     23  C   UNL A   1      41.233  19.505  26.070  1.00  0.00     0.251 C 
ATOM     24  H   UNL A   1      39.588  18.488  25.550  1.00  0.00     0.163 HD
ATOM     25  O   UNL A   1      41.987  18.564  25.895  1.00  0.00    -0.269 OA
BRANCH  23  26
ATOM     26  C   UNL A   1      41.742  20.793  26.578  1.00  0.00     0.039 A 
ATOM     27  C   UNL A   1      42.222  21.728  25.661  1.00  0.00     0.014 A 
ATOM     28  C   UNL A   1      41.704  21.087  27.944  1.00  0.00     0.014 A 
ATOM     29  C   UNL A   1      42.610  22.986  26.114  1.00  0.00     0.010 A 
ATOM     30  C   UNL A   1      41.998  22.373  28.379  1.00  0.00     0.010 A 
ATOM     31  C   UNL A   1      42.463  23.331  27.468  1.00  0.00    -0.014 A 
BRANCH  31  32
ATOM     32  C   UNL A   1      42.792  24.698  27.936  1.00  0.00     0.031 A 
ATOM     33  C   UNL A   1      44.225  25.107  28.137  1.00  0.00     0.074 A 
ATOM     34  C   UNL A   1      41.791  25.559  28.202  1.00  0.00     0.049 A 
ATOM     35  N   UNL A   1      44.704  26.260  28.527  1.00  0.00    -0.248 NA
ATOM     36  C   UNL A   1      45.253  24.083  27.891  1.00  0.00     0.031 C 
ATOM     37  C   UNL A   1      40.361  25.251  28.108  1.00  0.00     0.029 A 
ATOM     38  N   UNL A   1      41.820  26.870  28.602  1.00  0.00    -0.354 N 
ATOM     39  C   UNL A   1      46.083  26.101  28.567  1.00  0.00     0.074 A 
ATOM     40  C   UNL A   1      46.362  24.722  28.235  1.00  0.00     0.031 C 
ATOM     41  C   UNL A   1      39.652  26.352  28.402  1.00  0.00     0.029 A 
ATOM     42  C   UNL A   1      40.573  27.431  28.742  1.00  0.00     0.049 A 
ATOM     43  H   UNL A   1      42.655  27.363  28.771  1.00  0.00     0.167 HD
ATOM     44  C   UNL A   1      47.033  27.030  28.827  1.00  0.00     0.037 A 
ATOM     45  C   UNL A   1      40.216  28.676  29.106  1.00  0.00     0.037 A 
ATOM     46  C   UNL A   1      46.749  28.403  29.147  1.00  0.00     0.049 A 
ATOM     47  C   UNL A   1      41.295  29.683  29.397  1.00  0.00     0.074 A 
ATOM     48  C   UNL A   1      47.640  29.434  29.388  1.00  0.00     0.029 A 
ATOM     49  N   UNL A   1      45.475  28.937  29.274  1.00  0.00    -0.354 N 
ATOM     50  N   UNL A   1      42.597  29.538  29.356  1.00  0.00    -0.248 NA
ATOM     51  C   UNL A   1      40.852  31.033  29.773  1.00  0.00     0.031 C 
ATOM     52  C   UNL A   1      46.906  30.580  29.707  1.00  0.00     0.029 A 
ATOM     53  C   UNL A   1      45.557  30.279  29.608  1.00  0.00     0.049 A 
ATOM     54  H   UNL A   1      44.637  28.438  29.144  1.00  0.00     0.167 HD
ATOM     55  C   UNL A   1      43.128  30.780  29.676  1.00  0.00     0.074 A 
ATOM     56  C   UNL A   1      42.006  31.674  29.876  1.00  0.00     0.031 C 
ATOM     57  C   UNL A   1      44.427  31.151  29.804  1.00  0.00     0.037 A 
BRANCH  44  58
ATOM     58  C   UNL A   1      48.468  26.596  28.755  1.00  0.00     0.057 A 
ATOM     59  C   UNL A   1      49.215  26.718  27.574  1.00  0.00     0.134 A 
ATOM     60  C   UNL A   1      49.128  26.103  29.887  1.00  0.00     0.134 A 
ATOM     61  F   UNL A   1      48.640  27.169  26.449  1.00  0.00    -0.206 F 
ATOM     62  C   UNL A   1      50.561  26.352  27.519  1.00  0.00     0.040 A 
ATOM     63  C   UNL A   1      50.482  25.760  29.851  1.00  0.00     0.040 A 
ATOM     64  F   UNL A   1      48.475  25.962  31.050  1.00  0.00    -0.206 F 
ATOM     65  C   UNL A   1      51.200  25.881  28.663  1.00  0.00     0.006 A 
ENDBRANCH  44  58
BRANCH  45  66
ATOM     66  C   UNL A   1      38.782  29.049  29.207  1.00  0.00     0.057 A 
ATOM     67  C   UNL A   1      38.083  29.560  28.107  1.00  0.00     0.134 A 
ATOM     68  C   UNL A   1      38.084  28.940  30.417  1.00  0.00     0.134 A 
ATOM     69  F   UNL A   1      38.697  29.704  26.924  1.00  0.00    -0.206 F 
ATOM     70  C   UNL A   1      36.756  29.984  28.214  1.00  0.00     0.040 A 
ATOM     71  C   UNL A   1      36.749  29.329  30.530  1.00  0.00     0.040 A 
ATOM     72  F   UNL A   1      38.691  28.446  31.506  1.00  0.00    -0.206 F 
ATOM     73  C   UNL A   1      36.086  29.866  29.429  1.00  0.00     0.006 A 
ENDBRANCH  45  66
BRANCH  57  74
ATOM     74  C   UNL A   1      44.692  32.588  30.146  1.00  0.00     0.057 A 
ATOM     75  C   UNL A   1      44.844  33.570  29.158  1.00  0.00     0.134 A 
ATOM     76  C   UNL A   1      44.793  32.996  31.483  1.00  0.00     0.134 A 
ATOM     77  F   UNL A   1      44.771  33.244  27.859  1.00  0.00    -0.206 F 
ATOM     78  C   UNL A   1      45.127  34.896  29.485  1.00  0.00     0.040 A 
ATOM     79  C   UNL A   1      45.041  34.326  31.823  1.00  0.00     0.040 A 
ATOM     80  F   UNL A   1      44.645  32.110  32.480  1.00  0.00    -0.206 F 
ATOM     81  C   UNL A   1      45.222  35.278  30.822  1.00  0.00     0.006 A 
ENDBRANCH  57  74
ENDBRANCH  31  32
ENDBRANCH  23  26
ENDBRANCH  21  22
ENDBRANCH   1  21
TORSDOF 12
ENDMDL
