MODEL 1
REMARK VINA RESULT:     -13.1      0.000      0.000
REMARK SMILES O=C(Cc1c(C(=O)c2cc3c(cn2)CCCC3)[nH]c2cc(Cl)ccc12)NCCCCNC(=O)c1ccc(-c2c3nc(c(-c4c(F)cccc4F)c4ccc([nH]4)c(-c4c(F)cccc4F)c4nc(c(-c5c(F)cccc5F)c5ccc2[nH]5)C=C4)C=C3)cc1
REMARK SMILES IDX 28 1 27 2 26 3 1 4 2 5 3 7 4 8 5 9 25 10 18 11 19 12 24 13
REMARK SMILES IDX 20 15 23 16 21 17 22 18 6 19 7 20 8 21 9 22 13 23 10 24
REMARK SMILES IDX 12 25 11 26 17 27 14 28 16 29 15 30 29 31 30 32 31 33 32 34
REMARK SMILES IDX 33 36 34 37 35 38 87 39 36 40 86 41 37 42 38 43 39 44 80 45
REMARK SMILES IDX 40 46 85 47 79 48 81 49 41 50 84 51 78 52 77 53 42 55 68 56
REMARK SMILES IDX 51 57 67 58 52 59 55 60 66 61 82 62 53 63 54 64 65 66 83 67
REMARK SMILES IDX 56 68 43 69 44 70 49 71 45 72 46 73 48 74 50 75 47 76 69 77
REMARK SMILES IDX 70 78 75 79 71 80 72 81 74 82 76 83 73 84 57 85 58 86 63 87
REMARK SMILES IDX 59 88 60 89 62 90 64 91 61 92
REMARK H PARENT 26 6 18 14 31 35 81 54 55 65
REMARK Flexibility Score: inf
ROOT
ATOM      1  C   UNL A   1      31.789  28.967  25.953  1.00  0.00     0.023 C 
ENDROOT
BRANCH   1   2
ATOM      2  C   UNL A   1      32.863  28.345  26.842  1.00  0.00     0.116 C 
BRANCH   2   3
ATOM      3  N   UNL A   1      33.598  27.292  26.172  1.00  0.00    -0.356 N 
ATOM      4  O   UNL A   1      32.060  25.636  26.573  1.00  0.00    -0.275 OA
ATOM      5  C   UNL A   1      33.117  26.003  26.064  1.00  0.00     0.224 C 
ATOM      6  H   UNL A   1      34.475  27.505  25.778  1.00  0.00     0.163 HD
BRANCH   5   7
ATOM      7  C   UNL A   1      34.014  25.055  25.287  1.00  0.00     0.138 C 
BRANCH   7   8
ATOM      8  C   UNL A   1      33.316  24.256  24.209  1.00  0.00    -0.002 A 
ATOM      9  C   UNL A   1      32.717  24.787  23.061  1.00  0.00     0.093 A 
ATOM     10  C   UNL A   1      33.188  22.825  24.136  1.00  0.00     0.004 A 
ATOM     11  N   UNL A   1      32.279  23.715  22.312  1.00  0.00    -0.351 N 
ATOM     12  C   UNL A   1      32.500  22.528  22.962  1.00  0.00     0.048 A 
ATOM     13  C   UNL A   1      33.591  21.744  24.954  1.00  0.00     0.012 A 
ATOM     14  H   UNL A   1      31.861  23.793  21.424  1.00  0.00     0.167 HD
ATOM     15  C   UNL A   1      32.166  21.222  22.577  1.00  0.00     0.047 A 
ATOM     16  C   UNL A   1      33.260  20.432  24.594  1.00  0.00     0.021 A 
ATOM     17  C   UNL A   1      32.553  20.183  23.424  1.00  0.00     0.043 A 
ATOM     18  Cl  UNL A   1      32.149  18.562  23.004  1.00  0.00    -0.084 Cl
BRANCH   9  19
ATOM     19  C   UNL A   1      32.604  26.188  22.651  1.00  0.00     0.227 C 
ATOM     20  O   UNL A   1      33.547  26.834  22.198  1.00  0.00    -0.285 OA
BRANCH  19  21
ATOM     21  C   UNL A   1      31.296  26.888  22.814  1.00  0.00     0.113 A 
ATOM     22  C   UNL A   1      31.112  28.164  22.288  1.00  0.00     0.036 A 
ATOM     23  N   UNL A   1      30.339  26.207  23.487  1.00  0.00    -0.252 NA
ATOM     24  C   UNL A   1      29.870  28.785  22.460  1.00  0.00    -0.041 A 
ATOM     25  C   UNL A   1      29.144  26.819  23.623  1.00  0.00     0.115 A 
ATOM     26  C   UNL A   1      28.860  28.098  23.153  1.00  0.00    -0.026 A 
ATOM     27  C   UNL A   1      29.657  30.189  21.952  1.00  0.00     0.036 C 
ATOM     28  C   UNL A   1      27.479  28.671  23.322  1.00  0.00     0.037 C 
ATOM     29  C   UNL A   1      28.182  30.580  21.855  1.00  0.00     0.005 C 
ATOM     30  C   UNL A   1      27.435  30.185  23.124  1.00  0.00     0.005 C 
ENDBRANCH  19  21
ENDBRANCH   9  19
ENDBRANCH   7   8
ENDBRANCH   5   7
ENDBRANCH   2   3
ENDBRANCH   1   2
BRANCH   1  31
ATOM     31  C   UNL A   1      31.806  30.495  25.884  1.00  0.00     0.023 C 
BRANCH  31  32
ATOM     32  C   UNL A   1      32.622  31.196  26.964  1.00  0.00     0.116 C 
BRANCH  32  33
ATOM     33  N   UNL A   1      32.226  32.578  27.189  1.00  0.00    -0.352 N 
ATOM     34  C   UNL A   1      32.873  33.563  27.903  1.00  0.00     0.251 C 
ATOM     35  H   UNL A   1      31.376  32.846  26.773  1.00  0.00     0.163 HD
ATOM     36  O   UNL A   1      32.339  34.654  28.075  1.00  0.00    -0.269 OA
BRANCH  34  37
ATOM     37  C   UNL A   1      34.196  33.289  28.507  1.00  0.00     0.039 A 
ATOM     38  C   UNL A   1      35.375  33.622  27.835  1.00  0.00     0.014 A 
ATOM     39  C   UNL A   1      34.257  32.650  29.750  1.00  0.00     0.014 A 
ATOM     40  C   UNL A   1      36.595  33.151  28.312  1.00  0.00     0.010 A 
ATOM     41  C   UNL A   1      35.492  32.250  30.266  1.00  0.00     0.010 A 
ATOM     42  C   UNL A   1      36.666  32.440  29.521  1.00  0.00    -0.014 A 
BRANCH  42  43
ATOM     43  C   UNL A   1      37.969  31.871  29.960  1.00  0.00     0.031 A 
ATOM     44  C   UNL A   1      38.767  32.532  31.055  1.00  0.00     0.074 A 
ATOM     45  C   UNL A   1      38.406  30.717  29.420  1.00  0.00     0.049 A 
ATOM     46  N   UNL A   1      39.901  32.156  31.594  1.00  0.00    -0.248 NA
ATOM     47  C   UNL A   1      38.225  33.779  31.617  1.00  0.00     0.031 C 
ATOM     48  C   UNL A   1      37.728  29.970  28.360  1.00  0.00     0.029 A 
ATOM     49  N   UNL A   1      39.513  29.958  29.707  1.00  0.00    -0.354 N 
ATOM     50  C   UNL A   1      40.215  33.126  32.538  1.00  0.00     0.074 A 
ATOM     51  C   UNL A   1      39.167  34.123  32.482  1.00  0.00     0.031 C 
ATOM     52  C   UNL A   1      38.406  28.838  28.118  1.00  0.00     0.029 A 
ATOM     53  C   UNL A   1      39.591  28.803  28.968  1.00  0.00     0.049 A 
ATOM     54  H   UNL A   1      40.185  30.216  30.378  1.00  0.00     0.167 HD
ATOM     55  C   UNL A   1      41.272  33.178  33.385  1.00  0.00     0.037 A 
ATOM     56  C   UNL A   1      40.519  27.828  28.968  1.00  0.00     0.037 A 
ATOM     57  C   UNL A   1      42.304  32.178  33.465  1.00  0.00     0.049 A 
ATOM     58  C   UNL A   1      41.699  27.930  29.890  1.00  0.00     0.074 A 
ATOM     59  C   UNL A   1      43.395  32.127  34.318  1.00  0.00     0.029 A 
ATOM     60  N   UNL A   1      42.377  31.053  32.660  1.00  0.00    -0.354 N 
ATOM     61  N   UNL A   1      41.967  28.841  30.792  1.00  0.00    -0.248 NA
ATOM     62  C   UNL A   1      42.711  26.869  29.784  1.00  0.00     0.031 C 
ATOM     63  C   UNL A   1      44.145  30.989  34.005  1.00  0.00     0.029 A 
ATOM     64  C   UNL A   1      43.503  30.312  32.981  1.00  0.00     0.049 A 
ATOM     65  H   UNL A   1      41.724  30.815  31.961  1.00  0.00     0.167 HD
ATOM     66  C   UNL A   1      43.171  28.460  31.368  1.00  0.00     0.074 A 
ATOM     67  C   UNL A   1      43.569  27.221  30.731  1.00  0.00     0.031 C 
ATOM     68  C   UNL A   1      43.887  29.084  32.336  1.00  0.00     0.037 A 
BRANCH  55  69
ATOM     69  C   UNL A   1      41.371  34.369  34.293  1.00  0.00     0.057 A 
ATOM     70  C   UNL A   1      40.744  34.365  35.546  1.00  0.00     0.134 A 
ATOM     71  C   UNL A   1      42.056  35.531  33.917  1.00  0.00     0.134 A 
ATOM     72  F   UNL A   1      40.066  33.285  35.964  1.00  0.00    -0.206 F 
ATOM     73  C   UNL A   1      40.798  35.473  36.393  1.00  0.00     0.040 A 
ATOM     74  C   UNL A   1      42.134  36.638  34.765  1.00  0.00     0.040 A 
ATOM     75  F   UNL A   1      42.688  35.595  32.735  1.00  0.00    -0.206 F 
ATOM     76  C   UNL A   1      41.499  36.612  36.005  1.00  0.00     0.006 A 
ENDBRANCH  55  69
BRANCH  56  77
ATOM     77  C   UNL A   1      40.373  26.668  28.056  1.00  0.00     0.057 A 
ATOM     78  C   UNL A   1      39.595  25.558  28.407  1.00  0.00     0.134 A 
ATOM     79  C   UNL A   1      41.000  26.649  26.806  1.00  0.00     0.134 A 
ATOM     80  F   UNL A   1      38.971  25.517  29.593  1.00  0.00    -0.206 F 
ATOM     81  C   UNL A   1      39.453  24.467  27.551  1.00  0.00     0.040 A 
ATOM     82  C   UNL A   1      40.848  25.575  25.929  1.00  0.00     0.040 A 
ATOM     83  F   UNL A   1      41.743  27.694  26.408  1.00  0.00    -0.206 F 
ATOM     84  C   UNL A   1      40.076  24.477  26.304  1.00  0.00     0.006 A 
ENDBRANCH  56  77
BRANCH  68  85
ATOM     85  C   UNL A   1      45.161  28.421  32.770  1.00  0.00     0.057 A 
ATOM     86  C   UNL A   1      45.158  27.464  33.791  1.00  0.00     0.134 A 
ATOM     87  C   UNL A   1      46.391  28.740  32.181  1.00  0.00     0.134 A 
ATOM     88  F   UNL A   1      44.013  27.118  34.398  1.00  0.00    -0.206 F 
ATOM     89  C   UNL A   1      46.335  26.844  34.211  1.00  0.00     0.040 A 
ATOM     90  C   UNL A   1      47.572  28.109  32.577  1.00  0.00     0.040 A 
ATOM     91  F   UNL A   1      46.457  29.636  31.185  1.00  0.00    -0.206 F 
ATOM     92  C   UNL A   1      47.546  27.161  33.598  1.00  0.00     0.006 A 
ENDBRANCH  68  85
ENDBRANCH  42  43
ENDBRANCH  34  37
ENDBRANCH  32  33
ENDBRANCH  31  32
ENDBRANCH   1  31
TORSDOF 14
ENDMDL
MODEL 2
REMARK VINA RESULT:     -13.1      3.390      8.800
REMARK SMILES O=C(Cc1c(C(=O)c2cc3c(cn2)CCCC3)[nH]c2cc(Cl)ccc12)NCCCCNC(=O)c1ccc(-c2c3nc(c(-c4c(F)cccc4F)c4ccc([nH]4)c(-c4c(F)cccc4F)c4nc(c(-c5c(F)cccc5F)c5ccc2[nH]5)C=C4)C=C3)cc1
REMARK SMILES IDX 28 1 27 2 26 3 1 4 2 5 3 7 4 8 5 9 25 10 18 11 19 12 24 13
REMARK SMILES IDX 20 15 23 16 21 17 22 18 6 19 7 20 8 21 9 22 13 23 10 24
REMARK SMILES IDX 12 25 11 26 17 27 14 28 16 29 15 30 29 31 30 32 31 33 32 34
REMARK SMILES IDX 33 36 34 37 35 38 87 39 36 40 86 41 37 42 38 43 39 44 80 45
REMARK SMILES IDX 40 46 85 47 79 48 81 49 41 50 84 51 78 52 77 53 42 55 68 56
REMARK SMILES IDX 51 57 67 58 52 59 55 60 66 61 82 62 53 63 54 64 65 66 83 67
REMARK SMILES IDX 56 68 43 69 44 70 49 71 45 72 46 73 48 74 50 75 47 76 69 77
REMARK SMILES IDX 70 78 75 79 71 80 72 81 74 82 76 83 73 84 57 85 58 86 63 87
REMARK SMILES IDX 59 88 60 89 62 90 64 91 61 92
REMARK H PARENT 26 6 18 14 31 35 81 54 55 65
REMARK Flexibility Score: inf
ROOT
ATOM      1  C   UNL A   1      36.060  21.745  24.519  1.00  0.00     0.023 C 
ENDROOT
BRANCH   1   2
ATOM      2  C   UNL A   1      36.644  23.146  24.693  1.00  0.00     0.116 C 
BRANCH   2   3
ATOM      3  N   UNL A   1      35.708  24.066  25.305  1.00  0.00    -0.356 N 
ATOM      4  O   UNL A   1      34.526  24.513  23.390  1.00  0.00    -0.275 OA
ATOM      5  C   UNL A   1      34.687  24.667  24.598  1.00  0.00     0.224 C 
ATOM      6  H   UNL A   1      35.805  24.271  26.263  1.00  0.00     0.163 HD
BRANCH   5   7
ATOM      7  C   UNL A   1      33.785  25.565  25.428  1.00  0.00     0.138 C 
BRANCH   7   8
ATOM      8  C   UNL A   1      32.306  25.413  25.153  1.00  0.00    -0.002 A 
ATOM      9  C   UNL A   1      31.530  24.292  25.469  1.00  0.00     0.093 A 
ATOM     10  C   UNL A   1      31.425  26.394  24.575  1.00  0.00     0.004 A 
ATOM     11  N   UNL A   1      30.230  24.601  25.128  1.00  0.00    -0.351 N 
ATOM     12  C   UNL A   1      30.149  25.837  24.539  1.00  0.00     0.048 A 
ATOM     13  C   UNL A   1      31.585  27.707  24.079  1.00  0.00     0.012 A 
ATOM     14  H   UNL A   1      29.459  24.010  25.289  1.00  0.00     0.167 HD
ATOM     15  C   UNL A   1      29.036  26.503  24.007  1.00  0.00     0.047 A 
ATOM     16  C   UNL A   1      30.489  28.389  23.535  1.00  0.00     0.021 A 
ATOM     17  C   UNL A   1      29.237  27.787  23.498  1.00  0.00     0.043 A 
ATOM     18  Cl  UNL A   1      27.904  28.639  22.817  1.00  0.00    -0.084 Cl
BRANCH   9  19
ATOM     19  C   UNL A   1      31.948  23.036  26.096  1.00  0.00     0.227 C 
ATOM     20  O   UNL A   1      32.170  22.927  27.300  1.00  0.00    -0.285 OA
BRANCH  19  21
ATOM     21  C   UNL A   1      32.147  21.830  25.241  1.00  0.00     0.113 A 
ATOM     22  C   UNL A   1      32.464  20.603  25.819  1.00  0.00     0.036 A 
ATOM     23  N   UNL A   1      31.999  22.016  23.908  1.00  0.00    -0.252 NA
ATOM     24  C   UNL A   1      32.641  19.495  24.982  1.00  0.00    -0.041 A 
ATOM     25  C   UNL A   1      32.155  20.929  23.124  1.00  0.00     0.115 A 
ATOM     26  C   UNL A   1      32.490  19.663  23.597  1.00  0.00    -0.026 A 
ATOM     27  C   UNL A   1      33.040  18.166  25.573  1.00  0.00     0.036 C 
ATOM     28  C   UNL A   1      32.600  18.509  22.638  1.00  0.00     0.037 C 
ATOM     29  C   UNL A   1      32.815  16.990  24.623  1.00  0.00     0.005 C 
ATOM     30  C   UNL A   1      33.344  17.313  23.230  1.00  0.00     0.005 C 
ENDBRANCH  19  21
ENDBRANCH   9  19
ENDBRANCH   7   8
ENDBRANCH   5   7
ENDBRANCH   2   3
ENDBRANCH   1   2
BRANCH   1  31
ATOM     31  C   UNL A   1      36.914  20.610  25.087  1.00  0.00     0.023 C 
BRANCH  31  32
ATOM     32  C   UNL A   1      38.353  20.975  25.434  1.00  0.00     0.116 C 
BRANCH  32  33
ATOM     33  N   UNL A   1      39.255  19.834  25.454  1.00  0.00    -0.352 N 
ATOM     34  C   UNL A   1      40.554  19.760  25.906  1.00  0.00     0.251 C 
ATOM     35  H   UNL A   1      38.885  18.997  25.093  1.00  0.00     0.163 HD
ATOM     36  O   UNL A   1      41.206  18.732  25.750  1.00  0.00    -0.269 OA
BRANCH  34  37
ATOM     37  C   UNL A   1      41.185  20.941  26.537  1.00  0.00     0.039 A 
ATOM     38  C   UNL A   1      41.121  21.136  27.919  1.00  0.00     0.014 A 
ATOM     39  C   UNL A   1      41.815  21.890  25.726  1.00  0.00     0.014 A 
ATOM     40  C   UNL A   1      41.515  22.357  28.461  1.00  0.00     0.010 A 
ATOM     41  C   UNL A   1      42.283  23.083  26.286  1.00  0.00     0.010 A 
ATOM     42  C   UNL A   1      42.080  23.353  27.648  1.00  0.00    -0.014 A 
BRANCH  42  43
ATOM     43  C   UNL A   1      42.407  24.679  28.236  1.00  0.00     0.031 A 
ATOM     44  C   UNL A   1      43.829  25.035  28.588  1.00  0.00     0.074 A 
ATOM     45  C   UNL A   1      41.433  25.596  28.394  1.00  0.00     0.049 A 
ATOM     46  N   UNL A   1      44.306  26.156  29.071  1.00  0.00    -0.248 NA
ATOM     47  C   UNL A   1      44.850  23.997  28.374  1.00  0.00     0.031 C 
ATOM     48  C   UNL A   1      40.017  25.385  28.086  1.00  0.00     0.029 A 
ATOM     49  N   UNL A   1      41.489  26.896  28.829  1.00  0.00    -0.354 N 
ATOM     50  C   UNL A   1      45.671  25.951  29.236  1.00  0.00     0.074 A 
ATOM     51  C   UNL A   1      45.944  24.590  28.827  1.00  0.00     0.031 C 
ATOM     52  C   UNL A   1      39.348  26.529  28.297  1.00  0.00     0.029 A 
ATOM     53  C   UNL A   1      40.274  27.536  28.801  1.00  0.00     0.049 A 
ATOM     54  H   UNL A   1      42.320  27.328  29.131  1.00  0.00     0.167 HD
ATOM     55  C   UNL A   1      46.614  26.819  29.675  1.00  0.00     0.037 A 
ATOM     56  C   UNL A   1      39.942  28.792  29.152  1.00  0.00     0.037 A 
ATOM     57  C   UNL A   1      46.355  28.182  30.058  1.00  0.00     0.049 A 
ATOM     58  C   UNL A   1      41.001  29.721  29.670  1.00  0.00     0.074 A 
ATOM     59  C   UNL A   1      47.254  29.147  30.481  1.00  0.00     0.029 A 
ATOM     60  N   UNL A   1      45.102  28.773  30.070  1.00  0.00    -0.354 N 
ATOM     61  N   UNL A   1      42.289  29.518  29.796  1.00  0.00    -0.248 NA
ATOM     62  C   UNL A   1      40.553  31.052  30.104  1.00  0.00     0.031 C 
ATOM     63  C   UNL A   1      46.540  30.312  30.780  1.00  0.00     0.029 A 
ATOM     64  C   UNL A   1      45.201  30.083  30.510  1.00  0.00     0.049 A 
ATOM     65  H   UNL A   1      44.265  28.329  29.804  1.00  0.00     0.167 HD
ATOM     66  C   UNL A   1      42.808  30.696  30.314  1.00  0.00     0.074 A 
ATOM     67  C   UNL A   1      41.699  31.619  30.455  1.00  0.00     0.031 C 
ATOM     68  C   UNL A   1      44.089  30.988  30.649  1.00  0.00     0.037 A 
BRANCH  55  69
ATOM     69  C   UNL A   1      48.025  26.313  29.774  1.00  0.00     0.057 A 
ATOM     70  C   UNL A   1      48.505  25.768  30.972  1.00  0.00     0.134 A 
ATOM     71  C   UNL A   1      48.916  26.394  28.697  1.00  0.00     0.134 A 
ATOM     72  F   UNL A   1      47.703  25.668  32.043  1.00  0.00    -0.206 F 
ATOM     73  C   UNL A   1      49.820  25.321  31.094  1.00  0.00     0.040 A 
ATOM     74  C   UNL A   1      50.229  25.929  28.800  1.00  0.00     0.040 A 
ATOM     75  F   UNL A   1      48.515  26.894  27.518  1.00  0.00    -0.206 F 
ATOM     76  C   UNL A   1      50.686  25.395  30.004  1.00  0.00     0.006 A 
ENDBRANCH  55  69
BRANCH  56  77
ATOM     77  C   UNL A   1      38.535  29.246  29.029  1.00  0.00     0.057 A 
ATOM     78  C   UNL A   1      38.018  29.697  27.809  1.00  0.00     0.134 A 
ATOM     79  C   UNL A   1      37.672  29.226  30.130  1.00  0.00     0.134 A 
ATOM     80  F   UNL A   1      38.797  29.741  26.718  1.00  0.00    -0.206 F 
ATOM     81  C   UNL A   1      36.695  30.122  27.690  1.00  0.00     0.040 A 
ATOM     82  C   UNL A   1      36.340  29.626  30.020  1.00  0.00     0.040 A 
ATOM     83  F   UNL A   1      38.107  28.785  31.321  1.00  0.00    -0.206 F 
ATOM     84  C   UNL A   1      35.850  30.081  28.797  1.00  0.00     0.006 A 
ENDBRANCH  56  77
BRANCH  68  85
ATOM     85  C   UNL A   1      44.354  32.364  31.181  1.00  0.00     0.057 A 
ATOM     86  C   UNL A   1      44.650  33.423  30.313  1.00  0.00     0.134 A 
ATOM     87  C   UNL A   1      44.326  32.638  32.554  1.00  0.00     0.134 A 
ATOM     88  F   UNL A   1      44.696  33.224  28.987  1.00  0.00    -0.206 F 
ATOM     89  C   UNL A   1      44.905  34.707  30.793  1.00  0.00     0.040 A 
ATOM     90  C   UNL A   1      44.558  33.924  33.044  1.00  0.00     0.040 A 
ATOM     91  F   UNL A   1      44.031  31.670  33.434  1.00  0.00    -0.206 F 
ATOM     92  C   UNL A   1      44.853  34.963  32.162  1.00  0.00     0.006 A 
ENDBRANCH  68  85
ENDBRANCH  42  43
ENDBRANCH  34  37
ENDBRANCH  32  33
ENDBRANCH  31  32
ENDBRANCH   1  31
TORSDOF 14
ENDMDL
MODEL 3
REMARK VINA RESULT:     -13.0      1.335      1.776
REMARK SMILES O=C(Cc1c(C(=O)c2cc3c(cn2)CCCC3)[nH]c2cc(Cl)ccc12)NCCCCNC(=O)c1ccc(-c2c3nc(c(-c4c(F)cccc4F)c4ccc([nH]4)c(-c4c(F)cccc4F)c4nc(c(-c5c(F)cccc5F)c5ccc2[nH]5)C=C4)C=C3)cc1
REMARK SMILES IDX 28 1 27 2 26 3 1 4 2 5 3 7 4 8 5 9 25 10 18 11 19 12 24 13
REMARK SMILES IDX 20 15 23 16 21 17 22 18 6 19 7 20 8 21 9 22 13 23 10 24
REMARK SMILES IDX 12 25 11 26 17 27 14 28 16 29 15 30 29 31 30 32 31 33 32 34
REMARK SMILES IDX 33 36 34 37 35 38 87 39 36 40 86 41 37 42 38 43 39 44 80 45
REMARK SMILES IDX 40 46 85 47 79 48 81 49 41 50 84 51 78 52 77 53 42 55 68 56
REMARK SMILES IDX 51 57 67 58 52 59 55 60 66 61 82 62 53 63 54 64 65 66 83 67
REMARK SMILES IDX 56 68 43 69 44 70 49 71 45 72 46 73 48 74 50 75 47 76 69 77
REMARK SMILES IDX 70 78 75 79 71 80 72 81 74 82 76 83 73 84 57 85 58 86 63 87
REMARK SMILES IDX 59 88 60 89 62 90 64 91 61 92
REMARK H PARENT 26 6 18 14 31 35 81 54 55 65
REMARK Flexibility Score: inf
ROOT
ATOM      1  C   UNL A   1      32.016  29.912  25.725  1.00  0.00     0.023 C 
ENDROOT
BRANCH   1   2
ATOM      2  C   UNL A   1      31.820  28.580  26.445  1.00  0.00     0.116 C 
BRANCH   2   3
ATOM      3  N   UNL A   1      32.730  27.555  25.975  1.00  0.00    -0.356 N 
ATOM      4  O   UNL A   1      31.572  25.784  26.865  1.00  0.00    -0.275 OA
ATOM      5  C   UNL A   1      32.516  26.211  26.203  1.00  0.00     0.224 C 
ATOM      6  H   UNL A   1      33.532  27.829  25.474  1.00  0.00     0.163 HD
BRANCH   5   7
ATOM      7  C   UNL A   1      33.559  25.291  25.592  1.00  0.00     0.138 C 
BRANCH   7   8
ATOM      8  C   UNL A   1      33.049  24.394  24.487  1.00  0.00    -0.002 A 
ATOM      9  C   UNL A   1      32.591  24.822  23.235  1.00  0.00     0.093 A 
ATOM     10  C   UNL A   1      32.992  22.955  24.494  1.00  0.00     0.004 A 
ATOM     11  N   UNL A   1      32.305  23.686  22.509  1.00  0.00    -0.351 N 
ATOM     12  C   UNL A   1      32.485  22.553  23.261  1.00  0.00     0.048 A 
ATOM     13  C   UNL A   1      33.324  21.949  25.430  1.00  0.00     0.012 A 
ATOM     14  H   UNL A   1      32.009  23.688  21.569  1.00  0.00     0.167 HD
ATOM     15  C   UNL A   1      32.261  21.211  22.924  1.00  0.00     0.047 A 
ATOM     16  C   UNL A   1      33.101  20.602  25.118  1.00  0.00     0.021 A 
ATOM     17  C   UNL A   1      32.571  20.246  23.884  1.00  0.00     0.043 A 
ATOM     18  Cl  UNL A   1      32.297  18.584  23.524  1.00  0.00    -0.084 Cl
BRANCH   9  19
ATOM     19  C   UNL A   1      32.477  26.188  22.721  1.00  0.00     0.227 C 
ATOM     20  O   UNL A   1      33.412  26.789  22.196  1.00  0.00    -0.285 OA
BRANCH  19  21
ATOM     21  C   UNL A   1      31.178  26.909  22.860  1.00  0.00     0.113 A 
ATOM     22  C   UNL A   1      31.026  28.191  22.338  1.00  0.00     0.036 A 
ATOM     23  N   UNL A   1      30.195  26.241  23.510  1.00  0.00    -0.252 NA
ATOM     24  C   UNL A   1      29.791  28.832  22.488  1.00  0.00    -0.041 A 
ATOM     25  C   UNL A   1      29.008  26.872  23.625  1.00  0.00     0.115 A 
ATOM     26  C   UNL A   1      28.756  28.159  23.156  1.00  0.00    -0.026 A 
ATOM     27  C   UNL A   1      29.613  30.242  21.983  1.00  0.00     0.036 C 
ATOM     28  C   UNL A   1      27.381  28.754  23.300  1.00  0.00     0.037 C 
ATOM     29  C   UNL A   1      28.147  30.659  21.858  1.00  0.00     0.005 C 
ATOM     30  C   UNL A   1      27.367  30.269  23.109  1.00  0.00     0.005 C 
ENDBRANCH  19  21
ENDBRANCH   9  19
ENDBRANCH   7   8
ENDBRANCH   5   7
ENDBRANCH   2   3
ENDBRANCH   1   2
BRANCH   1  31
ATOM     31  C   UNL A   1      31.662  31.153  26.546  1.00  0.00     0.023 C 
BRANCH  31  32
ATOM     32  C   UNL A   1      32.846  31.975  27.044  1.00  0.00     0.116 C 
BRANCH  32  33
ATOM     33  N   UNL A   1      32.508  33.356  27.353  1.00  0.00    -0.352 N 
ATOM     34  C   UNL A   1      33.088  34.210  28.264  1.00  0.00     0.251 C 
ATOM     35  H   UNL A   1      31.760  33.733  26.838  1.00  0.00     0.163 HD
ATOM     36  O   UNL A   1      32.605  35.321  28.467  1.00  0.00    -0.269 OA
BRANCH  34  37
ATOM     37  C   UNL A   1      34.271  33.772  29.040  1.00  0.00     0.039 A 
ATOM     38  C   UNL A   1      35.551  34.223  28.713  1.00  0.00     0.014 A 
ATOM     39  C   UNL A   1      34.097  32.860  30.086  1.00  0.00     0.014 A 
ATOM     40  C   UNL A   1      36.663  33.625  29.301  1.00  0.00     0.010 A 
ATOM     41  C   UNL A   1      35.214  32.320  30.730  1.00  0.00     0.010 A 
ATOM     42  C   UNL A   1      36.508  32.651  30.300  1.00  0.00    -0.014 A 
BRANCH  42  43
ATOM     43  C   UNL A   1      37.709  31.963  30.845  1.00  0.00     0.031 A 
ATOM     44  C   UNL A   1      38.192  32.252  32.244  1.00  0.00     0.074 A 
ATOM     45  C   UNL A   1      38.332  31.026  30.105  1.00  0.00     0.049 A 
ATOM     46  N   UNL A   1      39.194  31.719  32.899  1.00  0.00    -0.248 NA
ATOM     47  C   UNL A   1      37.456  33.272  33.007  1.00  0.00     0.031 C 
ATOM     48  C   UNL A   1      37.964  30.645  28.741  1.00  0.00     0.029 A 
ATOM     49  N   UNL A   1      39.391  30.206  30.406  1.00  0.00    -0.354 N 
ATOM     50  C   UNL A   1      39.221  32.352  34.136  1.00  0.00     0.074 A 
ATOM     51  C   UNL A   1      38.151  33.327  34.133  1.00  0.00     0.031 C 
ATOM     52  C   UNL A   1      38.752  29.635  28.340  1.00  0.00     0.029 A 
ATOM     53  C   UNL A   1      39.710  29.331  29.397  1.00  0.00     0.049 A 
ATOM     54  H   UNL A   1      39.874  30.241  31.263  1.00  0.00     0.167 HD
ATOM     55  C   UNL A   1      40.051  32.133  35.185  1.00  0.00     0.037 A 
ATOM     56  C   UNL A   1      40.675  28.396  29.326  1.00  0.00     0.037 A 
ATOM     57  C   UNL A   1      41.100  31.148  35.206  1.00  0.00     0.049 A 
ATOM     58  C   UNL A   1      41.604  28.201  30.488  1.00  0.00     0.074 A 
ATOM     59  C   UNL A   1      41.967  30.830  36.238  1.00  0.00     0.029 A 
ATOM     60  N   UNL A   1      41.427  30.323  34.142  1.00  0.00    -0.354 N 
ATOM     61  N   UNL A   1      41.599  28.791  31.658  1.00  0.00    -0.248 NA
ATOM     62  C   UNL A   1      42.680  27.215  30.314  1.00  0.00     0.031 C 
ATOM     63  C   UNL A   1      42.841  29.835  35.787  1.00  0.00     0.029 A 
ATOM     64  C   UNL A   1      42.495  29.509  34.486  1.00  0.00     0.049 A 
ATOM     65  H   UNL A   1      40.969  30.315  33.271  1.00  0.00     0.167 HD
ATOM     66  C   UNL A   1      42.662  28.242  32.363  1.00  0.00     0.074 A 
ATOM     67  C   UNL A   1      43.274  27.253  31.498  1.00  0.00     0.031 C 
ATOM     68  C   UNL A   1      43.096  28.534  33.613  1.00  0.00     0.037 A 
BRANCH  55  69
ATOM     69  C   UNL A   1      39.862  32.990  36.404  1.00  0.00     0.057 A 
ATOM     70  C   UNL A   1      38.910  32.649  37.374  1.00  0.00     0.134 A 
ATOM     71  C   UNL A   1      40.596  34.165  36.603  1.00  0.00     0.134 A 
ATOM     72  F   UNL A   1      38.168  31.539  37.240  1.00  0.00    -0.206 F 
ATOM     73  C   UNL A   1      38.697  33.448  38.498  1.00  0.00     0.040 A 
ATOM     74  C   UNL A   1      40.407  34.961  37.736  1.00  0.00     0.040 A 
ATOM     75  F   UNL A   1      41.532  34.540  35.718  1.00  0.00    -0.206 F 
ATOM     76  C   UNL A   1      39.451  34.605  38.685  1.00  0.00     0.006 A 
ENDBRANCH  55  69
BRANCH  56  77
ATOM     77  C   UNL A   1      40.817  27.571  28.101  1.00  0.00     0.057 A 
ATOM     78  C   UNL A   1      40.182  26.329  27.981  1.00  0.00     0.134 A 
ATOM     79  C   UNL A   1      41.583  28.014  27.017  1.00  0.00     0.134 A 
ATOM     80  F   UNL A   1      39.436  25.850  28.988  1.00  0.00    -0.206 F 
ATOM     81  C   UNL A   1      40.311  25.552  26.831  1.00  0.00     0.040 A 
ATOM     82  C   UNL A   1      41.701  27.258  25.851  1.00  0.00     0.040 A 
ATOM     83  F   UNL A   1      42.198  29.205  27.068  1.00  0.00    -0.206 F 
ATOM     84  C   UNL A   1      41.067  26.020  25.758  1.00  0.00     0.006 A 
ENDBRANCH  56  77
BRANCH  68  85
ATOM     85  C   UNL A   1      44.277  27.760  34.119  1.00  0.00     0.057 A 
ATOM     86  C   UNL A   1      45.574  28.273  33.998  1.00  0.00     0.134 A 
ATOM     87  C   UNL A   1      44.128  26.502  34.717  1.00  0.00     0.134 A 
ATOM     88  F   UNL A   1      45.783  29.471  33.431  1.00  0.00    -0.206 F 
ATOM     89  C   UNL A   1      46.683  27.562  34.458  1.00  0.00     0.040 A 
ATOM     90  C   UNL A   1      45.229  25.792  35.200  1.00  0.00     0.040 A 
ATOM     91  F   UNL A   1      42.910  25.965  34.877  1.00  0.00    -0.206 F 
ATOM     92  C   UNL A   1      46.511  26.321  35.067  1.00  0.00     0.006 A 
ENDBRANCH  68  85
ENDBRANCH  42  43
ENDBRANCH  34  37
ENDBRANCH  32  33
ENDBRANCH  31  32
ENDBRANCH   1  31
TORSDOF 14
ENDMDL
